REMARK  15 active torsions:
REMARK  status: ('A' for Active; 'I' for Inactive)
REMARK    1  A    between atoms: C2_2  and  C3_3 
REMARK    2  A    between atoms: C3_3  and  C4_4 
REMARK    3  A    between atoms: C4_4  and  N1_5 
REMARK    4  A    between atoms: N1_5  and  C5_7 
REMARK    5  A    between atoms: C6_10  and  N3_11 
REMARK    6  A    between atoms: N3_11  and  C7_13 
REMARK    7  A    between atoms: C7_13  and  C8_14 
REMARK    8  A    between atoms: C8_14  and  C9_15 
REMARK    9  A    between atoms: C9_15  and  N4_16 
REMARK   10  A    between atoms: C10_22  and  N6_23 
REMARK   11  A    between atoms: N6_23  and  C11_25 
REMARK   12  A    between atoms: C11_25  and  C12_26 
REMARK   13  A    between atoms: C11_25  and  C13_29 
REMARK   14  A    between atoms: C12_26  and  O1_27 
REMARK   15  A    between atoms: C13_29  and  O2_30 
ROOT
HETATM    1  C5  UNL     1       0.654  -0.853  -0.355  1.00  0.00     0.707 A 
HETATM    2  N2  UNL     1       0.063   0.348  -0.276  1.00  0.00    -0.022 N 
ATOM      3  H2  UNL     1       0.631   1.187  -0.164  1.00  0.00     0.203 HD
HETATM    4  C6  UNL     1      -1.271   0.450  -0.344  1.00  0.00     0.707 A 
HETATM    5  N5  UNL     1      -2.022  -0.648  -0.492  1.00  0.00    -0.022 N 
ATOM      6  H5  UNL     1      -3.036  -0.555  -0.543  1.00  0.00     0.203 HD
HETATM    7  C10 UNL     1      -1.466  -1.878  -0.576  1.00  0.00     0.707 A 
HETATM    8  N7  UNL     1      -0.127  -1.954  -0.505  1.00  0.00    -0.022 N 
ATOM      9  H7  UNL     1       0.318  -2.870  -0.566  1.00  0.00     0.203 HD
ENDROOT
BRANCH   4  10
HETATM   10  N3  UNL     1      -1.812   1.600  -0.267  1.00  0.00    -0.225 N 
ATOM     11  H3  UNL     1      -2.827   1.686  -0.319  1.00  0.00     0.177 HD
BRANCH  10  12
HETATM   12  C7  UNL     1      -1.008   2.770  -0.109  1.00  0.00     0.139 C 
BRANCH  12  13
HETATM   13  C8  UNL     1      -1.932   3.973  -0.037  1.00  0.00     0.047 C 
BRANCH  13  14
HETATM   14  C9  UNL     1      -1.044   5.198   0.131  1.00  0.00     0.231 C 
BRANCH  14  15
HETATM   15  N4  UNL     1      -1.884   6.399   0.208  1.00  0.00    -0.079 N 
ATOM     16  H43 UNL     1      -2.512   6.483  -0.591  1.00  0.00     0.274 HD
ATOM     17  H42 UNL     1      -2.591   6.330   0.940  1.00  0.00     0.274 HD
ATOM     18  H41 UNL     1      -1.289   7.220   0.321  1.00  0.00     0.274 HD
ENDBRANCH  14  15
ENDBRANCH  13  14
ENDBRANCH  12  13
ENDBRANCH  10  12
ENDBRANCH   4  10
BRANCH   1  19
HETATM   19  N1  UNL     1       1.933  -0.966  -0.291  1.00  0.00    -0.225 N 
ATOM     20  H1  UNL     1       2.331  -1.903  -0.356  1.00  0.00     0.177 HD
BRANCH  19  21
HETATM   21  C4  UNL     1       2.834   0.129  -0.135  1.00  0.00     0.138 C 
BRANCH  21  22
HETATM   22  C3  UNL     1       3.020   0.527   1.313  1.00  0.00     0.020 C 
BRANCH  22  23
HETATM   23  C2  UNL     1       3.980   1.688   1.422  1.00  0.00    -0.003 C 
HETATM   24  C1  UNL     1       5.312   1.304   0.854  1.00  0.00     0.005 C 
ENDBRANCH  22  23
ENDBRANCH  21  22
ENDBRANCH  19  21
ENDBRANCH   1  19
BRANCH   7  25
HETATM   25  N6  UNL     1      -2.220  -2.932  -0.719  1.00  0.00    -0.216 N 
ATOM     26  H6  UNL     1      -3.229  -2.792  -0.764  1.00  0.00     0.178 HD
BRANCH  25  27
HETATM   27  C11 UNL     1      -1.729  -4.271  -0.817  1.00  0.00     0.146 C 
BRANCH  27  28
HETATM   28  C12 UNL     1      -2.709  -5.144  -1.576  1.00  0.00     0.192 C 
BRANCH  28  29
HETATM   29  O1  UNL     1      -3.944  -5.216  -0.987  1.00  0.00    -0.399 OA
ATOM     30  H1  UNL     1      -4.558  -5.763  -1.463  1.00  0.00     0.209 HD
ENDBRANCH  28  29
ENDBRANCH  27  28
BRANCH  27  31
HETATM   31  C13 UNL     1      -1.442  -4.834   0.557  1.00  0.00     0.192 C 
BRANCH  31  32
HETATM   32  O2  UNL     1      -2.647  -4.820   1.284  1.00  0.00    -0.399 OA
ATOM     33  H2  UNL     1      -2.467  -5.174   2.147  1.00  0.00     0.209 HD
ENDBRANCH  31  32
ENDBRANCH  27  31
ENDBRANCH  25  27
ENDBRANCH   7  25
TORSDOF 15
