REMARK  1 active torsions:
REMARK  status: ('A' for Active; 'I' for Inactive)
REMARK    1  A    between atoms: O1_2  and  N1_3 
ROOT
HETATM    1  N1  UNL     1       0.767  -0.700   0.176  1.00  0.00    -0.088 N 
HETATM    2  N2  UNL     1       0.285  -0.534  -1.116  1.00  0.00     0.026 NA
HETATM    3  N3  UNL     1      -0.964   0.116  -1.111  1.00  0.00    -0.114 N 
ATOM      4  H3  UNL     1      -1.172   0.760  -1.874  1.00  0.00     0.203 HD
HETATM    5  C2  UNL     1      -1.941  -0.068  -0.120  1.00  0.00     0.693 C 
HETATM    6  N4  UNL     1      -3.182   0.221  -0.270  1.00  0.00    -0.233 N 
ATOM      7  H41 UNL     1      -3.892   0.087   0.450  1.00  0.00     0.174 HD
ATOM      8  H42 UNL     1      -3.491   0.615  -1.159  1.00  0.00     0.174 HD
HETATM    9  N5  UNL     1      -1.508  -0.619   1.124  1.00  0.00    -0.138 N 
ATOM     10  H5  UNL     1      -2.162  -0.781   1.890  1.00  0.00     0.189 HD
HETATM   11  C3  UNL     1      -0.128  -0.933   1.251  1.00  0.00     0.379 C 
HETATM   12  O2  UNL     1       0.358  -1.424   2.313  1.00  0.00    -0.242 OA
ENDROOT
BRANCH   1  13
HETATM   13  O1  UNL     1       2.125  -0.633   0.398  1.00  0.00    -0.261 OA
HETATM   14  C1  UNL     1       2.470   0.700   0.100  1.00  0.00     0.240 C 
ENDBRANCH   1  13
TORSDOF 1
