REMARK  9 active torsions:
REMARK  status: ('A' for Active; 'I' for Inactive)
REMARK    1  A    between atoms: S1_2  and  C2_4 
REMARK    2  A    between atoms: C5_8  and  C6_9 
REMARK    3  A    between atoms: C6_9  and  C7_10 
REMARK    4  A    between atoms: C7_10  and  N2_13 
REMARK       I    between atoms: N2_13  and  C9_15 
REMARK    5  A    between atoms: C9_15  and  C10_17 
REMARK    6  A    between atoms: C18_28  and  C19_29 
REMARK       I    between atoms: N4_33  and  C22_34 
REMARK    7  A    between atoms: C22_34  and  O5_36 
REMARK    8  A    between atoms: O5_36  and  C23_37 
REMARK    9  A    between atoms: C23_37  and  C24_38 
ROOT
HETATM    1  C7  UNL     1      -3.135   0.583  -0.341  1.00  0.00     0.196 C 
HETATM    2  C8  UNL     1      -2.760   0.784  -1.731  1.00  0.00     0.085 C 
HETATM    3  N1  UNL     1      -2.472   0.931  -2.855  1.00  0.00    -0.195 NA
ENDROOT
BRANCH   1   4
HETATM    4  C6  UNL     1      -2.215   1.346   0.580  1.00  0.00     0.081 C 
BRANCH   4   5
HETATM    5  C5  UNL     1      -0.802   0.987   0.498  1.00  0.00    -0.020 A 
HETATM    6  C4  UNL     1      -0.268  -0.168   1.040  1.00  0.00     0.093 A 
HETATM    7  O2  UNL     1      -0.859  -1.109   1.690  1.00  0.00    -0.320 OA
HETATM    8  C27 UNL     1       1.090  -0.491   0.955  1.00  0.00     0.029 A 
HETATM    9  C3  UNL     1      -0.048  -2.040   2.062  1.00  0.00     0.164 A 
HETATM   10  C2  UNL     1       1.227  -1.680   1.610  1.00  0.00     0.067 A 
HETATM   11  C18 UNL     1       1.969   0.356   0.304  1.00  0.00    -0.004 A 
HETATM   12  C17 UNL     1       1.384   1.534  -0.236  1.00  0.00     0.012 A 
HETATM   13  C16 UNL     1       0.054   1.840  -0.146  1.00  0.00     0.011 A 
BRANCH  10  14
HETATM   14  S1  UNL     1       2.682  -2.571   1.910  1.00  0.00     0.048 S 
HETATM   15  C1  UNL     1       3.145  -2.340   3.612  1.00  0.00     0.133 C 
HETATM   16  O1  UNL     1       2.515  -4.205   1.559  1.00  0.00    -0.253 OA
ENDBRANCH  10  14
BRANCH  11  17
HETATM   17  C19 UNL     1       3.365   0.029   0.055  1.00  0.00     0.134 C 
HETATM   18  F1  UNL     1       3.760   1.071  -0.841  1.00  0.00    -0.237 F 
HETATM   19  C20 UNL     1       3.664  -1.124  -0.840  1.00  0.00     0.069 C 
HETATM   20  C21 UNL     1       5.094  -1.572  -0.862  1.00  0.00     0.131 C 
HETATM   21  N4  UNL     1       5.923  -0.524  -0.346  1.00  0.00    -0.328 N 
HETATM   22  C22 UNL     1       6.911   0.180  -1.087  1.00  0.00     0.362 C 
HETATM   23  C25 UNL     1       5.671  -0.215   1.055  1.00  0.00     0.131 C 
HETATM   24  O4  UNL     1       7.581   1.077  -0.546  1.00  0.00    -0.238 OA
HETATM   25  C26 UNL     1       4.316   0.389   1.153  1.00  0.00     0.069 C 
BRANCH  22  26
HETATM   26  O5  UNL     1       7.121  -0.135  -2.401  1.00  0.00    -0.302 OA
BRANCH  26  27
HETATM   27  C23 UNL     1       8.049   0.463  -3.245  1.00  0.00     0.212 C 
BRANCH  27  28
HETATM   28  C24 UNL     1       9.482   0.331  -2.817  1.00  0.00     0.249 C 
HETATM   29  F2  UNL     1      10.308   0.966  -3.743  1.00  0.00    -0.253 F 
ENDBRANCH  27  28
ENDBRANCH  26  27
ENDBRANCH  22  26
ENDBRANCH  11  17
ENDBRANCH   4   5
ENDBRANCH   1   4
BRANCH   1  30
HETATM   30  N2  UNL     1      -4.448   1.171  -0.162  1.00  0.00    -0.342 N 
HETATM   31  C9  UNL     1      -5.528   0.411   0.376  1.00  0.00     0.250 C 
HETATM   32  O3  UNL     1      -5.315  -0.772   0.689  1.00  0.00    -0.271 OA
ATOM     33  H2  UNL     1      -4.602   2.144  -0.425  1.00  0.00     0.163 HD
BRANCH  31  34
HETATM   34  C10 UNL     1      -6.879   1.001   0.565  1.00  0.00     0.281 C 
HETATM   35  N3  UNL     1      -7.784   0.033   1.157  1.00  0.00    -0.058 N 
HETATM   36  C11 UNL     1      -8.916  -0.062   0.288  1.00  0.00     0.187 C 
ATOM     37  H32 UNL     1      -7.343  -0.868   1.342  1.00  0.00     0.278 HD
ATOM     38  H31 UNL     1      -8.035   0.255   2.121  1.00  0.00     0.278 HD
HETATM   39  C12 UNL     1      -8.451  -0.770  -0.967  1.00  0.00     0.033 C 
HETATM   40  C15 UNL     1      -8.997   1.377  -0.258  1.00  0.00     0.040 C 
HETATM   41  C13 UNL     1      -7.527   0.219  -1.653  1.00  0.00     0.009 C 
HETATM   42  C14 UNL     1      -7.534   1.396  -0.743  1.00  0.00     0.028 C 
ENDBRANCH  31  34
ENDBRANCH   1  30
TORSDOF 9
