REMARK  9 active torsions:
REMARK  status: ('A' for Active; 'I' for Inactive)
REMARK    1  A    between atoms: C2_2  and  C3_3 
REMARK    2  A    between atoms: C2_2  and  C9_23 
REMARK    3  A    between atoms: C5_6  and  N1_7 
REMARK    4  A    between atoms: C5_6  and  N2_11 
REMARK    5  A    between atoms: C9_23  and  O6_24 
REMARK    6  A    between atoms: C9_23  and  C10_26 
REMARK    7  A    between atoms: C10_26  and  N5_27 
REMARK    8  A    between atoms: C10_26  and  O7_31 
REMARK    9  A    between atoms: C10_26  and  O8_33 
ROOT
HETATM    1  C3  UNL     1      -0.518  -0.515   0.109  1.00  0.00     0.159 C 
HETATM    2  C4  UNL     1      -0.393   0.754   0.873  1.00  0.00     0.208 C 
HETATM    3  O1  UNL     1       0.997   0.974   1.050  1.00  0.00    -0.313 OA
HETATM    4  C5  UNL     1       1.608  -0.159   0.536  1.00  0.00     0.439 C 
HETATM    5  O5  UNL     1       0.768  -0.579  -0.486  1.00  0.00    -0.307 OA
ENDROOT
BRANCH   4   6
HETATM    6  N1  UNL     1       1.704  -1.216   1.542  1.00  0.00     0.000 N 
ATOM      7  H13 UNL     1       2.174  -0.888   2.386  1.00  0.00     0.283 HD
ATOM      8  H12 UNL     1       0.792  -1.433   1.945  1.00  0.00     0.283 HD
ATOM      9  H11 UNL     1       2.154  -2.050   1.164  1.00  0.00     0.283 HD
ENDBRANCH   4   6
BRANCH   4  10
HETATM   10  N2  UNL     1       2.913   0.206   0.096  1.00  0.00    -0.167 N 
HETATM   11  C6  UNL     1       3.638   1.049   0.864  1.00  0.00     0.340 A 
HETATM   12  O2  UNL     1       3.170   1.498   1.939  1.00  0.00    -0.246 OA
HETATM   13  N3  UNL     1       4.878   1.442   0.519  1.00  0.00    -0.260 N 
HETATM   14  C7  UNL     1       5.435   1.000  -0.615  1.00  0.00     0.332 A 
ATOM     15  H3  UNL     1       5.396   2.079   1.124  1.00  0.00     0.175 HD
HETATM   16  O3  UNL     1       6.596   1.342  -0.980  1.00  0.00    -0.246 OA
HETATM   17  N4  UNL     1       4.738   0.160  -1.401  1.00  0.00    -0.260 N 
HETATM   18  C8  UNL     1       3.499  -0.221  -1.037  1.00  0.00     0.340 A 
ATOM     19  H4  UNL     1       5.146  -0.187  -2.269  1.00  0.00     0.175 HD
HETATM   20  O4  UNL     1       2.843  -0.999  -1.756  1.00  0.00    -0.246 OA
ENDBRANCH   4  10
BRANCH   1  21
HETATM   21  C2  UNL     1      -1.521  -0.567  -0.981  1.00  0.00     0.049 C 
HETATM   22  C1  UNL     1      -1.370  -2.007  -1.564  1.00  0.00     0.015 C 
BRANCH  21  23
HETATM   23  C9  UNL     1      -2.961  -0.552  -0.588  1.00  0.00     0.217 C 
BRANCH  23  24
HETATM   24  O6  UNL     1      -3.253  -1.516   0.351  1.00  0.00    -0.388 OA
ATOM     25  H6  UNL     1      -4.169  -1.506   0.601  1.00  0.00     0.210 HD
ENDBRANCH  23  24
BRANCH  23  26
HETATM   26  C10 UNL     1      -3.592   0.731  -0.233  1.00  0.00     0.358 C 
BRANCH  26  27
HETATM   27  N5  UNL     1      -3.310   1.793  -1.210  1.00  0.00    -0.019 N 
ATOM     28  H53 UNL     1      -2.306   1.905  -1.348  1.00  0.00     0.281 HD
ATOM     29  H52 UNL     1      -3.575   1.503  -2.151  1.00  0.00     0.281 HD
ATOM     30  H51 UNL     1      -3.747   2.681  -0.964  1.00  0.00     0.281 HD
ENDBRANCH  26  27
BRANCH  26  31
HETATM   31  O7  UNL     1      -3.472   1.145   1.070  1.00  0.00    -0.342 OA
ATOM     32  H7  UNL     1      -3.879   1.972   1.299  1.00  0.00     0.215 HD
ENDBRANCH  26  31
BRANCH  26  33
HETATM   33  O8  UNL     1      -4.993   0.527  -0.407  1.00  0.00    -0.342 OA
ATOM     34  H8  UNL     1      -5.400   1.354  -0.178  1.00  0.00     0.215 HD
ENDBRANCH  26  33
ENDBRANCH  23  26
ENDBRANCH  21  23
ENDBRANCH   1  21
TORSDOF 9
