REMARK  3 active torsions:
REMARK  status: ('A' for Active; 'I' for Inactive)
REMARK    1  A    between atoms: C2_2  and  N1_3 
REMARK    2  A    between atoms: C14_15  and  C16_17 
REMARK    3  A    between atoms: C16_17  and  O1_18 
ROOT
HETATM    1  N1  UNL     1       1.738   1.359   0.096  1.00  0.00    -0.384 N 
HETATM    2  C3  UNL     1       2.968   0.727  -0.382  1.00  0.00     0.123 C 
HETATM    3  C4  UNL     1       3.105  -0.545   0.380  1.00  0.00     0.033 C 
HETATM    4  C5  UNL     1       1.927  -1.482   0.217  1.00  0.00    -0.013 C 
HETATM    5  C6  UNL     1       2.194  -2.245  -1.086  1.00  0.00     0.020 C 
HETATM    6  C7  UNL     1       2.050  -2.452   1.364  1.00  0.00     0.020 C 
HETATM    7  C8  UNL     1       0.642  -0.749   0.169  1.00  0.00     0.019 C 
HETATM    8  C9  UNL     1       0.542   0.582   0.113  1.00  0.00     0.018 C 
HETATM    9  C10 UNL     1      -0.716   1.319   0.075  1.00  0.00     0.067 C 
HETATM   10  C11 UNL     1      -1.988   0.571   0.103  1.00  0.00    -0.026 C 
HETATM   11  C12 UNL     1      -2.936   1.205  -0.934  1.00  0.00     0.016 C 
HETATM   12  C13 UNL     1      -2.671   0.908   1.440  1.00  0.00     0.016 C 
HETATM   13  C14 UNL     1      -1.948  -0.890  -0.069  1.00  0.00     0.050 C 
HETATM   14  C15 UNL     1      -2.278  -1.322  -1.507  1.00  0.00     0.027 C 
HETATM   15  C17 UNL     1      -0.593  -1.490   0.166  1.00  0.00     0.169 C 
HETATM   16  O2  UNL     1      -0.612  -2.732   0.365  1.00  0.00    -0.292 OA
ENDROOT
BRANCH  13  17
HETATM   17  C16 UNL     1      -2.905  -1.669   0.809  1.00  0.00     0.182 C 
BRANCH  17  18
HETATM   18  O1  UNL     1      -4.230  -1.375   0.641  1.00  0.00    -0.400 OA
ATOM     19  H1  UNL     1      -4.830  -1.864   1.192  1.00  0.00     0.209 HD
ENDBRANCH  17  18
ENDBRANCH  13  17
BRANCH   1  20
HETATM   20  C2  UNL     1       1.851   2.730   0.505  1.00  0.00     0.118 C 
HETATM   21  C1  UNL     1       2.116   3.566  -0.751  1.00  0.00     0.026 C 
ENDBRANCH   1  20
TORSDOF 3
