REMARK  4 active torsions:
REMARK  status: ('A' for Active; 'I' for Inactive)
REMARK    1  A    between atoms: C2_2  and  C4_4 
REMARK    2  A    between atoms: C4_4  and  C5_5 
REMARK    3  A    between atoms: C5_5  and  N1_6 
REMARK    4  A    between atoms: N1_6  and  C6_8 
ROOT
HETATM    1  C6  UNL     1       0.823  -1.910   0.148  1.00  0.00     0.145 A 
HETATM    2  N2  UNL     1       0.398  -0.867  -0.563  1.00  0.00    -0.339 N 
ATOM      3  H2  UNL     1       1.062  -0.246  -1.025  1.00  0.00     0.168 HD
HETATM    4  C7  UNL     1      -0.888  -0.656  -0.656  1.00  0.00     0.029 A 
HETATM    5  C8  UNL     1      -1.730  -1.517  -0.019  1.00  0.00     0.031 A 
HETATM    6  S1  UNL     1      -0.647  -2.615   0.702  1.00  0.00    -0.055 SA
HETATM    7  C9  UNL     1      -3.222  -1.299  -0.109  1.00  0.00     0.117 C 
HETATM    8  C10 UNL     1      -3.835  -2.120   1.011  1.00  0.00     0.038 C 
HETATM    9  N3  UNL     1      -3.517   0.074   0.130  1.00  0.00    -0.400 N 
HETATM   10  C11 UNL     1      -4.891   0.389  -0.050  1.00  0.00     0.144 C 
HETATM   11  C12 UNL     1      -2.591   1.021  -0.376  1.00  0.00     0.026 C 
HETATM   12  C13 UNL     1      -3.234   2.229  -1.022  1.00  0.00     0.038 C 
HETATM   13  C14 UNL     1      -1.791   1.559   0.819  1.00  0.00     0.038 C 
HETATM   14  C15 UNL     1      -1.617   0.449  -1.398  1.00  0.00     0.088 C 
ENDROOT
BRANCH   1  15
HETATM   15  N1  UNL     1       2.053  -2.315   0.379  1.00  0.00    -0.370 N 
ATOM     16  H1  UNL     1       2.242  -3.140   0.948  1.00  0.00     0.161 HD
BRANCH  15  17
HETATM   17  C5  UNL     1       3.124  -1.546  -0.204  1.00  0.00     0.122 C 
BRANCH  17  18
HETATM   18  C4  UNL     1       3.463  -0.397   0.711  1.00  0.00     0.023 C 
BRANCH  18  19
HETATM   19  C2  UNL     1       4.585   0.455   0.154  1.00  0.00    -0.021 C 
HETATM   20  C1  UNL     1       5.848  -0.329  -0.043  1.00  0.00     0.009 C 
HETATM   21  C3  UNL     1       4.899   1.615   1.073  1.00  0.00     0.009 C 
ENDBRANCH  18  19
ENDBRANCH  17  18
ENDBRANCH  15  17
ENDBRANCH   1  15
TORSDOF 4
