REMARK  4 active torsions:
REMARK  status: ('A' for Active; 'I' for Inactive)
REMARK       I    between atoms: C1_4  and  N3_6 
REMARK    1  A    between atoms: N3_6  and  S1_8 
REMARK    2  A    between atoms: S1_8  and  C2_11 
REMARK    3  A    between atoms: C5_14  and  N4_15 
REMARK       I    between atoms: C6_17  and  N6_19 
REMARK    4  A    between atoms: N6_19  and  N7_21 
ROOT
HETATM    1  C2  UNL     1       1.086  -0.391   0.740  1.00  0.00     0.080 A 
HETATM    2  C3  UNL     1       0.602  -0.382  -0.539  1.00  0.00     0.027 A 
HETATM    3  C4  UNL     1      -0.712  -0.702  -0.829  1.00  0.00     0.031 A 
HETATM    4  C5  UNL     1      -1.608  -1.059   0.187  1.00  0.00     0.034 A 
HETATM    5  C7  UNL     1      -1.097  -1.060   1.488  1.00  0.00     0.031 A 
HETATM    6  C8  UNL     1       0.203  -0.738   1.759  1.00  0.00     0.027 A 
ENDROOT
BRANCH   1   7
HETATM    7  S1  UNL     1       2.711   0.029   1.204  1.00  0.00     0.265 S 
HETATM    8  O1  UNL     1       2.887   1.483   1.479  1.00  0.00    -0.200 OA
HETATM    9  O2  UNL     1       3.039  -0.790   2.454  1.00  0.00    -0.200 OA
BRANCH   7  10
HETATM   10  N3  UNL     1       3.884  -0.491   0.052  1.00  0.00    -0.254 N 
HETATM   11  C1  UNL     1       4.675   0.481  -0.607  1.00  0.00     0.195 C 
HETATM   12  N1  UNL     1       5.722   1.024  -0.026  1.00  0.00    -0.373 N 
HETATM   13  N2  UNL     1       4.397   0.897  -1.906  1.00  0.00    -0.063 NA
ATOM     14  H12 UNL     1       6.292   1.724  -0.501  1.00  0.00     0.158 HD
ATOM     15  H11 UNL     1       5.926   0.719   0.926  1.00  0.00     0.158 HD
ATOM     16  H3  UNL     1       4.006  -1.483  -0.151  1.00  0.00     0.181 HD
ENDBRANCH   7  10
ENDBRANCH   1   7
BRANCH   4  17
HETATM   17  N4  UNL     1      -2.930  -1.345  -0.136  1.00  0.00    -0.329 N 
HETATM   18  C6  UNL     1      -3.937  -0.582  -0.201  1.00  0.00     0.212 C 
HETATM   19  N5  UNL     1      -5.242  -0.995  -0.552  1.00  0.00    -0.062 NA
HETATM   20  N6  UNL     1      -3.782   0.772   0.223  1.00  0.00    -0.213 N 
ATOM     21  H6  UNL     1      -3.460   0.943   1.176  1.00  0.00     0.196 HD
ATOM     22  H4  UNL     1      -3.117  -2.324  -0.355  1.00  0.00     0.168 HD
BRANCH  20  23
HETATM   23  N7  UNL     1      -4.045   1.874  -0.589  1.00  0.00    -0.036 N 
HETATM   24  O3  UNL     1      -3.092   2.409  -1.172  1.00  0.00    -0.516 OA
HETATM   25  O4  UNL     1      -5.345   2.322  -0.716  1.00  0.00    -0.516 OA
ENDBRANCH  20  23
ENDBRANCH   4  17
TORSDOF 4
