REMARK  10 active torsions:
REMARK  status: ('A' for Active; 'I' for Inactive)
REMARK    1  A    between atoms: C2_2  and  C3_3 
REMARK    2  A    between atoms: C3_3  and  C4_4 
REMARK    3  A    between atoms: C4_4  and  C5_5 
REMARK    4  A    between atoms: C5_5  and  C6_6 
REMARK    5  A    between atoms: C6_6  and  C7_7 
REMARK    6  A    between atoms: C7_7  and  C8_8 
REMARK       I    between atoms: C8_8  and  N1_10 
REMARK    7  A    between atoms: C10_12  and  C11_13 
REMARK       I    between atoms: C11_13  and  N2_15 
REMARK       I    between atoms: N2_15  and  C12_17 
REMARK    8  A    between atoms: C12_17  and  C13_19 
REMARK    9  A    between atoms: C13_19  and  C16_22 
REMARK   10  A    between atoms: C26_33  and  C27_34 
ROOT
HETATM    1  C8  UNL     1       2.222  -1.440   0.223  1.00  0.00     0.220 C 
HETATM    2  O1  UNL     1       3.023  -2.217   0.805  1.00  0.00    -0.273 OA
HETATM    3  N1  UNL     1       1.003  -1.923  -0.317  1.00  0.00    -0.346 N 
HETATM    4  C9  UNL     1       0.112  -0.922  -0.859  1.00  0.00     0.141 C 
HETATM    5  C10 UNL     1      -1.095  -0.627  -0.020  1.00  0.00     0.113 C 
HETATM    6  C18 UNL     1      -1.411  -1.457   1.110  1.00  0.00     0.050 A 
HETATM    7  C19 UNL     1      -0.973  -1.140   2.539  1.00  0.00     0.143 A 
HETATM    8  O4  UNL     1      -0.001  -1.139   3.272  1.00  0.00    -0.297 OA
HETATM    9  C20 UNL     1      -2.361  -0.955   2.140  1.00  0.00     0.081 A 
HETATM   10  C21 UNL     1      -3.390  -2.037   2.334  1.00  0.00    -0.036 C 
HETATM   11  C22 UNL     1      -3.742  -2.224   3.797  1.00  0.00     0.015 C 
HETATM   12  C23 UNL     1      -4.657  -1.568   1.642  1.00  0.00     0.015 C 
HETATM   13  C24 UNL     1      -2.871  -3.278   1.701  1.00  0.00     0.016 C 
HETATM   14  C25 UNL     1      -1.616  -2.916   0.945  1.00  0.00     0.018 C 
HETATM   15  C26 UNL     1      -1.598  -3.432  -0.452  1.00  0.00     0.098 C 
HETATM   16  C28 UNL     1      -0.277  -3.996  -0.814  1.00  0.00     0.023 C 
HETATM   17  C29 UNL     1      -0.047  -4.093  -2.302  1.00  0.00     0.007 C 
HETATM   18  C30 UNL     1       1.446  -4.008  -2.451  1.00  0.00     0.002 C 
HETATM   19  C31 UNL     1       2.002  -4.078  -1.040  1.00  0.00     0.026 C 
HETATM   20  C32 UNL     1       0.943  -3.351  -0.233  1.00  0.00     0.092 C 
ENDROOT
BRANCH   5  21
HETATM   21  C11 UNL     1      -1.047   0.802   0.353  1.00  0.00     0.231 C 
HETATM   22  O2  UNL     1      -0.729   1.075   1.570  1.00  0.00    -0.273 OA
HETATM   23  N2  UNL     1      -1.303   1.921  -0.459  1.00  0.00    -0.297 N 
HETATM   24  C12 UNL     1      -1.660   1.991  -1.799  1.00  0.00     0.232 C 
ATOM     25  H2  UNL     1      -1.212   2.822   0.010  1.00  0.00     0.171 HD
HETATM   26  O3  UNL     1      -1.813   0.963  -2.486  1.00  0.00    -0.272 OA
BRANCH  24  27
HETATM   27  C13 UNL     1      -1.879   3.289  -2.485  1.00  0.00     0.034 C 
HETATM   28  C14 UNL     1      -2.204   3.127  -3.938  1.00  0.00     0.025 C 
HETATM   29  C15 UNL     1      -0.642   4.137  -2.246  1.00  0.00     0.025 C 
BRANCH  27  30
HETATM   30  C16 UNL     1      -3.044   4.042  -1.828  1.00  0.00     0.014 C 
HETATM   31  C17 UNL     1      -3.211   5.343  -2.568  1.00  0.00     0.006 C 
ENDBRANCH  27  30
ENDBRANCH  24  27
ENDBRANCH   5  21
BRANCH   1  32
HETATM   32  C7  UNL     1       2.634  -0.019   0.140  1.00  0.00     0.103 C 
BRANCH  32  33
HETATM   33  C6  UNL     1       4.054   0.109   0.673  1.00  0.00     0.009 C 
BRANCH  33  34
HETATM   34  C5  UNL     1       4.568   1.516   0.582  1.00  0.00     0.000 C 
BRANCH  34  35
HETATM   35  C4  UNL     1       3.736   2.454   1.379  1.00  0.00     0.000 C 
BRANCH  35  36
HETATM   36  C3  UNL     1       4.196   3.888   1.291  1.00  0.00    -0.000 C 
BRANCH  36  37
HETATM   37  C2  UNL     1       5.591   4.132   1.752  1.00  0.00    -0.005 C 
HETATM   38  C1  UNL     1       5.841   3.781   3.185  1.00  0.00     0.005 C 
ENDBRANCH  36  37
ENDBRANCH  35  36
ENDBRANCH  34  35
ENDBRANCH  33  34
ENDBRANCH  32  33
ENDBRANCH   1  32
BRANCH  15  39
HETATM   39  C27 UNL     1      -2.566  -4.565  -0.615  1.00  0.00     0.177 C 
HETATM   40  O5  UNL     1      -3.542  -4.549  -1.375  1.00  0.00    -0.648 OA
HETATM   41  O6  UNL     1      -2.341  -5.701   0.144  1.00  0.00    -0.648 OA
ENDBRANCH  15  39
TORSDOF 10
