REMARK  8 active torsions:
REMARK  status: ('A' for Active; 'I' for Inactive)
REMARK    1  A    between atoms: C2_2  and  C3_3 
REMARK    2  A    between atoms: C2_2  and  C10_14 
REMARK    3  A    between atoms: C4_4  and  C5_5 
REMARK       I    between atoms: C5_5  and  N1_7 
REMARK    4  A    between atoms: N1_7  and  C6_9 
REMARK    5  A    between atoms: C6_9  and  C7_10 
REMARK    6  A    between atoms: C7_10  and  N2_11 
REMARK    7  A    between atoms: C21_25  and  N3_26 
REMARK    8  A    between atoms: N3_26  and  S1_28 
ROOT
HETATM    1  C10 UNL     1       2.179   0.471   1.178  1.00  0.00     0.001 C 
HETATM    2  C11 UNL     1       2.146   1.603   2.218  1.00  0.00     0.006 C 
HETATM    3  C12 UNL     1       0.884   2.398   1.972  1.00  0.00     0.006 C 
HETATM    4  C13 UNL     1       0.054   1.354   1.277  1.00  0.00    -0.001 C 
HETATM    5  C14 UNL     1      -1.223   1.835   0.716  1.00  0.00    -0.001 C 
HETATM    6  C15 UNL     1      -2.291   1.613   1.767  1.00  0.00     0.033 C 
HETATM    7  C16 UNL     1      -3.134   0.420   1.556  1.00  0.00    -0.022 C 
HETATM    8  C17 UNL     1      -3.541   0.139   0.326  1.00  0.00    -0.065 C 
HETATM    9  C18 UNL     1      -4.390  -1.026  -0.004  1.00  0.00    -0.003 C 
HETATM   10  C19 UNL     1      -3.648  -2.139  -0.700  1.00  0.00     0.021 C 
HETATM   11  C20 UNL     1      -4.958  -1.637   1.264  1.00  0.00     0.021 C 
HETATM   12  C21 UNL     1      -5.517  -0.478  -0.861  1.00  0.00     0.105 C 
HETATM   13  C23 UNL     1      -5.016   0.280  -2.040  1.00  0.00     0.028 C 
HETATM   14  C24 UNL     1      -3.546   0.594  -2.051  1.00  0.00     0.016 C 
HETATM   15  C25 UNL     1      -3.095   1.088  -0.732  1.00  0.00    -0.016 C 
HETATM   16  C26 UNL     1      -3.804   2.443  -0.537  1.00  0.00     0.020 C 
HETATM   17  C27 UNL     1      -1.609   1.395  -0.658  1.00  0.00     0.003 C 
HETATM   18  C28 UNL     1      -0.729   0.425  -1.316  1.00  0.00     0.007 C 
HETATM   19  C29 UNL     1       0.315  -0.231  -0.438  1.00  0.00     0.010 C 
HETATM   20  C30 UNL     1       1.074   0.801   0.311  1.00  0.00    -0.036 C 
HETATM   21  C31 UNL     1       1.609   1.892  -0.618  1.00  0.00     0.016 C 
ENDROOT
BRANCH   1  22
HETATM   22  C2  UNL     1       2.319  -0.865   1.852  1.00  0.00     0.009 C 
HETATM   23  C1  UNL     1       2.389  -1.977   0.876  1.00  0.00     0.014 C 
BRANCH  22  24
HETATM   24  C3  UNL     1       3.510  -0.852   2.763  1.00  0.00    -0.017 C 
HETATM   25  C4  UNL     1       4.855  -0.620   2.298  1.00  0.00     0.071 C 
BRANCH  25  26
HETATM   26  C5  UNL     1       5.629  -1.479   1.428  1.00  0.00     0.244 C 
HETATM   27  O1  UNL     1       5.386  -2.659   1.104  1.00  0.00    -0.268 OA
HETATM   28  N1  UNL     1       6.842  -0.941   0.842  1.00  0.00    -0.336 N 
ATOM     29  H1  UNL     1       7.103   0.019   1.068  1.00  0.00     0.168 HD
BRANCH  28  30
HETATM   30  C6  UNL     1       7.677  -1.674  -0.022  1.00  0.00     0.094 C 
BRANCH  30  31
HETATM   31  C7  UNL     1       7.114  -2.140  -1.318  1.00  0.00     0.315 C 
BRANCH  31  32
HETATM   32  N2  UNL     1       6.668  -1.117  -2.212  1.00  0.00     0.084 N 
HETATM   33  C8  UNL     1       5.511  -0.389  -1.809  1.00  0.00     0.309 C 
HETATM   34  C9  UNL     1       7.734  -0.214  -2.607  1.00  0.00     0.309 C 
ENDBRANCH  31  32
ENDBRANCH  30  31
ENDBRANCH  28  30
ENDBRANCH  25  26
ENDBRANCH  22  24
ENDBRANCH   1  22
BRANCH  12  35
HETATM   35  N3  UNL     1      -6.446  -1.496  -1.301  1.00  0.00    -0.314 N 
ATOM     36  H3  UNL     1      -6.180  -2.270  -1.910  1.00  0.00     0.172 HD
BRANCH  35  37
HETATM   37  S1  UNL     1      -8.040  -1.276  -0.699  1.00  0.00     0.223 S 
HETATM   38  C22 UNL     1      -8.742   0.261  -1.257  1.00  0.00     0.185 C 
HETATM   39  O2  UNL     1      -8.901  -2.389  -1.219  1.00  0.00    -0.206 OA
HETATM   40  O3  UNL     1      -8.099  -1.239   0.802  1.00  0.00    -0.206 OA
ENDBRANCH  35  37
ENDBRANCH  12  35
TORSDOF 8
