REMARK  4 active torsions:
REMARK  status: ('A' for Active; 'I' for Inactive)
REMARK    1  A    between atoms: C4_4  and  C5_5 
REMARK    2  A    between atoms: C5_5  and  O2_7 
REMARK    3  A    between atoms: O2_7  and  C6_8 
REMARK    4  A    between atoms: C6_8  and  C7_9 
ROOT
HETATM    1  C5  UNL     1       0.689  -0.254  -0.853  1.00  0.00     0.295 C 
HETATM    2  O1  UNL     1       1.355   0.249  -1.781  1.00  0.00    -0.259 OA
ENDROOT
BRANCH   1   3
HETATM    3  C4  UNL     1      -0.671   0.253  -0.569  1.00  0.00     0.063 A 
HETATM    4  C3  UNL     1      -1.685  -0.603  -0.200  1.00  0.00     0.028 A 
HETATM    5  C2  UNL     1      -2.960  -0.175   0.078  1.00  0.00    -0.035 A 
HETATM    6  C1  UNL     1      -3.954  -1.184   0.463  1.00  0.00     0.050 C 
HETATM    7  C12 UNL     1      -3.260   1.182  -0.011  1.00  0.00     0.075 A 
HETATM    8  C11 UNL     1      -2.247   2.041  -0.379  1.00  0.00     0.081 A 
HETATM    9  N2  UNL     1      -4.568   1.644   0.283  1.00  0.00    -0.100 NA
HETATM   10  C10 UNL     1      -0.951   1.593  -0.661  1.00  0.00     0.073 A 
HETATM   11 CL3  UNL     1      -2.633   3.758  -0.489  1.00  0.00    -0.080 Cl
HETATM   12 CL2  UNL     1       0.287   2.749  -1.127  1.00  0.00    -0.081 Cl
ENDBRANCH   1   3
BRANCH   1  13
HETATM   13  O2  UNL     1       1.248  -1.265  -0.128  1.00  0.00    -0.309 OA
BRANCH  13  14
HETATM   14  C6  UNL     1       2.487  -1.866  -0.229  1.00  0.00     0.263 C 
BRANCH  14  15
HETATM   15  C7  UNL     1       3.676  -1.041   0.005  1.00  0.00     0.152 A 
HETATM   16  N1  UNL     1       3.992   0.131  -0.571  1.00  0.00    -0.325 N 
HETATM   17  C8  UNL     1       5.169   0.552  -0.077  1.00  0.00     0.169 A 
ATOM     18  H1  UNL     1       3.431   0.621  -1.268  1.00  0.00     0.169 HD
HETATM   19 CL1  UNL     1       6.020   2.019  -0.495  1.00  0.00    -0.059 Cl
HETATM   20  C9  UNL     1       5.553  -0.415   0.822  1.00  0.00     0.270 A 
HETATM   21  F1  UNL     1       6.686  -0.420   1.570  1.00  0.00    -0.174 F 
HETATM   22  O3  UNL     1       4.662  -1.357   0.865  1.00  0.00    -0.266 OA
ENDBRANCH  14  15
ENDBRANCH  13  14
ENDBRANCH   1  13
TORSDOF 4
