REMARK  2 active torsions:
REMARK  status: ('A' for Active; 'I' for Inactive)
REMARK    1  A    between atoms: N1_7  and  N2_9 
REMARK    2  A    between atoms: N2_9  and  C6_11 
ROOT
HETATM    1  N2  UNL     1       1.548   0.341  -0.637  1.00  0.00    -0.277 N 
ATOM      2  H2  UNL     1       1.247   0.973  -1.379  1.00  0.00     0.189 HD
ENDROOT
BRANCH   1   3
HETATM    3  N1  UNL     1       0.680  -0.560  -0.028  1.00  0.00    -0.304 N 
HETATM    4  C5  UNL     1      -0.580  -0.509  -0.050  1.00  0.00     0.037 C 
HETATM    5  C1  UNL     1      -1.481  -1.469   0.598  1.00  0.00     0.217 C 
HETATM    6  C4  UNL     1      -1.431   0.485  -0.705  1.00  0.00     0.057 C 
HETATM    7  F1  UNL     1      -2.169  -2.256  -0.303  1.00  0.00    -0.243 F 
HETATM    8  C2  UNL     1      -2.494  -0.527   1.227  1.00  0.00     0.044 C 
HETATM    9  C3  UNL     1      -2.593   0.621   0.261  1.00  0.00     0.009 C 
ATOM     10  H1  UNL     1       1.102  -1.334   0.484  1.00  0.00     0.186 HD
ENDBRANCH   1   3
BRANCH   1  11
HETATM   11  C6  UNL     1       2.785   0.320  -0.187  1.00  0.00     0.197 A 
HETATM   12  N3  UNL     1       3.816   1.068  -0.586  1.00  0.00    -0.262 N 
HETATM   13  N4  UNL     1       4.939   0.893  -0.021  1.00  0.00    -0.234 N 
ATOM     14  H3  UNL     1       3.704   1.762  -1.325  1.00  0.00     0.190 HD
HETATM   15  N5  UNL     1       5.069   0.004   0.921  1.00  0.00    -0.252 N 
ATOM     16  H4  UNL     1       5.743   1.452  -0.306  1.00  0.00     0.209 HD
HETATM   17  S1  UNL     1       3.513  -0.638   1.032  1.00  0.00     0.043 SA
ATOM     18  H5  UNL     1       5.901  -0.242   1.457  1.00  0.00     0.197 HD
ENDBRANCH   1  11
TORSDOF 2
