REMARK  19 active torsions:
REMARK  status: ('A' for Active; 'I' for Inactive)
REMARK    1  A    between atoms: C2_3  and  C3_4 
REMARK    2  A    between atoms: C5_8  and  O1_9 
REMARK    3  A    between atoms: C6_11  and  C7_12 
REMARK    4  A    between atoms: C7_12  and  O2_13 
REMARK    5  A    between atoms: C7_12  and  O3_15 
REMARK    6  A    between atoms: C11_22  and  N4_23 
REMARK    7  A    between atoms: N4_23  and  C12_25 
REMARK    8  A    between atoms: C12_25  and  C13_30 
REMARK    9  A    between atoms: N5_26  and  O4_28 
REMARK   10  A    between atoms: C13_30  and  C14_31 
REMARK   11  A    between atoms: C13_30  and  N7_40 
REMARK   12  A    between atoms: C16_35  and  C17_36 
REMARK   13  A    between atoms: C19_42  and  C20_43 
REMARK   14  A    between atoms: C20_43  and  N8_44 
REMARK   15  A    between atoms: N8_44  and  C21_46 
REMARK   16  A    between atoms: C21_46  and  O7_48 
REMARK   17  A    between atoms: C21_46  and  C23_50 
REMARK   18  A    between atoms: C23_50  and  O8_51 
REMARK   19  A    between atoms: C25_59  and  O10_60 
ROOT
HETATM    1  C12 UNL     1       0.771   0.076  -0.126  1.00  0.00     0.129 C 
HETATM    2  N5  UNL     1       0.839   0.043   1.145  1.00  0.00    -0.255 N 
ATOM      3  H5  UNL     1      -0.009   0.233   1.679  1.00  0.00     0.195 HD
ENDROOT
BRANCH   1   4
HETATM    4  N4  UNL     1      -0.515   0.384  -0.728  1.00  0.00    -0.361 N 
ATOM      5  H4  UNL     1      -0.667   0.161  -1.712  1.00  0.00     0.162 HD
BRANCH   4   6
HETATM    6  C11 UNL     1      -1.571   0.989   0.015  1.00  0.00     0.204 C 
HETATM    7  C10 UNL     1      -2.812   1.161  -0.843  1.00  0.00     0.174 C 
HETATM    8  C9  UNL     1      -4.055   0.574  -0.331  1.00  0.00     0.066 A 
HETATM    9  N11 UNL     1      -2.954   2.553  -0.360  1.00  0.00    -0.305 N 
HETATM   10  N1  UNL     1      -4.642  -0.576   0.080  1.00  0.00    -0.337 N 
HETATM   11  C8  UNL     1      -4.985   1.585  -0.234  1.00  0.00     0.085 A 
HETATM   12  C1  UNL     1      -3.933  -1.832   0.085  1.00  0.00     0.158 C 
HETATM   13  C2  UNL     1      -5.889  -0.291   0.418  1.00  0.00     0.120 A 
HETATM   14  N3  UNL     1      -6.088   1.015   0.225  1.00  0.00    -0.340 N 
ATOM     15  H3  UNL     1      -6.965   1.504   0.405  1.00  0.00     0.167 HD
HETATM   16  C25 UNL     1      -4.329   2.863  -0.685  1.00  0.00     0.276 C 
HETATM   17  C24 UNL     1      -1.599   2.483   0.050  1.00  0.00     0.248 C 
HETATM   18  O9  UNL     1      -0.714   3.322   0.344  1.00  0.00    -0.271 OA
BRANCH  13  19
HETATM   19  C3  UNL     1      -6.940  -1.201   0.909  1.00  0.00     0.039 A 
HETATM   20  C4  UNL     1      -6.719  -2.467   1.371  1.00  0.00     0.106 A 
HETATM   21  N2  UNL     1      -7.914  -3.017   1.742  1.00  0.00    -0.345 N 
HETATM   22  C5  UNL     1      -8.862  -2.114   1.515  1.00  0.00     0.152 A 
ATOM     23  H2  UNL     1      -8.053  -3.952   2.124  1.00  0.00     0.167 HD
HETATM   24  C6  UNL     1      -8.288  -0.947   0.986  1.00  0.00     0.062 A 
BRANCH  22  25
HETATM   25  O1  UNL     1     -10.225  -2.263   1.754  1.00  0.00    -0.346 OA
ATOM     26  H1  UNL     1     -10.903  -1.617   1.592  1.00  0.00     0.219 HD
ENDBRANCH  22  25
BRANCH  24  27
HETATM   27  C7  UNL     1      -9.041   0.251   0.559  1.00  0.00     0.293 C 
BRANCH  27  28
HETATM   28  O2  UNL     1      -8.727   0.653  -0.709  1.00  0.00    -0.367 OA
ATOM     29  H2  UNL     1      -9.211   1.423  -0.983  1.00  0.00     0.213 HD
ENDBRANCH  27  28
BRANCH  27  30
HETATM   30  O3  UNL     1      -8.811   1.290   1.489  1.00  0.00    -0.367 OA
ATOM     31  H3  UNL     1      -9.295   2.060   1.215  1.00  0.00     0.213 HD
ENDBRANCH  27  30
ENDBRANCH  24  27
ENDBRANCH  13  19
BRANCH  16  32
HETATM   32  O10 UNL     1      -4.453   2.901  -2.055  1.00  0.00    -0.371 OA
ATOM     33  H10 UNL     1      -4.039   3.707  -2.340  1.00  0.00     0.212 HD
ENDBRANCH  16  32
ENDBRANCH   4   6
ENDBRANCH   1   4
BRANCH   1  34
HETATM   34  C13 UNL     1       1.872  -0.162  -1.080  1.00  0.00     0.231 C 
BRANCH  34  35
HETATM   35  C14 UNL     1       2.253   1.119  -1.782  1.00  0.00     0.084 A 
HETATM   36  N6  UNL     1       2.304   2.318  -1.229  1.00  0.00    -0.360 N 
HETATM   37  C15 UNL     1       2.650   3.346  -1.936  1.00  0.00     0.114 A 
ATOM     38  H6  UNL     1       2.070   2.434  -0.243  1.00  0.00     0.165 HD
HETATM   39  C16 UNL     1       2.953   3.129  -3.261  1.00  0.00     0.098 A 
HETATM   40  S1  UNL     1       2.715   1.440  -3.392  1.00  0.00    -0.066 SA
BRANCH  39  41
HETATM   41  C17 UNL     1       3.368   4.114  -4.267  1.00  0.00     0.218 C 
HETATM   42  O5  UNL     1       3.604   3.747  -5.420  1.00  0.00    -0.643 OA
HETATM   43  O6  UNL     1       3.481   5.424  -3.887  1.00  0.00    -0.643 OA
ENDBRANCH  39  41
ENDBRANCH  34  35
BRANCH  34  44
HETATM   44  N7  UNL     1       3.043  -0.784  -0.535  1.00  0.00    -0.266 N 
HETATM   45  C18 UNL     1       4.261  -0.298  -0.245  1.00  0.00     0.137 A 
HETATM   46  C19 UNL     1       5.063  -1.299   0.253  1.00  0.00     0.058 A 
HETATM   47  N9  UNL     1       4.295  -2.401   0.255  1.00  0.00    -0.285 N 
HETATM   48  N10 UNL     1       3.084  -2.089  -0.218  1.00  0.00    -0.019 NA
ATOM     49  H9  UNL     1       4.588  -3.327   0.567  1.00  0.00     0.184 HD
BRANCH  46  50
HETATM   50  C20 UNL     1       6.502  -1.151   0.689  1.00  0.00     0.176 C 
BRANCH  50  51
HETATM   51  N8  UNL     1       6.974  -2.356   1.273  1.00  0.00    -0.385 N 
ATOM     52  H8  UNL     1       6.381  -3.183   1.339  1.00  0.00     0.156 HD
BRANCH  51  53
HETATM   53  C21 UNL     1       8.305  -2.361   1.761  1.00  0.00     0.145 C 
HETATM   54  C22 UNL     1       8.505  -1.337   2.889  1.00  0.00     0.072 C 
BRANCH  53  55
HETATM   55  O7  UNL     1       8.488  -3.613   2.419  1.00  0.00    -0.369 OA
ATOM     56  H7  UNL     1       9.380  -3.616   2.746  1.00  0.00     0.212 HD
ENDBRANCH  53  55
BRANCH  53  57
HETATM   57  C23 UNL     1       9.399  -2.163   0.776  1.00  0.00     0.224 C 
BRANCH  57  58
HETATM   58  O8  UNL     1       9.410  -0.987   0.084  1.00  0.00    -0.396 OA
ATOM     59  H8  UNL     1      10.110  -0.860  -0.546  1.00  0.00     0.209 HD
ENDBRANCH  57  58
ENDBRANCH  53  57
ENDBRANCH  51  53
ENDBRANCH  50  51
ENDBRANCH  46  50
ENDBRANCH  34  44
ENDBRANCH   1  34
BRANCH   2  60
HETATM   60  O4  UNL     1       1.967  -0.228   1.818  1.00  0.00    -0.288 OA
ATOM     61  H4  UNL     1       2.018  -0.253   2.766  1.00  0.00     0.244 HD
ENDBRANCH   2  60
TORSDOF 19
