REMARK  14 active torsions:
REMARK  status: ('A' for Active; 'I' for Inactive)
REMARK    1  A    between atoms: C2_2  and  C4_4 
REMARK    2  A    between atoms: C14_17  and  O4_18 
REMARK    3  A    between atoms: O4_18  and  C15_19 
REMARK    4  A    between atoms: C15_19  and  C16_21 
REMARK    5  A    between atoms: C16_21  and  C17_22 
REMARK    6  A    between atoms: C16_21  and  N1_24 
REMARK    7  A    between atoms: N1_24  and  N2_26 
REMARK    8  A    between atoms: N2_26  and  N3_27 
REMARK    9  A    between atoms: C22_34  and  O6_35 
REMARK   10  A    between atoms: C23_37  and  O7_38 
REMARK   11  A    between atoms: O7_38  and  C24_39 
REMARK   12  A    between atoms: C24_39  and  O8_40 
REMARK   13  A    between atoms: C24_39  and  C25_43 
REMARK   14  A    between atoms: O8_40  and  O9_41 
ROOT
HETATM    1  C4  UNL     1      -1.732  -2.566  -1.362  1.00  0.00    -0.003 C 
HETATM    2  C5  UNL     1      -3.110  -3.167  -1.031  1.00  0.00     0.008 C 
HETATM    3  C6  UNL     1      -3.857  -2.057  -0.265  1.00  0.00     0.038 C 
HETATM    4  C7  UNL     1      -3.166  -0.871  -0.775  1.00  0.00     0.063 C 
HETATM    5  C8  UNL     1      -3.464  -0.691  -2.233  1.00  0.00     0.046 C 
HETATM    6  O1  UNL     1      -3.092   0.266  -0.055  1.00  0.00    -0.369 OA
HETATM    7  C9  UNL     1      -1.997   0.910  -0.691  1.00  0.00     0.194 C 
HETATM    8  C10 UNL     1      -1.007  -0.146  -1.021  1.00  0.00     0.051 C 
HETATM    9  C11 UNL     1       0.260  -0.061  -0.249  1.00  0.00    -0.003 C 
HETATM   10  C12 UNL     1       0.501   0.291   1.047  1.00  0.00     0.045 C 
HETATM   11  C13 UNL     1      -0.567   0.654   1.929  1.00  0.00     0.294 C 
HETATM   12  O2  UNL     1      -0.913   0.203   3.046  1.00  0.00    -0.259 OA
HETATM   13  O3  UNL     1      -1.472   1.732   1.547  1.00  0.00    -0.276 OA
HETATM   14  C14 UNL     1      -1.626   2.083   0.149  1.00  0.00     0.208 C 
HETATM   15  C18 UNL     1      -0.414   2.808  -0.389  1.00  0.00     0.073 C 
HETATM   16  C19 UNL     1       0.682   3.112   0.526  1.00  0.00     0.012 C 
HETATM   17  C20 UNL     1       2.064   2.701   0.273  1.00  0.00     0.013 C 
HETATM   18  C21 UNL     1       2.545   3.447  -1.003  1.00  0.00     0.012 C 
HETATM   19  C22 UNL     1       2.555   1.353   0.179  1.00  0.00     0.155 C 
HETATM   20  C23 UNL     1       1.964   0.302   1.142  1.00  0.00     0.193 C 
HETATM   21  C31 UNL     1      -1.711  -1.362  -0.557  1.00  0.00     0.034 C 
ENDROOT
BRANCH  14  22
HETATM   22  O4  UNL     1      -2.765   2.918   0.113  1.00  0.00    -0.278 OA
BRANCH  22  23
HETATM   23  C15 UNL     1      -2.926   4.116   0.750  1.00  0.00     0.288 C 
HETATM   24  O5  UNL     1      -1.948   4.512   1.455  1.00  0.00    -0.263 OA
BRANCH  23  25
HETATM   25  C16 UNL     1      -4.148   4.945   0.655  1.00  0.00     0.227 C 
BRANCH  25  26
HETATM   26  C17 UNL     1      -5.411   4.195   0.896  1.00  0.00     0.152 C 
HETATM   27 CL1  UNL     1      -5.560   2.911  -0.322  1.00  0.00    -0.128 Cl
ENDBRANCH  25  26
BRANCH  25  28
HETATM   28  N1  UNL     1      -4.025   6.144   1.460  1.00  0.00    -0.237 N 
ATOM     29  H1  UNL     1      -4.281   7.035   1.036  1.00  0.00     0.198 HD
BRANCH  28  30
HETATM   30  N2  UNL     1      -3.635   6.150   2.609  1.00  0.00    -0.248 NA
BRANCH  30  31
HETATM   31  N3  UNL     1      -3.309   6.130   3.779  1.00  0.00    -0.261 N 
ATOM     32  H32 UNL     1      -4.267   5.783   3.736  1.00  0.00     0.193 HD
ATOM     33  H31 UNL     1      -2.981   6.135   4.745  1.00  0.00     0.193 HD
ENDBRANCH  30  31
ENDBRANCH  28  30
ENDBRANCH  25  28
ENDBRANCH  23  25
ENDBRANCH  22  23
ENDBRANCH  14  22
BRANCH   1  34
HETATM   34  C2  UNL     1      -0.705  -3.620  -1.030  1.00  0.00    -0.018 C 
HETATM   35  C1  UNL     1      -0.700  -4.056   0.398  1.00  0.00     0.010 C 
HETATM   36  C3  UNL     1      -1.073  -4.851  -1.870  1.00  0.00     0.010 C 
ENDBRANCH   1  34
BRANCH  20  37
HETATM   37  O7  UNL     1       2.365  -0.926   0.597  1.00  0.00    -0.342 OA
BRANCH  37  38
HETATM   38  C24 UNL     1       3.286  -1.614   1.345  1.00  0.00     0.331 C 
BRANCH  38  39
HETATM   39  O8  UNL     1       2.697  -2.794   1.787  1.00  0.00    -0.205 OA
BRANCH  39  40
HETATM   40  O9  UNL     1       2.595  -2.782   3.076  1.00  0.00    -0.248 OA
ATOM     41  H9  UNL     1       2.193  -3.588   3.378  1.00  0.00     0.253 HD
ENDBRANCH  39  40
ENDBRANCH  38  39
BRANCH  38  42
HETATM   42  C25 UNL     1       4.565  -1.865   0.669  1.00  0.00     0.001 A 
HETATM   43  C26 UNL     1       4.557  -2.302  -0.638  1.00  0.00     0.012 A 
HETATM   44  C27 UNL     1       5.726  -2.563  -1.345  1.00  0.00     0.002 A 
HETATM   45  C28 UNL     1       6.934  -2.379  -0.713  1.00  0.00     0.024 A 
HETATM   46  C29 UNL     1       6.970  -1.943   0.592  1.00  0.00     0.034 A 
HETATM   47 CL2  UNL     1       8.511  -1.719   1.365  1.00  0.00    -0.084 Cl
HETATM   48  C30 UNL     1       5.800  -1.690   1.272  1.00  0.00     0.036 A 
ENDBRANCH  38  42
ENDBRANCH  37  38
ENDBRANCH  20  37
BRANCH  19  49
HETATM   49  O6  UNL     1       3.944   1.361   0.534  1.00  0.00    -0.392 OA
ATOM     50  H6  UNL     1       4.268   0.470   0.472  1.00  0.00     0.210 HD
ENDBRANCH  19  49
TORSDOF 14
