REMARK  11 active torsions:
REMARK  status: ('A' for Active; 'I' for Inactive)
REMARK    1  A    between atoms: O1_2  and  C2_3 
REMARK    2  A    between atoms: C5_6  and  C6_7 
REMARK    3  A    between atoms: C6_7  and  C7_8 
REMARK    4  A    between atoms: C8_9  and  O2_10 
REMARK    5  A    between atoms: C9_12  and  O3_13 
REMARK    6  A    between atoms: C10_15  and  C11_16 
REMARK    7  A    between atoms: C14_20  and  O4_21 
REMARK    8  A    between atoms: O4_21  and  C15_22 
REMARK    9  A    between atoms: C15_22  and  C16_23 
REMARK   10  A    between atoms: C19_29  and  O5_30 
REMARK   11  A    between atoms: C33_48  and  O8_49 
ROOT
HETATM    1  C7  UNL     1      -1.947   1.814  -0.954  1.00  0.00     0.119 C 
HETATM    2  C8  UNL     1      -0.617   2.436  -0.638  1.00  0.00     0.170 C 
HETATM    3  C9  UNL     1       0.215   1.727   0.357  1.00  0.00     0.162 C 
HETATM    4  C10 UNL     1       1.056   0.678  -0.371  1.00  0.00     0.088 C 
HETATM    5  C22 UNL     1       0.275  -0.543  -0.312  1.00  0.00     0.021 A 
HETATM    6  C23 UNL     1      -1.056  -0.601  -0.748  1.00  0.00     0.041 A 
HETATM    7  C24 UNL     1      -1.748  -1.780  -0.697  1.00  0.00     0.048 A 
HETATM    8  C25 UNL     1      -1.112  -2.911  -0.206  1.00  0.00     0.051 A 
HETATM    9  C26 UNL     1       0.190  -2.853   0.222  1.00  0.00     0.123 A 
HETATM   10  C27 UNL     1       0.911  -1.646   0.172  1.00  0.00     0.160 A 
HETATM   11  F2  UNL     1       2.204  -1.670   0.626  1.00  0.00    -0.202 F 
HETATM   12  O6  UNL     1       0.570  -4.093   0.653  1.00  0.00    -0.334 OA
HETATM   13  C28 UNL     1      -0.286  -5.076   0.107  1.00  0.00     0.199 C 
HETATM   14  C29 UNL     1      -0.484  -6.233   1.058  1.00  0.00     0.048 C 
HETATM   15  C30 UNL     1      -1.562  -4.296  -0.024  1.00  0.00     0.191 C 
HETATM   16  O7  UNL     1      -2.743  -4.662   0.005  1.00  0.00    -0.289 OA
HETATM   17  N2  UNL     1      -1.914   0.437  -1.274  1.00  0.00    -0.377 N 
HETATM   18  C31 UNL     1      -2.825  -0.084  -2.280  1.00  0.00     0.150 C 
ENDROOT
BRANCH   4  19
HETATM   19  C11 UNL     1       2.451   0.755  -0.086  1.00  0.00    -0.041 A 
HETATM   20  C12 UNL     1       2.894   1.158   1.156  1.00  0.00     0.053 A 
HETATM   21  C13 UNL     1       4.237   1.277   1.428  1.00  0.00     0.153 A 
HETATM   22  F1  UNL     1       4.613   1.684   2.690  1.00  0.00    -0.203 F 
HETATM   23  C14 UNL     1       5.187   0.998   0.471  1.00  0.00     0.141 A 
HETATM   24  C19 UNL     1       4.733   0.592  -0.780  1.00  0.00     0.105 A 
HETATM   25  C21 UNL     1       3.392   0.475  -1.048  1.00  0.00     0.047 A 
BRANCH  23  26
HETATM   26  O4  UNL     1       6.526   1.131   0.787  1.00  0.00    -0.339 OA
BRANCH  26  27
HETATM   27  C15 UNL     1       7.304   0.076   1.320  1.00  0.00     0.240 C 
BRANCH  27  28
HETATM   28  C16 UNL     1       8.719   0.549   1.552  1.00  0.00     0.075 A 
HETATM   29  N1  UNL     1       9.230   1.746   1.319  1.00  0.00    -0.361 N 
HETATM   30  C17 UNL     1      10.477   1.980   1.579  1.00  0.00     0.096 A 
ATOM     31  H1  UNL     1       8.642   2.485   0.934  1.00  0.00     0.165 HD
HETATM   32  C18 UNL     1      11.220   0.943   2.095  1.00  0.00     0.068 A 
HETATM   33  S1  UNL     1      10.057  -0.305   2.171  1.00  0.00    -0.085 SA
ENDBRANCH  27  28
ENDBRANCH  26  27
ENDBRANCH  23  26
BRANCH  24  34
HETATM   34  O5  UNL     1       5.691   0.305  -1.764  1.00  0.00    -0.353 OA
HETATM   35  C20 UNL     1       5.217  -0.106  -3.028  1.00  0.00     0.210 C 
ENDBRANCH  24  34
ENDBRANCH   4  19
BRANCH   3  36
HETATM   36  O3  UNL     1      -0.491   1.083   1.365  1.00  0.00    -0.392 OA
ATOM     37  H3  UNL     1       0.044   0.627   2.004  1.00  0.00     0.210 HD
ENDBRANCH   3  36
BRANCH   2  38
HETATM   38  O2  UNL     1      -0.841   3.754  -0.259  1.00  0.00    -0.391 OA
ATOM     39  H2  UNL     1       0.000   4.147  -0.059  1.00  0.00     0.210 HD
ENDBRANCH   2  38
BRANCH   1  40
HETATM   40  C6  UNL     1      -2.926   2.314   0.034  1.00  0.00     0.066 C 
BRANCH  40  41
HETATM   41  C5  UNL     1      -4.312   1.827  -0.062  1.00  0.00    -0.053 A 
HETATM   42  C4  UNL     1      -5.213   2.442  -0.903  1.00  0.00     0.010 A 
HETATM   43  C3  UNL     1      -6.524   2.024  -0.986  1.00  0.00     0.040 A 
HETATM   44  C2  UNL     1      -6.954   0.965  -0.214  1.00  0.00     0.101 A 
HETATM   45  C33 UNL     1      -6.086   0.330   0.633  1.00  0.00     0.102 A 
HETATM   46  C32 UNL     1      -4.773   0.772   0.697  1.00  0.00     0.046 A 
BRANCH  44  47
HETATM   47  O1  UNL     1      -8.276   0.521  -0.279  1.00  0.00    -0.353 OA
HETATM   48  C1  UNL     1      -9.170   1.168  -1.145  1.00  0.00     0.210 C 
ENDBRANCH  44  47
BRANCH  45  49
HETATM   49  O8  UNL     1      -6.566  -0.730   1.389  1.00  0.00    -0.353 OA
HETATM   50  C34 UNL     1      -5.657  -1.377   2.261  1.00  0.00     0.210 C 
ENDBRANCH  45  49
ENDBRANCH  40  41
ENDBRANCH   1  40
TORSDOF 11
