REMARK  13 active torsions:
REMARK  status: ('A' for Active; 'I' for Inactive)
REMARK       I    between atoms: C2_2  and  N1_4 
REMARK    1  A    between atoms: N1_4  and  C4_6 
REMARK    2  A    between atoms: C4_6  and  O2_7 
REMARK    3  A    between atoms: C4_6  and  C5_9 
REMARK    4  A    between atoms: C5_9  and  C6_10 
REMARK    5  A    between atoms: C6_10  and  C7_11 
REMARK    6  A    between atoms: C13_17  and  O3_18 
REMARK    7  A    between atoms: C13_17  and  C14_20 
REMARK    8  A    between atoms: C14_20  and  N2_21 
REMARK    9  A    between atoms: C14_20  and  N3_29 
REMARK   10  A    between atoms: N2_21  and  C15_23 
REMARK   11  A    between atoms: N3_29  and  S1_31 
REMARK   12  A    between atoms: S1_31  and  C21_34 
REMARK   13  A    between atoms: C26_40  and  O6_41 
ROOT
HETATM    1  C14 UNL     1      -0.716   1.056   0.420  1.00  0.00     0.246 C 
ENDROOT
BRANCH   1   2
HETATM    2  C13 UNL     1       0.658   1.181  -0.017  1.00  0.00     0.092 C 
HETATM    3  C6  UNL     1       1.726   0.260  -0.326  1.00  0.00    -0.017 C 
BRANCH   3   4
HETATM    4  C5  UNL     1       1.835  -0.891   0.602  1.00  0.00     0.066 C 
BRANCH   4   5
HETATM    5  C4  UNL     1       3.098  -1.540   0.920  1.00  0.00     0.144 C 
BRANCH   5   6
HETATM    6  N1  UNL     1       4.081  -1.241   1.878  1.00  0.00    -0.303 N 
HETATM    7  C2  UNL     1       4.160  -0.255   2.850  1.00  0.00     0.221 C 
HETATM    8  C1  UNL     1       3.167   0.781   3.107  1.00  0.00     0.117 C 
HETATM    9  O1  UNL     1       5.195  -0.230   3.611  1.00  0.00    -0.273 OA
HETATM   10  C3  UNL     1       5.272  -2.164   1.876  1.00  0.00     0.161 C 
ENDBRANCH   5   6
BRANCH   5  11
HETATM   11  O2  UNL     1       3.393  -2.594   0.206  1.00  0.00    -0.346 OA
ATOM     12  H2  UNL     1       2.728  -2.796  -0.442  1.00  0.00     0.219 HD
ENDBRANCH   5  11
ENDBRANCH   4   5
ENDBRANCH   3   4
BRANCH   3  13
HETATM   13  C7  UNL     1       2.122  -0.011  -1.741  1.00  0.00     0.021 C 
HETATM   14  C8  UNL     1       3.589  -0.347  -1.818  1.00  0.00     0.009 C 
HETATM   15  C9  UNL     1       4.293   0.590  -2.849  1.00  0.00     0.001 C 
HETATM   16  C10 UNL     1       3.782   0.351  -4.225  1.00  0.00     0.000 C 
HETATM   17  C11 UNL     1       2.284   0.270  -4.129  1.00  0.00     0.001 C 
HETATM   18  C12 UNL     1       1.809   0.942  -2.801  1.00  0.00     0.009 C 
ENDBRANCH   3  13
BRANCH   2  19
HETATM   19  O3  UNL     1       0.786   2.303  -0.919  1.00  0.00    -0.360 OA
ATOM     20  H3  UNL     1       0.083   2.909  -0.716  1.00  0.00     0.217 HD
ENDBRANCH   2  19
ENDBRANCH   1   2
BRANCH   1  21
HETATM   21  N2  UNL     1      -1.311  -0.002   1.090  1.00  0.00    -0.392 N 
ATOM     22  H2  UNL     1      -1.453   0.071   2.097  1.00  0.00     0.156 HD
BRANCH  21  23
HETATM   23  C15 UNL     1      -1.722  -1.163   0.435  1.00  0.00     0.079 C 
HETATM   24  C16 UNL     1      -2.893  -0.941  -0.541  1.00  0.00     0.024 C 
HETATM   25  C17 UNL     1      -2.961  -2.181  -1.404  1.00  0.00     0.002 C 
HETATM   26  C18 UNL     1      -3.466  -3.311  -0.495  1.00  0.00     0.000 C 
HETATM   27  C19 UNL     1      -2.379  -3.514   0.549  1.00  0.00     0.002 C 
HETATM   28  C20 UNL     1      -2.223  -2.253   1.387  1.00  0.00     0.024 C 
ENDBRANCH  21  23
ENDBRANCH   1  21
BRANCH   1  29
HETATM   29  N3  UNL     1      -0.958   2.213   1.347  1.00  0.00    -0.288 N 
ATOM     30  H3  UNL     1      -0.400   2.323   2.194  1.00  0.00     0.175 HD
BRANCH  29  31
HETATM   31  S1  UNL     1      -2.138   3.302   0.975  1.00  0.00     0.263 S 
HETATM   32  O4  UNL     1      -2.031   4.068  -0.310  1.00  0.00    -0.200 OA
HETATM   33  O5  UNL     1      -2.309   4.388   2.033  1.00  0.00    -0.200 OA
BRANCH  31  34
HETATM   34  C21 UNL     1      -3.713   2.519   0.933  1.00  0.00     0.112 A 
HETATM   35  C22 UNL     1      -4.508   2.521  -0.185  1.00  0.00     0.030 A 
HETATM   36  C23 UNL     1      -5.734   1.895  -0.128  1.00  0.00     0.025 A 
HETATM   37  C24 UNL     1      -6.167   1.277   1.019  1.00  0.00     0.036 A 
HETATM   38 CL1  UNL     1      -7.745   0.487   1.052  1.00  0.00    -0.084 Cl
HETATM   39  C25 UNL     1      -5.387   1.265   2.145  1.00  0.00     0.061 A 
HETATM   40  C26 UNL     1      -4.141   1.896   2.101  1.00  0.00     0.090 A 
BRANCH  40  41
HETATM   41  O6  UNL     1      -3.390   1.857   3.265  1.00  0.00    -0.359 OA
ATOM     42  H6  UNL     1      -3.682   1.432   4.063  1.00  0.00     0.217 HD
ENDBRANCH  40  41
ENDBRANCH  31  34
ENDBRANCH  29  31
ENDBRANCH   1  29
TORSDOF 13
