REMARK  9 active torsions:
REMARK  status: ('A' for Active; 'I' for Inactive)
REMARK    1  A    between atoms: O1_2  and  C2_3 
REMARK    2  A    between atoms: C5_6  and  C6_7 
REMARK    3  A    between atoms: N1_9  and  O2_11 
REMARK    4  A    between atoms: C14_19  and  C16_21 
REMARK    5  A    between atoms: C16_21  and  C17_22 
REMARK    6  A    between atoms: C18_23  and  O3_24 
REMARK    7  A    between atoms: C20_29  and  N3_30 
REMARK    8  A    between atoms: C21_33  and  N4_34 
REMARK    9  A    between atoms: N4_34  and  N5_35 
ROOT
HETATM    1  C2  UNL     1      -1.513   0.983   1.546  1.00  0.00     0.130 C 
HETATM    2  C3  UNL     1      -2.553  -0.114   1.838  1.00  0.00     0.021 C 
HETATM    3  C4  UNL     1      -3.570   0.402   2.826  1.00  0.00     0.013 C 
HETATM    4  C5  UNL     1      -3.167  -0.273   0.450  1.00  0.00     0.048 C 
HETATM    5  C8  UNL     1      -2.139   0.064  -0.572  1.00  0.00    -0.029 C 
HETATM    6  C9  UNL     1      -2.675   1.199  -1.393  1.00  0.00     0.016 C 
HETATM    7  C10 UNL     1      -1.711  -1.023  -1.510  1.00  0.00     0.011 C 
HETATM    8  C11 UNL     1      -0.502  -0.481  -2.291  1.00  0.00     0.006 C 
HETATM    9  C12 UNL     1       0.818  -0.847  -1.605  1.00  0.00    -0.007 C 
HETATM   10  C13 UNL     1       1.768  -1.144  -2.743  1.00  0.00     0.011 C 
HETATM   11  C14 UNL     1       1.329   0.286  -0.805  1.00  0.00    -0.021 C 
HETATM   12  C15 UNL     1       2.046   1.207  -1.813  1.00  0.00     0.020 C 
HETATM   13  C22 UNL     1       0.142   1.186  -0.320  1.00  0.00     0.021 C 
HETATM   14  C23 UNL     1      -0.944   0.395   0.257  1.00  0.00     0.025 C 
ENDROOT
BRANCH  11  15
HETATM   15  C16 UNL     1       2.170   0.081   0.367  1.00  0.00     0.002 C 
BRANCH  15  16
HETATM   16  C17 UNL     1       3.460  -0.554   0.362  1.00  0.00     0.057 A 
HETATM   17  C18 UNL     1       3.674  -1.907   0.332  1.00  0.00     0.153 A 
HETATM   18  N2  UNL     1       4.937  -2.425   0.319  1.00  0.00    -0.344 N 
HETATM   19  C19 UNL     1       6.039  -1.675   0.335  1.00  0.00     0.130 A 
ATOM     20  H2  UNL     1       5.043  -3.439   0.296  1.00  0.00     0.167 HD
HETATM   21  C20 UNL     1       5.891  -0.282   0.368  1.00  0.00     0.161 A 
HETATM   22  C21 UNL     1       4.627   0.233   0.381  1.00  0.00     0.179 A 
BRANCH  17  23
HETATM   23  O3  UNL     1       2.670  -2.859   0.318  1.00  0.00    -0.345 OA
ATOM     24  H3  UNL     1       2.818  -3.797   0.297  1.00  0.00     0.219 HD
ENDBRANCH  17  23
BRANCH  21  25
HETATM   25  N3  UNL     1       7.066   0.517   0.383  1.00  0.00    -0.111 N 
HETATM   26  O4  UNL     1       7.211   1.601   0.927  1.00  0.00    -0.532 OA
HETATM   27  O5  UNL     1       8.178   0.011  -0.290  1.00  0.00    -0.532 OA
ENDBRANCH  21  25
BRANCH  22  28
HETATM   28  N4  UNL     1       4.553   1.627   0.451  1.00  0.00    -0.329 NA
BRANCH  28  29
HETATM   29  N5  UNL     1       4.498   2.763   0.532  1.00  0.00    -0.280 N 
ATOM     30  H52 UNL     1       4.697   2.038   1.221  1.00  0.00     0.191 HD
ATOM     31  H51 UNL     1       4.444   3.780   0.583  1.00  0.00     0.191 HD
ENDBRANCH  28  29
ENDBRANCH  22  28
ENDBRANCH  15  16
ENDBRANCH  11  15
BRANCH   1  32
HETATM   32  O1  UNL     1      -2.132   2.200   1.319  1.00  0.00    -0.390 OA
HETATM   33  C1  UNL     1      -1.601   3.157   2.171  1.00  0.00     0.202 C 
ENDBRANCH   1  32
BRANCH   4  34
HETATM   34  C6  UNL     1      -3.929  -1.505   0.301  1.00  0.00     0.011 C 
HETATM   35  C7  UNL     1      -5.169  -1.707   1.149  1.00  0.00     0.066 C 
HETATM   36  N1  UNL     1      -3.678  -2.486  -0.477  1.00  0.00    -0.277 N 
ATOM     37  H1  UNL     1      -2.857  -2.439  -1.080  1.00  0.00     0.193 HD
BRANCH  36  38
HETATM   38  O2  UNL     1      -4.469  -3.592  -0.528  1.00  0.00    -0.290 OA
ATOM     39  H2  UNL     1      -4.282  -4.322  -1.107  1.00  0.00     0.244 HD
ENDBRANCH  36  38
ENDBRANCH   4  34
TORSDOF 9
