REMARK  6 active torsions:
REMARK  status: ('A' for Active; 'I' for Inactive)
REMARK    1  A    between atoms: C2_2  and  C3_3 
REMARK    2  A    between atoms: C2_2  and  O1_12 
REMARK    3  A    between atoms: C2_2  and  C8_15 
REMARK    4  A    between atoms: C3_3  and  C4_4 
REMARK    5  A    between atoms: C4_4  and  C5_5 
REMARK    6  A    between atoms: O1_12  and  O2_13 
ROOT
HETATM    1  C1  UNL     1       0.463  -2.383  -0.889  1.00  0.00     0.050 C 
HETATM    2  C2  UNL     1       0.384  -1.234   0.109  1.00  0.00     0.100 C 
ENDROOT
BRANCH   2   3
HETATM    3  C3  UNL     1       1.688  -0.594   0.329  1.00  0.00     0.047 C 
BRANCH   3   4
HETATM    4  C4  UNL     1       2.400   0.013  -0.846  1.00  0.00     0.061 C 
BRANCH   4   5
HETATM    5  C5  UNL     1       3.681   0.546  -0.302  1.00  0.00     0.025 A 
HETATM    6  C6  UNL     1       3.933   1.796   0.204  1.00  0.00     0.114 A 
HETATM    7  N1  UNL     1       5.251   1.814   0.580  1.00  0.00    -0.360 N 
HETATM    8  C7  UNL     1       5.792   0.621   0.315  1.00  0.00     0.180 A 
ATOM      9  H1  UNL     1       5.739   2.608   0.994  1.00  0.00     0.166 HD
HETATM   10  N2  UNL     1       4.825  -0.137  -0.220  1.00  0.00    -0.355 N 
ATOM     11  H2  UNL     1       4.946  -1.103  -0.523  1.00  0.00     0.166 HD
ENDBRANCH   4   5
ENDBRANCH   3   4
ENDBRANCH   2   3
BRANCH   2  12
HETATM   12  O1  UNL     1       0.134  -1.950   1.343  1.00  0.00    -0.232 OA
BRANCH  12  13
HETATM   13  O2  UNL     1       1.124  -2.774   1.573  1.00  0.00    -0.250 OA
ATOM     14  H2  UNL     1       0.960  -3.244   2.382  1.00  0.00     0.253 HD
ENDBRANCH  12  13
ENDBRANCH   2  12
BRANCH   2  15
HETATM   15  C8  UNL     1      -0.823  -0.393  -0.063  1.00  0.00    -0.005 C 
HETATM   16  C9  UNL     1      -0.847   0.729   0.933  1.00  0.00     0.017 C 
HETATM   17  C10 UNL     1      -2.105   1.551   0.835  1.00  0.00    -0.013 C 
HETATM   18  C11 UNL     1      -3.254   0.684   1.297  1.00  0.00     0.009 C 
HETATM   19  C15 UNL     1      -2.398   1.998  -0.583  1.00  0.00     0.009 C 
HETATM   20  C12 UNL     1      -3.308  -0.507   0.402  1.00  0.00    -0.013 C 
HETATM   21  C13 UNL     1      -3.592  -0.081  -1.041  1.00  0.00     0.009 C 
HETATM   22  C17 UNL     1      -2.016  -1.291   0.338  1.00  0.00     0.017 C 
HETATM   23  C14 UNL     1      -2.459   0.777  -1.484  1.00  0.00    -0.013 C 
HETATM   24  C16 UNL     1      -1.105   0.101  -1.439  1.00  0.00     0.017 C 
ENDBRANCH   2  15
TORSDOF 6
