REMARK  5 active torsions:
REMARK  status: ('A' for Active; 'I' for Inactive)
REMARK    1  A    between atoms: O1_2  and  C2_3 
REMARK    2  A    between atoms: C7_10  and  O2_11 
REMARK    3  A    between atoms: N2_18  and  C12_19 
REMARK    4  A    between atoms: C12_19  and  C13_20 
REMARK    5  A    between atoms: C18_26  and  C19_27 
ROOT
HETATM    1  C2  UNL     1      -0.912   2.962   1.110  1.00  0.00     0.124 A 
HETATM    2  C3  UNL     1      -2.208   2.469   1.082  1.00  0.00     0.042 A 
HETATM    3  C4  UNL     1      -3.255   3.197   1.865  1.00  0.00     0.071 C 
HETATM    4  N1  UNL     1      -2.510   1.370   0.372  1.00  0.00    -0.360 N 
ATOM      5  H1  UNL     1      -3.479   1.052   0.387  1.00  0.00     0.165 HD
HETATM    6  C5  UNL     1      -1.639   0.661  -0.353  1.00  0.00     0.032 A 
HETATM    7  C6  UNL     1      -0.345   1.136  -0.336  1.00  0.00     0.032 A 
HETATM    8  C7  UNL     1       0.015   2.271   0.385  1.00  0.00     0.112 A 
HETATM    9  C8  UNL     1       0.934   0.692  -0.959  1.00  0.00     0.186 C 
HETATM   10  O3  UNL     1       0.641  -0.265  -1.898  1.00  0.00    -0.362 OA
HETATM   11  C9  UNL     1       0.721  -1.210  -0.940  1.00  0.00     0.118 C 
HETATM   12  C10 UNL     1       1.790  -2.212  -1.417  1.00  0.00     0.087 C 
HETATM   13  C11 UNL     1       3.101  -1.545  -1.218  1.00  0.00     0.067 C 
HETATM   14  N2  UNL     1       2.884  -0.528  -0.270  1.00  0.00    -0.363 N 
HETATM   15  C16 UNL     1       1.511  -0.341  -0.001  1.00  0.00     0.159 C 
HETATM   16  C17 UNL     1      -0.405  -1.906  -0.395  1.00  0.00     0.196 A 
HETATM   17  O4  UNL     1      -1.073  -2.561  -1.592  1.00  0.00    -0.364 OA
HETATM   18  C18 UNL     1      -1.786  -1.806  -0.548  1.00  0.00     0.106 A 
HETATM   19  C22 UNL     1      -2.382  -0.496  -0.987  1.00  0.00     0.030 C 
HETATM   20  C23 UNL     1      -2.347  -0.320  -2.499  1.00  0.00     0.025 C 
HETATM   21  C24 UNL     1      -3.826  -0.258  -0.624  1.00  0.00     0.025 C 
ENDROOT
BRANCH  14  22
HETATM   22  C12 UNL     1       3.818  -0.331   0.765  1.00  0.00     0.068 C 
BRANCH  22  23
HETATM   23  C13 UNL     1       5.119   0.231   0.292  1.00  0.00     0.024 A 
HETATM   24  C14 UNL     1       6.020  -0.382  -0.674  1.00  0.00     0.010 A 
HETATM   25  C15 UNL     1       6.385  -0.361   0.806  1.00  0.00     0.010 A 
ENDBRANCH  22  23
ENDBRANCH  14  22
BRANCH   8  26
HETATM   26  O2  UNL     1       1.315   2.684   0.355  1.00  0.00    -0.357 OA
ATOM     27  H2  UNL     1       1.960   2.203  -0.150  1.00  0.00     0.217 HD
ENDBRANCH   8  26
BRANCH  18  28
HETATM   28  C19 UNL     1      -2.599  -2.817   0.233  1.00  0.00     0.016 C 
HETATM   29  C20 UNL     1      -2.416  -2.688   1.728  1.00  0.00     0.012 C 
HETATM   30  C21 UNL     1      -3.961  -3.109  -0.247  1.00  0.00     0.012 C 
ENDBRANCH  18  28
BRANCH   1  31
HETATM   31  O1  UNL     1      -0.643   4.093   1.851  1.00  0.00    -0.351 OA
HETATM   32  C1  UNL     1      -0.719   5.411   1.365  1.00  0.00     0.210 C 
ENDBRANCH   1  31
TORSDOF 5
