REMARK  5 active torsions:
REMARK  status: ('A' for Active; 'I' for Inactive)
REMARK    1  A    between atoms: C4_4  and  C5_5 
REMARK    2  A    between atoms: C5_5  and  C6_6 
REMARK    3  A    between atoms: C15_17  and  C16_18 
REMARK    4  A    between atoms: C16_18  and  C17_19 
REMARK    5  A    between atoms: C17_19  and  O3_20 
ROOT
HETATM    1  C6  UNL     1       2.277  -0.566   0.478  1.00  0.00     0.108 C 
HETATM    2  C7  UNL     1       2.174  -1.226  -0.785  1.00  0.00     0.009 C 
HETATM    3  C8  UNL     1       1.694  -1.035  -2.008  1.00  0.00    -0.018 C 
HETATM    4  C9  UNL     1       1.978  -2.248  -2.881  1.00  0.00     0.052 C 
HETATM    5  C10 UNL     1       0.971   0.006  -2.729  1.00  0.00     0.159 C 
HETATM    6  O1  UNL     1       1.273   0.181  -3.883  1.00  0.00    -0.292 OA
HETATM    7  C11 UNL     1      -0.134   0.933  -2.258  1.00  0.00     0.119 C 
HETATM    8  C12 UNL     1      -0.471   0.471  -0.847  1.00  0.00    -0.053 C 
HETATM    9  C13 UNL     1       0.353   0.433   0.188  1.00  0.00     0.009 C 
HETATM   10  C14 UNL     1       1.761   0.811   0.479  1.00  0.00     0.177 C 
HETATM   11  O2  UNL     1       2.464   1.822   0.688  1.00  0.00    -0.291 OA
HETATM   12  C15 UNL     1      -0.016  -0.599   1.303  1.00  0.00     0.055 C 
HETATM   13  C18 UNL     1      -0.838   0.169   2.178  1.00  0.00     0.023 C 
HETATM   14  C19 UNL     1      -1.841   1.086   1.430  1.00  0.00     0.008 C 
HETATM   15  C20 UNL     1      -2.613   0.375   0.360  1.00  0.00     0.013 C 
HETATM   16  C21 UNL     1      -4.105   0.704   0.365  1.00  0.00     0.018 C 
HETATM   17  C22 UNL     1      -4.975  -0.543   0.289  1.00  0.00     0.023 C 
HETATM   18  C23 UNL     1      -4.530   1.383   1.670  1.00  0.00     0.023 C 
HETATM   19  C24 UNL     1      -4.442   1.668  -0.701  1.00  0.00     0.135 C 
HETATM   20  O4  UNL     1      -5.497   1.644  -1.255  1.00  0.00    -0.297 OA
HETATM   21  C25 UNL     1      -3.353   2.625  -0.981  1.00  0.00     0.080 C 
HETATM   22  C26 UNL     1      -2.240   1.860  -1.615  1.00  0.00     0.021 C 
HETATM   23  C27 UNL     1      -1.973   0.464  -1.006  1.00  0.00    -0.014 C 
HETATM   24  C28 UNL     1      -2.463  -0.516  -2.002  1.00  0.00     0.020 C 
HETATM   25  C29 UNL     1       1.428  -0.941   1.654  1.00  0.00     0.160 C 
HETATM   26  O5  UNL     1       1.726  -1.418   2.709  1.00  0.00    -0.295 OA
ENDROOT
BRANCH   1  27
HETATM   27  C5  UNL     1       3.732  -0.661   1.029  1.00  0.00     0.057 C 
BRANCH  27  28
HETATM   28  C4  UNL     1       4.605  -0.016   0.050  1.00  0.00    -0.023 C 
HETATM   29  C2  UNL     1       5.516   0.866   0.380  1.00  0.00    -0.091 C 
HETATM   30  C1  UNL     1       6.366   1.487  -0.653  1.00  0.00     0.042 C 
HETATM   31  C3  UNL     1       5.738   1.226   1.799  1.00  0.00     0.042 C 
ENDBRANCH  27  28
ENDBRANCH   1  27
BRANCH  12  32
HETATM   32  C16 UNL     1      -0.447  -1.939   0.831  1.00  0.00     0.048 C 
BRANCH  32  33
HETATM   33  C17 UNL     1      -0.829  -2.792   2.066  1.00  0.00     0.165 C 
BRANCH  33  34
HETATM   34  O3  UNL     1      -1.251  -4.057   1.568  1.00  0.00    -0.401 OA
ATOM     35  H3  UNL     1      -1.485  -4.580   2.326  1.00  0.00     0.209 HD
ENDBRANCH  33  34
ENDBRANCH  32  33
ENDBRANCH  12  32
TORSDOF 5
