REMARK  7 active torsions:
REMARK  status: ('A' for Active; 'I' for Inactive)
REMARK    1  A    between atoms: C3_4  and  N2_5 
REMARK    2  A    between atoms: C4_7  and  C5_8 
REMARK    3  A    between atoms: C6_9  and  C7_10 
REMARK    4  A    between atoms: C11_15  and  O2_16 
REMARK    5  A    between atoms: C12_18  and  C13_19 
REMARK    6  A    between atoms: C13_19  and  C14_21 
REMARK    7  A    between atoms: N3_29  and  O4_30 
ROOT
HETATM    1  N1  UNL     1       2.009  -1.477   3.371  1.00  0.00    -0.191 NA
HETATM    2  C1  UNL     1       1.132  -1.314   2.618  1.00  0.00     0.107 C 
HETATM    3  C2  UNL     1       0.039  -1.090   1.697  1.00  0.00     0.144 A 
HETATM    4  C3  UNL     1       0.362  -1.003   0.357  1.00  0.00     0.094 A 
HETATM    5  C11 UNL     1      -0.684  -0.792  -0.506  1.00  0.00     0.127 A 
HETATM    6  C12 UNL     1      -2.008  -0.670  -0.031  1.00  0.00     0.152 A 
HETATM    7  N3  UNL     1      -2.289  -0.760   1.276  1.00  0.00    -0.180 N 
HETATM    8  C20 UNL     1      -1.261  -0.969   2.132  1.00  0.00     0.295 A 
HETATM    9  O5  UNL     1      -1.548  -1.048   3.353  1.00  0.00    -0.264 OA
ENDROOT
BRANCH   4  10
HETATM   10  N2  UNL     1       1.692  -1.109  -0.130  1.00  0.00    -0.362 N 
HETATM   11  C4  UNL     1       2.447  -0.068   0.029  1.00  0.00     0.088 C 
ATOM     12  H2  UNL     1       2.034  -1.958  -0.580  1.00  0.00     0.165 HD
BRANCH  11  13
HETATM   13  C5  UNL     1       3.835  -0.030  -0.421  1.00  0.00     0.020 C 
HETATM   14  C6  UNL     1       4.606   1.017  -0.266  1.00  0.00     0.038 C 
BRANCH  14  15
HETATM   15  C7  UNL     1       5.997   1.008  -0.734  1.00  0.00     0.074 A 
HETATM   16  C8  UNL     1       6.612  -0.074  -1.364  1.00  0.00     0.039 A 
HETATM   17  C9  UNL     1       7.895   0.312  -1.641  1.00  0.00     0.027 A 
HETATM   18  C10 UNL     1       8.014   1.598  -1.177  1.00  0.00     0.142 A 
HETATM   19  O1  UNL     1       6.879   1.950  -0.660  1.00  0.00    -0.323 OA
ENDBRANCH  14  15
ENDBRANCH  11  13
ENDBRANCH   4  10
BRANCH   5  20
HETATM   20  O2  UNL     1      -0.444  -0.694  -1.870  1.00  0.00    -0.356 OA
ATOM     21  H2  UNL     1      -1.168  -0.548  -2.467  1.00  0.00     0.218 HD
ENDBRANCH   5  20
BRANCH   7  22
HETATM   22  O4  UNL     1      -3.589  -0.678   1.773  1.00  0.00    -0.279 OA
ATOM     23  H4  UNL     1      -3.788  -0.742   2.700  1.00  0.00     0.245 HD
ENDBRANCH   7  22
BRANCH   6  24
HETATM   24  C13 UNL     1      -3.044  -0.477  -1.017  1.00  0.00     0.215 C 
HETATM   25  O3  UNL     1      -2.769  -0.660  -2.259  1.00  0.00    -0.285 OA
BRANCH  24  26
HETATM   26  C14 UNL     1      -4.394  -0.085  -0.741  1.00  0.00     0.040 A 
HETATM   27  C15 UNL     1      -5.441  -0.966  -0.897  1.00  0.00     0.017 A 
HETATM   28  C16 UNL     1      -6.746  -0.610  -0.629  1.00  0.00     0.003 A 
HETATM   29  C17 UNL     1      -6.992   0.674  -0.191  1.00  0.00     0.026 A 
HETATM   30  C18 UNL     1      -5.980   1.580  -0.022  1.00  0.00     0.056 A 
HETATM   31 CL1  UNL     1      -6.363   3.193   0.540  1.00  0.00    -0.083 Cl
HETATM   32  C19 UNL     1      -4.691   1.196  -0.298  1.00  0.00     0.070 A 
HETATM   33 CL2  UNL     1      -3.439   2.408  -0.086  1.00  0.00    -0.081 Cl
ENDBRANCH  24  26
ENDBRANCH   6  24
TORSDOF 7
