REMARK  2 active torsions:
REMARK  status: ('A' for Active; 'I' for Inactive)
REMARK    1  A    between atoms: C2_2  and  C3_3 
REMARK    2  A    between atoms: C3_3  and  C4_4 
ROOT
HETATM    1  C3  UNL     1      -0.098   0.500   0.124  1.00  0.00     0.148 C 
HETATM    2  N1  UNL     1      -0.971   1.362   0.921  1.00  0.00    -0.324 N 
ATOM      3  H1  UNL     1      -1.615   1.208   1.697  1.00  0.00     0.166 HD
HETATM    4  C7  UNL     1      -0.561   2.498   0.179  1.00  0.00     0.217 C 
HETATM    5  N2  UNL     1      -0.627   3.795   0.251  1.00  0.00    -0.365 N 
ATOM      6  H21 UNL     1      -0.332   4.612  -0.283  1.00  0.00     0.159 HD
ATOM      7  H22 UNL     1      -1.036   4.431   0.935  1.00  0.00     0.159 HD
HETATM    8  O1  UNL     1      -0.010   1.642  -0.742  1.00  0.00    -0.290 OA
ENDROOT
BRANCH   1   9
HETATM    9  C2  UNL     1       1.209   0.211   0.770  1.00  0.00     0.057 C 
HETATM   10  C1  UNL     1       2.241  -0.410  -0.108  1.00  0.00     0.010 C 
ENDBRANCH   1   9
BRANCH   1  11
HETATM   11  C4  UNL     1      -0.885  -0.615  -0.460  1.00  0.00     0.034 C 
HETATM   12  C5  UNL     1      -1.267  -1.675   0.533  1.00  0.00     0.014 C 
HETATM   13  C6  UNL     1      -0.272  -1.286  -1.659  1.00  0.00     0.014 C 
ENDBRANCH   1  11
TORSDOF 2
