REMARK  5 active torsions:
REMARK  status: ('A' for Active; 'I' for Inactive)
REMARK    1  A    between atoms: S1_2  and  N1_4 
REMARK    2  A    between atoms: S1_2  and  C9_24 
REMARK    3  A    between atoms: N1_4  and  C1_6 
REMARK    4  A    between atoms: C2_15  and  N6_16 
REMARK    5  A    between atoms: N6_16  and  C3_18 
ROOT
HETATM    1  C1  UNL     1       0.621   1.308   1.290  1.00  0.00     0.177 A 
HETATM    2  N2  UNL     1       0.639   2.301   2.236  1.00  0.00    -0.266 N 
ATOM      3  H2  UNL     1       1.523   2.598   2.650  1.00  0.00     0.190 HD
HETATM    4  N3  UNL     1      -0.483   2.867   2.606  1.00  0.00    -0.226 N 
ATOM      5  H3  UNL     1      -0.432   3.601   3.313  1.00  0.00     0.210 HD
HETATM    6  N4  UNL     1      -1.670   2.558   2.133  1.00  0.00    -0.227 N 
ATOM      7  H4  UNL     1      -2.512   3.034   2.458  1.00  0.00     0.210 HD
HETATM    8  N5  UNL     1      -1.727   1.611   1.224  1.00  0.00    -0.267 N 
ATOM      9  H5  UNL     1      -2.632   1.346   0.836  1.00  0.00     0.190 HD
HETATM   10  C2  UNL     1      -0.612   0.980   0.792  1.00  0.00     0.168 A 
ENDROOT
BRANCH   1  11
HETATM   11  N1  UNL     1       1.714   0.799   0.970  1.00  0.00    -0.259 N 
ATOM     12  H1  UNL     1       2.497   1.210   1.478  1.00  0.00     0.180 HD
BRANCH  11  13
HETATM   13  S1  UNL     1       2.202  -0.400  -0.096  1.00  0.00     0.297 S 
HETATM   14  O1  UNL     1       1.826  -0.167  -1.538  1.00  0.00    -0.197 OA
HETATM   15  O2  UNL     1       1.576  -1.727   0.302  1.00  0.00    -0.197 OA
BRANCH  13  16
HETATM   16  C9  UNL     1       3.961  -0.668  -0.004  1.00  0.00     0.239 A 
HETATM   17  N7  UNL     1       4.918  -0.054  -0.721  1.00  0.00    -0.325 N 
HETATM   18  C10 UNL     1       6.116  -0.536  -0.355  1.00  0.00     0.199 A 
ATOM     19  H7  UNL     1       4.759   0.663  -1.429  1.00  0.00     0.169 HD
HETATM   20  N8  UNL     1       5.908  -1.457   0.595  1.00  0.00    -0.294 N 
HETATM   21  N9  UNL     1       4.595  -1.532   0.804  1.00  0.00    -0.274 N 
ATOM     22  H8  UNL     1       6.626  -2.002   1.072  1.00  0.00     0.187 HD
ATOM     23  H9  UNL     1       4.141  -2.151   1.475  1.00  0.00     0.189 HD
ENDBRANCH  13  16
ENDBRANCH  11  13
ENDBRANCH   1  11
BRANCH  10  24
HETATM   24  N6  UNL     1      -0.748   0.056  -0.107  1.00  0.00    -0.338 N 
ATOM     25  H6  UNL     1       0.087  -0.425  -0.440  1.00  0.00     0.167 HD
BRANCH  24  26
HETATM   26  C3  UNL     1      -1.992  -0.313  -0.644  1.00  0.00     0.033 A 
HETATM   27  C4  UNL     1      -2.751  -1.257  -0.008  1.00  0.00     0.029 A 
HETATM   28  C5  UNL     1      -3.986  -1.642  -0.516  1.00  0.00     0.002 A 
HETATM   29  C6  UNL     1      -4.401  -1.033  -1.676  1.00  0.00     0.000 A 
HETATM   30  C7  UNL     1      -3.668  -0.078  -2.348  1.00  0.00     0.002 A 
HETATM   31  C8  UNL     1      -2.432   0.279  -1.802  1.00  0.00     0.029 A 
ENDBRANCH  24  26
ENDBRANCH  10  24
TORSDOF 5
