REMARK  2 active torsions:
REMARK  status: ('A' for Active; 'I' for Inactive)
REMARK    1  A    between atoms: C6_8  and  N2_9 
REMARK    2  A    between atoms: N2_9  and  C7_11 
ROOT
HETATM    1  N1  UNL     1      -3.088   1.862   2.970  1.00  0.00    -0.197 NA
HETATM    2  C1  UNL     1      -2.747   1.139   2.151  1.00  0.00     0.064 C 
HETATM    3  C2  UNL     1      -2.304   0.247   1.117  1.00  0.00     0.095 C 
HETATM    4  C3  UNL     1      -2.996   0.532  -0.217  1.00  0.00     0.021 C 
HETATM    5  C4  UNL     1      -2.577  -0.461  -1.249  1.00  0.00     0.023 C 
HETATM    6  C5  UNL     1      -1.065  -0.395  -1.451  1.00  0.00     0.105 C 
HETATM    7 CL1  UNL     1      -0.662   1.224  -2.020  1.00  0.00    -0.123 Cl
HETATM    8  C6  UNL     1      -0.459  -0.731  -0.099  1.00  0.00     0.102 C 
HETATM    9  C11 UNL     1      -0.804   0.402   0.816  1.00  0.00     0.045 C 
ENDROOT
BRANCH   8  10
HETATM   10  N2  UNL     1       0.847  -1.194  -0.129  1.00  0.00    -0.369 N 
ATOM     11  H2  UNL     1       0.860  -2.207  -0.249  1.00  0.00     0.161 HD
BRANCH  10  12
HETATM   12  C7  UNL     1       2.006  -0.754  -0.055  1.00  0.00     0.117 A 
HETATM   13  C8  UNL     1       3.064  -1.666  -0.142  1.00  0.00     0.136 A 
HETATM   14  N3  UNL     1       4.321  -1.266  -0.071  1.00  0.00    -0.371 N 
HETATM   15  C9  UNL     1       4.593   0.043   0.088  1.00  0.00     0.104 A 
ATOM     16  H3  UNL     1       5.080  -1.944  -0.136  1.00  0.00     0.164 HD
HETATM   17  C10 UNL     1       3.585   0.963   0.177  1.00  0.00     0.106 A 
HETATM   18  N4  UNL     1       2.318   0.530   0.102  1.00  0.00    -0.350 N 
ATOM     19  H4  UNL     1       1.563   1.213   0.168  1.00  0.00     0.166 HD
ENDBRANCH  10  12
ENDBRANCH   8  10
TORSDOF 2
