REMARK  4 active torsions:
REMARK  status: ('A' for Active; 'I' for Inactive)
REMARK    1  A    between atoms: C2_3  and  S1_4 
REMARK    2  A    between atoms: S1_4  and  N2_5 
REMARK    3  A    between atoms: C3_12  and  N4_13 
REMARK    4  A    between atoms: C4_18  and  N6_19 
ROOT
HETATM    1  C1  UNL     1       0.108   2.020  -0.560  1.00  0.00     0.178 C 
HETATM    2  N1  UNL     1      -0.296   0.646  -0.298  1.00  0.00    -0.159 N 
HETATM    3  C2  UNL     1       0.583  -0.365  -0.206  1.00  0.00     0.254 A 
HETATM    4  N3  UNL     1       0.171  -1.624   0.038  1.00  0.00    -0.163 N 
ATOM      5  H3  UNL     1       0.867  -2.367   0.102  1.00  0.00     0.186 HD
HETATM    6  C3  UNL     1      -1.126  -1.934   0.200  1.00  0.00     0.692 A 
HETATM    7  N5  UNL     1      -2.011  -0.930   0.111  1.00  0.00    -0.023 N 
ATOM      8  H5  UNL     1      -3.006  -1.121   0.229  1.00  0.00     0.203 HD
HETATM    9  C4  UNL     1      -1.595   0.335  -0.134  1.00  0.00     0.694 A 
ENDROOT
BRANCH   3  10
HETATM   10  S1  UNL     1       2.271  -0.061  -0.402  1.00  0.00     0.290 S 
HETATM   11  O1  UNL     1       2.918  -1.310  -0.932  1.00  0.00    -0.198 OA
HETATM   12  O2  UNL     1       2.540   1.022  -1.423  1.00  0.00    -0.198 OA
BRANCH  10  13
HETATM   13  N2  UNL     1       3.039   0.313   1.108  1.00  0.00    -0.322 N 
ATOM     14  H22 UNL     1       2.539   0.345   1.997  1.00  0.00     0.169 HD
ATOM     15  H21 UNL     1       4.036   0.493   0.992  1.00  0.00     0.169 HD
ENDBRANCH  10  13
ENDBRANCH   3  10
BRANCH   9  16
HETATM   16  N6  UNL     1      -2.489   1.270  -0.212  1.00  0.00    -0.234 N 
ATOM     17  H62 UNL     1      -2.176   2.223  -0.397  1.00  0.00     0.174 HD
ATOM     18  H61 UNL     1      -3.474   1.034  -0.088  1.00  0.00     0.174 HD
ENDBRANCH   9  16
BRANCH   6  19
HETATM   19  N4  UNL     1      -1.445  -3.143   0.428  1.00  0.00    -0.234 N 
ATOM     20  H42 UNL     1      -0.772  -3.906   0.496  1.00  0.00     0.174 HD
ATOM     21  H41 UNL     1      -2.430  -3.378   0.551  1.00  0.00     0.174 HD
ENDBRANCH   6  19
TORSDOF 4
