REMARK  4 active torsions:
REMARK  status: ('A' for Active; 'I' for Inactive)
REMARK    1  A    between atoms: C2_2  and  C3_3 
REMARK    2  A    between atoms: C3_3  and  N1_6 
REMARK       I    between atoms: N1_6  and  C6_8 
REMARK       I    between atoms: C6_8  and  N2_10 
REMARK       I    between atoms: N3_12  and  C8_13 
REMARK    3  A    between atoms: C10_16  and  C11_17 
REMARK    4  A    between atoms: C13_21  and  C14_22 
ROOT
HETATM    1  N1  UNL     1       1.978  -0.319   0.620  1.00  0.00    -0.334 N 
ATOM      2  H1  UNL     1       1.441  -0.217   1.481  1.00  0.00     0.165 HD
HETATM    3  C6  UNL     1       1.301  -0.233  -0.620  1.00  0.00     0.322 C 
HETATM    4  O1  UNL     1       1.869  -0.347  -1.725  1.00  0.00    -0.247 OA
HETATM    5  N2  UNL     1      -0.129  -0.002  -0.639  1.00  0.00    -0.287 N 
HETATM    6  C7  UNL     1      -0.851   0.147   0.600  1.00  0.00     0.260 C 
HETATM    7  N3  UNL     1      -2.164   0.657   0.349  1.00  0.00    -0.325 N 
HETATM    8  C8  UNL     1      -2.637   1.700   1.188  1.00  0.00     0.217 C 
HETATM    9  C9  UNL     1      -1.835   2.268   2.297  1.00  0.00     0.117 C 
HETATM   10  O2  UNL     1      -3.782   2.160   0.984  1.00  0.00    -0.274 OA
HETATM   11  C10 UNL     1      -3.000   0.153  -0.707  1.00  0.00     0.167 C 
HETATM   12  C13 UNL     1      -2.203  -0.025  -1.997  1.00  0.00     0.207 A 
HETATM   13  O4  UNL     1      -1.456  -1.161  -2.201  1.00  0.00    -0.336 OA
HETATM   14  C15 UNL     1      -0.808   0.070  -1.889  1.00  0.00     0.277 A 
ENDROOT
BRANCH   1  15
HETATM   15  C3  UNL     1       3.406  -0.546   0.712  1.00  0.00     0.027 C 
HETATM   16  C4  UNL     1       3.830  -1.851   0.067  1.00  0.00     0.038 C 
HETATM   17  C5  UNL     1       3.780  -0.670   2.182  1.00  0.00     0.038 C 
BRANCH  15  18
HETATM   18  C2  UNL     1       4.178   0.552   0.048  1.00  0.00     0.026 C 
HETATM   19  C1  UNL     1       5.670   0.300   0.266  1.00  0.00     0.007 C 
ENDBRANCH  15  18
ENDBRANCH   1  15
BRANCH  12  20
HETATM   20  C14 UNL     1      -2.856   0.481  -3.238  1.00  0.00     0.272 C 
HETATM   21  N4  UNL     1      -3.659   1.652  -3.163  1.00  0.00    -0.059 NA
HETATM   22  O3  UNL     1      -2.740  -0.070  -4.361  1.00  0.00    -0.273 OA
ENDBRANCH  12  20
BRANCH  11  23
HETATM   23  C11 UNL     1      -3.780  -1.080  -0.364  1.00  0.00     0.096 C 
HETATM   24  C12 UNL     1      -4.711  -0.852   0.817  1.00  0.00     0.042 C 
HETATM   25 BR1  UNL     1      -2.669  -2.592   0.083  1.00  0.00    -0.071 Br
HETATM   26 BR2  UNL     1      -4.933  -1.617  -1.831  1.00  0.00    -0.071 Br
ENDBRANCH  11  23
TORSDOF 4
