REMARK  13 active torsions:
REMARK  status: ('A' for Active; 'I' for Inactive)
REMARK    1  A    between atoms: C4_4  and  N1_5 
REMARK       I    between atoms: N1_5  and  C6_7 
REMARK    2  A    between atoms: C6_7  and  O2_9 
REMARK    3  A    between atoms: O2_9  and  C7_10 
REMARK    4  A    between atoms: C7_10  and  C8_11 
REMARK    5  A    between atoms: C11_17  and  C12_18 
REMARK       I    between atoms: C12_18  and  N2_20 
REMARK    6  A    between atoms: N2_20  and  C13_21 
REMARK    7  A    between atoms: N2_20  and  C17_25 
REMARK    8  A    between atoms: C13_21  and  C14_22 
REMARK    9  A    between atoms: C19_27  and  N3_28 
REMARK       I    between atoms: N3_28  and  C20_30 
REMARK   10  A    between atoms: C20_30  and  O5_32 
REMARK   11  A    between atoms: O5_32  and  C21_33 
REMARK   12  A    between atoms: C21_33  and  C22_34 
REMARK   13  A    between atoms: C26_38  and  C27_39 
ROOT
HETATM    1  C12 UNL     1       0.573   0.409  -0.054  1.00  0.00     0.264 C 
HETATM    2  O3  UNL     1      -0.179   1.297   0.470  1.00  0.00    -0.267 OA
HETATM    3  N2  UNL     1       0.034  -0.383  -1.086  1.00  0.00    -0.292 N 
ENDROOT
BRANCH   3   4
HETATM    4  C13 UNL     1       0.743  -1.486  -1.607  1.00  0.00     0.077 C 
BRANCH   4   5
HETATM    5  C14 UNL     1       1.713  -1.387  -2.699  1.00  0.00     0.016 C 
HETATM    6  C15 UNL     1       2.234  -2.857  -2.900  1.00  0.00     0.015 C 
HETATM    7  C16 UNL     1       1.278  -0.990  -4.058  1.00  0.00     0.015 C 
ENDBRANCH   4   5
ENDBRANCH   3   4
BRANCH   3   8
HETATM    8  C17 UNL     1      -1.332  -0.085  -1.457  1.00  0.00     0.044 A 
HETATM    9  C18 UNL     1      -2.300  -0.269  -0.460  1.00  0.00     0.059 A 
HETATM   10  C19 UNL     1      -3.664  -0.013  -0.630  1.00  0.00     0.040 A 
HETATM   11  C25 UNL     1      -4.069   0.446  -1.860  1.00  0.00     0.048 A 
HETATM   12  C26 UNL     1      -3.139   0.635  -2.851  1.00  0.00     0.045 A 
HETATM   13  C28 UNL     1      -1.779   0.371  -2.647  1.00  0.00     0.048 A 
BRANCH  10  14
HETATM   14  N3  UNL     1      -4.490  -0.248   0.483  1.00  0.00    -0.303 N 
HETATM   15  C20 UNL     1      -5.758   0.312   0.655  1.00  0.00     0.365 C 
HETATM   16  O4  UNL     1      -6.305   1.080  -0.161  1.00  0.00    -0.238 OA
ATOM     17  H3  UNL     1      -4.140  -0.868   1.213  1.00  0.00     0.171 HD
BRANCH  15  18
HETATM   18  O5  UNL     1      -6.524   0.031   1.811  1.00  0.00    -0.303 OA
BRANCH  18  19
HETATM   19  C21 UNL     1      -7.793   0.636   1.908  1.00  0.00     0.184 C 
BRANCH  19  20
HETATM   20  C22 UNL     1      -8.474   0.247   3.209  1.00  0.00     0.002 C 
HETATM   21  C23 UNL     1      -8.656  -1.246   3.300  1.00  0.00     0.011 C 
HETATM   22  C24 UNL     1      -9.819   0.956   3.309  1.00  0.00     0.011 C 
ENDBRANCH  19  20
ENDBRANCH  18  19
ENDBRANCH  15  18
ENDBRANCH  10  14
BRANCH  12  23
HETATM   23  C27 UNL     1      -3.568   1.120  -4.161  1.00  0.00     0.209 C 
HETATM   24  O6  UNL     1      -4.774   1.334  -4.364  1.00  0.00    -0.644 OA
HETATM   25  O7  UNL     1      -2.640   1.337  -5.161  1.00  0.00    -0.644 OA
ENDBRANCH  12  23
ENDBRANCH   3   8
BRANCH   1  26
HETATM   26  C11 UNL     1       1.902   0.327   0.493  1.00  0.00     0.060 A 
HETATM   27  C2  UNL     1       2.943   1.086  -0.005  1.00  0.00    -0.042 A 
HETATM   28  C1  UNL     1       2.725   2.019  -1.155  1.00  0.00     0.049 C 
HETATM   29  C3  UNL     1       4.188   0.988   0.560  1.00  0.00     0.037 A 
HETATM   30  C4  UNL     1       4.485   0.160   1.624  1.00  0.00     0.041 A 
HETATM   31  C9  UNL     1       3.433  -0.591   2.108  1.00  0.00     0.054 A 
HETATM   32  C10 UNL     1       2.172  -0.521   1.570  1.00  0.00     0.052 A 
HETATM   33 CL1  UNL     1       0.869  -1.508   2.273  1.00  0.00    -0.083 Cl
BRANCH  30  34
HETATM   34  N1  UNL     1       5.799   0.101   2.183  1.00  0.00    -0.298 N 
HETATM   35  C5  UNL     1       5.963   0.150   3.613  1.00  0.00     0.162 C 
HETATM   36  C6  UNL     1       6.938  -0.015   1.341  1.00  0.00     0.367 C 
HETATM   37  O1  UNL     1       6.733  -0.109   0.091  1.00  0.00    -0.238 OA
BRANCH  36  38
HETATM   38  O2  UNL     1       8.227  -0.025   1.836  1.00  0.00    -0.298 OA
BRANCH  38  39
HETATM   39  C7  UNL     1       9.362  -0.126   1.013  1.00  0.00     0.251 C 
BRANCH  39  40
HETATM   40  C8  UNL     1       9.494   1.002   0.035  1.00  0.00     0.377 C 
HETATM   41  F1  UNL     1      10.663   0.770  -0.705  1.00  0.00    -0.212 F 
HETATM   42  F2  UNL     1       9.575   2.205   0.693  1.00  0.00    -0.212 F 
ENDBRANCH  39  40
ENDBRANCH  38  39
ENDBRANCH  36  38
ENDBRANCH  30  34
ENDBRANCH   1  26
TORSDOF 13
