REMARK  11 active torsions:
REMARK  status: ('A' for Active; 'I' for Inactive)
REMARK    1  A    between atoms: O1_2  and  C2_3 
REMARK    2  A    between atoms: C2_3  and  C3_4 
REMARK    3  A    between atoms: C3_4  and  O2_5 
REMARK    4  A    between atoms: C3_4  and  C27_41 
REMARK    5  A    between atoms: O2_5  and  C4_6 
REMARK    6  A    between atoms: C7_10  and  C8_11 
REMARK    7  A    between atoms: C11_18  and  C12_19 
REMARK    8  A    between atoms: C12_19  and  N3_20 
REMARK    9  A    between atoms: N3_20  and  C13_21 
REMARK   10  A    between atoms: N3_20  and  C20_29 
REMARK   11  A    between atoms: C20_29  and  C22_31 
ROOT
HETATM    1  C8  UNL     1       0.762  -0.169  -0.821  1.00  0.00    -0.008 A 
HETATM    2  C9  UNL     1       0.018  -1.159  -1.422  1.00  0.00     0.102 A 
HETATM    3  N1  UNL     1      -1.337  -1.122  -1.370  1.00  0.00    -0.350 N 
ATOM      4  H1  UNL     1      -1.863  -1.868  -1.825  1.00  0.00     0.166 HD
HETATM    5  C10 UNL     1      -2.019  -0.143  -0.744  1.00  0.00     0.133 A 
HETATM    6  N2  UNL     1      -3.326   0.123  -0.551  1.00  0.00    -0.329 N 
ATOM      7  H2  UNL     1      -4.092  -0.455  -0.896  1.00  0.00     0.168 HD
HETATM    8  C11 UNL     1      -3.482   1.252   0.157  1.00  0.00     0.101 A 
HETATM    9  N4  UNL     1      -2.213   1.693   0.406  1.00  0.00    -0.341 N 
ATOM     10  H4  UNL     1      -1.982   2.538   0.929  1.00  0.00     0.167 HD
HETATM   11  C23 UNL     1      -1.327   0.868  -0.128  1.00  0.00     0.079 A 
HETATM   12  C24 UNL     1       0.076   0.838  -0.178  1.00  0.00     0.047 A 
ENDROOT
BRANCH   1  13
HETATM   13  C7  UNL     1       2.226  -0.195  -0.868  1.00  0.00    -0.021 A 
HETATM   14  C6  UNL     1       2.979   0.943  -0.881  1.00  0.00     0.039 A 
HETATM   15  C5  UNL     1       4.378   0.893  -0.923  1.00  0.00     0.070 A 
HETATM   16  C4  UNL     1       5.086  -0.288  -0.950  1.00  0.00     0.112 A 
HETATM   17 CL1  UNL     1       5.237   2.436  -1.026  1.00  0.00    -0.081 Cl
HETATM   18  C26 UNL     1       4.296  -1.435  -0.939  1.00  0.00     0.070 A 
HETATM   19  C25 UNL     1       2.896  -1.382  -0.897  1.00  0.00     0.039 A 
HETATM   20 CL3  UNL     1       5.084  -2.991  -1.028  1.00  0.00    -0.081 Cl
BRANCH  16  21
HETATM   21  O2  UNL     1       6.468  -0.302  -0.982  1.00  0.00    -0.340 OA
BRANCH  21  22
HETATM   22  C3  UNL     1       7.263  -0.385   0.219  1.00  0.00     0.157 C 
BRANCH  22  23
HETATM   23  C2  UNL     1       8.261  -1.494   0.098  1.00  0.00     0.199 C 
BRANCH  23  24
HETATM   24  O1  UNL     1       8.963  -1.634   1.303  1.00  0.00    -0.393 OA
HETATM   25  C1  UNL     1       9.857  -2.721   1.176  1.00  0.00     0.201 C 
ENDBRANCH  23  24
ENDBRANCH  22  23
BRANCH  22  26
HETATM   26  C27 UNL     1       7.936   0.953   0.477  1.00  0.00     0.017 A 
HETATM   27  C28 UNL     1       8.883   1.513  -0.537  1.00  0.00     0.007 A 
HETATM   28  C29 UNL     1       9.365   1.081   0.820  1.00  0.00     0.007 A 
ENDBRANCH  22  26
ENDBRANCH  21  22
ENDBRANCH  16  21
ENDBRANCH   1  13
BRANCH   8  29
HETATM   29  C12 UNL     1      -4.677   1.968   0.639  1.00  0.00     0.200 C 
BRANCH  29  30
HETATM   30  N3  UNL     1      -5.931   1.344   0.375  1.00  0.00    -0.359 N 
BRANCH  30  31
HETATM   31  C13 UNL     1      -6.188   0.049   0.899  1.00  0.00     0.032 A 
HETATM   32  C14 UNL     1      -5.369  -0.538   1.872  1.00  0.00     0.031 A 
HETATM   33  C15 UNL     1      -5.569  -1.783   2.393  1.00  0.00     0.026 A 
HETATM   34  C16 UNL     1      -6.650  -2.517   1.932  1.00  0.00     0.040 A 
HETATM   35 CL2  UNL     1      -6.942  -4.124   2.578  1.00  0.00    -0.084 Cl
HETATM   36  C17 UNL     1      -7.494  -2.012   0.984  1.00  0.00    -0.038 A 
HETATM   37  C18 UNL     1      -8.672  -2.754   0.453  1.00  0.00     0.050 C 
HETATM   38  C19 UNL     1      -7.246  -0.729   0.481  1.00  0.00     0.037 A 
ENDBRANCH  30  31
BRANCH  30  39
HETATM   39  C20 UNL     1      -6.913   2.094  -0.363  1.00  0.00     0.182 C 
HETATM   40  C21 UNL     1      -7.255   3.399   0.387  1.00  0.00     0.044 C 
BRANCH  39  41
HETATM   41  C22 UNL     1      -6.569   2.481  -1.726  1.00  0.00     0.196 C 
HETATM   42  O3  UNL     1      -7.436   3.151  -2.362  1.00  0.00    -0.646 OA
HETATM   43  O4  UNL     1      -5.403   2.186  -2.371  1.00  0.00    -0.646 OA
ENDBRANCH  39  41
ENDBRANCH  30  39
ENDBRANCH  29  30
ENDBRANCH   8  29
TORSDOF 11
