REMARK  11 active torsions:
REMARK  status: ('A' for Active; 'I' for Inactive)
REMARK    1  A    between atoms: O1_2  and  C2_3 
REMARK    2  A    between atoms: C7_10  and  N2_11 
REMARK    3  A    between atoms: N2_11  and  C8_13 
REMARK    4  A    between atoms: C8_13  and  C9_14 
REMARK    5  A    between atoms: C9_14  and  N3_15 
REMARK    6  A    between atoms: N4_25  and  C18_27 
REMARK    7  A    between atoms: C27_38  and  O2_39 
REMARK    8  A    between atoms: O2_39  and  C28_40 
REMARK    9  A    between atoms: C28_40  and  C29_41 
REMARK   10  A    between atoms: C29_41  and  C30_42 
REMARK   11  A    between atoms: C30_42  and  N5_43 
ROOT
HETATM    1  C2  UNL     1       1.847   2.224  -1.416  1.00  0.00     0.103 A 
HETATM    2  C3  UNL     1       0.476   2.195  -1.395  1.00  0.00     0.070 A 
HETATM    3  C4  UNL     1      -0.185   1.015  -1.078  1.00  0.00     0.048 A 
HETATM    4  N1  UNL     1      -1.526   0.996  -1.059  1.00  0.00    -0.355 N 
ATOM      5  H1  UNL     1      -2.041   1.849  -1.279  1.00  0.00     0.166 HD
HETATM    6  C5  UNL     1      -2.210  -0.130  -0.754  1.00  0.00     0.047 A 
HETATM    7  C6  UNL     1      -3.608  -0.097  -0.748  1.00  0.00     0.062 A 
HETATM    8  C7  UNL     1      -4.270  -1.257  -0.434  1.00  0.00     0.069 A 
HETATM    9  C14 UNL     1      -3.563  -2.422  -0.135  1.00  0.00     0.143 A 
HETATM   10  F1  UNL     1      -4.293  -3.518   0.162  1.00  0.00    -0.204 F 
HETATM   11  C15 UNL     1      -2.180  -2.423  -0.149  1.00  0.00     0.060 A 
HETATM   12  C16 UNL     1      -1.477  -1.263  -0.463  1.00  0.00     0.021 A 
HETATM   13  C17 UNL     1      -0.083  -1.301  -0.468  1.00  0.00     0.058 A 
HETATM   14  N4  UNL     1       0.596  -2.279  -0.217  1.00  0.00    -0.354 N 
ATOM     15  H4  UNL     1       1.532  -1.888  -0.328  1.00  0.00     0.166 HD
HETATM   16  C25 UNL     1       0.559  -0.070  -0.799  1.00  0.00     0.021 A 
HETATM   17  C26 UNL     1       1.957  -0.060  -0.815  1.00  0.00     0.055 A 
HETATM   18  C27 UNL     1       2.629   1.095  -1.126  1.00  0.00     0.103 A 
ENDROOT
BRANCH  14  19
HETATM   19  C18 UNL     1       0.895  -3.529   0.109  1.00  0.00     0.042 A 
HETATM   20  C19 UNL     1       1.051  -4.500  -0.907  1.00  0.00     0.054 A 
HETATM   21  C20 UNL     1       1.363  -5.775  -0.576  1.00  0.00     0.037 A 
HETATM   22 CL1  UNL     1       1.561  -6.994  -1.828  1.00  0.00    -0.084 Cl
HETATM   23  C21 UNL     1       1.535  -6.156   0.734  1.00  0.00     0.048 A 
HETATM   24  C22 UNL     1       1.390  -5.236   1.736  1.00  0.00     0.043 A 
HETATM   25 CL2  UNL     1       1.623  -5.782   3.403  1.00  0.00    -0.084 Cl
HETATM   26  C23 UNL     1       1.076  -3.947   1.435  1.00  0.00    -0.013 A 
HETATM   27  C24 UNL     1       0.916  -2.941   2.513  1.00  0.00     0.052 C 
ENDBRANCH  14  19
BRANCH  18  28
HETATM   28  O2  UNL     1       3.975   1.175  -1.157  1.00  0.00    -0.348 OA
BRANCH  28  29
HETATM   29  C28 UNL     1       5.011   0.325  -0.915  1.00  0.00     0.177 C 
BRANCH  29  30
HETATM   30  C29 UNL     1       5.139  -0.212   0.485  1.00  0.00     0.057 C 
BRANCH  30  31
HETATM   31  C30 UNL     1       5.322   0.956   1.460  1.00  0.00     0.273 C 
BRANCH  31  32
HETATM   32  N5  UNL     1       6.543   1.640   1.069  1.00  0.00     0.080 N 
HETATM   33  C31 UNL     1       6.772   2.807   1.915  1.00  0.00     0.309 C 
HETATM   34  C32 UNL     1       7.685   0.737   1.143  1.00  0.00     0.309 C 
ENDBRANCH  31  32
ENDBRANCH  30  31
ENDBRANCH  29  30
ENDBRANCH  28  29
ENDBRANCH  18  28
BRANCH   8  35
HETATM   35  N2  UNL     1      -5.695  -1.278  -0.439  1.00  0.00    -0.386 N 
ATOM     36  H2  UNL     1      -6.189  -2.163  -0.320  1.00  0.00     0.159 HD
BRANCH  35  37
HETATM   37  C8  UNL     1      -6.443  -0.059  -0.611  1.00  0.00     0.140 C 
BRANCH  37  38
HETATM   38  C9  UNL     1      -6.414   0.861   0.563  1.00  0.00     0.147 C 
BRANCH  38  39
HETATM   39  N3  UNL     1      -7.160   2.076   0.346  1.00  0.00    -0.365 N 
HETATM   40  C10 UNL     1      -8.462   2.316   0.606  1.00  0.00     0.090 A 
HETATM   41  C11 UNL     1      -8.728   3.610   0.236  1.00  0.00     0.019 A 
HETATM   42  C12 UNL     1      -7.569   4.185  -0.262  1.00  0.00     0.019 A 
HETATM   43  C13 UNL     1      -6.612   3.192  -0.176  1.00  0.00     0.090 A 
ENDBRANCH  38  39
ENDBRANCH  37  38
ENDBRANCH  35  37
ENDBRANCH   8  35
BRANCH   1  44
HETATM   44  O1  UNL     1       2.507   3.420  -1.738  1.00  0.00    -0.353 OA
HETATM   45  C1  UNL     1       1.772   4.575  -2.036  1.00  0.00     0.210 C 
ENDBRANCH   1  44
TORSDOF 11
