REMARK  18 active torsions:
REMARK  status: ('A' for Active; 'I' for Inactive)
REMARK    1  A    between atoms: C2_2  and  C3_3 
REMARK    2  A    between atoms: C3_3  and  C4_4 
REMARK    3  A    between atoms: C4_4  and  N1_5 
REMARK       I    between atoms: N1_5  and  C5_7 
REMARK    4  A    between atoms: C5_7  and  C6_9 
REMARK    5  A    between atoms: C9_12  and  C10_13 
REMARK    6  A    between atoms: N2_16  and  C13_17 
REMARK    7  A    between atoms: C13_17  and  O2_18 
REMARK    8  A    between atoms: C13_17  and  C14_20 
REMARK    9  A    between atoms: C14_20  and  C15_21 
REMARK   10  A    between atoms: C14_20  and  N3_25 
REMARK   11  A    between atoms: C15_21  and  C16_22 
REMARK       I    between atoms: N3_25  and  C19_27 
REMARK   12  A    between atoms: C19_27  and  C20_29 
REMARK   13  A    between atoms: C20_29  and  N4_30 
REMARK   14  A    between atoms: C20_29  and  C30_46 
REMARK       I    between atoms: N4_30  and  C21_32 
REMARK   15  A    between atoms: C21_32  and  C22_34 
REMARK   16  A    between atoms: C22_34  and  N5_35 
REMARK   17  A    between atoms: C22_34  and  C23_39 
REMARK   18  A    between atoms: C30_46  and  C32_48 
ROOT
HETATM    1  C14 UNL     1      -0.894  -1.536  -0.016  1.00  0.00     0.159 C 
ENDROOT
BRANCH   1   2
HETATM    2  C13 UNL     1      -2.183  -0.902   0.244  1.00  0.00     0.138 C 
BRANCH   2   3
HETATM    3  N2  UNL     1      -3.490  -1.435   0.103  1.00  0.00    -0.344 N 
HETATM    4  C6  UNL     1      -4.687  -0.581   0.271  1.00  0.00     0.184 C 
HETATM    5  C7  UNL     1      -5.738  -1.520  -0.235  1.00  0.00     0.033 A 
HETATM    6  C8  UNL     1      -5.248  -2.702   0.651  1.00  0.00     0.024 A 
HETATM    7  C34 UNL     1      -6.585  -2.471   0.335  1.00  0.00    -0.035 A 
HETATM    8  C9  UNL     1      -3.951  -2.792  -0.129  1.00  0.00     0.095 C 
HETATM    9  C35 UNL     1      -7.534  -1.989   1.445  1.00  0.00     0.016 C 
HETATM   10  C36 UNL     1      -7.309  -3.477  -0.550  1.00  0.00     0.016 C 
BRANCH   4  11
HETATM   11  C5  UNL     1      -4.648   0.639  -0.566  1.00  0.00     0.241 C 
HETATM   12  N1  UNL     1      -5.599   1.653  -0.343  1.00  0.00    -0.359 N 
ATOM     13  H1  UNL     1      -6.285   1.510   0.398  1.00  0.00     0.162 HD
HETATM   14  O1  UNL     1      -3.794   0.778  -1.457  1.00  0.00    -0.271 OA
BRANCH  12  15
HETATM   15  C4  UNL     1      -5.663   2.871  -1.090  1.00  0.00     0.122 C 
BRANCH  15  16
HETATM   16  C3  UNL     1      -4.446   3.739  -1.022  1.00  0.00     0.019 C 
BRANCH  16  17
HETATM   17  C2  UNL     1      -4.135   4.175   0.396  1.00  0.00    -0.003 C 
HETATM   18  C1  UNL     1      -2.883   5.058   0.306  1.00  0.00     0.005 C 
ENDBRANCH  16  17
ENDBRANCH  15  16
ENDBRANCH  12  15
ENDBRANCH   4  11
BRANCH   8  19
HETATM   19  C10 UNL     1      -3.167  -3.863   0.611  1.00  0.00     0.001 C 
HETATM   20  C11 UNL     1      -4.075  -5.119   0.504  1.00  0.00     0.011 C 
HETATM   21  C12 UNL     1      -3.057  -3.593   2.074  1.00  0.00     0.011 C 
ENDBRANCH   8  19
ENDBRANCH   2   3
BRANCH   2  22
HETATM   22  O2  UNL     1      -2.132   0.330   0.662  1.00  0.00    -0.348 OA
ATOM     23  H2  UNL     1      -1.257   0.687   0.756  1.00  0.00     0.219 HD
ENDBRANCH   2  22
ENDBRANCH   1   2
BRANCH   1  24
HETATM   24  C15 UNL     1      -0.739  -1.872  -1.506  1.00  0.00     0.037 C 
BRANCH  24  25
HETATM   25  C16 UNL     1       0.551  -2.573  -1.815  1.00  0.00    -0.020 C 
HETATM   26  C17 UNL     1       0.670  -2.856  -3.306  1.00  0.00     0.009 C 
HETATM   27  C18 UNL     1       0.560  -3.980  -1.174  1.00  0.00     0.009 C 
ENDBRANCH  24  25
ENDBRANCH   1  24
BRANCH   1  28
HETATM   28  N3  UNL     1       0.153  -0.621   0.434  1.00  0.00    -0.347 N 
HETATM   29  C19 UNL     1       0.886   0.327  -0.228  1.00  0.00     0.241 C 
HETATM   30  O3  UNL     1       0.681   0.538  -1.485  1.00  0.00    -0.271 OA
ATOM     31  H3  UNL     1       0.380  -0.704   1.425  1.00  0.00     0.163 HD
BRANCH  29  32
HETATM   32  C20 UNL     1       1.954   1.205   0.310  1.00  0.00     0.180 C 
BRANCH  32  33
HETATM   33  N4  UNL     1       3.079   1.320  -0.588  1.00  0.00    -0.346 N 
HETATM   34  C21 UNL     1       3.468   2.511  -1.262  1.00  0.00     0.249 C 
HETATM   35  O4  UNL     1       2.838   3.586  -1.121  1.00  0.00    -0.271 OA
ATOM     36  H4  UNL     1       3.638   0.483  -0.752  1.00  0.00     0.163 HD
BRANCH  34  37
HETATM   37  C22 UNL     1       4.652   2.530  -2.173  1.00  0.00     0.278 C 
BRANCH  37  38
HETATM   38  N5  UNL     1       4.867   3.831  -2.738  1.00  0.00    -0.066 N 
ATOM     39  H53 UNL     1       4.030   4.175  -3.209  1.00  0.00     0.275 HD
ATOM     40  H52 UNL     1       4.945   4.543  -2.012  1.00  0.00     0.275 HD
ATOM     41  H51 UNL     1       5.675   3.844  -3.360  1.00  0.00     0.275 HD
ENDBRANCH  37  38
BRANCH  37  42
HETATM   42  C23 UNL     1       5.918   2.158  -1.388  1.00  0.00     0.025 C 
HETATM   43  C24 UNL     1       6.187   3.105  -0.275  1.00  0.00     0.007 C 
HETATM   44  C25 UNL     1       6.448   2.334   0.996  1.00  0.00     0.000 C 
HETATM   45  C26 UNL     1       7.388   1.196   0.719  1.00  0.00     0.000 C 
HETATM   46  C27 UNL     1       8.467   1.539  -0.253  1.00  0.00     0.000 C 
HETATM   47  C28 UNL     1       8.153   1.066  -1.657  1.00  0.00     0.000 C 
HETATM   48  C29 UNL     1       7.080   1.923  -2.297  1.00  0.00     0.007 C 
ENDBRANCH  37  42
ENDBRANCH  34  37
ENDBRANCH  32  33
BRANCH  32  49
HETATM   49  C30 UNL     1       2.406   0.999   1.693  1.00  0.00     0.013 C 
HETATM   50  C31 UNL     1       1.375   1.182   2.772  1.00  0.00     0.012 C 
BRANCH  49  51
HETATM   51  C32 UNL     1       3.210  -0.276   1.889  1.00  0.00     0.002 C 
HETATM   52  C33 UNL     1       3.630  -0.405   3.348  1.00  0.00     0.005 C 
ENDBRANCH  49  51
ENDBRANCH  32  49
ENDBRANCH  29  32
ENDBRANCH   1  28
TORSDOF 18
