REMARK  19 active torsions:
REMARK  status: ('A' for Active; 'I' for Inactive)
REMARK    1  A    between atoms: C2_2  and  C3_3 
REMARK    2  A    between atoms: C3_3  and  C4_4 
REMARK    3  A    between atoms: C4_4  and  C5_5 
REMARK    4  A    between atoms: C5_5  and  C6_6 
REMARK    5  A    between atoms: C5_5  and  C20_30 
REMARK    6  A    between atoms: C6_6  and  C7_7 
REMARK    7  A    between atoms: C7_7  and  O1_8 
REMARK    8  A    between atoms: N1_10  and  C8_12 
REMARK    9  A    between atoms: C8_12  and  C17_27 
REMARK   10  A    between atoms: C9_13  and  O2_14 
REMARK   11  A    between atoms: C9_13  and  N2_16 
REMARK       I    between atoms: N3_19  and  C12_20 
REMARK   12  A    between atoms: C12_20  and  O4_22 
REMARK   13  A    between atoms: O4_22  and  C13_23 
REMARK   14  A    between atoms: C20_30  and  N6_36 
REMARK   15  A    between atoms: N4_31  and  C21_33 
REMARK   16  A    between atoms: N6_36  and  C23_38 
REMARK   17  A    between atoms: C24_43  and  C25_44 
REMARK   18  A    between atoms: C25_44  and  C28_47 
REMARK   19  A    between atoms: C28_47  and  O5_48 
ROOT
HETATM    1  C21 UNL     1      -2.729   1.828   3.237  1.00  0.00     0.245 C 
HETATM    2  C22 UNL     1      -3.344   1.128   4.364  1.00  0.00     0.078 C 
HETATM    3  N5  UNL     1      -3.835   0.575   5.257  1.00  0.00    -0.196 NA
ENDROOT
BRANCH   1   4
HETATM    4  N4  UNL     1      -1.964   1.001   2.368  1.00  0.00    -0.367 N 
HETATM    5  C20 UNL     1      -2.062   0.873   1.130  1.00  0.00     0.084 C 
ATOM      6  H4  UNL     1      -1.240   0.439   2.815  1.00  0.00     0.161 HD
BRANCH   5   7
HETATM    7  C5  UNL     1      -1.126  -0.080   0.399  1.00  0.00     0.060 C 
BRANCH   7   8
HETATM    8  C4  UNL     1      -0.382  -0.992   1.295  1.00  0.00     0.013 C 
BRANCH   8   9
HETATM    9  C3  UNL     1      -1.328  -1.866   2.076  1.00  0.00     0.000 C 
BRANCH   9  10
HETATM   10  C2  UNL     1      -0.600  -2.787   3.053  1.00  0.00    -0.005 C 
HETATM   11  C1  UNL     1      -1.677  -3.637   3.721  1.00  0.00     0.005 C 
ENDBRANCH   9  10
ENDBRANCH   8   9
ENDBRANCH   7   8
BRANCH   7  12
HETATM   12  C6  UNL     1      -0.280   0.793  -0.486  1.00  0.00     0.096 C 
BRANCH  12  13
HETATM   13  C7  UNL     1       0.558   0.211  -1.506  1.00  0.00     0.116 C 
HETATM   14  N1  UNL     1       1.405  -0.819  -1.661  1.00  0.00    -0.340 N 
ATOM     15  H1  UNL     1       0.836  -1.660  -1.561  1.00  0.00     0.167 HD
BRANCH  13  16
HETATM   16  O1  UNL     1       0.476   0.912  -2.685  1.00  0.00    -0.349 OA
ATOM     17  H1  UNL     1       1.028   0.529  -3.357  1.00  0.00     0.219 HD
ENDBRANCH  13  16
BRANCH  14  18
HETATM   18  C8  UNL     1       2.544  -1.214  -1.867  1.00  0.00     0.065 C 
HETATM   19  C9  UNL     1       3.816  -0.594  -2.080  1.00  0.00     0.161 C 
BRANCH  19  20
HETATM   20  O2  UNL     1       4.778  -1.423  -2.441  1.00  0.00    -0.345 OA
ATOM     21  H2  UNL     1       5.622  -1.011  -2.582  1.00  0.00     0.219 HD
ENDBRANCH  19  20
BRANCH  19  22
HETATM   22  N2  UNL     1       4.257   0.733  -1.986  1.00  0.00    -0.357 N 
HETATM   23  C10 UNL     1       3.684   1.848  -1.309  1.00  0.00     0.145 C 
HETATM   24  C11 UNL     1       4.734   2.314  -0.226  1.00  0.00     0.148 C 
HETATM   25  N3  UNL     1       6.028   1.939  -0.684  1.00  0.00    -0.325 N 
HETATM   26  C12 UNL     1       7.102   1.369  -0.015  1.00  0.00     0.362 C 
HETATM   27  C15 UNL     1       6.221   2.162  -2.154  1.00  0.00     0.148 C 
HETATM   28  O3  UNL     1       8.193   1.135  -0.630  1.00  0.00    -0.238 OA
HETATM   29  C16 UNL     1       5.462   1.044  -2.822  1.00  0.00     0.145 C 
BRANCH  26  30
HETATM   30  O4  UNL     1       7.122   0.995   1.337  1.00  0.00    -0.304 OA
BRANCH  30  31
HETATM   31  C13 UNL     1       8.300   0.398   1.888  1.00  0.00     0.176 C 
HETATM   32  C14 UNL     1       9.502   1.299   1.797  1.00  0.00     0.034 C 
ENDBRANCH  30  31
ENDBRANCH  26  30
ENDBRANCH  19  22
BRANCH  18  33
HETATM   33  C17 UNL     1       2.635  -2.768  -1.951  1.00  0.00     0.032 C 
HETATM   34  C18 UNL     1       3.088  -3.124  -3.343  1.00  0.00     0.016 C 
HETATM   35  C19 UNL     1       1.302  -3.393  -1.691  1.00  0.00     0.016 C 
ENDBRANCH  18  33
ENDBRANCH  14  18
ENDBRANCH  12  13
ENDBRANCH   7  12
ENDBRANCH   5   7
BRANCH   5  36
HETATM   36  N6  UNL     1      -2.973   1.605   0.262  1.00  0.00    -0.325 N 
ATOM     37  H6  UNL     1      -2.612   2.382  -0.291  1.00  0.00     0.169 HD
BRANCH  36  38
HETATM   38  C23 UNL     1      -4.233   1.298   0.170  1.00  0.00     0.166 A 
HETATM   39  N7  UNL     1      -4.908   0.321   0.807  1.00  0.00    -0.279 N 
HETATM   40  N8  UNL     1      -6.141   0.176   0.506  1.00  0.00    -0.295 N 
ATOM     41  H7  UNL     1      -4.455  -0.276   1.499  1.00  0.00     0.189 HD
HETATM   42  C24 UNL     1      -6.732   0.931  -0.371  1.00  0.00     0.079 A 
ATOM     43  H8  UNL     1      -6.679  -0.556   0.969  1.00  0.00     0.187 HD
HETATM   44  S1  UNL     1      -5.455   1.953  -0.834  1.00  0.00    -0.037 SA
BRANCH  42  45
HETATM   45  C25 UNL     1      -8.167   0.826  -0.795  1.00  0.00     0.024 C 
HETATM   46  C26 UNL     1      -8.882  -0.212   0.024  1.00  0.00     0.024 C 
HETATM   47  C27 UNL     1      -8.108   0.298  -2.222  1.00  0.00     0.024 C 
BRANCH  45  48
HETATM   48  C28 UNL     1      -8.892   2.115  -0.713  1.00  0.00     0.179 C 
BRANCH  48  49
HETATM   49  O5  UNL     1      -8.879   2.576   0.594  1.00  0.00    -0.400 OA
ATOM     50  H5  UNL     1      -9.344   3.403   0.647  1.00  0.00     0.209 HD
ENDBRANCH  48  49
ENDBRANCH  45  48
ENDBRANCH  42  45
ENDBRANCH  36  38
ENDBRANCH   5  36
ENDBRANCH   1   4
TORSDOF 19
