REMARK  9 active torsions:
REMARK  status: ('A' for Active; 'I' for Inactive)
REMARK    1  A    between atoms: C3_3  and  C4_4 
REMARK    2  A    between atoms: C6_6  and  O1_7 
REMARK    3  A    between atoms: C10_13  and  O3_14 
REMARK    4  A    between atoms: C12_17  and  C13_18 
REMARK    5  A    between atoms: C13_18  and  O4_19 
REMARK    6  A    between atoms: O4_19  and  C14_20 
REMARK    7  A    between atoms: C14_20  and  C15_22 
REMARK    8  A    between atoms: C15_22  and  C16_23 
REMARK    9  A    between atoms: C16_23  and  C17_24 
ROOT
HETATM    1  C4  UNL     1      -3.916   2.623  -0.419  1.00  0.00     0.008 C 
HETATM    2  C5  UNL     1      -3.348   1.706   0.324  1.00  0.00    -0.013 C 
HETATM    3  C6  UNL     1      -2.954   1.844   1.734  1.00  0.00     0.288 C 
HETATM    4  O2  UNL     1      -2.922   0.573   2.277  1.00  0.00    -0.351 OA
HETATM    5  C7  UNL     1      -2.820  -0.342   1.261  1.00  0.00     0.146 C 
HETATM    6  C8  UNL     1      -1.633  -1.223   1.462  1.00  0.00     0.055 C 
HETATM    7  C9  UNL     1      -2.040  -2.680   1.551  1.00  0.00     0.042 C 
HETATM    8  C10 UNL     1      -1.118  -3.457   0.640  1.00  0.00     0.121 C 
HETATM    9  C11 UNL     1      -0.477  -2.442  -0.275  1.00  0.00     0.072 C 
HETATM   10  C12 UNL     1      -0.545  -1.116   0.461  1.00  0.00     0.091 C 
HETATM   11  O6  UNL     1      -0.570  -0.036  -0.371  1.00  0.00    -0.376 OA
HETATM   12  C20 UNL     1      -1.753   0.318  -0.930  1.00  0.00     0.185 C 
HETATM   13  C21 UNL     1      -2.955   0.321  -0.049  1.00  0.00     0.032 C 
HETATM   14  C22 UNL     1      -4.099  -0.274  -0.888  1.00  0.00     0.025 C 
ENDROOT
BRANCH  10  15
HETATM   15  C13 UNL     1       0.797  -1.027   1.215  1.00  0.00     0.217 C 
BRANCH  15  16
HETATM   16  O4  UNL     1       1.844  -1.076   0.265  1.00  0.00    -0.318 OA
BRANCH  16  17
HETATM   17  C14 UNL     1       3.172  -1.015   0.593  1.00  0.00     0.258 C 
HETATM   18  O5  UNL     1       3.530  -0.909   1.785  1.00  0.00    -0.265 OA
BRANCH  17  19
HETATM   19  C15 UNL     1       4.202  -1.074  -0.470  1.00  0.00     0.111 C 
BRANCH  19  20
HETATM   20  C16 UNL     1       5.591  -0.959   0.081  1.00  0.00     0.013 C 
BRANCH  20  21
HETATM   21  C17 UNL     1       6.644  -1.025  -1.001  1.00  0.00    -0.022 C 
HETATM   22  C18 UNL     1       6.535   0.051  -2.024  1.00  0.00     0.009 C 
HETATM   23  C19 UNL     1       8.042  -1.002  -0.389  1.00  0.00     0.009 C 
ENDBRANCH  20  21
ENDBRANCH  19  20
ENDBRANCH  17  19
ENDBRANCH  16  17
ENDBRANCH  15  16
ENDBRANCH  10  15
BRANCH   8  24
HETATM   24  O3  UNL     1      -1.944  -4.342  -0.093  1.00  0.00    -0.395 OA
ATOM     25  H3  UNL     1      -1.364  -4.830  -0.666  1.00  0.00     0.210 HD
ENDBRANCH   8  24
BRANCH   3  26
HETATM   26  O1  UNL     1      -1.660   2.367   1.871  1.00  0.00    -0.367 OA
ATOM     27  H1  UNL     1      -1.405   2.456   2.782  1.00  0.00     0.213 HD
ENDBRANCH   3  26
BRANCH   1  28
HETATM   28  C3  UNL     1      -4.216   3.925   0.134  1.00  0.00    -0.004 C 
HETATM   29  C2  UNL     1      -4.782   4.924  -0.492  1.00  0.00    -0.031 C 
HETATM   30  C1  UNL     1      -5.202   4.837  -1.896  1.00  0.00     0.036 C 
ENDBRANCH   1  28
TORSDOF 9
