REMARK  6 active torsions:
REMARK  status: ('A' for Active; 'I' for Inactive)
REMARK    1  A    between atoms: N1_2  and  S1_4 
REMARK    2  A    between atoms: S1_4  and  N2_5 
REMARK    3  A    between atoms: S1_4  and  N3_9 
REMARK    4  A    between atoms: N3_9  and  N4_11 
REMARK    5  A    between atoms: N4_11  and  C2_12 
REMARK    6  A    between atoms: C2_12  and  C3_13 
ROOT
HETATM    1  N3  UNL     1      -2.183   0.114  -0.587  1.00  0.00    -0.232 N 
ATOM      2  H3  UNL     1      -2.265   0.943  -1.176  1.00  0.00     0.195 HD
ENDROOT
BRANCH   1   3
HETATM    3  S1  UNL     1      -3.491  -0.924  -0.228  1.00  0.00     0.203 S 
HETATM    4  O1  UNL     1      -3.087  -2.202   0.413  1.00  0.00    -0.205 OA
BRANCH   3   5
HETATM    5  N1  UNL     1      -4.696  -0.106   0.737  1.00  0.00    -0.323 N 
HETATM    6  C1  UNL     1      -4.664   1.287   0.319  1.00  0.00     0.159 C 
ATOM      7  H1  UNL     1      -5.299  -0.520   1.448  1.00  0.00     0.171 HD
ENDBRANCH   3   5
BRANCH   3   8
HETATM    8  N2  UNL     1      -4.202  -1.284  -1.580  1.00  0.00    -0.328 N 
ATOM      9  H22 UNL     1      -5.169  -1.076  -1.829  1.00  0.00     0.169 HD
ATOM     10  H21 UNL     1      -3.498  -1.762  -2.143  1.00  0.00     0.169 HD
ENDBRANCH   3   8
ENDBRANCH   1   3
BRANCH   1  11
HETATM   11  N4  UNL     1      -0.983  -0.296   0.015  1.00  0.00    -0.131 NA
BRANCH  11  12
HETATM   12  C2  UNL     1       0.100   0.020  -0.862  1.00  0.00     0.140 C 
BRANCH  12  13
HETATM   13  C3  UNL     1       1.429  -0.392  -0.280  1.00  0.00     0.002 C 
HETATM   14  C4  UNL     1       2.572  -0.047  -1.234  1.00  0.00     0.006 C 
HETATM   15  C5  UNL     1       3.794  -0.756  -0.657  1.00  0.00     0.000 C 
HETATM   16  C6  UNL     1       4.149  -0.079   0.617  1.00  0.00     0.000 C 
HETATM   17  C7  UNL     1       3.071   0.693   1.282  1.00  0.00     0.000 C 
HETATM   18  C8  UNL     1       1.682   0.160   1.096  1.00  0.00     0.006 C 
ENDBRANCH  12  13
ENDBRANCH  11  12
ENDBRANCH   1  11
TORSDOF 6
