REMARK  13 active torsions:
REMARK  status: ('A' for Active; 'I' for Inactive)
REMARK    1  A    between atoms: C3_3  and  C4_4 
REMARK    2  A    between atoms: C4_4  and  C5_5 
REMARK    3  A    between atoms: C5_5  and  N1_6 
REMARK    4  A    between atoms: C7_8  and  C8_9 
REMARK    5  A    between atoms: C8_9  and  C9_10 
REMARK    6  A    between atoms: C19_25  and  C20_26 
REMARK    7  A    between atoms: C20_26  and  C21_27 
REMARK    8  A    between atoms: C21_27  and  C22_28 
REMARK    9  A    between atoms: C22_28  and  C23_29 
REMARK       I    between atoms: C23_29  and  N4_31 
REMARK   10  A    between atoms: N4_31  and  C24_33 
REMARK   11  A    between atoms: C24_33  and  C25_34 
REMARK   12  A    between atoms: C25_34  and  N5_35 
REMARK       I    between atoms: N5_35  and  C26_36 
REMARK   13  A    between atoms: C26_36  and  C27_38 
ROOT
HETATM    1  C1  UNL     1      -4.259   0.437   2.656  1.00  0.00     0.046 C 
HETATM    2  C2  UNL     1      -2.869   0.426   2.171  1.00  0.00    -0.054 C 
HETATM    3  C3  UNL     1      -2.253  -0.755   2.132  1.00  0.00     0.050 C 
HETATM    4  O1  UNL     1      -0.909  -0.883   1.690  1.00  0.00    -0.350 OA
HETATM    5  C19 UNL     1       0.158   0.105   1.957  1.00  0.00     0.128 C 
HETATM    6  C35 UNL     1       0.015   1.067   0.826  1.00  0.00     0.033 C 
HETATM    7  C36 UNL     1      -1.457   1.350   0.466  1.00  0.00     0.007 C 
HETATM    8  C37 UNL     1      -2.249   1.741   1.723  1.00  0.00     0.036 C 
ENDROOT
BRANCH   5   9
HETATM    9  C20 UNL     1       1.419  -0.648   2.094  1.00  0.00     0.033 C 
BRANCH   9  10
HETATM   10  C21 UNL     1       2.614   0.157   2.436  1.00  0.00     0.012 C 
BRANCH  10  11
HETATM   11  C22 UNL     1       3.116   1.188   1.523  1.00  0.00     0.103 C 
BRANCH  11  12
HETATM   12  C23 UNL     1       3.533   0.581   0.214  1.00  0.00     0.217 C 
HETATM   13  O2  UNL     1       3.918  -0.592   0.190  1.00  0.00    -0.274 OA
HETATM   14  N4  UNL     1       3.456   1.384  -0.920  1.00  0.00    -0.355 N 
ATOM     15  H4  UNL     1       3.099   2.326  -0.758  1.00  0.00     0.162 HD
BRANCH  14  16
HETATM   16  C24 UNL     1       3.797   1.096  -2.265  1.00  0.00     0.182 C 
BRANCH  16  17
HETATM   17  C25 UNL     1       5.191   0.936  -2.671  1.00  0.00     0.178 C 
BRANCH  17  18
HETATM   18  N5  UNL     1       6.070   0.004  -2.167  1.00  0.00    -0.385 NA
HETATM   19  C26 UNL     1       6.927  -0.913  -1.675  1.00  0.00     0.311 C 
HETATM   20  O3  UNL     1       6.762  -2.185  -1.687  1.00  0.00    -0.255 OA
BRANCH  19  21
HETATM   21  C27 UNL     1       8.240  -0.492  -1.020  1.00  0.00     0.193 C 
HETATM   22  C28 UNL     1       9.317  -1.437  -1.419  1.00  0.00     0.040 C 
HETATM   23  C29 UNL     1      10.594  -0.611  -1.591  1.00  0.00     0.025 C 
HETATM   24  C30 UNL     1      10.410   0.206  -2.860  1.00  0.00     0.024 C 
HETATM   25  C32 UNL     1      10.656   0.377  -0.443  1.00  0.00     0.079 C 
HETATM   26  C31 UNL     1       9.069   0.886  -2.774  1.00  0.00     0.122 C 
HETATM   27  N6  UNL     1       8.615   0.835  -1.387  1.00  0.00    -0.181 NA
HETATM   28  O4  UNL     1       9.591   1.246  -0.542  1.00  0.00    -0.292 OA
HETATM   29  C33 UNL     1      10.690  -0.397   0.856  1.00  0.00     0.048 C 
HETATM   30  C34 UNL     1      11.987   1.142  -0.536  1.00  0.00     0.048 C 
ENDBRANCH  19  21
ENDBRANCH  17  18
ENDBRANCH  16  17
ENDBRANCH  14  16
ENDBRANCH  11  12
ENDBRANCH  10  11
ENDBRANCH   9  10
ENDBRANCH   5   9
BRANCH   3  31
HETATM   31  C4  UNL     1      -2.972  -1.949   2.558  1.00  0.00     0.086 C 
BRANCH  31  32
HETATM   32  C5  UNL     1      -3.200  -2.949   1.438  1.00  0.00     0.156 C 
BRANCH  32  33
HETATM   33  N1  UNL     1      -4.030  -2.454   0.374  1.00  0.00    -0.287 N 
HETATM   34  C6  UNL     1      -5.386  -2.637   0.362  1.00  0.00     0.138 A 
HETATM   35  C7  UNL     1      -5.931  -2.065  -0.765  1.00  0.00     0.045 A 
HETATM   36  N2  UNL     1      -4.885  -1.538  -1.423  1.00  0.00    -0.289 N 
HETATM   37  N3  UNL     1      -3.778  -1.785  -0.724  1.00  0.00    -0.241 N 
ATOM     38  H2  UNL     1      -4.931  -1.034  -2.308  1.00  0.00     0.188 HD
ATOM     39  H3  UNL     1      -2.845  -1.488  -1.010  1.00  0.00     0.208 HD
BRANCH  35  40
HETATM   40  C8  UNL     1      -7.334  -2.046  -1.170  1.00  0.00     0.069 C 
BRANCH  40  41
HETATM   41  C9  UNL     1      -8.148  -0.904  -0.650  1.00  0.00    -0.034 C 
HETATM   42  C10 UNL     1      -8.191  -0.873   0.865  1.00  0.00     0.014 C 
HETATM   43  C11 UNL     1      -9.089   0.235   1.304  1.00  0.00    -0.013 C 
HETATM   44  C12 UNL     1     -10.490   0.006   0.799  1.00  0.00     0.009 C 
HETATM   45  C16 UNL     1      -8.529   1.550   0.846  1.00  0.00     0.009 C 
HETATM   46  C13 UNL     1     -10.453   0.077  -0.709  1.00  0.00    -0.013 C 
HETATM   47  C14 UNL     1      -9.894   1.391  -1.174  1.00  0.00     0.009 C 
HETATM   48  C18 UNL     1      -9.559  -1.035  -1.208  1.00  0.00     0.014 C 
HETATM   49  C15 UNL     1      -8.490   1.545  -0.672  1.00  0.00    -0.013 C 
HETATM   50  C17 UNL     1      -7.594   0.413  -1.128  1.00  0.00     0.014 C 
ENDBRANCH  40  41
ENDBRANCH  35  40
ENDBRANCH  32  33
ENDBRANCH  31  32
ENDBRANCH   3  31
TORSDOF 13
