REMARK  15 active torsions:
REMARK  status: ('A' for Active; 'I' for Inactive)
REMARK    1  A    between atoms: O1_1  and  C1_3 
REMARK    2  A    between atoms: C1_3  and  C2_4 
REMARK    3  A    between atoms: C1_3  and  N1_15 
REMARK    4  A    between atoms: N2_18  and  C13_19 
REMARK    5  A    between atoms: C13_19  and  C14_20 
REMARK    6  A    between atoms: C14_20  and  C15_21 
REMARK    7  A    between atoms: C15_21  and  C16_22 
REMARK    8  A    between atoms: C16_22  and  C17_23 
REMARK    9  A    between atoms: C17_23  and  N3_24 
REMARK       I    between atoms: N3_24  and  C18_26 
REMARK       I    between atoms: C18_26  and  N5_34 
REMARK   10  A    between atoms: N4_27  and  C19_29 
REMARK   11  A    between atoms: C19_29  and  C20_30 
REMARK   12  A    between atoms: C20_30  and  C21_31 
REMARK   13  A    between atoms: C21_31  and  O4_32 
REMARK   14  A    between atoms: N5_34  and  C22_36 
REMARK   15  A    between atoms: C22_36  and  C23_37 
ROOT
HETATM    1  C16 UNL     1      -2.413   0.019   0.841  1.00  0.00     0.020 C 
ENDROOT
BRANCH   1   2
HETATM    2  C15 UNL     1      -1.304  -0.565   0.000  1.00  0.00     0.003 C 
BRANCH   2   3
HETATM    3  C14 UNL     1      -0.067   0.300   0.221  1.00  0.00     0.019 C 
BRANCH   3   4
HETATM    4  C13 UNL     1       1.064  -0.287  -0.631  1.00  0.00     0.117 C 
BRANCH   4   5
HETATM    5  N2  UNL     1       2.209   0.508  -0.427  1.00  0.00    -0.409 N 
HETATM    6  C12 UNL     1       2.244   1.821  -0.903  1.00  0.00     0.136 C 
HETATM    7  C11 UNL     1       2.977   2.698   0.126  1.00  0.00     0.144 C 
HETATM    8  N1  UNL     1       4.256   1.994   0.468  1.00  0.00    -0.358 N 
HETATM    9  C31 UNL     1       4.118   0.647   0.918  1.00  0.00     0.144 C 
HETATM   10  C30 UNL     1       3.450  -0.176  -0.203  1.00  0.00     0.136 C 
BRANCH   8  11
HETATM   11  C1  UNL     1       5.408   2.733   0.383  1.00  0.00     0.148 C 
BRANCH  11  12
HETATM   12  O1  UNL     1       5.246   4.007   0.117  1.00  0.00    -0.346 OA
ATOM     13  H1  UNL     1       4.341   4.276   0.010  1.00  0.00     0.219 HD
ENDBRANCH  11  12
BRANCH  11  14
HETATM   14  C2  UNL     1       6.775   2.327   0.544  1.00  0.00     0.017 A 
HETATM   15  C3  UNL     1       7.754   3.312   0.820  1.00  0.00     0.018 A 
HETATM   16  C4  UNL     1       9.073   2.964   0.892  1.00  0.00     0.040 A 
HETATM   17  C5  UNL     1       9.495   1.662   0.701  1.00  0.00     0.102 A 
HETATM   18  C6  UNL     1       8.534   0.714   0.433  1.00  0.00     0.102 A 
HETATM   19  O3  UNL     1      10.887   1.529   0.820  1.00  0.00    -0.348 OA
HETATM   20  C7  UNL     1       7.180   1.037   0.352  1.00  0.00     0.055 A 
HETATM   21  O2  UNL     1       8.797  -0.636   0.218  1.00  0.00    -0.348 OA
HETATM   22  C8  UNL     1       9.914  -1.463   0.430  1.00  0.00     0.178 C 
HETATM   23  C9  UNL     1      11.007  -0.791   1.217  1.00  0.00     0.053 C 
HETATM   24  C10 UNL     1      11.619   0.369   0.474  1.00  0.00     0.178 C 
ENDBRANCH  11  14
ENDBRANCH   8  11
ENDBRANCH   4   5
ENDBRANCH   3   4
ENDBRANCH   2   3
ENDBRANCH   1   2
BRANCH   1  25
HETATM   25  C17 UNL     1      -3.645  -0.832   0.633  1.00  0.00     0.138 C 
BRANCH  25  26
HETATM   26  N3  UNL     1      -4.053  -0.846  -0.752  1.00  0.00    -0.227 N 
HETATM   27  C18 UNL     1      -5.209  -1.621  -1.078  1.00  0.00     0.669 C 
HETATM   28  N4  UNL     1      -5.449  -2.698  -0.397  1.00  0.00    -0.227 N 
HETATM   29  N5  UNL     1      -6.035  -1.166  -2.133  1.00  0.00    -0.222 N 
ATOM     30  H4  UNL     1      -4.798  -2.948   0.347  1.00  0.00     0.177 HD
ATOM     31  H5  UNL     1      -6.435  -1.836  -2.790  1.00  0.00     0.178 HD
ATOM     32  H3  UNL     1      -3.540  -0.327  -1.465  1.00  0.00     0.177 HD
BRANCH  28  33
HETATM   33  C19 UNL     1      -6.571  -3.559  -0.624  1.00  0.00     0.140 C 
BRANCH  33  34
HETATM   34  C20 UNL     1      -6.193  -5.023  -0.590  1.00  0.00     0.046 C 
BRANCH  34  35
HETATM   35  C21 UNL     1      -5.609  -5.381   0.760  1.00  0.00     0.165 C 
BRANCH  35  36
HETATM   36  O4  UNL     1      -5.270  -6.740   0.756  1.00  0.00    -0.401 OA
ATOM     37  H4  UNL     1      -4.904  -6.965   1.603  1.00  0.00     0.209 HD
ENDBRANCH  35  36
ENDBRANCH  34  35
ENDBRANCH  33  34
ENDBRANCH  28  33
BRANCH  29  38
HETATM   38  C22 UNL     1      -6.311   0.224  -2.283  1.00  0.00     0.176 C 
BRANCH  38  39
HETATM   39  C23 UNL     1      -6.984   0.768  -1.082  1.00  0.00    -0.037 A 
HETATM   40  C24 UNL     1      -7.994   0.111  -0.433  1.00  0.00     0.012 A 
HETATM   41  C25 UNL     1      -8.589   0.650   0.676  1.00  0.00     0.040 A 
HETATM   42  C26 UNL     1      -8.204   1.881   1.200  1.00  0.00     0.105 A 
HETATM   43  C27 UNL     1      -7.185   2.547   0.548  1.00  0.00     0.105 A 
HETATM   44  O6  UNL     1      -8.621   2.653   2.287  1.00  0.00    -0.323 OA
HETATM   45  C28 UNL     1      -6.592   1.995  -0.570  1.00  0.00     0.048 A 
HETATM   46  O5  UNL     1      -7.008   3.729   1.272  1.00  0.00    -0.323 OA
HETATM   47  C29 UNL     1      -8.228   3.986   1.938  1.00  0.00     0.352 C 
ENDBRANCH  38  39
ENDBRANCH  29  38
ENDBRANCH  25  26
ENDBRANCH   1  25
TORSDOF 15
