REMARK  6 active torsions:
REMARK  status: ('A' for Active; 'I' for Inactive)
REMARK    1  A    between atoms: C2_2  and  O1_3 
REMARK    2  A    between atoms: O1_3  and  C3_4 
REMARK    3  A    between atoms: C4_7  and  N2_8 
REMARK    4  A    between atoms: N2_8  and  C5_10 
REMARK    5  A    between atoms: C11_20  and  N4_21 
REMARK    6  A    between atoms: C14_26  and  N6_27 
ROOT
HETATM    1  C3  UNL     1       0.221   2.459   1.064  1.00  0.00     0.183 A 
HETATM    2  N1  UNL     1      -1.093   2.347   0.930  1.00  0.00    -0.168 N 
ATOM      3  H1  UNL     1      -1.692   3.142   1.152  1.00  0.00     0.186 HD
HETATM    4  C4  UNL     1      -1.642   1.206   0.508  1.00  0.00     0.686 A 
HETATM    5  N3  UNL     1      -0.869   0.166   0.218  1.00  0.00    -0.175 N 
ATOM      6  H3  UNL     1      -1.317  -0.693  -0.101  1.00  0.00     0.186 HD
HETATM    7  C11 UNL     1       0.486   0.183   0.323  1.00  0.00     0.145 A 
HETATM    8  C16 UNL     1       1.026   1.371   0.760  1.00  0.00     0.129 A 
HETATM    9 CL3  UNL     1       2.748   1.559   0.945  1.00  0.00    -0.076 Cl
ENDROOT
BRANCH   7  10
HETATM   10  N4  UNL     1       1.195  -0.976  -0.007  1.00  0.00    -0.357 N 
HETATM   11  C12 UNL     1       0.398  -2.127  -0.506  1.00  0.00     0.168 C 
HETATM   12  C13 UNL     1       1.092  -2.641  -1.750  1.00  0.00     0.077 C 
HETATM   13  N5  UNL     1       2.415  -2.977  -1.470  1.00  0.00    -0.373 N 
HETATM   14  C14 UNL     1       2.999  -2.599  -0.264  1.00  0.00     0.299 C 
ATOM     15  H5  UNL     1       2.959  -3.504  -2.153  1.00  0.00     0.160 HD
HETATM   16  C15 UNL     1       2.614  -1.137   0.103  1.00  0.00     0.179 C 
BRANCH  14  17
HETATM   17  N6  UNL     1       4.453  -2.583  -0.377  1.00  0.00    -0.057 N 
ATOM     18  H63 UNL     1       4.816  -3.477  -0.709  1.00  0.00     0.276 HD
ATOM     19  H62 UNL     1       4.765  -1.994  -1.149  1.00  0.00     0.276 HD
ATOM     20  H61 UNL     1       4.881  -2.306   0.507  1.00  0.00     0.276 HD
ENDBRANCH  14  17
ENDBRANCH   7  10
BRANCH   4  21
HETATM   21  N2  UNL     1      -2.925   1.078   0.372  1.00  0.00    -0.191 N 
ATOM     22  H2  UNL     1      -3.551   1.854   0.586  1.00  0.00     0.184 HD
BRANCH  21  23
HETATM   23  C5  UNL     1      -3.439  -0.163  -0.081  1.00  0.00     0.052 A 
HETATM   24  C6  UNL     1      -3.368  -1.313   0.711  1.00  0.00     0.054 A 
HETATM   25  C7  UNL     1      -3.870  -2.501   0.257  1.00  0.00     0.037 A 
HETATM   26 CL1  UNL     1      -3.767  -3.925   1.270  1.00  0.00    -0.084 Cl
HETATM   27  C8  UNL     1      -4.463  -2.615  -0.991  1.00  0.00     0.048 A 
HETATM   28  C9  UNL     1      -4.548  -1.497  -1.795  1.00  0.00     0.037 A 
HETATM   29 CL2  UNL     1      -5.298  -1.612  -3.390  1.00  0.00    -0.084 Cl
HETATM   30  C10 UNL     1      -4.038  -0.313  -1.321  1.00  0.00     0.054 A 
ENDBRANCH  21  23
ENDBRANCH   4  21
BRANCH   1  31
HETATM   31  O1  UNL     1       0.757   3.664   1.506  1.00  0.00    -0.334 OA
BRANCH  31  32
HETATM   32  C2  UNL     1       1.028   4.742   0.628  1.00  0.00     0.173 C 
HETATM   33  C1  UNL     1       1.594   5.872   1.430  1.00  0.00     0.034 C 
ENDBRANCH  31  32
ENDBRANCH   1  31
TORSDOF 6
