REMARK  6 active torsions:
REMARK  status: ('A' for Active; 'I' for Inactive)
REMARK    1  A    between atoms: C2_2  and  C3_3 
REMARK    2  A    between atoms: C3_3  and  C4_4 
REMARK    3  A    between atoms: C4_4  and  N1_5 
REMARK    4  A    between atoms: C5_6  and  O1_7 
REMARK    5  A    between atoms: C7_11  and  N2_12 
REMARK    6  A    between atoms: N2_12  and  C8_14 
ROOT
HETATM    1  N1  UNL     1       0.311  -0.293  -1.058  1.00  0.00    -0.282 N 
HETATM    2  C5  UNL     1       0.297  -0.936  -2.229  1.00  0.00     0.169 A 
HETATM    3  C6  UNL     1       1.614  -1.021  -2.670  1.00  0.00     0.202 A 
HETATM    4  O2  UNL     1       2.356  -0.443  -1.777  1.00  0.00    -0.287 OA
HETATM    5  C7  UNL     1       1.616   0.009  -0.792  1.00  0.00     0.233 A 
ENDROOT
BRANCH   1   6
HETATM    6  C4  UNL     1      -0.761   0.075  -0.161  1.00  0.00     0.043 C 
HETATM    7  C10 UNL     1      -0.438  -0.282   1.279  1.00  0.00     0.031 C 
HETATM    8  C11 UNL     1      -0.138  -1.741   1.334  1.00  0.00     0.002 C 
HETATM    9  C12 UNL     1      -1.396  -2.476   1.024  1.00  0.00     0.000 C 
HETATM   10  C13 UNL     1      -2.305  -1.921   0.009  1.00  0.00     0.002 C 
HETATM   11  C14 UNL     1      -2.089  -0.531  -0.473  1.00  0.00     0.031 C 
BRANCH   6  12
HETATM   12  C3  UNL     1      -0.898   1.570  -0.215  1.00  0.00     0.031 C 
BRANCH  12  13
HETATM   13  C2  UNL     1      -1.950   2.177   0.650  1.00  0.00    -0.002 C 
HETATM   14  C1  UNL     1      -1.829   3.704   0.416  1.00  0.00     0.005 C 
ENDBRANCH  12  13
ENDBRANCH   6  12
ENDBRANCH   1   6
BRANCH   2  15
HETATM   15  O1  UNL     1      -0.804  -1.439  -2.911  1.00  0.00    -0.344 OA
ATOM     16  H1  UNL     1      -0.814  -1.896  -3.744  1.00  0.00     0.219 HD
ENDBRANCH   2  15
BRANCH   5  17
HETATM   17  N2  UNL     1       2.124   0.614   0.200  1.00  0.00    -0.294 N 
ATOM     18  H2  UNL     1       1.477   0.933   0.921  1.00  0.00     0.169 HD
BRANCH  17  19
HETATM   19  C8  UNL     1       3.501   0.893   0.411  1.00  0.00     0.321 C 
HETATM   20  C9  UNL     1       4.264  -0.360   0.790  1.00  0.00     0.117 C 
HETATM   21  F1  UNL     1       4.075   1.510  -0.670  1.00  0.00    -0.183 F 
HETATM   22  F2  UNL     1       3.596   1.789   1.481  1.00  0.00    -0.183 F 
ENDBRANCH  17  19
ENDBRANCH   5  17
TORSDOF 6
