REMARK  2 active torsions:
REMARK  status: ('A' for Active; 'I' for Inactive)
REMARK    1  A    between atoms: C1_2  and  C2_4 
REMARK    2  A    between atoms: C3_5  and  N2_6 
REMARK       I    between atoms: N2_6  and  C4_8 
REMARK       I    between atoms: C4_8  and  N3_10 
REMARK       I    between atoms: N4_19  and  C12_20 
REMARK       I    between atoms: C12_20  and  N5_22 
ROOT
HETATM    1  C2  UNL     1      -1.681  -0.054  -0.895  1.00  0.00     0.070 A 
HETATM    2  C3  UNL     1      -2.223  -0.369   0.315  1.00  0.00     0.094 A 
HETATM    3  S1  UNL     1      -0.782  -0.617   1.294  1.00  0.00    -0.070 SA
HETATM    4  C8  UNL     1       0.393  -0.301   0.146  1.00  0.00     0.030 A 
HETATM    5  C9  UNL     1      -0.318  -0.010  -0.998  1.00  0.00    -0.020 A 
HETATM    6  C10 UNL     1       0.585   0.303  -2.182  1.00  0.00     0.061 C 
HETATM    7  C11 UNL     1       1.621  -0.839  -2.141  1.00  0.00     0.138 C 
HETATM    8  N4  UNL     1       2.522  -0.448  -1.022  1.00  0.00    -0.308 N 
HETATM    9  C12 UNL     1       3.872  -0.276  -1.334  1.00  0.00     0.324 C 
HETATM   10  O3  UNL     1       4.274  -0.450  -2.557  1.00  0.00    -0.247 OA
HETATM   11  N5  UNL     1       4.877   0.085  -0.408  1.00  0.00    -0.334 N 
HETATM   12  C13 UNL     1       4.795   0.329   0.988  1.00  0.00     0.127 C 
HETATM   13  C14 UNL     1       6.221   0.250   1.511  1.00  0.00     0.022 C 
HETATM   14  C15 UNL     1       6.975   0.837   0.326  1.00  0.00     0.022 C 
HETATM   15  C16 UNL     1       6.279   0.281  -0.871  1.00  0.00     0.127 C 
HETATM   16  C17 UNL     1       1.904  -0.290   0.225  1.00  0.00     0.115 C 
ENDROOT
BRANCH   2  17
HETATM   17  N2  UNL     1      -3.521  -0.299   0.917  1.00  0.00    -0.302 N 
HETATM   18  C4  UNL     1      -4.632   0.473   0.700  1.00  0.00     0.323 C 
HETATM   19  O2  UNL     1      -4.724   1.391  -0.132  1.00  0.00    -0.247 OA
HETATM   20  N3  UNL     1      -5.813   0.210   1.505  1.00  0.00    -0.334 N 
HETATM   21  C5  UNL     1      -7.131   0.782   1.576  1.00  0.00     0.129 C 
HETATM   22  C7  UNL     1      -6.173  -0.728   2.569  1.00  0.00     0.129 C 
HETATM   23  C6  UNL     1      -7.368   0.117   2.897  1.00  0.00     0.040 C 
ATOM     24  H2  UNL     1      -3.646  -0.972   1.673  1.00  0.00     0.171 HD
ENDBRANCH   2  17
BRANCH   1  25
HETATM   25  C1  UNL     1      -2.560  -0.032  -2.107  1.00  0.00     0.268 C 
HETATM   26  N1  UNL     1      -2.110   0.503  -3.311  1.00  0.00    -0.057 NA
HETATM   27  O1  UNL     1      -3.725  -0.486  -2.083  1.00  0.00    -0.271 OA
ENDBRANCH   1  25
TORSDOF 2
