REMARK  12 active torsions:
REMARK  status: ('A' for Active; 'I' for Inactive)
REMARK    1  A    between atoms: S1_2  and  N1_5 
REMARK    2  A    between atoms: N1_5  and  C2_7 
REMARK    3  A    between atoms: C5_10  and  O3_11 
REMARK    4  A    between atoms: O3_11  and  S2_12 
REMARK    5  A    between atoms: S2_12  and  C6_15 
REMARK    6  A    between atoms: C6_15  and  S3_16 
REMARK    7  A    between atoms: S3_16  and  C7_17 
REMARK    8  A    between atoms: C10_27  and  S4_28 
REMARK    9  A    between atoms: S4_28  and  N5_29 
REMARK   10  A    between atoms: N8_38  and  N9_40 
REMARK       I    between atoms: N9_40  and  C13_42 
REMARK   11  A    between atoms: C14_47  and  N12_48 
REMARK   12  A    between atoms: C15_52  and  O7_53 
ROOT
HETATM    1  C2  UNL     1      -4.116   0.862  -0.965  1.00  0.00     0.124 C 
HETATM    2  C3  UNL     1      -3.182  -0.086  -1.639  1.00  0.00     0.031 C 
HETATM    3  C4  UNL     1      -1.732   0.131  -1.376  1.00  0.00     0.041 C 
HETATM    4  C5  UNL     1      -1.281  -0.242   0.017  1.00  0.00     0.191 C 
HETATM    5  C12 UNL     1      -2.429  -0.298   0.945  1.00  0.00     0.067 C 
HETATM    6  N8  UNL     1      -2.848  -1.364   1.464  1.00  0.00    -0.302 N 
ATOM      7  H8  UNL     1      -3.649  -1.241   2.084  1.00  0.00     0.186 HD
HETATM    8  C14 UNL     1      -3.222   0.915   1.371  1.00  0.00     0.263 C 
HETATM    9  C15 UNL     1      -3.471   1.703   0.102  1.00  0.00     0.177 C 
ENDROOT
BRANCH   4  10
HETATM   10  O3  UNL     1      -0.460  -1.338   0.055  1.00  0.00    -0.264 OA
BRANCH  10  11
HETATM   11  S2  UNL     1       1.072  -0.904   0.662  1.00  0.00     0.275 S 
HETATM   12  O4  UNL     1       0.938  -0.319   2.039  1.00  0.00    -0.198 OA
HETATM   13  O5  UNL     1       1.566   0.177  -0.239  1.00  0.00    -0.198 OA
BRANCH  11  14
HETATM   14  C6  UNL     1       2.176  -2.257   0.648  1.00  0.00     0.252 C 
BRANCH  14  15
HETATM   15  S3  UNL     1       3.775  -1.781   1.309  1.00  0.00    -0.074 SA
BRANCH  15  16
HETATM   16  C7  UNL     1       4.703  -0.715   0.267  1.00  0.00     0.183 A 
HETATM   17  N2  UNL     1       4.356  -0.266  -0.938  1.00  0.00    -0.169 N 
HETATM   18  C8  UNL     1       5.141   0.551  -1.659  1.00  0.00     0.679 A 
ATOM     19  H2  UNL     1       3.459  -0.554  -1.329  1.00  0.00     0.186 HD
HETATM   20  N3  UNL     1       4.725   0.937  -2.818  1.00  0.00    -0.234 N 
HETATM   21  N4  UNL     1       6.343   0.965  -1.190  1.00  0.00    -0.173 N 
ATOM     22  H32 UNL     1       3.820   0.625  -3.171  1.00  0.00     0.174 HD
ATOM     23  H31 UNL     1       5.321   1.558  -3.366  1.00  0.00     0.174 HD
HETATM   24  C9  UNL     1       6.711   0.529   0.015  1.00  0.00     0.167 A 
ATOM     25  H4  UNL     1       6.941   1.585  -1.736  1.00  0.00     0.186 HD
HETATM   26  C10 UNL     1       7.877   0.790   0.736  1.00  0.00     0.115 A 
HETATM   27  N7  UNL     1       5.921  -0.287   0.729  1.00  0.00    -0.215 N 
HETATM   28  C11 UNL     1       7.730   0.084   1.911  1.00  0.00     0.134 A 
HETATM   29  N6  UNL     1       6.547  -0.554   1.883  1.00  0.00    -0.300 N 
ATOM     30  H6  UNL     1       6.182  -1.150   2.626  1.00  0.00     0.186 HD
BRANCH  26  31
HETATM   31  S4  UNL     1       9.220   1.779   0.273  1.00  0.00     0.149 S 
HETATM   32  O6  UNL     1       8.797   3.118  -0.611  1.00  0.00    -0.230 OA
BRANCH  31  33
HETATM   33  N5  UNL     1      10.422   0.898  -0.578  1.00  0.00    -0.345 NA
ATOM     34  H52 UNL     1      10.682   0.075  -0.035  1.00  0.00     0.166 HD
ATOM     35  H51 UNL     1      11.213   1.481  -0.851  1.00  0.00     0.166 HD
ENDBRANCH  31  33
ENDBRANCH  26  31
ENDBRANCH  15  16
ENDBRANCH  14  15
ENDBRANCH  11  14
ENDBRANCH  10  11
ENDBRANCH   4  10
BRANCH   6  36
HETATM   36  N9  UNL     1      -2.424  -2.653   1.347  1.00  0.00    -0.274 N 
HETATM   37  C13 UNL     1      -3.290  -3.658   0.849  1.00  0.00     0.200 C 
HETATM   38  N10 UNL     1      -4.432  -3.408   0.307  1.00  0.00    -0.372 N 
HETATM   39  N11 UNL     1      -2.932  -5.047   0.924  1.00  0.00    -0.062 NA
ATOM     40 2H10 UNL     1      -4.686  -2.422   0.254  1.00  0.00     0.158 HD
ATOM     41 1H10 UNL     1      -5.055  -4.131  -0.051  1.00  0.00     0.158 HD
ATOM     42  H9  UNL     1      -1.472  -2.898   1.621  1.00  0.00     0.189 HD
ENDBRANCH   6  36
BRANCH   8  43
HETATM   43  N12 UNL     1      -2.278   1.717   2.162  1.00  0.00    -0.067 N 
ATOM     44 3H12 UNL     1      -1.848   1.209   2.935  1.00  0.00     0.275 HD
ATOM     45 2H12 UNL     1      -1.410   1.938   1.674  1.00  0.00     0.275 HD
ATOM     46 1H12 UNL     1      -2.813   2.536   2.450  1.00  0.00     0.275 HD
ENDBRANCH   8  43
BRANCH   1  47
HETATM   47  N1  UNL     1      -4.837   1.706  -1.869  1.00  0.00    -0.312 N 
ATOM     48  H1  UNL     1      -4.382   2.384  -2.480  1.00  0.00     0.172 HD
BRANCH  47  49
HETATM   49  S1  UNL     1      -6.540   1.473  -1.832  1.00  0.00     0.223 S 
HETATM   50  C1  UNL     1      -7.220   1.839  -0.240  1.00  0.00     0.185 C 
HETATM   51  O1  UNL     1      -7.143   2.456  -2.817  1.00  0.00    -0.206 OA
HETATM   52  O2  UNL     1      -6.939   0.087  -2.237  1.00  0.00    -0.206 OA
ENDBRANCH  47  49
ENDBRANCH   1  47
BRANCH   9  53
HETATM   53  O7  UNL     1      -4.324   2.765   0.389  1.00  0.00    -0.391 OA
ATOM     54  H7  UNL     1      -3.917   3.296   1.063  1.00  0.00     0.210 HD
ENDBRANCH   9  53
TORSDOF 12
