REMARK  4 active torsions:
REMARK  status: ('A' for Active; 'I' for Inactive)
REMARK       I    between atoms: C1_2  and  N1_3 
REMARK    1  A    between atoms: C1_2  and  C12_23 
REMARK    2  A    between atoms: C3_6  and  C4_7 
REMARK    3  A    between atoms: N3_13  and  C6_14 
REMARK    4  A    between atoms: C9_17  and  N4_18 
ROOT
HETATM    1  O1  UNL     1       1.576  -1.075  -2.258  1.00  0.00    -0.267 OA
HETATM    2  C1  UNL     1       1.461  -0.520  -1.095  1.00  0.00     0.257 C 
HETATM    3  N1  UNL     1       0.379  -0.800  -0.354  1.00  0.00    -0.306 N 
ATOM      4  H1  UNL     1      -0.292  -0.061  -0.562  1.00  0.00     0.170 HD
HETATM    5  C2  UNL     1      -0.182  -1.534   0.461  1.00  0.00     0.148 A 
HETATM    6  C3  UNL     1       0.247  -2.682   1.091  1.00  0.00     0.103 A 
HETATM    7  C5  UNL     1      -0.834  -3.060   1.903  1.00  0.00     0.130 A 
HETATM    8  N2  UNL     1      -1.807  -2.170   1.733  1.00  0.00    -0.302 N 
ATOM      9  H2  UNL     1      -2.707  -2.213   2.212  1.00  0.00     0.186 HD
HETATM   10  N3  UNL     1      -1.481  -1.237   0.886  1.00  0.00    -0.239 N 
ENDROOT
BRANCH   6  11
HETATM   11  C4  UNL     1       1.510  -3.385   0.981  1.00  0.00     0.214 C 
HETATM   12  O2  UNL     1       2.453  -3.057   0.274  1.00  0.00    -0.644 OA
HETATM   13  O3  UNL     1       1.680  -4.556   1.756  1.00  0.00    -0.644 OA
ENDBRANCH   6  11
BRANCH  10  14
HETATM   14  C6  UNL     1      -2.255  -0.113   0.445  1.00  0.00     0.058 A 
HETATM   15  C7  UNL     1      -2.798   0.735   1.368  1.00  0.00     0.034 A 
HETATM   16  C8  UNL     1      -3.545   1.819   0.918  1.00  0.00     0.038 A 
HETATM   17  C9  UNL     1      -3.754   2.065  -0.420  1.00  0.00     0.103 A 
HETATM   18  C10 UNL     1      -3.203   1.205  -1.345  1.00  0.00     0.038 A 
HETATM   19  C11 UNL     1      -2.465   0.135  -0.893  1.00  0.00     0.034 A 
BRANCH  17  20
HETATM   20  N4  UNL     1      -4.511   3.166  -0.842  1.00  0.00    -0.116 N 
HETATM   21  O4  UNL     1      -5.002   3.933  -0.002  1.00  0.00    -0.532 OA
HETATM   22  O5  UNL     1      -4.717   3.406  -2.172  1.00  0.00    -0.532 OA
ENDBRANCH  17  20
ENDBRANCH  10  14
BRANCH   2  23
HETATM   23  C12 UNL     1       2.570   0.385  -0.710  1.00  0.00     0.032 A 
HETATM   24  C13 UNL     1       3.641   0.608  -1.543  1.00  0.00     0.017 A 
HETATM   25  C14 UNL     1       4.680   1.459  -1.179  1.00  0.00     0.001 A 
HETATM   26  C15 UNL     1       4.653   2.102   0.040  1.00  0.00     0.000 A 
HETATM   27  C16 UNL     1       3.596   1.886   0.870  1.00  0.00     0.001 A 
HETATM   28  C17 UNL     1       2.560   1.035   0.502  1.00  0.00     0.017 A 
ENDBRANCH   2  23
TORSDOF 4
