REMARK  5 active torsions:
REMARK  status: ('A' for Active; 'I' for Inactive)
REMARK    1  A    between atoms: C5_7  and  C6_8 
REMARK    2  A    between atoms: C6_8  and  C7_9 
REMARK    3  A    between atoms: C10_12  and  C11_13 
REMARK    4  A    between atoms: C11_13  and  O1_14 
REMARK    5  A    between atoms: C12_16  and  O2_17 
ROOT
HETATM    1  C7  UNL     1       0.036  -0.596   0.183  1.00  0.00    -0.010 C 
HETATM    2  C8  UNL     1       0.487   0.303   1.281  1.00  0.00     0.032 C 
HETATM    3  C9  UNL     1       1.851   0.835   1.119  1.00  0.00    -0.019 C 
HETATM    4  C10 UNL     1       2.945   0.200   0.791  1.00  0.00    -0.032 C 
HETATM    5  C12 UNL     1       3.173  -1.213   0.485  1.00  0.00     0.149 C 
HETATM    6  C13 UNL     1       2.039  -1.918  -0.165  1.00  0.00     0.037 C 
HETATM    7  C14 UNL     1       1.131  -0.873  -0.802  1.00  0.00     0.007 C 
ENDROOT
BRANCH   1   8
HETATM    8  C6  UNL     1      -1.186  -0.074  -0.545  1.00  0.00     0.017 C 
BRANCH   8   9
HETATM    9  C5  UNL     1      -2.358   0.082   0.399  1.00  0.00     0.055 C 
HETATM   10  C2  UNL     1      -3.585   0.594  -0.273  1.00  0.00     0.015 C 
HETATM   11  C1  UNL     1      -3.469   1.794  -1.133  1.00  0.00     0.028 C 
HETATM   12  C3  UNL     1      -4.788   0.693   0.640  1.00  0.00     0.028 C 
HETATM   13  S1  UNL     1      -3.635  -1.000  -1.153  1.00  0.00    -0.112 SA
HETATM   14  C4  UNL     1      -3.053  -1.245   0.523  1.00  0.00     0.051 C 
HETATM   15  S2  UNL     1      -3.234  -2.288   1.469  1.00  0.00    -0.077 SA
ENDBRANCH   8   9
ENDBRANCH   1   8
BRANCH   4  16
HETATM   16  C11 UNL     1       4.190   1.048   0.711  1.00  0.00     0.200 C 
BRANCH  16  17
HETATM   17  O1  UNL     1       4.756   1.026  -0.539  1.00  0.00    -0.397 OA
ATOM     18  H1  UNL     1       5.540   1.560  -0.589  1.00  0.00     0.209 HD
ENDBRANCH  16  17
ENDBRANCH   4  16
BRANCH   5  19
HETATM   19  O2  UNL     1       4.292  -1.318  -0.362  1.00  0.00    -0.391 OA
ATOM     20  H2  UNL     1       4.440  -2.235  -0.561  1.00  0.00     0.210 HD
ENDBRANCH   5  19
TORSDOF 5
