REMARK  4 active torsions:
REMARK  status: ('A' for Active; 'I' for Inactive)
REMARK    1  A    between atoms: C2_2  and  C4_4 
REMARK    2  A    between atoms: C5_5  and  C6_7 
REMARK    3  A    between atoms: C8_10  and  C9_11 
REMARK    4  A    between atoms: C12_18  and  N3_19 
ROOT
HETATM    1  C6  UNL     1       0.046   0.381  -0.437  1.00  0.00     0.045 A 
HETATM    2  C7  UNL     1      -1.103  -0.333  -0.105  1.00  0.00     0.051 A 
HETATM    3  S1  UNL     1      -0.909  -1.975   0.502  1.00  0.00    -0.049 SA
HETATM    4  C8  UNL     1      -2.382   0.166  -0.220  1.00  0.00     0.048 A 
HETATM    5  N1  UNL     1      -2.428   1.434  -0.693  1.00  0.00    -0.302 N 
ATOM      6  H1  UNL     1      -3.341   1.876  -0.802  1.00  0.00     0.186 HD
HETATM    7  N2  UNL     1      -1.374   2.117  -1.015  1.00  0.00    -0.285 N 
ATOM      8  H2  UNL     1      -1.513   3.064  -1.367  1.00  0.00     0.188 HD
HETATM    9  C12 UNL     1      -0.074   1.654  -0.915  1.00  0.00     0.126 A 
ENDROOT
BRANCH   1  10
HETATM   10  C5  UNL     1       1.346  -0.197  -0.073  1.00  0.00     0.023 C 
HETATM   11  C4  UNL     1       2.524   0.020  -0.537  1.00  0.00    -0.003 C 
HETATM   12 BR1  UNL     1       1.282  -1.266   1.558  1.00  0.00    -0.050 Br
BRANCH  11  13
HETATM   13  C2  UNL     1       3.739  -0.520   0.181  1.00  0.00     0.001 C 
HETATM   14  C1  UNL     1       4.734   0.644   0.304  1.00  0.00     0.013 C 
HETATM   15  C3  UNL     1       4.445  -1.520  -0.724  1.00  0.00     0.013 C 
ENDBRANCH  11  13
ENDBRANCH   1  10
BRANCH   9  16
HETATM   16  N3  UNL     1       0.851   2.473  -1.229  1.00  0.00    -0.384 N 
ATOM     17  H32 UNL     1       1.809   2.132  -1.155  1.00  0.00     0.157 HD
ATOM     18  H31 UNL     1       0.761   3.424  -1.586  1.00  0.00     0.157 HD
ENDBRANCH   9  16
BRANCH   4  19
HETATM   19  C9  UNL     1      -3.591  -0.581  -0.048  1.00  0.00     0.030 C 
HETATM   20  C10 UNL     1      -4.414  -0.484   1.185  1.00  0.00     0.016 C 
HETATM   21  C11 UNL     1      -4.615   0.127  -1.074  1.00  0.00     0.016 C 
ENDBRANCH   4  19
TORSDOF 4
