REMARK  12 active torsions:
REMARK  status: ('A' for Active; 'I' for Inactive)
REMARK    1  A    between atoms: C2_2  and  C3_3 
REMARK    2  A    between atoms: C2_2  and  N2_10 
REMARK    3  A    between atoms: C3_3  and  C4_4 
REMARK    4  A    between atoms: C4_4  and  C5_5 
REMARK    5  A    between atoms: C5_5  and  N1_6 
REMARK       I    between atoms: N2_10  and  C9_12 
REMARK    6  A    between atoms: C9_12  and  C10_14 
REMARK    7  A    between atoms: C10_14  and  C11_15 
REMARK    8  A    between atoms: C11_15  and  N3_16 
REMARK    9  A    between atoms: N3_16  and  C12_17 
REMARK   10  A    between atoms: C12_17  and  C13_18 
REMARK   11  A    between atoms: C14_19  and  C15_20 
REMARK   12  A    between atoms: C20_33  and  N8_34 
ROOT
HETATM    1  N3  UNL     1       2.018  -1.718   0.720  1.00  0.00     0.081 N 
HETATM    2  N6  UNL     1       2.517  -2.923   0.257  1.00  0.00     0.072 NA
HETATM    3  N7  UNL     1       3.049  -3.196   1.500  1.00  0.00    -0.057 NA
HETATM    4  C20 UNL     1       2.424  -2.024   2.036  1.00  0.00     0.519 C 
ENDROOT
BRANCH   1   5
HETATM    5  C11 UNL     1       0.591  -1.666   0.473  1.00  0.00     0.276 C 
BRANCH   5   6
HETATM    6  C10 UNL     1      -0.029  -0.405   1.026  1.00  0.00     0.132 C 
BRANCH   6   7
HETATM    7  C9  UNL     1      -1.479  -0.350   0.778  1.00  0.00     0.219 C 
HETATM    8  N2  UNL     1      -2.261   0.750   1.211  1.00  0.00    -0.354 N 
ATOM      9  H2  UNL     1      -1.808   1.519   1.705  1.00  0.00     0.163 HD
HETATM   10  O1  UNL     1      -2.074  -1.280   0.170  1.00  0.00    -0.274 OA
BRANCH   8  11
HETATM   11  C2  UNL     1      -3.728   0.811   0.962  1.00  0.00     0.103 C 
HETATM   12  C1  UNL     1      -4.378   0.735   2.329  1.00  0.00     0.036 C 
BRANCH  11  13
HETATM   13  C3  UNL     1      -3.980   2.061   0.245  1.00  0.00    -0.001 C 
BRANCH  13  14
HETATM   14  C4  UNL     1      -5.280   2.549  -0.177  1.00  0.00     0.023 C 
BRANCH  14  15
HETATM   15  C5  UNL     1      -6.056   1.912  -1.235  1.00  0.00     0.201 C 
BRANCH  15  16
HETATM   16  N1  UNL     1      -6.564   0.617  -1.256  1.00  0.00    -0.059 N 
HETATM   17  C6  UNL     1      -7.135   0.063  -0.079  1.00  0.00     0.277 C 
HETATM   18  C7  UNL     1      -5.721  -0.380  -1.936  1.00  0.00     0.277 C 
HETATM   19  C8  UNL     1      -7.746   0.676  -2.213  1.00  0.00     0.277 C 
ENDBRANCH  15  16
ENDBRANCH  14  15
ENDBRANCH  13  14
ENDBRANCH  11  13
ENDBRANCH   8  11
ENDBRANCH   6   7
ENDBRANCH   5   6
ENDBRANCH   1   5
BRANCH   1  20
HETATM   20  C12 UNL     1       2.697  -0.611   0.070  1.00  0.00     0.359 C 
BRANCH  20  21
HETATM   21  C13 UNL     1       4.094  -0.938  -0.215  1.00  0.00    -0.074 C 
HETATM   22  C14 UNL     1       5.266  -1.189  -0.459  1.00  0.00    -0.069 C 
BRANCH  22  23
HETATM   23  C15 UNL     1       6.676  -1.500  -0.727  1.00  0.00     0.257 C 
HETATM   24  N4  UNL     1       7.497  -1.150   0.407  1.00  0.00    -0.336 N 
HETATM   25  C16 UNL     1       8.476  -0.134   0.302  1.00  0.00     0.241 C 
ATOM     26  H4  UNL     1       7.370  -1.640   1.293  1.00  0.00     0.164 HD
HETATM   27  O2  UNL     1       9.513  -0.122   1.051  1.00  0.00    -0.271 OA
HETATM   28  C17 UNL     1       8.282   0.935  -0.704  1.00  0.00     0.172 C 
HETATM   29  C18 UNL     1       7.432   2.016  -0.082  1.00  0.00     0.042 C 
HETATM   30  N5  UNL     1       7.720   0.436  -1.938  1.00  0.00    -0.346 N 
HETATM   31  C19 UNL     1       7.064  -0.801  -1.956  1.00  0.00     0.253 C 
ATOM     32  H5  UNL     1       7.801   0.984  -2.795  1.00  0.00     0.163 HD
HETATM   33  O3  UNL     1       6.807  -1.315  -3.077  1.00  0.00    -0.270 OA
ENDBRANCH  22  23
ENDBRANCH  20  21
ENDBRANCH   1  20
BRANCH   4  34
HETATM   34  N8  UNL     1       3.351  -1.102   2.666  1.00  0.00    -0.032 N 
ATOM     35  H83 UNL     1       4.173  -0.986   2.073  1.00  0.00     0.278 HD
ATOM     36  H82 UNL     1       2.965  -0.158   2.638  1.00  0.00     0.278 HD
ATOM     37  H81 UNL     1       3.645  -1.323   3.617  1.00  0.00     0.278 HD
ENDBRANCH   4  34
TORSDOF 12
