REMARK  12 active torsions:
REMARK  status: ('A' for Active; 'I' for Inactive)
REMARK    1  A    between atoms: O1_1  and  C1_3 
REMARK    2  A    between atoms: C1_3  and  C2_4 
REMARK    3  A    between atoms: C2_4  and  C3_5 
REMARK    4  A    between atoms: C3_5  and  C4_6 
REMARK    5  A    between atoms: C7_13  and  N3_14 
REMARK    6  A    between atoms: N3_14  and  C8_16 
REMARK    7  A    between atoms: N4_26  and  C16_27 
REMARK    8  A    between atoms: C16_27  and  C17_28 
REMARK    9  A    between atoms: C16_27  and  C19_34 
REMARK   10  A    between atoms: C17_28  and  O2_29 
REMARK   11  A    between atoms: C17_28  and  C18_31 
REMARK   12  A    between atoms: C18_31  and  O3_32 
ROOT
HETATM    1  C4  UNL     1      -0.619   1.792  -0.843  1.00  0.00     0.274 C 
HETATM    2  C5  UNL     1       0.721   1.400  -1.291  1.00  0.00     0.055 A 
HETATM    3  N1  UNL     1       1.483   1.581  -2.382  1.00  0.00    -0.353 N 
ATOM      4  H1  UNL     1       1.130   2.117  -3.175  1.00  0.00     0.166 HD
HETATM    5  C6  UNL     1       2.733   1.040  -2.417  1.00  0.00     0.182 A 
HETATM    6  N2  UNL     1       3.218   0.332  -1.391  1.00  0.00    -0.338 N 
ATOM      7  H2  UNL     1       4.158  -0.058  -1.454  1.00  0.00     0.168 HD
HETATM    8  C7  UNL     1       2.501   0.126  -0.292  1.00  0.00     0.116 A 
HETATM    9  C14 UNL     1       1.220   0.678  -0.248  1.00  0.00     0.039 A 
HETATM   10  C15 UNL     1       0.206   0.633   0.837  1.00  0.00     0.318 C 
HETATM   11  N4  UNL     1      -1.079   0.862   0.061  1.00  0.00     0.111 N 
ENDROOT
BRANCH  11  12
HETATM   12  C16 UNL     1      -1.445  -0.489  -0.264  1.00  0.00     0.259 C 
BRANCH  12  13
HETATM   13  C17 UNL     1      -2.378  -0.579  -1.441  1.00  0.00     0.175 C 
BRANCH  13  14
HETATM   14  O2  UNL     1      -1.793   0.012  -2.588  1.00  0.00    -0.391 OA
ATOM     15  H2  UNL     1      -2.382  -0.045  -3.331  1.00  0.00     0.210 HD
ENDBRANCH  13  14
BRANCH  13  16
HETATM   16  C18 UNL     1      -2.609  -1.976  -1.926  1.00  0.00     0.198 C 
BRANCH  16  17
HETATM   17  O3  UNL     1      -1.414  -2.652  -2.227  1.00  0.00    -0.398 OA
ATOM     18  H3  UNL     1      -1.561  -3.539  -2.535  1.00  0.00     0.209 HD
ENDBRANCH  16  17
ENDBRANCH  13  16
ENDBRANCH  12  13
BRANCH  12  19
HETATM   19  C19 UNL     1      -2.354  -0.845   0.925  1.00  0.00     0.022 C 
HETATM   20  C20 UNL     1      -2.814  -2.230   1.058  1.00  0.00     0.007 C 
HETATM   21  C21 UNL     1      -2.681  -2.709   2.535  1.00  0.00     0.000 C 
HETATM   22  C22 UNL     1      -3.529  -1.822   3.386  1.00  0.00     0.000 C 
HETATM   23  C23 UNL     1      -3.363  -0.355   3.093  1.00  0.00     0.000 C 
HETATM   24  C24 UNL     1      -2.070  -0.233   2.248  1.00  0.00     0.007 C 
ENDBRANCH  12  19
ENDBRANCH  11  12
BRANCH   1  25
HETATM   25  C3  UNL     1      -0.476   3.126  -0.130  1.00  0.00     0.044 C 
BRANCH  25  26
HETATM   26  C2  UNL     1       0.035   4.242  -0.968  1.00  0.00     0.028 C 
BRANCH  26  27
HETATM   27  C1  UNL     1      -0.784   4.709  -2.108  1.00  0.00     0.164 C 
BRANCH  27  28
HETATM   28  O1  UNL     1      -1.080   3.842  -3.115  1.00  0.00    -0.401 OA
ATOM     29  H1  UNL     1      -1.606   4.142  -3.847  1.00  0.00     0.209 HD
ENDBRANCH  27  28
ENDBRANCH  26  27
ENDBRANCH  25  26
ENDBRANCH   1  25
BRANCH   8  30
HETATM   30  N3  UNL     1       2.918  -0.555   0.718  1.00  0.00    -0.342 N 
ATOM     31  H3  UNL     1       2.316  -0.680   1.532  1.00  0.00     0.167 HD
BRANCH  30  32
HETATM   32  C8  UNL     1       4.214  -1.132   0.700  1.00  0.00     0.035 A 
HETATM   33  C9  UNL     1       5.359  -0.446   0.363  1.00  0.00     0.031 A 
HETATM   34  C10 UNL     1       6.590  -1.046   0.355  1.00  0.00     0.028 A 
HETATM   35  C11 UNL     1       6.672  -2.379   0.699  1.00  0.00     0.055 A 
HETATM   36 CL1  UNL     1       8.205  -3.236   0.720  1.00  0.00    -0.083 Cl
HETATM   37  C12 UNL     1       5.531  -3.100   1.045  1.00  0.00     0.058 A 
HETATM   38 CL2  UNL     1       5.644  -4.808   1.488  1.00  0.00    -0.082 Cl
HETATM   39  C13 UNL     1       4.324  -2.460   1.038  1.00  0.00     0.055 A 
ENDBRANCH  30  32
ENDBRANCH   8  30
TORSDOF 12
