REMARK  6 active torsions:
REMARK  status: ('A' for Active; 'I' for Inactive)
REMARK    1  A    between atoms: C2_2  and  C3_3 
REMARK    2  A    between atoms: C4_4  and  C5_5 
REMARK    3  A    between atoms: C6_6  and  C7_7 
REMARK    4  A    between atoms: C12_16  and  C13_17 
REMARK       I    between atoms: C13_17  and  N2_19 
REMARK    5  A    between atoms: C16_22  and  C17_23 
REMARK       I    between atoms: C17_23  and  N3_25 
REMARK    6  A    between atoms: N3_25  and  C18_27 
ROOT
HETATM    1  C7  UNL     1       0.774  -0.564   0.371  1.00  0.00     0.046 C 
HETATM    2  C8  UNL     1       0.568  -2.030   0.028  1.00  0.00     0.105 C 
HETATM    3  N1  UNL     1       0.061  -2.776   1.173  1.00  0.00    -0.348 N 
ATOM      4  H1  UNL     1       0.392  -2.665   2.132  1.00  0.00     0.163 HD
HETATM    5  C9  UNL     1      -0.964  -3.684   0.765  1.00  0.00     0.288 C 
HETATM    6  O1  UNL     1      -1.579  -4.562   1.413  1.00  0.00    -0.264 OA
HETATM    7  C10 UNL     1      -1.203  -3.401  -0.655  1.00  0.00     0.223 C 
HETATM    8  O2  UNL     1      -1.757  -4.146  -1.498  1.00  0.00    -0.287 OA
HETATM    9  C11 UNL     1      -0.663  -2.068  -0.903  1.00  0.00     0.103 C 
HETATM   10  C12 UNL     1      -1.434  -0.911  -0.349  1.00  0.00     0.105 C 
HETATM   11  C16 UNL     1      -0.334   0.177  -0.328  1.00  0.00     0.101 C 
ENDROOT
BRANCH   1  12
HETATM   12  C6  UNL     1       2.096  -0.083  -0.013  1.00  0.00    -0.010 C 
HETATM   13  C5  UNL     1       2.332   0.865  -0.858  1.00  0.00     0.061 C 
BRANCH  13  14
HETATM   14  C4  UNL     1       3.717   1.240  -1.145  1.00  0.00    -0.079 C 
HETATM   15  C3  UNL     1       4.848   1.562  -1.390  1.00  0.00    -0.102 C 
BRANCH  15  16
HETATM   16  C2  UNL     1       6.230   1.975  -1.680  1.00  0.00     0.090 C 
HETATM   17  C1  UNL     1       7.086   1.419  -0.563  1.00  0.00     0.018 C 
ENDBRANCH  15  16
ENDBRANCH  13  14
ENDBRANCH   1  12
BRANCH  11  18
HETATM   18  C17 UNL     1      -0.792   1.356   0.408  1.00  0.00     0.223 C 
HETATM   19  O4  UNL     1      -0.760   2.481  -0.132  1.00  0.00    -0.273 OA
HETATM   20  N3  UNL     1      -1.276   1.245   1.730  1.00  0.00    -0.361 N 
ATOM     21  H3  UNL     1      -1.300   0.323   2.165  1.00  0.00     0.162 HD
BRANCH  20  22
HETATM   22  C18 UNL     1      -1.739   2.383   2.494  1.00  0.00     0.118 C 
HETATM   23  C19 UNL     1      -0.642   3.418   2.670  1.00  0.00     0.026 C 
ENDBRANCH  20  22
ENDBRANCH  11  18
BRANCH  10  24
HETATM   24  C13 UNL     1      -2.589  -0.470  -1.128  1.00  0.00     0.225 C 
HETATM   25  O3  UNL     1      -2.351   0.497  -1.946  1.00  0.00    -0.273 OA
HETATM   26  N2  UNL     1      -3.900  -0.997  -1.067  1.00  0.00    -0.360 N 
HETATM   27  C14 UNL     1      -4.906  -0.423  -1.971  1.00  0.00     0.152 C 
HETATM   28  C15 UNL     1      -4.335  -2.040  -0.170  1.00  0.00     0.152 C 
ENDBRANCH  10  24
TORSDOF 6
