REMARK  4 active torsions:
REMARK  status: ('A' for Active; 'I' for Inactive)
REMARK    1  A    between atoms: O1_2  and  C2_3 
REMARK    2  A    between atoms: C7_14  and  N4_15 
REMARK    3  A    between atoms: N4_15  and  N5_16 
REMARK    4  A    between atoms: N4_15  and  O3_19 
ROOT
HETATM    1  C2  UNL     1      -0.982   0.861  -0.339  1.00  0.00     0.373 C 
HETATM    2  N1  UNL     1      -1.918   0.784   0.760  1.00  0.00    -0.295 N 
ATOM      3  H1  UNL     1      -2.119   1.531   1.425  1.00  0.00     0.167 HD
HETATM    4  C3  UNL     1      -2.511  -0.509   0.757  1.00  0.00     0.280 C 
HETATM    5  O2  UNL     1      -3.429  -0.994   1.446  1.00  0.00    -0.268 OA
HETATM    6  C4  UNL     1      -1.778  -1.255  -0.312  1.00  0.00     0.294 C 
HETATM    7  C5  UNL     1      -2.579  -2.363  -0.897  1.00  0.00     0.083 C 
HETATM    8  N2  UNL     1      -0.535  -1.714   0.306  1.00  0.00    -0.285 N 
ATOM      9  H2  UNL     1      -0.470  -2.665   0.670  1.00  0.00     0.184 HD
HETATM   10  N3  UNL     1       0.566  -0.856   0.401  1.00  0.00    -0.247 N 
HETATM   11  C6  UNL     1       1.856  -0.988   0.748  1.00  0.00     0.164 A 
HETATM   12  C7  UNL     1       2.491   0.233   0.652  1.00  0.00     0.147 A 
HETATM   13  N6  UNL     1       1.547   1.093   0.240  1.00  0.00    -0.325 N 
ATOM     14  H6  UNL     1       1.695   2.088   0.071  1.00  0.00     0.168 HD
HETATM   15  C8  UNL     1       0.381   0.451   0.084  1.00  0.00     0.191 A 
HETATM   16  N7  UNL     1      -1.466  -0.201  -1.236  1.00  0.00     0.021 N 
ATOM     17  H71 UNL     1      -0.824  -0.460  -1.985  1.00  0.00     0.287 HD
ATOM     18  H72 UNL     1      -2.230   0.071  -1.854  1.00  0.00     0.287 HD
ENDROOT
BRANCH  12  19
HETATM   19  N4  UNL     1       3.875   0.530   0.934  1.00  0.00    -0.059 NA
BRANCH  19  20
HETATM   20  N5  UNL     1       4.628   0.361  -0.245  1.00  0.00    -0.335 NA
ATOM     21  H52 UNL     1       4.252   0.954  -0.985  1.00  0.00     0.173 HD
ATOM     22  H51 UNL     1       5.606   0.571  -0.046  1.00  0.00     0.173 HD
ENDBRANCH  19  20
BRANCH  19  23
HETATM   23  O3  UNL     1       4.367  -0.245   1.901  1.00  0.00    -0.288 OA
ATOM     24  H3  UNL     1       5.278  -0.050   2.087  1.00  0.00     0.239 HD
ENDBRANCH  19  23
ENDBRANCH  12  19
BRANCH   1  25
HETATM   25  O1  UNL     1      -1.038   2.041  -1.027  1.00  0.00    -0.337 OA
HETATM   26  C1  UNL     1      -0.779   3.171  -0.299  1.00  0.00     0.207 C 
ENDBRANCH   1  25
TORSDOF 4
