REMARK  2 active torsions:
REMARK  status: ('A' for Active; 'I' for Inactive)
REMARK    1  A    between atoms: N1_1  and  C1_4 
REMARK    2  A    between atoms: C2_5  and  N2_6 
ROOT
HETATM    1  C1  UNL     1      -0.985  -1.071  -0.150  1.00  0.00     0.131 C 
HETATM    2  C2  UNL     1       0.349  -0.747   0.064  1.00  0.00     0.175 C 
HETATM    3  C3  UNL     1       0.907   0.519   0.094  1.00  0.00     0.156 C 
HETATM    4  N3  UNL     1       2.316   0.523  -0.042  1.00  0.00    -0.080 NA
HETATM    5  N4  UNL     1       0.288   1.719   0.232  1.00  0.00    -0.295 N 
ATOM      6  H4  UNL     1       0.896   2.511   0.442  1.00  0.00     0.172 HD
HETATM    7  C4  UNL     1      -1.033   2.001   0.127  1.00  0.00     0.328 C 
HETATM    8  O3  UNL     1      -1.393   3.123   0.563  1.00  0.00    -0.247 OA
HETATM    9  N5  UNL     1      -1.971   1.179  -0.399  1.00  0.00    -0.274 N 
ATOM     10  H5  UNL     1      -2.791   1.654  -0.775  1.00  0.00     0.173 HD
HETATM   11  C5  UNL     1      -2.000  -0.187  -0.509  1.00  0.00     0.278 C 
HETATM   12  O4  UNL     1      -3.022  -0.694  -0.969  1.00  0.00    -0.265 OA
ENDROOT
BRANCH   1  13
HETATM   13  N1  UNL     1      -1.326  -2.296   0.014  1.00  0.00    -0.393 N 
ATOM     14  H12 UNL     1      -0.583  -2.943   0.277  1.00  0.00     0.156 HD
ATOM     15  H11 UNL     1      -2.305  -2.534  -0.143  1.00  0.00     0.156 HD
ENDBRANCH   1  13
BRANCH   2  16
HETATM   16  N2  UNL     1       1.267  -1.802   0.283  1.00  0.00    -0.110 N 
HETATM   17  O1  UNL     1       1.689  -2.544  -0.599  1.00  0.00    -0.532 OA
HETATM   18  O2  UNL     1       1.696  -1.990   1.572  1.00  0.00    -0.532 OA
ENDBRANCH   2  16
TORSDOF 2
