REMARK  21 active torsions:
REMARK  status: ('A' for Active; 'I' for Inactive)
REMARK    1  A    between atoms: C2_2  and  C3_3 
REMARK    2  A    between atoms: C3_3  and  C5_5 
REMARK    3  A    between atoms: C5_5  and  N1_6 
REMARK    4  A    between atoms: C5_5  and  C16_28 
REMARK       I    between atoms: N1_6  and  C6_7 
REMARK    5  A    between atoms: C6_7  and  C7_9 
REMARK    6  A    between atoms: C7_9  and  N2_10 
REMARK    7  A    between atoms: C7_9  and  C13_25 
REMARK       I    between atoms: N2_10  and  C8_12 
REMARK    8  A    between atoms: C8_12  and  C9_14 
REMARK    9  A    between atoms: C9_14  and  N3_15 
REMARK       I    between atoms: N3_15  and  C10_16 
REMARK   10  A    between atoms: C10_16  and  C11_18 
REMARK   11  A    between atoms: C11_18  and  N5_22 
REMARK       I    between atoms: C16_28  and  N6_30 
REMARK   12  A    between atoms: N6_30  and  C17_32 
REMARK   13  A    between atoms: C17_32  and  C18_33 
REMARK   14  A    between atoms: C17_32  and  C25_46 
REMARK   15  A    between atoms: C18_33  and  O5_34 
REMARK   16  A    between atoms: C18_33  and  N7_36 
REMARK   17  A    between atoms: N7_36  and  C19_38 
REMARK   18  A    between atoms: C19_38  and  C20_39 
REMARK   19  A    between atoms: C19_38  and  C24_43 
REMARK   20  A    between atoms: C20_39  and  C21_40 
REMARK   21  A    between atoms: C25_46  and  C27_48 
ROOT
HETATM    1  C5  UNL     1       0.056   0.574   0.283  1.00  0.00     0.159 C 
ENDROOT
BRANCH   1   2
HETATM    2  C3  UNL     1      -0.271   0.855   1.708  1.00  0.00     0.051 C 
HETATM    3  C4  UNL     1       0.369   2.175   2.193  1.00  0.00     0.018 C 
BRANCH   2   4
HETATM    4  C2  UNL     1      -0.091  -0.225   2.696  1.00  0.00     0.007 C 
HETATM    5  C1  UNL     1       1.286  -0.625   3.021  1.00  0.00     0.006 C 
ENDBRANCH   2   4
ENDBRANCH   1   2
BRANCH   1   6
HETATM    6  N1  UNL     1       1.390   0.231  -0.042  1.00  0.00    -0.367 NA
HETATM    7  C6  UNL     1       2.641  -0.098  -0.345  1.00  0.00     0.315 C 
HETATM    8  O1  UNL     1       3.124  -1.286  -0.212  1.00  0.00    -0.255 OA
BRANCH   7   9
HETATM    9  C7  UNL     1       3.711   0.846  -0.892  1.00  0.00     0.195 C 
BRANCH   9  10
HETATM   10  N2  UNL     1       4.885   0.065  -1.026  1.00  0.00    -0.341 N 
HETATM   11  C8  UNL     1       6.228   0.146  -0.817  1.00  0.00     0.271 C 
HETATM   12  O2  UNL     1       6.834   1.106  -0.357  1.00  0.00    -0.266 OA
ATOM     13  H2  UNL     1       4.648  -0.854  -1.399  1.00  0.00     0.163 HD
BRANCH  11  14
HETATM   14  C9  UNL     1       7.110  -1.043  -1.162  1.00  0.00     0.260 C 
BRANCH  14  15
HETATM   15  N3  UNL     1       8.443  -0.902  -0.801  1.00  0.00    -0.371 NA
HETATM   16  C10 UNL     1       9.707  -0.767  -0.448  1.00  0.00     0.359 C 
HETATM   17  O3  UNL     1      10.197  -0.633   0.742  1.00  0.00    -0.248 OA
BRANCH  16  18
HETATM   18  C11 UNL     1      10.825  -0.748  -1.453  1.00  0.00     0.178 C 
HETATM   19  N4  UNL     1      10.468  -0.890  -2.672  1.00  0.00    -0.380 N 
ATOM     20  H42 UNL     1       9.489  -1.025  -2.924  1.00  0.00     0.158 HD
ATOM     21  H41 UNL     1      11.227  -0.877  -3.354  1.00  0.00     0.158 HD
BRANCH  18  22
HETATM   22  N5  UNL     1      12.162  -0.563  -1.109  1.00  0.00    -0.376 N 
HETATM   23  C12 UNL     1      12.524   0.356  -0.028  1.00  0.00     0.148 C 
ATOM     24  H5  UNL     1      12.891  -1.069  -1.612  1.00  0.00     0.160 HD
ENDBRANCH  18  22
ENDBRANCH  16  18
ENDBRANCH  14  15
ENDBRANCH  11  14
ENDBRANCH   9  10
BRANCH   9  25
HETATM   25  C13 UNL     1       3.768   1.991   0.091  1.00  0.00     0.010 C 
HETATM   26  C14 UNL     1       4.669   3.126  -0.338  1.00  0.00     0.012 C 
HETATM   27  C15 UNL     1       4.209   1.500   1.483  1.00  0.00     0.012 C 
ENDBRANCH   9  25
ENDBRANCH   7   9
ENDBRANCH   1   6
BRANCH   1  28
HETATM   28  C16 UNL     1      -0.991  -0.287  -0.406  1.00  0.00     0.279 C 
HETATM   29  O4  UNL     1      -0.583  -0.890  -1.450  1.00  0.00    -0.265 OA
HETATM   30  N6  UNL     1      -2.261  -0.444  -0.008  1.00  0.00    -0.343 N 
ATOM     31  H6  UNL     1      -2.390   0.080   0.857  1.00  0.00     0.163 HD
BRANCH  30  32
HETATM   32  C17 UNL     1      -3.524  -1.080  -0.345  1.00  0.00     0.163 C 
BRANCH  32  33
HETATM   33  C18 UNL     1      -4.469  -0.026  -0.692  1.00  0.00     0.135 C 
BRANCH  33  34
HETATM   34  O5  UNL     1      -3.988   0.843  -1.533  1.00  0.00    -0.348 OA
ATOM     35  H5  UNL     1      -4.604   1.530  -1.759  1.00  0.00     0.219 HD
ENDBRANCH  33  34
BRANCH  33  36
HETATM   36  N7  UNL     1      -5.763   0.224  -0.286  1.00  0.00    -0.360 N 
ATOM     37  H7  UNL     1      -6.213  -0.416   0.369  1.00  0.00     0.162 HD
BRANCH  36  38
HETATM   38  C19 UNL     1      -6.499   1.377  -0.769  1.00  0.00     0.173 C 
BRANCH  38  39
HETATM   39  C20 UNL     1      -7.972   1.282  -0.655  1.00  0.00     0.038 C 
BRANCH  39  40
HETATM   40  C21 UNL     1      -8.648   0.190  -1.397  1.00  0.00    -0.020 C 
HETATM   41  C22 UNL     1     -10.161   0.384  -1.072  1.00  0.00     0.009 C 
HETATM   42  C23 UNL     1      -8.353  -1.200  -0.924  1.00  0.00     0.009 C 
ENDBRANCH  39  40
ENDBRANCH  38  39
BRANCH  38  43
HETATM   43  C24 UNL     1      -6.123   2.477   0.232  1.00  0.00     0.253 C 
HETATM   44  N8  UNL     1      -6.611   3.777   0.067  1.00  0.00    -0.060 NA
HETATM   45  O6  UNL     1      -5.373   2.127   1.166  1.00  0.00    -0.275 OA
ENDBRANCH  38  43
ENDBRANCH  36  38
ENDBRANCH  33  36
ENDBRANCH  32  33
BRANCH  32  46
HETATM   46  C25 UNL     1      -3.820  -2.066   0.682  1.00  0.00     0.012 C 
HETATM   47  C26 UNL     1      -2.670  -3.087   0.723  1.00  0.00     0.012 C 
BRANCH  46  48
HETATM   48  C27 UNL     1      -5.065  -2.880   0.653  1.00  0.00     0.002 C 
HETATM   49  C28 UNL     1      -5.212  -3.736  -0.604  1.00  0.00     0.005 C 
ENDBRANCH  46  48
ENDBRANCH  32  46
ENDBRANCH  30  32
ENDBRANCH   1  28
TORSDOF 21
