REMARK  13 active torsions:
REMARK  status: ('A' for Active; 'I' for Inactive)
REMARK    1  A    between atoms: C4_4  and  N1_5 
REMARK    2  A    between atoms: N1_5  and  C5_7 
REMARK    3  A    between atoms: C5_7  and  C6_8 
REMARK    4  A    between atoms: C6_8  and  N2_9 
REMARK    5  A    between atoms: N2_9  and  C7_11 
REMARK    6  A    between atoms: C10_18  and  C11_19 
REMARK    7  A    between atoms: C11_19  and  C12_20 
REMARK    8  A    between atoms: C12_20  and  C13_21 
REMARK       I    between atoms: C13_21  and  N5_23 
REMARK    9  A    between atoms: N5_23  and  N6_25 
REMARK   10  A    between atoms: C15_30  and  C16_31 
REMARK   11  A    between atoms: N8_33  and  C18_34 
REMARK   12  A    between atoms: C19_39  and  N11_40 
REMARK   13  A    between atoms: C20_45  and  N13_46 
ROOT
HETATM    1  C7  UNL     1       0.693  -1.287  -0.234  1.00  0.00     0.131 A 
HETATM    2  N3  UNL     1       0.637  -2.638  -0.066  1.00  0.00    -0.175 N 
ATOM      3  H3  UNL     1       1.494  -3.179   0.051  1.00  0.00     0.186 HD
HETATM    4  C8  UNL     1      -0.569  -3.254  -0.056  1.00  0.00     0.690 A 
HETATM    5  N4  UNL     1      -0.945  -4.551   0.086  1.00  0.00    -0.199 N 
ATOM      6  H4  UNL     1      -0.303  -5.332   0.220  1.00  0.00     0.183 HD
HETATM    7  C9  UNL     1      -2.285  -4.661   0.025  1.00  0.00     0.132 A 
HETATM    8  C10 UNL     1      -2.742  -3.364  -0.165  1.00  0.00     0.050 A 
HETATM    9  N7  UNL     1      -1.678  -2.539  -0.210  1.00  0.00    -0.159 N 
HETATM   10  C14 UNL     1      -1.664  -1.184  -0.380  1.00  0.00     0.133 A 
HETATM   11  C15 UNL     1      -0.447  -0.538  -0.393  1.00  0.00     0.054 A 
ENDROOT
BRANCH  11  12
HETATM   12  C16 UNL     1      -0.312   0.898  -0.567  1.00  0.00     0.082 A 
HETATM   13  C17 UNL     1      -1.303   1.846  -0.743  1.00  0.00     0.151 A 
HETATM   14  N8  UNL     1      -0.705   3.046  -0.861  1.00  0.00    -0.230 N 
HETATM   15  N14 UNL     1       0.604   2.886  -0.767  1.00  0.00    -0.234 N 
HETATM   16  N15 UNL     1       0.833   1.602  -0.592  1.00  0.00    -0.284 N 
ATOM     17  H14 UNL     1       1.307   3.623  -0.820  1.00  0.00     0.209 HD
ATOM     18  H15 UNL     1       1.762   1.193  -0.488  1.00  0.00     0.188 HD
BRANCH  14  19
HETATM   19  C18 UNL     1      -1.400   4.263  -1.054  1.00  0.00     0.188 A 
HETATM   20  N9  UNL     1      -2.284   4.692  -0.108  1.00  0.00    -0.267 N 
HETATM   21  N10 UNL     1      -2.960   5.810  -0.226  1.00  0.00    -0.131 N 
ATOM     22  H9  UNL     1      -2.425   4.120   0.725  1.00  0.00     0.189 HD
HETATM   23  C19 UNL     1      -2.790   6.578  -1.314  1.00  0.00     0.692 A 
ATOM     24  H10 UNL     1      -3.612   6.094   0.505  1.00  0.00     0.205 HD
HETATM   25  N12 UNL     1      -1.937   6.215  -2.283  1.00  0.00    -0.172 N 
HETATM   26  C20 UNL     1      -1.245   5.070  -2.161  1.00  0.00     0.162 A 
ATOM     27  H12 UNL     1      -1.814   6.804  -3.107  1.00  0.00     0.186 HD
BRANCH  23  28
HETATM   28  N11 UNL     1      -3.474   7.678  -1.401  1.00  0.00    -0.233 N 
ATOM     29 2H11 UNL     1      -4.123   7.954  -0.664  1.00  0.00     0.174 HD
ATOM     30 1H11 UNL     1      -3.345   8.261  -2.228  1.00  0.00     0.174 HD
ENDBRANCH  23  28
BRANCH  26  31
HETATM   31  N13 UNL     1      -0.437   4.728  -3.082  1.00  0.00    -0.382 N 
ATOM     32 2H13 UNL     1       0.088   3.859  -2.989  1.00  0.00     0.157 HD
ATOM     33 1H13 UNL     1      -0.322   5.325  -3.901  1.00  0.00     0.157 HD
ENDBRANCH  26  31
ENDBRANCH  14  19
ENDBRANCH  11  12
BRANCH   1  34
HETATM   34  N2  UNL     1       1.823  -0.679  -0.247  1.00  0.00    -0.373 N 
ATOM     35  H2  UNL     1       1.876   0.332  -0.372  1.00  0.00     0.161 HD
BRANCH  34  36
HETATM   36  C6  UNL     1       3.019  -1.475  -0.078  1.00  0.00     0.141 C 
BRANCH  36  37
HETATM   37  C5  UNL     1       4.273  -0.634  -0.164  1.00  0.00     0.141 C 
BRANCH  37  38
HETATM   38  N1  UNL     1       5.397  -1.514   0.015  1.00  0.00    -0.373 N 
ATOM     39  H1  UNL     1       5.327  -2.503  -0.225  1.00  0.00     0.161 HD
BRANCH  38  40
HETATM   40  C4  UNL     1       6.493  -1.029   0.484  1.00  0.00     0.124 A 
HETATM   41  C3  UNL     1       7.669  -1.733   0.719  1.00  0.00     0.084 A 
HETATM   42  C2  UNL     1       8.582  -0.839   1.217  1.00  0.00     0.076 A 
HETATM   43  C1  UNL     1       9.984  -1.097   1.624  1.00  0.00     0.079 C 
HETATM   44  O2  UNL     1       7.988   0.318   1.274  1.00  0.00    -0.241 OA
HETATM   45  N16 UNL     1       6.772   0.237   0.854  1.00  0.00    -0.245 N 
ATOM     46  H16 UNL     1       6.116   1.017   0.808  1.00  0.00     0.196 HD
ENDBRANCH  38  40
ENDBRANCH  37  38
ENDBRANCH  36  37
ENDBRANCH  34  36
ENDBRANCH   1  34
BRANCH   8  47
HETATM   47  C11 UNL     1      -4.156  -2.956  -0.297  1.00  0.00     0.069 C 
BRANCH  47  48
HETATM   48  C12 UNL     1      -4.793  -2.622   1.015  1.00  0.00     0.110 C 
BRANCH  48  49
HETATM   49  C13 UNL     1      -6.194  -2.227   0.796  1.00  0.00     0.235 C 
HETATM   50  O1  UNL     1      -6.658  -2.215  -0.366  1.00  0.00    -0.272 OA
HETATM   51  N5  UNL     1      -6.995  -1.867   1.910  1.00  0.00    -0.277 N 
ATOM     52  H5  UNL     1      -6.582  -1.890   2.842  1.00  0.00     0.189 HD
BRANCH  51  53
HETATM   53  N6  UNL     1      -8.338  -1.480   1.773  1.00  0.00    -0.343 N 
ATOM     54  H62 UNL     1      -8.736  -1.463   0.834  1.00  0.00     0.176 HD
ATOM     55  H61 UNL     1      -8.914  -1.221   2.574  1.00  0.00     0.176 HD
ENDBRANCH  51  53
ENDBRANCH  48  49
ENDBRANCH  47  48
ENDBRANCH   8  47
TORSDOF 13
