REMARK  11 active torsions:
REMARK  status: ('A' for Active; 'I' for Inactive)
REMARK    1  A    between atoms: O1_2  and  O2_3 
REMARK    2  A    between atoms: O2_3  and  C2_4 
REMARK    3  A    between atoms: C2_4  and  C5_7 
REMARK    4  A    between atoms: C5_7  and  O3_8 
REMARK    5  A    between atoms: C5_7  and  C6_10 
REMARK    6  A    between atoms: C6_10  and  N1_11 
REMARK    7  A    between atoms: C7_12  and  C8_13 
REMARK    8  A    between atoms: C9_15  and  N2_16 
REMARK    9  A    between atoms: C10_21  and  N4_22 
REMARK   10  A    between atoms: C12_30  and  N10_31 
REMARK   11  A    between atoms: C13_36  and  N12_37 
ROOT
HETATM    1  N1  UNL     1       0.125  -0.904  -0.082  1.00  0.00    -0.159 N 
HETATM    2  C7  UNL     1      -1.080  -0.391   0.211  1.00  0.00     0.177 A 
HETATM    3  N8  UNL     1      -1.956  -0.773  -0.764  1.00  0.00    -0.246 N 
ATOM      4  H8  UNL     1      -2.945  -0.524  -0.796  1.00  0.00     0.190 HD
HETATM    5  N9  UNL     1      -1.327  -1.517  -1.663  1.00  0.00     0.092 N 
HETATM    6  C12 UNL     1      -1.738  -2.123  -2.790  1.00  0.00     0.727 A 
HETATM    7  N11 UNL     1      -0.849  -2.819  -3.503  1.00  0.00    -0.020 N 
ATOM      8  H11 UNL     1      -1.136  -3.288  -4.362  1.00  0.00     0.203 HD
HETATM    9  C13 UNL     1       0.432  -2.900  -3.083  1.00  0.00     0.705 A 
HETATM   10  N13 UNL     1       0.830  -2.291  -1.957  1.00  0.00    -0.019 N 
ATOM     11  H13 UNL     1       1.800  -2.360  -1.650  1.00  0.00     0.203 HD
HETATM   12  C14 UNL     1      -0.053  -1.595  -1.242  1.00  0.00     0.737 A 
ENDROOT
BRANCH   2  13
HETATM   13  C8  UNL     1      -1.472   0.416   1.346  1.00  0.00     0.170 A 
HETATM   14  O4  UNL     1      -0.709   0.778   2.334  1.00  0.00    -0.272 OA
HETATM   15  C9  UNL     1      -1.375   1.503   3.198  1.00  0.00     0.224 A 
HETATM   16  N3  UNL     1      -2.643   1.639   2.782  1.00  0.00    -0.305 N 
HETATM   17  C10 UNL     1      -2.717   0.950   1.602  1.00  0.00     0.163 A 
ATOM     18  H3  UNL     1      -3.394   2.149   3.247  1.00  0.00     0.171 HD
BRANCH  15  19
HETATM   19  N2  UNL     1      -0.888   2.006   4.279  1.00  0.00    -0.365 N 
ATOM     20  H22 UNL     1       0.076   1.903   4.595  1.00  0.00     0.159 HD
ATOM     21  H21 UNL     1      -1.407   2.571   4.952  1.00  0.00     0.159 HD
ENDBRANCH  15  19
BRANCH  17  22
HETATM   22  N4  UNL     1      -3.903   0.851   0.838  1.00  0.00    -0.244 N 
HETATM   23  C11 UNL     1      -4.892  -0.184   0.983  1.00  0.00     0.279 C 
HETATM   24  N5  UNL     1      -5.678  -0.046  -0.213  1.00  0.00    -0.107 NA
HETATM   25  N6  UNL     1      -5.513   1.250  -0.656  1.00  0.00    -0.016 NA
HETATM   26  N7  UNL     1      -4.294   1.722  -0.156  1.00  0.00    -0.007 NA
ENDBRANCH  17  22
ENDBRANCH   2  13
BRANCH   1  27
HETATM   27  C6  UNL     1       1.370  -0.753   0.618  1.00  0.00     0.184 C 
BRANCH  27  28
HETATM   28  C5  UNL     1       2.206   0.355   0.078  1.00  0.00     0.174 C 
BRANCH  28  29
HETATM   29  C2  UNL     1       3.502   0.431   0.899  1.00  0.00     0.116 C 
HETATM   30  C3  UNL     1       3.169   0.910   2.295  1.00  0.00     0.052 C 
HETATM   31  C4  UNL     1       4.175  -0.907   0.936  1.00  0.00     0.052 C 
BRANCH  29  32
HETATM   32  O2  UNL     1       4.350   1.402   0.340  1.00  0.00    -0.228 OA
BRANCH  32  33
HETATM   33  O1  UNL     1       4.674   1.041  -0.876  1.00  0.00    -0.245 OA
HETATM   34  C1  UNL     1       4.629   2.110  -1.765  1.00  0.00     0.247 C 
ENDBRANCH  32  33
ENDBRANCH  29  32
ENDBRANCH  28  29
BRANCH  28  35
HETATM   35  O3  UNL     1       1.625   1.608   0.136  1.00  0.00    -0.391 OA
ATOM     36  H3  UNL     1       0.823   1.561  -0.372  1.00  0.00     0.210 HD
ENDBRANCH  28  35
ENDBRANCH  27  28
ENDBRANCH   1  27
BRANCH   6  37
HETATM   37  N10 UNL     1      -2.950  -2.051  -3.194  1.00  0.00    -0.232 N 
ATOM     38 2H10 UNL     1      -3.629  -1.519  -2.649  1.00  0.00     0.174 HD
ATOM     39 1H10 UNL     1      -3.262  -2.511  -4.049  1.00  0.00     0.174 HD
ENDBRANCH   6  37
BRANCH   9  40
HETATM   40  N12 UNL     1       1.317  -3.573  -3.761  1.00  0.00    -0.234 N 
ATOM     41 2H12 UNL     1       1.014  -4.036  -4.618  1.00  0.00     0.174 HD
ATOM     42 1H12 UNL     1       2.284  -3.634  -3.444  1.00  0.00     0.174 HD
ENDBRANCH   9  40
TORSDOF 11
