REMARK  2 active torsions:
REMARK  status: ('A' for Active; 'I' for Inactive)
REMARK    1  A    between atoms: C2_2  and  O1_3 
REMARK    2  A    between atoms: O1_3  and  C3_4 
REMARK       I    between atoms: C3_4  and  N1_6 
ROOT
HETATM    1  C3  UNL     1       0.083   0.839  -0.052  1.00  0.00     0.375 C 
HETATM    2  O2  UNL     1      -0.274   2.040  -0.113  1.00  0.00    -0.237 OA
HETATM    3  N1  UNL     1       1.468   0.511  -0.100  1.00  0.00    -0.209 N 
HETATM    4  C4  UNL     1       2.482   1.387  -0.208  1.00  0.00     0.168 A 
HETATM    5 BR1  UNL     1       2.246   3.286  -0.321  1.00  0.00    -0.010 Br
HETATM    6  N2  UNL     1       3.657   0.739  -0.225  1.00  0.00    -0.323 N 
ATOM      7  H2  UNL     1       4.575   1.177  -0.301  1.00  0.00     0.169 HD
HETATM    8  C5  UNL     1       3.424  -0.598  -0.125  1.00  0.00     0.162 A 
HETATM    9 CL1  UNL     1       4.629  -1.871  -0.102  1.00  0.00    -0.059 Cl
HETATM   10  C6  UNL     1       2.050  -0.698  -0.049  1.00  0.00     0.240 A 
HETATM   11  F1  UNL     1       1.359  -1.864   0.062  1.00  0.00    -0.182 F 
ENDROOT
BRANCH   1  12
HETATM   12  O1  UNL     1      -0.914  -0.115   0.061  1.00  0.00    -0.304 OA
BRANCH  12  13
HETATM   13  C2  UNL     1      -2.291   0.206   0.109  1.00  0.00     0.176 C 
HETATM   14  C1  UNL     1      -3.054  -1.097   0.234  1.00  0.00     0.034 C 
ENDBRANCH  12  13
ENDBRANCH   1  12
TORSDOF 2
