REMARK  5 active torsions:
REMARK  status: ('A' for Active; 'I' for Inactive)
REMARK    1  A    between atoms: C2_2  and  C3_3 
REMARK    2  A    between atoms: C4_7  and  C5_8 
REMARK    3  A    between atoms: C5_8  and  N2_9 
REMARK       I    between atoms: N2_9  and  C7_11 
REMARK    4  A    between atoms: C7_11  and  C8_13 
REMARK    5  A    between atoms: C10_18  and  C11_19 
ROOT
HETATM    1  C11 UNL     1      -5.431   0.650   0.345  1.00  0.00     0.016 A 
HETATM    2  C12 UNL     1      -5.879   1.775  -0.317  1.00  0.00     0.040 A 
HETATM    3  C13 UNL     1      -7.219   2.140  -0.346  1.00  0.00     0.067 A 
HETATM    4  C14 UNL     1      -7.640   3.323  -1.052  1.00  0.00     0.101 C 
HETATM    5  N4  UNL     1      -7.964   4.282  -1.627  1.00  0.00    -0.191 NA
HETATM    6  C15 UNL     1      -8.144   1.372   0.298  1.00  0.00     0.056 A 
HETATM    7 CL1  UNL     1      -9.860   1.790   0.293  1.00  0.00    -0.083 Cl
HETATM    8  C16 UNL     1      -7.719   0.249   0.963  1.00  0.00     0.050 A 
HETATM    9  C17 UNL     1      -6.362  -0.110   0.984  1.00  0.00     0.048 A 
HETATM   10 CL2  UNL     1      -5.915  -1.598   1.813  1.00  0.00    -0.083 Cl
ENDROOT
BRANCH   1  11
HETATM   11  C10 UNL     1      -4.033   0.262   0.287  1.00  0.00     0.068 A 
HETATM   12  N3  UNL     1      -3.372  -0.448   1.216  1.00  0.00    -0.348 N 
HETATM   13  C9  UNL     1      -2.099  -0.678   0.757  1.00  0.00     0.089 A 
ATOM     14  H3  UNL     1      -3.751  -0.762   2.109  1.00  0.00     0.166 HD
HETATM   15  S1  UNL     1      -0.595  -1.391   1.087  1.00  0.00    -0.064 SA
HETATM   16  C19 UNL     1      -1.920  -0.121  -0.470  1.00  0.00     0.048 A 
HETATM   17  C8  UNL     1       0.241  -0.970  -0.340  1.00  0.00     0.100 A 
HETATM   18  C20 UNL     1      -0.702  -0.269  -1.048  1.00  0.00     0.083 A 
HETATM   19  N5  UNL     1      -0.343   0.269  -2.362  1.00  0.00    -0.100 NA
HETATM   20  C18 UNL     1      -3.165   0.480  -0.766  1.00  0.00     0.076 A 
HETATM   21 CL3  UNL     1      -3.564   1.324  -2.253  1.00  0.00    -0.081 Cl
BRANCH  17  22
HETATM   22  C7  UNL     1       1.632  -1.274  -0.737  1.00  0.00     0.262 C 
HETATM   23  N2  UNL     1       2.461  -2.007   0.114  1.00  0.00    -0.344 N 
HETATM   24  C6  UNL     1       2.079  -2.518   1.396  1.00  0.00     0.153 C 
HETATM   25  O2  UNL     1       2.018  -0.855  -1.837  1.00  0.00    -0.267 OA
BRANCH  23  26
HETATM   26  C5  UNL     1       3.824  -2.264  -0.352  1.00  0.00     0.212 C 
BRANCH  26  27
HETATM   27  C4  UNL     1       4.694  -1.138   0.111  1.00  0.00     0.166 A 
HETATM   28  O1  UNL     1       4.320  -0.095   0.813  1.00  0.00    -0.221 OA
HETATM   29  N1  UNL     1       5.330   0.688   1.042  1.00  0.00    -0.247 N 
HETATM   30  C3  UNL     1       6.423   0.158   0.477  1.00  0.00     0.103 A 
ATOM     31  H1  UNL     1       5.297   1.563   1.566  1.00  0.00     0.196 HD
HETATM   32  N6  UNL     1       6.013  -0.984  -0.102  1.00  0.00    -0.325 N 
ATOM     33  H6  UNL     1       6.608  -1.631  -0.620  1.00  0.00     0.169 HD
BRANCH  30  34
HETATM   34  C2  UNL     1       7.770   0.769   0.526  1.00  0.00     0.074 C 
HETATM   35  C1  UNL     1       8.008   1.706  -0.648  1.00  0.00     0.013 C 
ENDBRANCH  30  34
ENDBRANCH  26  27
ENDBRANCH  23  26
ENDBRANCH  17  22
ENDBRANCH   1  11
TORSDOF 5
