REMARK  6 active torsions:
REMARK  status: ('A' for Active; 'I' for Inactive)
REMARK    1  A    between atoms: C2_2  and  C4_4 
REMARK    2  A    between atoms: C6_9  and  N2_10 
REMARK    3  A    between atoms: N3_13  and  C9_14 
REMARK    4  A    between atoms: C10_15  and  C11_16 
REMARK    5  A    between atoms: N5_21  and  C14_22 
REMARK    6  A    between atoms: C18_30  and  O1_31 
ROOT
HETATM    1  C9  UNL     1       2.172   0.098  -0.541  1.00  0.00     0.108 A 
HETATM    2  C10 UNL     1       3.258   0.385  -1.332  1.00  0.00     0.060 A 
HETATM    3  N4  UNL     1       4.310  -0.312  -0.853  1.00  0.00    -0.293 N 
ATOM      4  H4  UNL     1       5.247  -0.285  -1.256  1.00  0.00     0.187 HD
HETATM    5  N5  UNL     1       3.976  -1.034   0.202  1.00  0.00    -0.229 N 
HETATM    6  C18 UNL     1       2.665  -0.801   0.416  1.00  0.00     0.191 A 
ENDROOT
BRANCH   1   7
HETATM    7  N3  UNL     1       0.861   0.579  -0.654  1.00  0.00    -0.373 N 
HETATM    8  C8  UNL     1       0.418   1.754   0.013  1.00  0.00     0.143 C 
HETATM    9  C7  UNL     1      -0.952   1.678   0.621  1.00  0.00     0.143 C 
HETATM   10  N2  UNL     1      -1.767   0.601   0.198  1.00  0.00    -0.370 N 
HETATM   11  C20 UNL     1      -1.179  -0.559  -0.491  1.00  0.00     0.143 C 
HETATM   12  C19 UNL     1      -0.125  -0.122  -1.482  1.00  0.00     0.143 C 
BRANCH  10  13
HETATM   13  C6  UNL     1      -3.170   0.536   0.401  1.00  0.00     0.113 A 
HETATM   14  C5  UNL     1      -4.063   1.343   1.057  1.00  0.00     0.138 A 
HETATM   15  N1  UNL     1      -5.316   1.006   1.039  1.00  0.00    -0.342 N 
HETATM   16 CL1  UNL     1      -3.488   2.809   1.926  1.00  0.00    -0.061 Cl
HETATM   17  C4  UNL     1      -5.712  -0.077   0.408  1.00  0.00     0.057 A 
ATOM     18  H1  UNL     1      -6.002   1.588   1.520  1.00  0.00     0.167 HD
HETATM   19  S1  UNL     1      -4.239  -0.682  -0.210  1.00  0.00    -0.056 SA
BRANCH  17  20
HETATM   20  C2  UNL     1      -7.078  -0.674   0.236  1.00  0.00     0.035 C 
HETATM   21  C1  UNL     1      -7.669  -0.938   1.585  1.00  0.00     0.016 C 
HETATM   22  C3  UNL     1      -7.894   0.282  -0.600  1.00  0.00     0.016 C 
ENDBRANCH  17  20
ENDBRANCH  10  13
ENDBRANCH   1   7
BRANCH   2  23
HETATM   23  C11 UNL     1       3.321   1.291  -2.507  1.00  0.00     0.031 C 
HETATM   24  C12 UNL     1       4.657   1.086  -3.195  1.00  0.00     0.016 C 
HETATM   25  C13 UNL     1       3.273   2.721  -2.025  1.00  0.00     0.016 C 
ENDBRANCH   2  23
BRANCH   6  26
HETATM   26  O1  UNL     1       1.896  -1.339   1.407  1.00  0.00    -0.343 OA
ATOM     27  H1  UNL     1       2.230  -1.948   2.055  1.00  0.00     0.219 HD
ENDBRANCH   6  26
BRANCH   5  28
HETATM   28  C14 UNL     1       4.815  -1.889   0.964  1.00  0.00     0.100 A 
HETATM   29  C15 UNL     1       5.298  -1.677   2.231  1.00  0.00     0.077 A 
HETATM   30  C16 UNL     1       6.082  -2.765   2.600  1.00  0.00     0.106 A 
HETATM   31 CL2  UNL     1       6.905  -2.933   4.137  1.00  0.00    -0.064 Cl
HETATM   32  N6  UNL     1       6.062  -3.611   1.560  1.00  0.00    -0.335 N 
HETATM   33  C17 UNL     1       5.302  -3.106   0.556  1.00  0.00     0.133 A 
ATOM     34  H6  UNL     1       6.549  -4.507   1.528  1.00  0.00     0.168 HD
HETATM   35 CL3  UNL     1       4.955  -3.809  -1.007  1.00  0.00    -0.062 Cl
ENDBRANCH   5  28
TORSDOF 6
