REMARK  10 active torsions:
REMARK  status: ('A' for Active; 'I' for Inactive)
REMARK    1  A    between atoms: C2_2  and  C4_4 
REMARK    2  A    between atoms: C4_4  and  C5_5 
REMARK    3  A    between atoms: C5_5  and  C6_6 
REMARK    4  A    between atoms: C7_7  and  S1_8 
REMARK    5  A    between atoms: S1_8  and  N1_9 
REMARK    6  A    between atoms: N1_9  and  C8_10 
REMARK    7  A    between atoms: C8_10  and  C9_11 
REMARK    8  A    between atoms: C13_15  and  O1_16 
REMARK    9  A    between atoms: C18_22  and  O2_23 
REMARK   10  A    between atoms: C19_25  and  O3_27 
ROOT
HETATM    1  C6  UNL     1      -2.058  -1.188  -0.403  1.00  0.00     0.037 C 
HETATM    2  C7  UNL     1      -0.943  -2.059  -0.914  1.00  0.00     0.075 C 
HETATM    3  C15 UNL     1      -1.253  -3.531  -0.927  1.00  0.00    -0.001 C 
HETATM    4  C16 UNL     1      -2.412  -3.904  -1.785  1.00  0.00     0.011 C 
HETATM    5  C17 UNL     1      -1.480  -3.889   0.548  1.00  0.00     0.040 C 
HETATM    6  C18 UNL     1      -2.797  -3.268   0.853  1.00  0.00     0.153 C 
HETATM    7  C19 UNL     1      -2.839  -1.778   0.721  1.00  0.00     0.085 C 
HETATM    8  C20 UNL     1      -4.308  -1.442   0.550  1.00  0.00     0.049 C 
ENDROOT
BRANCH   2   9
HETATM    9  S1  UNL     1       0.653  -1.808  -0.172  1.00  0.00    -0.060 SA
BRANCH   9  10
HETATM   10  N1  UNL     1       1.379  -0.267  -0.622  1.00  0.00    -0.178 NA
BRANCH  10  11
HETATM   11  C8  UNL     1       2.846  -0.377  -0.585  1.00  0.00     0.127 C 
BRANCH  11  12
HETATM   12  C9  UNL     1       3.400   0.978  -0.978  1.00  0.00     0.003 C 
HETATM   13  C10 UNL     1       4.923   0.933  -0.962  1.00  0.00     0.006 C 
HETATM   14  C11 UNL     1       5.443   0.942   0.467  1.00  0.00     0.003 C 
HETATM   15  C12 UNL     1       4.870   2.115   1.241  1.00  0.00     0.032 C 
HETATM   16  C13 UNL     1       3.981   2.959   0.341  1.00  0.00     0.118 C 
HETATM   17  C14 UNL     1       2.848   2.080  -0.129  1.00  0.00     0.037 C 
BRANCH  16  18
HETATM   18  O1  UNL     1       3.494   4.024   1.093  1.00  0.00    -0.396 OA
ATOM     19  H1  UNL     1       2.939   4.551   0.531  1.00  0.00     0.210 HD
ENDBRANCH  16  18
ENDBRANCH  11  12
ENDBRANCH  10  11
ENDBRANCH   9  10
ENDBRANCH   2   9
BRANCH   1  20
HETATM   20  C5  UNL     1      -1.532   0.174  -0.181  1.00  0.00     0.009 C 
BRANCH  20  21
HETATM   21  C4  UNL     1      -2.501   1.207   0.310  1.00  0.00     0.004 C 
BRANCH  21  22
HETATM   22  C2  UNL     1      -1.687   2.512   0.448  1.00  0.00    -0.023 C 
HETATM   23  C1  UNL     1      -2.630   3.607   0.952  1.00  0.00     0.009 C 
HETATM   24  C3  UNL     1      -1.180   2.936  -0.909  1.00  0.00     0.009 C 
ENDBRANCH  21  22
ENDBRANCH  20  21
ENDBRANCH   1  20
BRANCH   7  25
HETATM   25  O3  UNL     1      -2.454  -1.302   1.977  1.00  0.00    -0.387 OA
ATOM     26  H3  UNL     1      -2.952  -1.678   2.693  1.00  0.00     0.210 HD
ENDBRANCH   7  25
BRANCH   6  27
HETATM   27  O2  UNL     1      -3.241  -3.616   2.136  1.00  0.00    -0.393 OA
ATOM     28  H2  UNL     1      -4.082  -3.219   2.331  1.00  0.00     0.210 HD
ENDBRANCH   6  27
TORSDOF 10
