REMARK  9 active torsions:
REMARK  status: ('A' for Active; 'I' for Inactive)
REMARK    1  A    between atoms: C2_2  and  C3_3 
REMARK    2  A    between atoms: C3_3  and  C4_4 
REMARK    3  A    between atoms: C4_4  and  O1_5 
REMARK    4  A    between atoms: C5_8  and  C6_9 
REMARK    5  A    between atoms: C7_10  and  C8_11 
REMARK    6  A    between atoms: C8_11  and  O3_12 
REMARK    7  A    between atoms: C8_11  and  C9_14 
REMARK    8  A    between atoms: C10_15  and  C11_16 
REMARK    9  A    between atoms: C12_17  and  C13_18 
ROOT
HETATM    1  C8  UNL     1      -0.201  -1.434   1.425  1.00  0.00     0.164 C 
ENDROOT
BRANCH   1   2
HETATM    2  C7  UNL     1      -0.766  -2.694   0.891  1.00  0.00     0.011 C 
HETATM    3  C6  UNL     1      -1.909  -2.734   0.266  1.00  0.00     0.035 C 
BRANCH   3   4
HETATM    4  C5  UNL     1      -2.770  -1.593   0.009  1.00  0.00     0.067 C 
HETATM    5  O2  UNL     1      -2.541  -0.280   0.372  1.00  0.00    -0.337 OA
HETATM    6  C3  UNL     1      -3.744   0.479   0.340  1.00  0.00     0.099 C 
HETATM    7  C20 UNL     1      -4.514  -0.258  -0.689  1.00  0.00     0.006 C 
HETATM    8  C19 UNL     1      -3.957  -1.633  -0.639  1.00  0.00     0.022 C 
HETATM    9  C21 UNL     1      -4.213   0.289  -2.067  1.00  0.00     0.022 C 
HETATM   10  C22 UNL     1      -5.989  -0.356  -0.433  1.00  0.00     0.022 C 
BRANCH   6  11
HETATM   11  C2  UNL     1      -3.362   1.871  -0.037  1.00  0.00     0.037 C 
HETATM   12  C1  UNL     1      -4.460   2.860  -0.046  1.00  0.00     0.008 C 
ENDBRANCH   6  11
BRANCH   6  13
HETATM   13  C4  UNL     1      -4.335   0.392   1.727  1.00  0.00     0.203 C 
BRANCH  13  14
HETATM   14  O1  UNL     1      -4.616  -0.908   2.104  1.00  0.00    -0.398 OA
ATOM     15  H1  UNL     1      -4.988  -0.963   2.977  1.00  0.00     0.209 HD
ENDBRANCH  13  14
ENDBRANCH   6  13
ENDBRANCH   3   4
ENDBRANCH   1   2
BRANCH   1  16
HETATM   16  O3  UNL     1      -0.891  -1.011   2.566  1.00  0.00    -0.388 OA
ATOM     17  H3  UNL     1      -0.528  -0.203   2.909  1.00  0.00     0.210 HD
ENDBRANCH   1  16
BRANCH   1  18
HETATM   18  C9  UNL     1       1.181  -1.745   1.887  1.00  0.00     0.008 C 
HETATM   19  C10 UNL     1       2.192  -1.220   1.171  1.00  0.00    -0.001 C 
BRANCH  19  20
HETATM   20  C11 UNL     1       3.569  -1.471   1.548  1.00  0.00    -0.003 C 
HETATM   21  C12 UNL     1       4.569  -0.977   0.876  1.00  0.00    -0.016 C 
BRANCH  21  22
HETATM   22  C13 UNL     1       4.480  -0.127  -0.316  1.00  0.00     0.063 C 
HETATM   23  C14 UNL     1       5.216  -0.721  -1.473  1.00  0.00    -0.016 C 
HETATM   24  C15 UNL     1       6.314  -0.190  -1.984  1.00  0.00     0.031 C 
HETATM   25  C16 UNL     1       6.883   1.054  -1.416  1.00  0.00     0.406 C 
HETATM   26  N1  UNL     1       6.145   2.227  -1.829  1.00  0.00    -0.041 N 
HETATM   27  N2  UNL     1       6.589   1.005   0.020  1.00  0.00    -0.036 N 
HETATM   28  C17 UNL     1       4.894   2.178  -1.114  1.00  0.00     0.269 C 
ATOM     29  H12 UNL     1       6.657   3.099  -1.695  1.00  0.00     0.280 HD
ATOM     30  H11 UNL     1       6.034   2.304  -2.840  1.00  0.00     0.280 HD
HETATM   31  C18 UNL     1       5.164   1.204   0.016  1.00  0.00     0.225 C 
ATOM     32  H22 UNL     1       6.913   0.169   0.505  1.00  0.00     0.280 HD
ATOM     33  H21 UNL     1       7.121   1.655   0.599  1.00  0.00     0.280 HD
ENDBRANCH  21  22
ENDBRANCH  19  20
ENDBRANCH   1  18
TORSDOF 9
