REMARK  11 active torsions:
REMARK  status: ('A' for Active; 'I' for Inactive)
REMARK    1  A    between atoms: C2_2  and  C4_4 
REMARK    2  A    between atoms: C4_4  and  C7_7 
REMARK    3  A    between atoms: C7_7  and  C9_9 
REMARK    4  A    between atoms: C7_7  and  C12_14 
REMARK    5  A    between atoms: C9_9  and  O1_10 
REMARK    6  A    between atoms: O1_10  and  C10_11 
REMARK    7  A    between atoms: C13_15  and  C14_16 
REMARK    8  A    between atoms: C14_16  and  O3_17 
REMARK    9  A    between atoms: C14_16  and  C15_19 
REMARK   10  A    between atoms: C15_19  and  C18_22 
REMARK   11  A    between atoms: C18_22  and  O4_23 
ROOT
HETATM    1  C12 UNL     1      -0.173  -1.255  -0.917  1.00  0.00     0.049 A 
HETATM    2  C13 UNL     1      -1.333  -0.759  -0.305  1.00  0.00     0.068 A 
HETATM    3  N1  UNL     1      -2.194  -1.803  -0.271  1.00  0.00    -0.299 N 
ATOM      4  H1  UNL     1      -3.133  -1.760   0.125  1.00  0.00     0.186 HD
HETATM    5  N2  UNL     1      -1.671  -2.873  -0.809  1.00  0.00    -0.266 N 
ATOM      6  H2  UNL     1      -2.145  -3.773  -0.893  1.00  0.00     0.190 HD
HETATM    7  C19 UNL     1      -0.436  -2.625  -1.232  1.00  0.00     0.269 A 
HETATM    8  O5  UNL     1       0.253  -3.504  -1.780  1.00  0.00    -0.266 OA
ENDROOT
BRANCH   1   9
HETATM    9  C7  UNL     1       1.162  -0.763  -1.096  1.00  0.00     0.024 C 
HETATM   10  C8  UNL     1       1.829  -1.586  -2.241  1.00  0.00     0.024 C 
BRANCH   9  11
HETATM   11  C4  UNL     1       2.075  -0.623   0.076  1.00  0.00    -0.012 C 
HETATM   12  C5  UNL     1       1.486   0.223   1.210  1.00  0.00     0.021 C 
HETATM   13  C6  UNL     1       3.375   0.108  -0.257  1.00  0.00     0.021 C 
BRANCH  11  14
HETATM   14  C2  UNL     1       2.577  -1.889   0.693  1.00  0.00    -0.084 C 
HETATM   15  C1  UNL     1       2.192  -2.257   1.886  1.00  0.00     0.015 C 
HETATM   16  C3  UNL     1       3.520  -2.838   0.067  1.00  0.00     0.043 C 
ENDBRANCH  11  14
ENDBRANCH   9  11
BRANCH   9  17
HETATM   17  C9  UNL     1       1.239   0.623  -1.806  1.00  0.00     0.194 C 
BRANCH  17  18
HETATM   18  O1  UNL     1       0.921   1.725  -1.122  1.00  0.00    -0.321 OA
BRANCH  18  19
HETATM   19  C10 UNL     1       0.961   2.986  -1.654  1.00  0.00     0.254 C 
HETATM   20  C11 UNL     1       0.582   4.133  -0.787  1.00  0.00     0.126 C 
HETATM   21  O2  UNL     1       1.310   3.187  -2.854  1.00  0.00    -0.266 OA
ENDBRANCH  18  19
ENDBRANCH  17  18
ENDBRANCH   9  17
ENDBRANCH   1   9
BRANCH   2  22
HETATM   22  C14 UNL     1      -1.700   0.580   0.089  1.00  0.00     0.179 C 
BRANCH  22  23
HETATM   23  O3  UNL     1      -2.225   1.324  -1.042  1.00  0.00    -0.389 OA
ATOM     24  H3  UNL     1      -2.467   2.205  -0.783  1.00  0.00     0.210 HD
ENDBRANCH  22  23
BRANCH  22  25
HETATM   25  C15 UNL     1      -2.974   0.626   0.949  1.00  0.00     0.005 C 
HETATM   26  C16 UNL     1      -3.067   2.174   1.260  1.00  0.00     0.020 C 
HETATM   27  C17 UNL     1      -4.243   0.385   0.220  1.00  0.00     0.020 C 
BRANCH  25  28
HETATM   28  C18 UNL     1      -2.817   0.017   2.288  1.00  0.00     0.175 C 
BRANCH  28  29
HETATM   29  O4  UNL     1      -1.818   0.666   3.055  1.00  0.00    -0.400 OA
ATOM     30  H4  UNL     1      -1.717   0.275   3.915  1.00  0.00     0.209 HD
ENDBRANCH  28  29
ENDBRANCH  25  28
ENDBRANCH  22  25
ENDBRANCH   2  22
TORSDOF 11
