REMARK  10 active torsions:
REMARK  status: ('A' for Active; 'I' for Inactive)
REMARK    1  A    between atoms: C4_4  and  C5_5 
REMARK    2  A    between atoms: C5_5  and  C6_6 
REMARK    3  A    between atoms: C6_6  and  C7_7 
REMARK    4  A    between atoms: C9_9  and  C10_10 
REMARK    5  A    between atoms: C11_11  and  C12_12 
REMARK    6  A    between atoms: C14_14  and  C15_15 
REMARK    7  A    between atoms: C16_17  and  O2_18 
REMARK    8  A    between atoms: C17_20  and  O3_21 
REMARK    9  A    between atoms: C18_23  and  O4_24 
REMARK   10  A    between atoms: C19_26  and  O5_27 
ROOT
HETATM    1  C12 UNL     1       1.239  -1.172  -0.083  1.00  0.00    -0.030 A 
HETATM    2  C13 UNL     1       2.224  -0.191   0.033  1.00  0.00     0.021 A 
HETATM    3  C14 UNL     1       3.574  -0.428   0.067  1.00  0.00    -0.026 A 
HETATM    4  C20 UNL     1       3.983  -1.734  -0.020  1.00  0.00     0.010 A 
HETATM    5  C21 UNL     1       3.063  -2.741  -0.136  1.00  0.00     0.008 A 
HETATM    6  C22 UNL     1       1.689  -2.450  -0.168  1.00  0.00    -0.052 A 
HETATM    7  C23 UNL     1       0.783  -3.587  -0.328  1.00  0.00     0.049 C 
ENDROOT
BRANCH   3   8
HETATM    8  C15 UNL     1       4.544   0.686   0.193  1.00  0.00     0.189 C 
HETATM    9  O1  UNL     1       5.496   0.325   1.139  1.00  0.00    -0.346 OA
HETATM   10  C16 UNL     1       6.264   1.396   1.558  1.00  0.00     0.289 C 
HETATM   11  C17 UNL     1       6.326   2.517   0.573  1.00  0.00     0.204 C 
HETATM   12  C18 UNL     1       6.235   2.089  -0.852  1.00  0.00     0.183 C 
HETATM   13  C19 UNL     1       5.217   1.005  -1.117  1.00  0.00     0.183 C 
BRANCH  10  14
HETATM   14  O2  UNL     1       7.554   0.958   1.832  1.00  0.00    -0.368 OA
ATOM     15  H2  UNL     1       8.082   1.694   2.120  1.00  0.00     0.212 HD
ENDBRANCH  10  14
BRANCH  11  16
HETATM   16  O3  UNL     1       5.424   3.562   0.883  1.00  0.00    -0.388 OA
ATOM     17  H3  UNL     1       5.463   4.275   0.256  1.00  0.00     0.210 HD
ENDBRANCH  11  16
BRANCH  12  18
HETATM   18  O4  UNL     1       7.488   1.755  -1.375  1.00  0.00    -0.390 OA
ATOM     19  H4  UNL     1       7.430   1.482  -2.283  1.00  0.00     0.210 HD
ENDBRANCH  12  18
BRANCH  13  20
HETATM   20  O5  UNL     1       5.866  -0.112  -1.647  1.00  0.00    -0.390 OA
ATOM     21  H5  UNL     1       6.290   0.089  -2.473  1.00  0.00     0.210 HD
ENDBRANCH  13  20
ENDBRANCH   3   8
BRANCH   1  22
HETATM   22  C11 UNL     1      -0.118  -0.734  -0.121  1.00  0.00     0.012 C 
HETATM   23  C10 UNL     1      -1.236  -1.381  -0.105  1.00  0.00     0.001 C 
BRANCH  23  24
HETATM   24  C9  UNL     1      -2.507  -0.581  -0.160  1.00  0.00     0.002 C 
HETATM   25  C7  UNL     1      -3.682  -1.130  -0.150  1.00  0.00    -0.084 C 
HETATM   26  C8  UNL     1      -3.797  -2.597  -0.081  1.00  0.00     0.043 C 
BRANCH  25  27
HETATM   27  C6  UNL     1      -4.900  -0.229  -0.210  1.00  0.00     0.037 C 
BRANCH  27  28
HETATM   28  C5  UNL     1      -5.666  -0.494   1.023  1.00  0.00     0.031 C 
BRANCH  28  29
HETATM   29  C4  UNL     1      -6.876   0.275   1.206  1.00  0.00    -0.024 C 
HETATM   30  C2  UNL     1      -7.413   1.235   0.539  1.00  0.00    -0.091 C 
HETATM   31  C1  UNL     1      -6.921   1.870  -0.678  1.00  0.00     0.042 C 
HETATM   32  C3  UNL     1      -8.736   1.799   1.072  1.00  0.00     0.042 C 
ENDBRANCH  28  29
ENDBRANCH  27  28
ENDBRANCH  25  27
ENDBRANCH  23  24
ENDBRANCH   1  22
TORSDOF 10
