REMARK  5 active torsions:
REMARK  status: ('A' for Active; 'I' for Inactive)
REMARK    1  A    between atoms: N1_2  and  C2_4 
REMARK    2  A    between atoms: C3_10  and  N4_11 
REMARK    3  A    between atoms: N4_11  and  N5_13 
REMARK    4  A    between atoms: N5_13  and  C4_15 
REMARK    5  A    between atoms: N8_23  and  N9_25 
ROOT
HETATM    1  C4  UNL     1       0.996   0.690   0.100  1.00  0.00     0.169 A 
HETATM    2  N6  UNL     1       1.690   0.897  -1.036  1.00  0.00    -0.312 N 
ATOM      3  H6  UNL     1       1.159   1.136  -1.873  1.00  0.00     0.170 HD
HETATM    4  C5  UNL     1       3.014   0.815  -1.153  1.00  0.00     0.182 A 
HETATM    5 CL1  UNL     1       3.680   1.134  -2.766  1.00  0.00    -0.045 Cl
HETATM    6  N7  UNL     1       3.894   0.524  -0.207  1.00  0.00    -0.312 N 
ATOM      7  H7  UNL     1       4.875   0.508  -0.485  1.00  0.00     0.170 HD
HETATM    8  C6  UNL     1       3.630   0.248   1.077  1.00  0.00     0.168 A 
HETATM    9  N8  UNL     1       4.573  -0.030   1.943  1.00  0.00    -0.286 N 
ATOM     10  H8  UNL     1       4.347  -0.237   2.916  1.00  0.00     0.188 HD
HETATM   11  S1  UNL     1       1.970   0.295   1.461  1.00  0.00    -0.015 SA
ENDROOT
BRANCH   1  12
HETATM   12  N5  UNL     1      -0.290   0.780   0.168  1.00  0.00    -0.278 N 
ATOM     13  H5  UNL     1      -0.780   0.616   1.048  1.00  0.00     0.189 HD
BRANCH  12  14
HETATM   14  N4  UNL     1      -0.993   1.107  -0.992  1.00  0.00    -0.279 N 
ATOM     15  H4  UNL     1      -0.513   1.605  -1.742  1.00  0.00     0.189 HD
BRANCH  14  16
HETATM   16  C3  UNL     1      -2.252   0.790  -1.140  1.00  0.00     0.188 A 
HETATM   17  C2  UNL     1      -3.070   0.125  -0.251  1.00  0.00     0.170 A 
HETATM   18  N2  UNL     1      -4.298   0.023  -0.838  1.00  0.00    -0.222 N 
HETATM   19  O1  UNL     1      -4.210   0.589  -1.992  1.00  0.00    -0.153 OA
ATOM     20  H2  UNL     1      -5.127  -0.417  -0.439  1.00  0.00     0.198 HD
HETATM   21  N3  UNL     1      -3.017   1.056  -2.211  1.00  0.00    -0.221 N 
ATOM     22  H3  UNL     1      -2.713   1.543  -3.054  1.00  0.00     0.198 HD
BRANCH  17  23
HETATM   23  N1  UNL     1      -2.679  -0.289   0.890  1.00  0.00    -0.376 N 
HETATM   24  C1  UNL     1      -3.520  -0.987   1.835  1.00  0.00     0.148 C 
ATOM     25  H1  UNL     1      -1.709  -0.116   1.153  1.00  0.00     0.160 HD
ENDBRANCH  17  23
ENDBRANCH  14  16
ENDBRANCH  12  14
ENDBRANCH   1  12
BRANCH   9  26
HETATM   26  N9  UNL     1       5.896  -0.035   1.498  1.00  0.00    -0.343 N 
ATOM     27  H92 UNL     1       6.106   0.174   0.522  1.00  0.00     0.176 HD
ATOM     28  H91 UNL     1       6.630  -0.251   2.172  1.00  0.00     0.176 HD
ENDBRANCH   9  26
TORSDOF 5
