REMARK  1 active torsions:
REMARK  status: ('A' for Active; 'I' for Inactive)
REMARK    1  A    between atoms: O1_2  and  C2_3 
ROOT
HETATM    1  C2  UNL     1      -1.698  -0.272   0.356  1.00  0.00     0.149 C 
HETATM    2  C3  UNL     1      -1.848   1.094   0.324  1.00  0.00     0.233 C 
HETATM    3  O2  UNL     1      -3.004   1.562   0.356  1.00  0.00    -0.283 OA
HETATM    4  C4  UNL     1      -0.856   2.082   0.259  1.00  0.00     0.122 C 
HETATM    5  N1  UNL     1      -1.254   3.415   0.516  1.00  0.00    -0.096 NA
HETATM    6  C5  UNL     1       0.475   1.940  -0.024  1.00  0.00     0.099 C 
HETATM    7  C6  UNL     1       1.313   3.107  -0.092  1.00  0.00     0.103 C 
HETATM    8  N2  UNL     1       1.996   4.040  -0.131  1.00  0.00    -0.191 NA
HETATM    9  C7  UNL     1       1.145   0.750  -0.265  1.00  0.00     0.098 C 
HETATM   10  N3  UNL     1       2.348   0.798  -0.997  1.00  0.00    -0.098 NA
HETATM   11  C8  UNL     1       0.775  -0.528   0.129  1.00  0.00     0.094 A 
HETATM   12  C9  UNL     1      -0.524  -0.979   0.406  1.00  0.00     0.103 A 
HETATM   13  N4  UNL     1      -0.405  -2.273   0.745  1.00  0.00    -0.304 N 
ATOM     14  H4  UNL     1      -1.173  -2.892   1.005  1.00  0.00     0.171 HD
HETATM   15  C10 UNL     1       0.892  -2.619   0.685  1.00  0.00     0.327 A 
HETATM   16  O3  UNL     1       1.428  -3.734   0.926  1.00  0.00    -0.246 OA
HETATM   17  N5  UNL     1       1.641  -1.541   0.302  1.00  0.00    -0.300 N 
HETATM   18  C11 UNL     1       3.061  -1.472   0.118  1.00  0.00     0.161 C 
ENDROOT
BRANCH   1  19
HETATM   19  O1  UNL     1      -2.855  -1.007   0.334  1.00  0.00    -0.350 OA
HETATM   20  C1  UNL     1      -3.506  -1.465  -0.812  1.00  0.00     0.210 C 
ENDBRANCH   1  19
TORSDOF 1
