REMARK  3 active torsions:
REMARK  status: ('A' for Active; 'I' for Inactive)
REMARK    1  A    between atoms: N3_9  and  C5_11 
REMARK    2  A    between atoms: C9_16  and  S1_17 
REMARK    3  A    between atoms: S1_17  and  N4_18 
ROOT
HETATM    1  N1  UNL     1      -5.672   1.001   0.135  1.00  0.00    -0.388 N 
ATOM      2  H11 UNL     1      -6.112   0.693  -0.732  1.00  0.00     0.157 HD
ATOM      3  H12 UNL     1      -6.255   1.514   0.796  1.00  0.00     0.157 HD
HETATM    4  C1  UNL     1      -4.453   0.766   0.386  1.00  0.00     0.089 C 
HETATM    5  C2  UNL     1      -3.820   1.209   1.632  1.00  0.00     0.097 C 
HETATM    6  C3  UNL     1      -2.374   1.562   1.506  1.00  0.00     0.157 C 
HETATM    7  N2  UNL     1      -1.656   0.793   0.547  1.00  0.00    -0.164 N 
HETATM    8  C4  UNL     1      -0.325   0.559   0.307  1.00  0.00     0.687 A 
HETATM    9  N3  UNL     1       0.616   1.037   0.994  1.00  0.00    -0.191 N 
ATOM     10  H3  UNL     1       0.344   1.635   1.774  1.00  0.00     0.184 HD
HETATM   11  N5  UNL     1      -0.201  -0.247  -0.759  1.00  0.00    -0.182 N 
ATOM     12  H5  UNL     1       0.682  -0.576  -1.149  1.00  0.00     0.184 HD
HETATM   13  C11 UNL     1      -1.434  -0.557  -1.238  1.00  0.00     0.162 A 
HETATM   14  C12 UNL     1      -1.972  -1.299  -2.248  1.00  0.00     0.280 A 
HETATM   15  O3  UNL     1      -1.197  -1.905  -3.015  1.00  0.00    -0.265 OA
HETATM   16  N6  UNL     1      -3.329  -1.344  -2.374  1.00  0.00    -0.273 N 
ATOM     17  H6  UNL     1      -3.734  -1.897  -3.129  1.00  0.00     0.173 HD
HETATM   18  C13 UNL     1      -4.154  -0.685  -1.538  1.00  0.00     0.336 A 
HETATM   19  O4  UNL     1      -5.395  -0.736  -1.665  1.00  0.00    -0.246 OA
HETATM   20  N7  UNL     1      -3.635   0.047  -0.541  1.00  0.00    -0.235 N 
HETATM   21  C14 UNL     1      -2.305   0.109  -0.398  1.00  0.00     0.168 A 
ENDROOT
BRANCH   9  22
HETATM   22  C5  UNL     1       1.986   0.845   0.814  1.00  0.00     0.053 A 
HETATM   23  C6  UNL     1       2.822   1.939   0.744  1.00  0.00     0.072 A 
HETATM   24  C7  UNL     1       4.198   1.786   0.564  1.00  0.00     0.120 A 
HETATM   25  F1  UNL     1       5.036   2.850   0.493  1.00  0.00    -0.206 F 
HETATM   26  C8  UNL     1       4.721   0.512   0.457  1.00  0.00     0.067 A 
HETATM   27  C9  UNL     1       3.899  -0.607   0.524  1.00  0.00     0.084 A 
HETATM   28  C10 UNL     1       2.545  -0.408   0.703  1.00  0.00     0.055 A 
BRANCH  27  29
HETATM   29  S1  UNL     1       4.561  -2.227   0.388  1.00  0.00     0.256 S 
HETATM   30  O1  UNL     1       5.950  -2.289   0.955  1.00  0.00    -0.201 OA
HETATM   31  O2  UNL     1       3.692  -3.227   1.106  1.00  0.00    -0.201 OA
BRANCH  29  32
HETATM   32  N4  UNL     1       4.553  -2.665  -1.296  1.00  0.00    -0.324 N 
ATOM     33  H42 UNL     1       4.219  -2.074  -2.058  1.00  0.00     0.169 HD
ATOM     34  H41 UNL     1       4.938  -3.606  -1.375  1.00  0.00     0.169 HD
ENDBRANCH  29  32
ENDBRANCH  27  29
ENDBRANCH   9  22
TORSDOF 3
