REMARK  5 active torsions:
REMARK  status: ('A' for Active; 'I' for Inactive)
REMARK    1  A    between atoms: C2_2  and  O1_3 
REMARK    2  A    between atoms: O1_3  and  C3_4 
REMARK       I    between atoms: C3_4  and  N1_6 
REMARK    3  A    between atoms: N1_6  and  C4_8 
REMARK    4  A    between atoms: C8_17  and  N4_18 
REMARK    5  A    between atoms: N4_18  and  C9_20 
ROOT
HETATM    1  C9  UNL     1      -5.922   0.488   0.501  1.00  0.00     0.245 C 
HETATM    2  C10 UNL     1      -6.287  -0.405  -0.604  1.00  0.00     0.078 C 
HETATM    3  N5  UNL     1      -6.574  -1.118  -1.471  1.00  0.00    -0.196 NA
ENDROOT
BRANCH   1   4
HETATM    4  N4  UNL     1      -4.533   0.831   0.379  1.00  0.00    -0.362 N 
ATOM      5  H4  UNL     1      -4.318   1.810   0.189  1.00  0.00     0.162 HD
BRANCH   4   6
HETATM    6  C8  UNL     1      -3.537   0.035   0.484  1.00  0.00     0.134 C 
HETATM    7  C7  UNL     1      -2.269   0.590   0.328  1.00  0.00     0.106 A 
HETATM    8  N3  UNL     1      -2.013   1.906   0.364  1.00  0.00    -0.347 N 
HETATM    9  C13 UNL     1      -1.079  -0.070   0.114  1.00  0.00     0.096 A 
HETATM   10  C6  UNL     1      -0.674   2.089   0.175  1.00  0.00     0.102 A 
ATOM     11  H3  UNL     1      -2.702   2.644   0.508  1.00  0.00     0.166 HD
HETATM   12  C5  UNL     1       0.132   3.206   0.119  1.00  0.00     0.148 A 
HETATM   13  C14 UNL     1      -0.056   0.855   0.014  1.00  0.00     0.108 A 
HETATM   14  N2  UNL     1       1.460   3.066  -0.086  1.00  0.00    -0.178 N 
HETATM   15 CL1  UNL     1      -0.638   4.763   0.321  1.00  0.00    -0.061 Cl
HETATM   16  C4  UNL     1       2.060   1.871  -0.242  1.00  0.00     0.688 A 
ATOM     17  H2  UNL     1       2.036   3.907  -0.124  1.00  0.00     0.185 HD
HETATM   18  N8  UNL     1       1.271   0.776  -0.187  1.00  0.00    -0.187 N 
ATOM     19  H8  UNL     1       1.697  -0.144  -0.302  1.00  0.00     0.184 HD
HETATM   20  N7  UNL     1      -0.910  -1.402   0.014  1.00  0.00    -0.315 N 
HETATM   21  C12 UNL     1      -1.835  -2.396  -0.046  1.00  0.00     0.314 C 
ATOM     22  H7  UNL     1       0.061  -1.713  -0.022  1.00  0.00     0.169 HD
HETATM   23  C11 UNL     1      -3.156  -2.339   0.328  1.00  0.00     0.315 C 
HETATM   24  O4  UNL     1      -1.430  -3.515  -0.505  1.00  0.00    -0.262 OA
HETATM   25  N6  UNL     1      -3.874  -1.252   0.737  1.00  0.00    -0.303 N 
HETATM   26  O3  UNL     1      -3.776  -3.428   0.286  1.00  0.00    -0.262 OA
ATOM     27  H6  UNL     1      -4.726  -1.422   1.272  1.00  0.00     0.171 HD
BRANCH  16  28
HETATM   28  N1  UNL     1       3.318   1.846  -0.430  1.00  0.00    -0.135 N 
HETATM   29  C3  UNL     1       4.108   0.702  -0.611  1.00  0.00     0.379 C 
HETATM   30  O2  UNL     1       3.907  -0.010  -1.629  1.00  0.00    -0.238 OA
ATOM     31  H1  UNL     1       3.798   2.746  -0.451  1.00  0.00     0.189 HD
BRANCH  29  32
HETATM   32  O1  UNL     1       5.104   0.306   0.270  1.00  0.00    -0.304 OA
BRANCH  32  33
HETATM   33  C2  UNL     1       5.848  -0.886  -0.022  1.00  0.00     0.176 C 
HETATM   34  C1  UNL     1       6.869  -1.153   1.029  1.00  0.00     0.034 C 
ENDBRANCH  32  33
ENDBRANCH  29  32
ENDBRANCH  16  28
ENDBRANCH   4   6
ENDBRANCH   1   4
TORSDOF 5
