REMARK  9 active torsions:
REMARK  status: ('A' for Active; 'I' for Inactive)
REMARK    1  A    between atoms: O1_2  and  C2_3 
REMARK    2  A    between atoms: C2_3  and  C3_4 
REMARK    3  A    between atoms: C3_4  and  O2_5 
REMARK    4  A    between atoms: O2_5  and  C4_6 
REMARK    5  A    between atoms: C8_12  and  C9_13 
REMARK    6  A    between atoms: C8_12  and  C16_22 
REMARK    7  A    between atoms: C9_13  and  C10_14 
REMARK       I    between atoms: C10_14  and  N1_16 
REMARK    8  A    between atoms: C16_22  and  O6_23 
REMARK    9  A    between atoms: N2_25  and  O7_27 
ROOT
HETATM    1  C4  UNL     1       2.045  -0.465   0.282  1.00  0.00     0.306 C 
HETATM    2  O3  UNL     1       2.884  -1.201   1.153  1.00  0.00    -0.323 OA
HETATM    3  C5  UNL     1       2.084  -2.181   1.663  1.00  0.00     0.162 C 
HETATM    4  C6  UNL     1       2.367  -2.444   3.150  1.00  0.00     0.078 C 
HETATM    5  C7  UNL     1       2.444  -3.473   0.965  1.00  0.00     0.078 C 
HETATM    6  O4  UNL     1       0.777  -1.807   1.579  1.00  0.00    -0.331 OA
HETATM    7  C8  UNL     1       0.648  -0.770   0.630  1.00  0.00     0.188 C 
ENDROOT
BRANCH   7   8
HETATM    8  C9  UNL     1       0.014   0.454   1.252  1.00  0.00     0.155 C 
BRANCH   8   9
HETATM    9  C10 UNL     1      -1.383   0.289   1.652  1.00  0.00     0.223 C 
HETATM   10  O5  UNL     1      -1.641  -0.455   2.631  1.00  0.00    -0.273 OA
HETATM   11  N1  UNL     1      -2.466   0.923   0.997  1.00  0.00    -0.352 N 
HETATM   12  C11 UNL     1      -2.330   1.806  -0.142  1.00  0.00     0.125 C 
HETATM   13  C15 UNL     1      -3.854   0.721   1.446  1.00  0.00     0.125 C 
HETATM   14  C12 UNL     1      -3.280   1.270  -1.222  1.00  0.00     0.020 C 
HETATM   15  C13 UNL     1      -4.702   1.446  -0.792  1.00  0.00     0.003 C 
HETATM   16  C14 UNL     1      -4.748   1.650   0.694  1.00  0.00     0.020 C 
ENDBRANCH   8   9
ENDBRANCH   7   8
BRANCH   7  17
HETATM   17  C16 UNL     1      -0.194  -1.344  -0.441  1.00  0.00     0.176 C 
HETATM   18  N2  UNL     1      -0.914  -2.377  -0.323  1.00  0.00    -0.248 N 
ATOM     19  H2  UNL     1      -1.428  -2.630  -1.167  1.00  0.00     0.196 HD
BRANCH  17  20
HETATM   20  O6  UNL     1      -0.238  -0.736  -1.702  1.00  0.00    -0.346 OA
ATOM     21  H6  UNL     1      -0.779  -1.105  -2.390  1.00  0.00     0.219 HD
ENDBRANCH  17  20
BRANCH  18  22
HETATM   22  O7  UNL     1      -1.121  -3.198   0.715  1.00  0.00    -0.288 OA
ATOM     23  H7  UNL     1      -1.662  -3.974   0.804  1.00  0.00     0.244 HD
ENDBRANCH  18  22
ENDBRANCH   7  17
BRANCH   1  24
HETATM   24  O2  UNL     1       2.416  -0.619  -1.020  1.00  0.00    -0.355 OA
BRANCH  24  25
HETATM   25  C3  UNL     1       3.064   0.431  -1.594  1.00  0.00     0.197 C 
BRANCH  25  26
HETATM   26  C2  UNL     1       2.354   1.733  -1.663  1.00  0.00     0.193 C 
BRANCH  26  27
HETATM   27  O1  UNL     1       3.135   2.692  -2.262  1.00  0.00    -0.394 OA
HETATM   28  C1  UNL     1       3.533   2.454  -3.548  1.00  0.00     0.201 C 
ENDBRANCH  26  27
ENDBRANCH  25  26
ENDBRANCH  24  25
ENDBRANCH   1  24
TORSDOF 9
