REMARK  6 active torsions:
REMARK  status: ('A' for Active; 'I' for Inactive)
REMARK    1  A    between atoms: C2_2  and  C15_23 
REMARK    2  A    between atoms: C3_3  and  C4_4 
REMARK    3  A    between atoms: C4_4  and  C5_5 
REMARK    4  A    between atoms: N2_8  and  N3_10 
REMARK    5  A    between atoms: N3_10  and  C7_12 
REMARK    6  A    between atoms: C10_17  and  C11_18 
ROOT
HETATM    1  C5  UNL     1       1.934   1.333   1.424  1.00  0.00     0.109 C 
HETATM    2  C6  UNL     1       2.519   2.477   2.065  1.00  0.00     0.115 C 
HETATM    3  N1  UNL     1       3.007   3.396   2.574  1.00  0.00    -0.190 NA
HETATM    4  N2  UNL     1       0.914   1.503   0.653  1.00  0.00    -0.292 N 
ATOM      5  H2  UNL     1       0.564   2.454   0.532  1.00  0.00     0.187 HD
ENDROOT
BRANCH   1   6
HETATM    6  C4  UNL     1       2.532  -0.006   1.680  1.00  0.00     0.098 C 
BRANCH   6   7
HETATM    7  C3  UNL     1       3.947   0.006   1.235  1.00  0.00    -0.012 C 
HETATM    8  C2  UNL     1       4.410  -0.796   0.313  1.00  0.00    -0.048 C 
HETATM    9  C1  UNL     1       3.494  -1.772  -0.331  1.00  0.00     0.049 C 
BRANCH   8  10
HETATM   10  C15 UNL     1       5.821  -0.767  -0.114  1.00  0.00     0.010 A 
HETATM   11  C16 UNL     1       6.823   0.044   0.344  1.00  0.00     0.020 A 
HETATM   12  C17 UNL     1       8.035  -0.108  -0.195  1.00  0.00     0.008 A 
HETATM   13  C18 UNL     1       8.180  -1.067  -1.164  1.00  0.00     0.050 A 
HETATM   14  S2  UNL     1       6.607  -1.720  -1.286  1.00  0.00    -0.102 SA
ENDBRANCH   8  10
ENDBRANCH   6   7
ENDBRANCH   1   6
BRANCH   4  15
HETATM   15  N3  UNL     1       0.265   0.493  -0.017  1.00  0.00    -0.279 N 
ATOM     16  H3  UNL     1       0.817  -0.239  -0.465  1.00  0.00     0.189 HD
BRANCH  15  17
HETATM   17  C7  UNL     1      -1.052   0.442  -0.098  1.00  0.00     0.164 A 
HETATM   18  N4  UNL     1      -1.925   1.304   0.423  1.00  0.00    -0.338 N 
HETATM   19  C8  UNL     1      -3.203   1.090   0.240  1.00  0.00     0.021 A 
ATOM     20  H4  UNL     1      -1.604   2.114   0.953  1.00  0.00     0.168 HD
HETATM   21  C9  UNL     1      -4.299   1.999   0.783  1.00  0.00     0.069 C 
HETATM   22  C10 UNL     1      -3.561  -0.018  -0.482  1.00  0.00     0.016 A 
HETATM   23  S1  UNL     1      -2.047  -0.704  -0.867  1.00  0.00    -0.054 SA
BRANCH  22  24
HETATM   24  C11 UNL     1      -4.951  -0.490  -0.834  1.00  0.00    -0.016 C 
HETATM   25  C12 UNL     1      -4.732  -1.771  -1.647  1.00  0.00     0.020 C 
HETATM   26  C13 UNL     1      -5.665   0.496  -1.703  1.00  0.00     0.020 C 
HETATM   27  C14 UNL     1      -5.741  -0.863   0.378  1.00  0.00     0.020 C 
ENDBRANCH  22  24
ENDBRANCH  15  17
ENDBRANCH   4  15
TORSDOF 6
