REMARK  1 active torsions:
REMARK  status: ('A' for Active; 'I' for Inactive)
REMARK    1  A    between atoms: C2_2  and  C3_3 
ROOT
HETATM    1  C1  UNL     1      -2.334  -1.529   0.182  1.00  0.00     0.056 C 
HETATM    2  C2  UNL     1      -1.392  -0.343  -0.097  1.00  0.00     0.158 C 
HETATM    3  C4  UNL     1      -0.681  -0.078   1.202  1.00  0.00     0.075 C 
HETATM    4  C5  UNL     1       0.558   0.710   0.978  1.00  0.00     0.242 C 
HETATM    5  N1  UNL     1       1.340   0.201  -0.121  1.00  0.00    -0.054 N 
HETATM    6  C6  UNL     1       2.325   1.247  -0.435  1.00  0.00     0.274 C 
HETATM    7  C7  UNL     1       2.105  -0.979   0.230  1.00  0.00     0.274 C 
HETATM    8  C8  UNL     1       0.568  -0.052  -1.308  1.00  0.00     0.405 C 
HETATM    9  O1  UNL     1      -0.586  -0.736  -1.121  1.00  0.00    -0.344 OA
ENDROOT
BRANCH   2  10
HETATM   10  C3  UNL     1      -2.337   0.798  -0.473  1.00  0.00     0.418 C 
HETATM   11  F1  UNL     1      -3.166   0.998   0.623  1.00  0.00    -0.168 F 
HETATM   12  F2  UNL     1      -3.129   0.288  -1.510  1.00  0.00    -0.168 F 
HETATM   13  F3  UNL     1      -1.684   1.920  -0.863  1.00  0.00    -0.168 F 
ENDBRANCH   2  10
TORSDOF 1
