REMARK  5 active torsions:
REMARK  status: ('A' for Active; 'I' for Inactive)
REMARK    1  A    between atoms: C2_2  and  C3_3 
REMARK    2  A    between atoms: C3_3  and  O1_4 
REMARK    3  A    between atoms: O1_4  and  C4_5 
REMARK    4  A    between atoms: C7_8  and  N1_9 
REMARK    5  A    between atoms: C7_8  and  C8_13 
ROOT
HETATM    1  C4  UNL     1       0.182   0.116  -0.119  1.00  0.00     0.121 C 
HETATM    2  C5  UNL     1       0.900  -1.168  -0.522  1.00  0.00     0.035 C 
HETATM    3  C6  UNL     1       2.215  -0.689  -1.106  1.00  0.00     0.051 C 
HETATM    4  C7  UNL     1       3.023  -0.200   0.062  1.00  0.00     0.220 C 
HETATM    5  C9  UNL     1       2.383   0.868   0.857  1.00  0.00     0.051 C 
HETATM    6  C10 UNL     1       0.912   0.901   0.902  1.00  0.00     0.035 C 
ENDROOT
BRANCH   4   7
HETATM    7  N1  UNL     1       3.235  -1.363   0.936  1.00  0.00    -0.062 N 
ATOM      8  H13 UNL     1       2.369  -1.827   1.209  1.00  0.00     0.275 HD
ATOM      9  H12 UNL     1       3.658  -2.158   0.456  1.00  0.00     0.275 HD
ATOM     10  H11 UNL     1       3.784  -1.031   1.729  1.00  0.00     0.275 HD
ENDBRANCH   4   7
BRANCH   4  11
HETATM   11  C8  UNL     1       4.407   0.196  -0.432  1.00  0.00     0.420 C 
HETATM   12  F1  UNL     1       5.203   0.654   0.587  1.00  0.00    -0.168 F 
HETATM   13  F2  UNL     1       4.346   1.090  -1.472  1.00  0.00    -0.168 F 
HETATM   14  F3  UNL     1       4.992  -0.967  -0.922  1.00  0.00    -0.168 F 
ENDBRANCH   4  11
BRANCH   1  15
HETATM   15  O1  UNL     1      -1.103  -0.134   0.320  1.00  0.00    -0.385 OA
BRANCH  15  16
HETATM   16  C3  UNL     1      -2.054   0.453  -0.544  1.00  0.00     0.177 C 
BRANCH  16  17
HETATM   17  C2  UNL     1      -3.437   0.161  -0.037  1.00  0.00    -0.022 A 
HETATM   18  C1  UNL     1      -3.766  -1.324   0.050  1.00  0.00     0.017 C 
HETATM   19  C11 UNL     1      -4.537   1.113  -0.394  1.00  0.00     0.012 A 
HETATM   20  C12 UNL     1      -4.040   1.003   1.022  1.00  0.00     0.012 A 
ENDBRANCH  16  17
ENDBRANCH  15  16
ENDBRANCH   1  15
TORSDOF 5
