REMARK  4 active torsions:
REMARK  status: ('A' for Active; 'I' for Inactive)
REMARK    1  A    between atoms: C5_8  and  C6_9 
REMARK    2  A    between atoms: N2_10  and  C7_11 
REMARK    3  A    between atoms: N2_10  and  C12_17 
REMARK    4  A    between atoms: C7_11  and  C8_12 
ROOT
HETATM    1  C6  UNL     1       0.258  -0.693   0.028  1.00  0.00     0.065 C 
HETATM    2  N2  UNL     1      -0.796   0.063   0.456  1.00  0.00    -0.386 N 
ENDROOT
BRANCH   2   3
HETATM    3  C7  UNL     1      -2.013  -0.618   0.808  1.00  0.00     0.154 C 
BRANCH   3   4
HETATM    4  C8  UNL     1      -2.836  -1.270  -0.198  1.00  0.00     0.139 C 
HETATM    5  C9  UNL     1      -2.174  -2.544  -0.713  1.00  0.00     0.035 C 
HETATM    6  C10 UNL     1      -3.335  -3.549  -0.808  1.00  0.00     0.029 C 
HETATM    7  C11 UNL     1      -4.515  -2.620  -0.617  1.00  0.00     0.168 C 
HETATM    8  O1  UNL     1      -4.007  -1.822   0.438  1.00  0.00    -0.384 OA
ENDBRANCH   3   4
ENDBRANCH   2   3
BRANCH   2   9
HETATM    9  C12 UNL     1      -1.100   1.363   0.055  1.00  0.00     0.083 C 
HETATM   10  C13 UNL     1      -0.111   2.394   0.518  1.00  0.00     0.025 C 
HETATM   11  C14 UNL     1      -0.738   3.795   0.399  1.00  0.00     0.002 C 
HETATM   12  C15 UNL     1      -1.189   4.032  -1.028  1.00  0.00     0.000 C 
HETATM   13  C16 UNL     1      -2.025   2.904  -1.566  1.00  0.00     0.002 C 
HETATM   14  C17 UNL     1      -1.248   1.608  -1.438  1.00  0.00     0.025 C 
ENDBRANCH   2   9
BRANCH   1  15
HETATM   15  C5  UNL     1       1.663  -0.179  -0.102  1.00  0.00     0.050 C 
HETATM   16  C4  UNL     1       2.467  -1.405  -0.682  1.00  0.00     0.242 C 
HETATM   17  N1  UNL     1       2.945  -2.241   0.396  1.00  0.00    -0.074 N 
HETATM   18  C3  UNL     1       4.182  -1.600   0.890  1.00  0.00     0.236 C 
ATOM     19  H12 UNL     1       3.071  -3.217   0.129  1.00  0.00     0.277 HD
ATOM     20  H11 UNL     1       2.250  -2.401   1.125  1.00  0.00     0.277 HD
HETATM   21  C2  UNL     1       3.842  -0.112   0.981  1.00  0.00     0.008 C 
HETATM   22  C1  UNL     1       4.673   0.529   2.045  1.00  0.00     0.011 C 
HETATM   23  C18 UNL     1       2.355   0.008   1.248  1.00  0.00     0.017 C 
ENDBRANCH   1  15
TORSDOF 4
