REMARK  7 active torsions:
REMARK  status: ('A' for Active; 'I' for Inactive)
REMARK    1  A    between atoms: C2_2  and  C3_4 
REMARK    2  A    between atoms: C3_4  and  O2_5 
REMARK    3  A    between atoms: O2_5  and  N1_6 
REMARK    4  A    between atoms: C4_8  and  C6_10 
REMARK    5  A    between atoms: C6_10  and  O4_12 
REMARK    6  A    between atoms: O4_12  and  C7_13 
REMARK    7  A    between atoms: C16_23  and  O6_24 
ROOT
HETATM    1  C7  UNL     1      -0.644   1.884  -0.314  1.00  0.00     0.137 C 
HETATM    2  C8  UNL     1      -0.933   2.969   0.735  1.00  0.00     0.033 C 
HETATM    3  C9  UNL     1      -1.710   2.437   1.893  1.00  0.00     0.007 C 
HETATM    4  C10 UNL     1      -1.550   0.947   2.078  1.00  0.00    -0.010 C 
HETATM    5  C11 UNL     1      -2.334   0.556   3.312  1.00  0.00     0.011 C 
HETATM    6  C12 UNL     1      -2.029   0.165   0.890  1.00  0.00    -0.029 C 
HETATM    7  C13 UNL     1      -1.282  -1.140   0.836  1.00  0.00     0.016 C 
HETATM    8  C14 UNL     1      -3.521  -0.171   1.014  1.00  0.00     0.075 C 
HETATM    9  C15 UNL     1      -3.959  -0.747  -0.305  1.00  0.00     0.063 A 
HETATM   10  O5  UNL     1      -5.037  -1.436  -0.602  1.00  0.00    -0.292 OA
HETATM   11  C16 UNL     1      -5.086  -1.772  -1.848  1.00  0.00     0.183 A 
HETATM   12  C17 UNL     1      -3.947  -1.269  -2.443  1.00  0.00     0.073 A 
HETATM   13  C18 UNL     1      -3.243  -0.622  -1.453  1.00  0.00    -0.023 A 
HETATM   14  C19 UNL     1      -1.931   0.107  -1.539  1.00  0.00     0.049 C 
HETATM   15  C20 UNL     1      -1.868   1.006  -0.332  1.00  0.00     0.028 C 
ENDROOT
BRANCH   1  16
HETATM   16  O4  UNL     1       0.534   1.204  -0.006  1.00  0.00    -0.311 OA
BRANCH  16  17
HETATM   17  C6  UNL     1       1.591   1.164  -0.872  1.00  0.00     0.307 C 
HETATM   18  O3  UNL     1       1.438   1.786  -1.979  1.00  0.00    -0.258 OA
BRANCH  17  19
HETATM   19  C4  UNL     1       2.842   0.474  -0.609  1.00  0.00     0.103 C 
HETATM   20  N1  UNL     1       3.816   0.455  -1.443  1.00  0.00    -0.265 N 
ATOM     21  H1  UNL     1       3.687   0.952  -2.324  1.00  0.00     0.194 HD
HETATM   22  C5  UNL     1       2.990  -0.237   0.680  1.00  0.00     0.077 C 
BRANCH  20  23
HETATM   23  O2  UNL     1       4.998  -0.169  -1.251  1.00  0.00    -0.273 OA
BRANCH  23  24
HETATM   24  C3  UNL     1       5.180  -1.569  -1.348  1.00  0.00     0.278 C 
BRANCH  24  25
HETATM   25  C2  UNL     1       6.587  -1.959  -1.084  1.00  0.00     0.148 C 
HETATM   26  C1  UNL     1       7.589  -0.925  -0.769  1.00  0.00     0.093 C 
HETATM   27  O1  UNL     1       6.873  -3.139  -1.138  1.00  0.00    -0.296 OA
ENDBRANCH  24  25
ENDBRANCH  23  24
ENDBRANCH  20  23
ENDBRANCH  17  19
ENDBRANCH  16  17
ENDBRANCH   1  16
BRANCH  11  28
HETATM   28  O6  UNL     1      -6.072  -2.500  -2.514  1.00  0.00    -0.341 OA
ATOM     29  H6  UNL     1      -6.108  -2.747  -3.431  1.00  0.00     0.220 HD
ENDBRANCH  11  28
TORSDOF 7
