REMARK  2 active torsions:
REMARK  status: ('A' for Active; 'I' for Inactive)
REMARK    1  A    between atoms: C2_2  and  C3_3 
REMARK    2  A    between atoms: C5_6  and  C6_7 
ROOT
HETATM    1  C3  UNL     1       1.748  -0.641   0.080  1.00  0.00     0.234 C 
HETATM    2  C4  UNL     1       1.611   0.248   1.316  1.00  0.00     0.207 C 
HETATM    3  O1  UNL     1       0.228   0.344   1.424  1.00  0.00    -0.356 OA
HETATM    4  C5  UNL     1      -0.212   0.547   0.123  1.00  0.00     0.329 C 
HETATM    5  N1  UNL     1       0.700  -0.103  -0.763  1.00  0.00    -0.039 N 
ATOM      6  H11 UNL     1       0.260  -0.800  -1.364  1.00  0.00     0.281 HD
ATOM      7  H12 UNL     1       1.045   0.500  -1.510  1.00  0.00     0.281 HD
ENDROOT
BRANCH   4   8
HETATM    8  C6  UNL     1      -1.619   0.007   0.035  1.00  0.00     0.001 C 
HETATM    9  C7  UNL     1      -2.471   0.772   1.032  1.00  0.00     0.019 C 
HETATM   10  C8  UNL     1      -2.222   0.177  -1.328  1.00  0.00     0.019 C 
HETATM   11  C9  UNL     1      -1.691  -1.447   0.404  1.00  0.00     0.019 C 
ENDBRANCH   4   8
BRANCH   1  12
HETATM   12  C2  UNL     1       3.092  -0.531  -0.515  1.00  0.00    -0.002 C 
HETATM   13  C1  UNL     1       3.557   0.552  -1.095  1.00  0.00     0.009 C 
ENDBRANCH   1  12
TORSDOF 2
