REMARK  5 active torsions:
REMARK  status: ('A' for Active; 'I' for Inactive)
REMARK    1  A    between atoms: O1_2  and  C2_3 
REMARK    2  A    between atoms: C2_3  and  C3_4 
REMARK       I    between atoms: C3_4  and  N1_6 
REMARK    3  A    between atoms: N1_6  and  C4_8 
REMARK    4  A    between atoms: C4_8  and  C5_9 
REMARK       I    between atoms: C5_9  and  N2_11 
REMARK    5  A    between atoms: N2_11  and  C6_13 
ROOT
HETATM    1  C4  UNL     1       1.911   0.020   0.333  1.00  0.00     0.150 C 
HETATM    2  C16 UNL     1       1.985  -1.457   0.547  1.00  0.00     0.123 C 
HETATM    3  C17 UNL     1       2.008  -1.709   2.013  1.00  0.00     0.249 C 
HETATM    4  F1  UNL     1       0.858  -2.355   2.486  1.00  0.00    -0.206 F 
HETATM    5  F2  UNL     1       3.074  -2.550   2.310  1.00  0.00    -0.206 F 
HETATM    6  C18 UNL     1       2.244  -0.396   2.683  1.00  0.00     0.119 C 
HETATM    7  C19 UNL     1       1.854   0.635   1.689  1.00  0.00     0.213 C 
HETATM    8  F3  UNL     1       2.798   1.657   1.756  1.00  0.00    -0.246 F 
ENDROOT
BRANCH   1   9
HETATM    9  N1  UNL     1       2.978   0.510  -0.515  1.00  0.00    -0.339 N 
HETATM   10  C3  UNL     1       4.360   0.426  -0.280  1.00  0.00     0.242 C 
HETATM   11  O2  UNL     1       4.810  -0.117   0.744  1.00  0.00    -0.271 OA
ATOM     12  H1  UNL     1       2.693   0.968  -1.381  1.00  0.00     0.164 HD
BRANCH  10  13
HETATM   13  C2  UNL     1       5.297   0.998  -1.276  1.00  0.00     0.269 C 
BRANCH  13  14
HETATM   14  O1  UNL     1       6.617   0.834  -1.047  1.00  0.00    -0.387 OA
HETATM   15  C1  UNL     1       7.144  -0.424  -1.034  1.00  0.00     0.202 C 
ENDBRANCH  13  14
ENDBRANCH  10  13
ENDBRANCH   1   9
BRANCH   1  16
HETATM   16  C5  UNL     1       0.627   0.311  -0.410  1.00  0.00     0.249 C 
HETATM   17  O3  UNL     1       0.718   0.839  -1.543  1.00  0.00    -0.271 OA
HETATM   18  N2  UNL     1      -0.653   0.011   0.129  1.00  0.00    -0.353 N 
ATOM     19  H2  UNL     1      -0.730  -0.417   1.052  1.00  0.00     0.163 HD
BRANCH  18  20
HETATM   20  C6  UNL     1      -1.846   0.311  -0.628  1.00  0.00     0.092 C 
HETATM   21  C7  UNL     1      -2.720   1.332   0.067  1.00  0.00     0.009 C 
HETATM   22  C8  UNL     1      -3.450   0.781   1.247  1.00  0.00     0.011 C 
HETATM   23  C12 UNL     1      -3.713   1.833  -0.965  1.00  0.00     0.011 C 
HETATM   24  C9  UNL     1      -4.331  -0.364   0.795  1.00  0.00    -0.013 C 
HETATM   25  C10 UNL     1      -5.311   0.155  -0.217  1.00  0.00     0.009 C 
HETATM   26  C15 UNL     1      -3.437  -1.431   0.235  1.00  0.00     0.011 C 
HETATM   27  C11 UNL     1      -4.551   0.667  -1.429  1.00  0.00    -0.013 C 
HETATM   28  C13 UNL     1      -3.716  -0.454  -1.975  1.00  0.00     0.011 C 
HETATM   29  C14 UNL     1      -2.666  -0.901  -0.951  1.00  0.00     0.009 C 
ENDBRANCH  18  20
ENDBRANCH   1  16
TORSDOF 5
