REMARK  8 active torsions:
REMARK  status: ('A' for Active; 'I' for Inactive)
REMARK    1  A    between atoms: C1_2  and  C2_4 
REMARK    2  A    between atoms: C5_9  and  N3_10 
REMARK    3  A    between atoms: N3_10  and  S1_12 
REMARK    4  A    between atoms: S1_12  and  N4_15 
REMARK    5  A    between atoms: N4_15  and  N5_17 
REMARK    6  A    between atoms: N5_17  and  C6_18 
REMARK    7  A    between atoms: C6_18  and  N6_19 
REMARK    8  A    between atoms: C6_18  and  C7_23 
ROOT
HETATM    1  S1  UNL     1      -0.226   0.318   1.804  1.00  0.00     0.334 S 
HETATM    2  O2  UNL     1       0.321   1.537   1.173  1.00  0.00    -0.181 OA
HETATM    3  O3  UNL     1      -0.556   0.649   3.256  1.00  0.00    -0.181 OA
ENDROOT
BRANCH   1   4
HETATM    4  N3  UNL     1       0.923  -0.946   1.803  1.00  0.00    -0.266 N 
ATOM      5  H3  UNL     1       0.954  -1.577   2.604  1.00  0.00     0.180 HD
BRANCH   4   6
HETATM    6  C5  UNL     1       1.836  -1.157   0.737  1.00  0.00     0.060 A 
HETATM    7  C4  UNL     1       1.921  -2.476   0.270  1.00  0.00     0.117 A 
HETATM    8  N2  UNL     1       2.764  -2.718  -0.741  1.00  0.00    -0.372 N 
HETATM    9  C3  UNL     1       3.523  -1.740  -1.314  1.00  0.00     0.104 A 
ATOM     10  H2  UNL     1       2.842  -3.671  -1.097  1.00  0.00     0.164 HD
HETATM   11  C2  UNL     1       3.461  -0.443  -0.878  1.00  0.00     0.046 A 
HETATM   12  C8  UNL     1       2.601  -0.166   0.162  1.00  0.00     0.049 A 
BRANCH  11  13
HETATM   13  C1  UNL     1       4.275   0.576  -1.502  1.00  0.00     0.266 C 
HETATM   14  N1  UNL     1       4.255   1.938  -1.095  1.00  0.00    -0.057 NA
HETATM   15  O1  UNL     1       5.040   0.263  -2.446  1.00  0.00    -0.271 OA
ENDBRANCH  11  13
ENDBRANCH   4   6
ENDBRANCH   1   4
BRANCH   1  16
HETATM   16  N4  UNL     1      -1.723  -0.180   1.102  1.00  0.00    -0.211 N 
ATOM     17  H4  UNL     1      -2.487  -0.593   1.636  1.00  0.00     0.197 HD
BRANCH  16  18
HETATM   18  N5  UNL     1      -1.775   0.042  -0.264  1.00  0.00    -0.087 NA
BRANCH  18  19
HETATM   19  C6  UNL     1      -3.153   0.225  -0.658  1.00  0.00     0.384 C 
BRANCH  19  20
HETATM   20  N6  UNL     1      -3.953  -0.941  -0.346  1.00  0.00    -0.051 N 
ATOM     21  H63 UNL     1      -3.557  -1.786  -0.756  1.00  0.00     0.276 HD
ATOM     22  H62 UNL     1      -3.877  -1.193   0.639  1.00  0.00     0.276 HD
ATOM     23  H61 UNL     1      -4.926  -0.812  -0.624  1.00  0.00     0.276 HD
ENDBRANCH  19  20
BRANCH  19  24
HETATM   24  C7  UNL     1      -3.727   1.388   0.066  1.00  0.00     0.279 C 
HETATM   25  N7  UNL     1      -5.073   1.797  -0.131  1.00  0.00    -0.059 NA
HETATM   26  O4  UNL     1      -3.034   2.032   0.866  1.00  0.00    -0.273 OA
ENDBRANCH  19  24
ENDBRANCH  18  19
ENDBRANCH  16  18
ENDBRANCH   1  16
TORSDOF 8
