REMARK  15 active torsions:
REMARK  status: ('A' for Active; 'I' for Inactive)
REMARK    1  A    between atoms: N1_1  and  C1_4 
REMARK    2  A    between atoms: C4_9  and  N3_10 
REMARK    3  A    between atoms: C7_20  and  C8_21 
REMARK    4  A    between atoms: C8_21  and  S1_22 
REMARK    5  A    between atoms: S1_22  and  C9_25 
REMARK    6  A    between atoms: C9_25  and  S2_26 
REMARK    7  A    between atoms: S2_26  and  C10_27 
REMARK    8  A    between atoms: C10_27  and  C11_28 
REMARK       I    between atoms: C11_28  and  N6_30 
REMARK    9  A    between atoms: N6_30  and  S3_32 
REMARK   10  A    between atoms: C13_39  and  O9_40 
REMARK   11  A    between atoms: C14_42  and  O10_43 
REMARK   12  A    between atoms: O10_43  and  C15_44 
REMARK   13  A    between atoms: C15_44  and  C16_46 
REMARK   14  A    between atoms: C16_46  and  N8_47 
REMARK   15  A    between atoms: C16_46  and  C17_51 
ROOT
HETATM    1  C1  UNL     1      -5.343   3.021  -0.148  1.00  0.00     0.677 A 
HETATM    2  N2  UNL     1      -4.054   2.832   0.216  1.00  0.00    -0.191 N 
ATOM      3  H2  UNL     1      -3.627   3.374   0.968  1.00  0.00     0.184 HD
HETATM    4  C2  UNL     1      -3.370   1.909  -0.450  1.00  0.00     0.089 A 
HETATM    5  C3  UNL     1      -3.927   1.165  -1.473  1.00  0.00     0.099 A 
HETATM    6  C4  UNL     1      -5.238   1.382  -1.816  1.00  0.00     0.143 A 
HETATM    7  N4  UNL     1      -5.931   2.316  -1.141  1.00  0.00    -0.175 N 
ATOM      8  H4  UNL     1      -6.907   2.494  -1.380  1.00  0.00     0.186 HD
HETATM    9  N5  UNL     1      -3.093   0.217  -2.146  1.00  0.00    -0.373 N 
ATOM     10  H5  UNL     1      -3.470  -0.683  -2.443  1.00  0.00     0.160 HD
HETATM   11  C5  UNL     1      -1.733   0.545  -2.395  1.00  0.00     0.178 C 
HETATM   12  C6  UNL     1      -0.740  -0.471  -2.629  1.00  0.00     0.257 C 
HETATM   13  O1  UNL     1      -0.717  -1.712  -1.985  1.00  0.00    -0.339 OA
HETATM   14  C7  UNL     1       0.695  -1.554  -2.117  1.00  0.00     0.245 C 
HETATM   15  N7  UNL     1       0.437  -0.194  -1.743  1.00  0.00    -0.292 N 
HETATM   16  C12 UNL     1       0.234   1.155  -1.337  1.00  0.00     0.264 C 
HETATM   17  O8  UNL     1       1.236   1.874  -0.990  1.00  0.00    -0.270 OA
HETATM   18  C13 UNL     1      -1.180   1.530  -1.385  1.00  0.00     0.195 C 
HETATM   19  C14 UNL     1      -1.928   1.543  -0.109  1.00  0.00     0.230 C 
ENDROOT
BRANCH  14  20
HETATM   20  C8  UNL     1       1.608  -2.439  -1.459  1.00  0.00     0.195 C 
BRANCH  20  21
HETATM   21  S1  UNL     1       1.674  -2.657   0.248  1.00  0.00     0.157 S 
HETATM   22  O2  UNL     1       2.869  -3.584   0.529  1.00  0.00    -0.227 OA
HETATM   23  O3  UNL     1       0.512  -3.410   0.826  1.00  0.00    -0.227 OA
BRANCH  21  24
HETATM   24  C9  UNL     1       2.020  -1.178   1.162  1.00  0.00     0.214 C 
BRANCH  24  25
HETATM   25  S2  UNL     1       3.588  -0.417   0.691  1.00  0.00    -0.145 SA
BRANCH  25  26
HETATM   26  C10 UNL     1       5.027  -1.409   1.147  1.00  0.00     0.178 C 
BRANCH  26  27
HETATM   27  C11 UNL     1       6.290  -0.744   0.737  1.00  0.00     0.242 C 
HETATM   28  O4  UNL     1       6.773  -1.000  -0.403  1.00  0.00    -0.272 OA
HETATM   29  N6  UNL     1       6.970   0.168   1.582  1.00  0.00    -0.235 N 
ATOM     30  H6  UNL     1       6.581   0.375   2.502  1.00  0.00     0.184 HD
BRANCH  29  31
HETATM   31  S3  UNL     1       8.443   0.941   1.098  1.00  0.00     0.211 S 
HETATM   32  O5  UNL     1       8.233   1.795  -0.137  1.00  0.00    -0.578 OA
HETATM   33  O6  UNL     1       8.921   1.772   2.250  1.00  0.00    -0.578 OA
HETATM   34  O7  UNL     1       9.609  -0.202   0.676  1.00  0.00    -0.578 OA
ENDBRANCH  29  31
ENDBRANCH  26  27
ENDBRANCH  25  26
ENDBRANCH  24  25
ENDBRANCH  21  24
ENDBRANCH  20  21
ENDBRANCH  14  20
BRANCH  18  35
HETATM   35  O9  UNL     1      -1.219   2.861  -1.880  1.00  0.00    -0.375 OA
ATOM     36  H9  UNL     1      -0.872   3.479  -1.247  1.00  0.00     0.211 HD
ENDBRANCH  18  35
BRANCH  19  37
HETATM   37  O10 UNL     1      -2.106   0.243   0.483  1.00  0.00    -0.304 OA
BRANCH  37  38
HETATM   38  C15 UNL     1      -1.820  -0.012   1.806  1.00  0.00     0.297 C 
HETATM   39  O11 UNL     1      -1.374   0.910   2.513  1.00  0.00    -0.262 OA
BRANCH  38  40
HETATM   40  C16 UNL     1      -2.023  -1.344   2.434  1.00  0.00     0.342 C 
BRANCH  40  41
HETATM   41  N8  UNL     1      -2.678  -2.211   1.468  1.00  0.00    -0.060 N 
ATOM     42  H83 UNL     1      -3.544  -1.812   1.106  1.00  0.00     0.275 HD
ATOM     43  H82 UNL     1      -2.172  -2.267   0.584  1.00  0.00     0.275 HD
ATOM     44  H81 UNL     1      -2.817  -3.125   1.899  1.00  0.00     0.275 HD
ENDBRANCH  40  41
BRANCH  40  45
HETATM   45  C17 UNL     1      -2.953  -1.190   3.607  1.00  0.00     0.274 C 
HETATM   46  O12 UNL     1      -4.035  -1.749   3.617  1.00  0.00    -0.304 OA
ENDBRANCH  40  45
ENDBRANCH  38  40
ENDBRANCH  37  38
ENDBRANCH  19  37
BRANCH   6  47
HETATM   47  N3  UNL     1      -5.725   0.659  -2.770  1.00  0.00    -0.383 N 
ATOM     48  H32 UNL     1      -5.199  -0.049  -3.282  1.00  0.00     0.157 HD
ATOM     49  H31 UNL     1      -6.699   0.820  -3.025  1.00  0.00     0.157 HD
ENDBRANCH   6  47
BRANCH   1  50
HETATM   50  N1  UNL     1      -6.045   3.925   0.493  1.00  0.00    -0.234 N 
ATOM     51  H12 UNL     1      -5.602   4.457   1.242  1.00  0.00     0.174 HD
ATOM     52  H11 UNL     1      -7.017   4.068   0.219  1.00  0.00     0.174 HD
ENDBRANCH   1  50
TORSDOF 15
