REMARK  2 active torsions:
REMARK  status: ('A' for Active; 'I' for Inactive)
REMARK    1  A    between atoms: N1_2  and  C3_5 
REMARK    2  A    between atoms: C4_6  and  C5_7 
REMARK       I    between atoms: N5_13  and  C7_15 
REMARK       I    between atoms: N7_17  and  C8_19 
REMARK       I    between atoms: C8_19  and  N8_20 
REMARK       I    between atoms: C8_19  and  N9_24 
ROOT
HETATM    1  C1  UNL     1      -3.426  -1.419   1.115  1.00  0.00     0.169 C 
HETATM    2  N1  UNL     1      -3.555  -0.057   0.606  1.00  0.00    -0.282 N 
HETATM    3  C2  UNL     1      -4.834   0.502   0.909  1.00  0.00     0.184 C 
HETATM    4  N2  UNL     1      -5.895   0.933   1.169  1.00  0.00    -0.172 NA
ENDROOT
BRANCH   2   5
HETATM    5  C3  UNL     1      -2.593   0.658  -0.113  1.00  0.00     0.144 C 
HETATM    6  C4  UNL     1      -1.452   0.000  -0.514  1.00  0.00     0.133 C 
HETATM    7  N4  UNL     1      -0.150   0.429  -0.340  1.00  0.00    -0.332 N 
HETATM    8  C6  UNL     1       0.258   1.712  -0.215  1.00  0.00     0.178 C 
ATOM      9  H4  UNL     1       0.572  -0.291  -0.302  1.00  0.00     0.168 HD
HETATM   10  N5  UNL     1       1.510   1.910  -0.004  1.00  0.00    -0.312 N 
HETATM   11  C9  UNL     1      -0.504   2.855  -0.284  1.00  0.00     0.292 C 
HETATM   12  C7  UNL     1       2.436   0.839   0.095  1.00  0.00     0.192 C 
ATOM     13  H5  UNL     1       1.849   2.867   0.095  1.00  0.00     0.170 HD
HETATM   14  N6  UNL     1       2.970   0.336  -1.122  1.00  0.00    -0.063 NA
HETATM   15  N7  UNL     1       2.804   0.318   1.190  1.00  0.00    -0.315 N 
HETATM   16  C8  UNL     1       3.732  -0.759   1.335  1.00  0.00     0.482 C 
ATOM     17  H7  UNL     1       2.402   0.702   2.045  1.00  0.00     0.166 HD
HETATM   18  N8  UNL     1       4.948  -0.502   0.603  1.00  0.00    -0.033 N 
HETATM   19  N9  UNL     1       3.196  -2.025   0.858  1.00  0.00    -0.033 N 
ATOM     20  H83 UNL     1       4.759  -0.299  -0.379  1.00  0.00     0.278 HD
ATOM     21  H82 UNL     1       5.364   0.390   0.869  1.00  0.00     0.278 HD
ATOM     22  H81 UNL     1       5.610  -1.271   0.706  1.00  0.00     0.278 HD
ATOM     23  H93 UNL     1       2.308  -2.242   1.311  1.00  0.00     0.278 HD
ATOM     24  H92 UNL     1       2.873  -1.947  -0.106  1.00  0.00     0.278 HD
ATOM     25  H91 UNL     1       3.858  -2.794   0.961  1.00  0.00     0.278 HD
HETATM   26  O2  UNL     1       0.148   3.916  -0.267  1.00  0.00    -0.264 OA
HETATM   27  N10 UNL     1      -1.848   3.006  -0.367  1.00  0.00    -0.285 N 
HETATM   28  C10 UNL     1      -2.797   2.030  -0.312  1.00  0.00     0.278 C 
ATOM     29  H10 UNL     1      -2.188   3.960  -0.484  1.00  0.00     0.172 HD
HETATM   30  O3  UNL     1      -3.982   2.373  -0.450  1.00  0.00    -0.265 OA
BRANCH   6  31
HETATM   31  C5  UNL     1      -1.648  -1.231  -1.231  1.00  0.00     0.284 C 
HETATM   32  N3  UNL     1      -0.557  -2.132  -1.371  1.00  0.00    -0.056 NA
HETATM   33  O1  UNL     1      -2.729  -1.554  -1.740  1.00  0.00    -0.269 OA
ENDBRANCH   6  31
ENDBRANCH   2   5
TORSDOF 2
