REMARK  6 active torsions:
REMARK  status: ('A' for Active; 'I' for Inactive)
REMARK    1  A    between atoms: C2_2  and  C3_3 
REMARK    2  A    between atoms: C4_4  and  N1_5 
REMARK    3  A    between atoms: C7_8  and  C8_9 
REMARK    4  A    between atoms: C9_12  and  C10_13 
REMARK    5  A    between atoms: C11_15  and  C12_16 
REMARK    6  A    between atoms: C25_37  and  N7_38 
ROOT
HETATM    1  C12 UNL     1      -4.537   0.042   0.135  1.00  0.00     0.071 A 
HETATM    2  C13 UNL     1      -5.304  -1.044  -0.319  1.00  0.00     0.133 A 
HETATM    3  F2  UNL     1      -4.690  -2.243  -0.377  1.00  0.00    -0.205 F 
HETATM    4  C14 UNL     1      -6.630  -0.899  -0.647  1.00  0.00     0.066 A 
HETATM    5  C15 UNL     1      -7.269   0.319  -0.546  1.00  0.00     0.056 A 
HETATM    6  C16 UNL     1      -8.656   0.476  -0.886  1.00  0.00     0.100 C 
HETATM    7  N3  UNL     1      -9.777   0.605  -1.140  1.00  0.00    -0.191 NA
HETATM    8  C17 UNL     1      -6.555   1.402  -0.107  1.00  0.00    -0.002 A 
HETATM    9  C18 UNL     1      -7.201   2.725   0.021  1.00  0.00     0.053 C 
HETATM   10  C19 UNL     1      -5.213   1.230   0.218  1.00  0.00     0.139 A 
HETATM   11  F3  UNL     1      -4.577   2.368   0.558  1.00  0.00    -0.204 F 
ENDROOT
BRANCH   1  12
HETATM   12  C11 UNL     1      -3.118  -0.123   0.358  1.00  0.00     0.077 A 
HETATM   13  C9  UNL     1      -2.347   0.071   1.464  1.00  0.00     0.067 A 
HETATM   14  N2  UNL     1      -1.014  -0.128   1.101  1.00  0.00    -0.345 N 
HETATM   15  C8  UNL     1      -0.981  -0.437  -0.196  1.00  0.00     0.088 A 
ATOM     16  H2  UNL     1      -0.207  -0.051   1.719  1.00  0.00     0.167 HD
HETATM   17  N4  UNL     1      -2.228  -0.433  -0.637  1.00  0.00    -0.338 N 
HETATM   18  C20 UNL     1      -2.612  -0.683  -2.007  1.00  0.00     0.158 C 
BRANCH  13  19
HETATM   19  C10 UNL     1      -2.746   0.382   2.849  1.00  0.00     0.281 C 
HETATM   20  F1  UNL     1      -2.960   1.668   3.132  1.00  0.00    -0.249 F 
ENDBRANCH  13  19
BRANCH  15  21
HETATM   21  C7  UNL     1       0.233  -0.737  -1.030  1.00  0.00     0.057 C 
HETATM   22  C6  UNL     1       1.056  -1.828  -0.413  1.00  0.00     0.032 C 
HETATM   23  C5  UNL     1       2.085  -1.293   0.582  1.00  0.00     0.125 C 
HETATM   24  N1  UNL     1       2.958  -0.369  -0.069  1.00  0.00    -0.367 N 
HETATM   25  C22 UNL     1       2.503   0.111  -1.384  1.00  0.00     0.125 C 
HETATM   26  C21 UNL     1       1.062   0.519  -1.149  1.00  0.00     0.032 C 
BRANCH  24  27
HETATM   27  C4  UNL     1       4.142   0.098   0.472  1.00  0.00     0.114 A 
HETATM   28  C3  UNL     1       5.383  -0.352   0.133  1.00  0.00     0.029 A 
HETATM   29  C25 UNL     1       6.541   0.181   0.732  1.00  0.00     0.110 A 
HETATM   30  N6  UNL     1       6.329   1.155   1.647  1.00  0.00    -0.332 N 
HETATM   31  C23 UNL     1       5.139   1.622   2.005  1.00  0.00     0.080 A 
ATOM     32  H6  UNL     1       7.148   1.563   2.097  1.00  0.00     0.168 HD
HETATM   33  N5  UNL     1       4.069   1.094   1.420  1.00  0.00    -0.332 N 
HETATM   34  C24 UNL     1       5.030   2.702   3.030  1.00  0.00     0.089 C 
ATOM     35  H5  UNL     1       3.149   1.444   1.686  1.00  0.00     0.168 HD
BRANCH  28  36
HETATM   36  C2  UNL     1       5.537  -1.425  -0.874  1.00  0.00     0.042 C 
HETATM   37  C1  UNL     1       5.314  -2.760  -0.219  1.00  0.00     0.010 C 
ENDBRANCH  28  36
BRANCH  29  38
HETATM   38  N7  UNL     1       7.718  -0.225   0.454  1.00  0.00    -0.385 N 
ATOM     39  H72 UNL     1       7.878  -0.959  -0.236  1.00  0.00     0.157 HD
ATOM     40  H71 UNL     1       8.557   0.161   0.888  1.00  0.00     0.157 HD
ENDBRANCH  29  38
ENDBRANCH  24  27
ENDBRANCH  15  21
ENDBRANCH   1  12
TORSDOF 6
