REMARK  9 active torsions:
REMARK  status: ('A' for Active; 'I' for Inactive)
REMARK    1  A    between atoms: C2_2  and  C3_3 
REMARK    2  A    between atoms: C3_3  and  C4_4 
REMARK    3  A    between atoms: C4_4  and  C5_5 
REMARK    4  A    between atoms: C8_10  and  C9_11 
REMARK    5  A    between atoms: C9_11  and  C10_12 
REMARK    6  A    between atoms: C10_12  and  N4_18 
REMARK    7  A    between atoms: N2_13  and  N3_15 
REMARK    8  A    between atoms: N4_18  and  C11_20 
REMARK    9  A    between atoms: C20_30  and  C22_32 
ROOT
HETATM    1  C10 UNL     1       0.055  -0.544   1.319  1.00  0.00     0.118 C 
HETATM    2  N2  UNL     1       0.576   0.126   2.195  1.00  0.00    -0.292 N 
ATOM      3  H2  UNL     1       1.587   0.005   2.142  1.00  0.00     0.188 HD
ENDROOT
BRANCH   1   4
HETATM    4  C9  UNL     1       0.989  -1.323   0.456  1.00  0.00     0.081 C 
BRANCH   4   5
HETATM    5  C8  UNL     1       2.269  -1.369   0.511  1.00  0.00     0.059 A 
HETATM    6  C6  UNL     1       3.051  -2.139  -0.351  1.00  0.00     0.034 A 
HETATM    7  N1  UNL     1       4.326  -1.914  -0.004  1.00  0.00    -0.344 N 
HETATM    8  C7  UNL     1       2.603  -3.061  -1.447  1.00  0.00     0.070 C 
HETATM    9  C5  UNL     1       4.419  -1.058   1.017  1.00  0.00     0.102 A 
ATOM     10  H1  UNL     1       5.128  -2.344  -0.464  1.00  0.00     0.167 HD
HETATM   11  N5  UNL     1       3.121  -0.734   1.319  1.00  0.00    -0.341 N 
ATOM     12  H5  UNL     1       2.844  -0.093   2.062  1.00  0.00     0.167 HD
BRANCH   9  13
HETATM   13  C4  UNL     1       5.506  -0.605   1.612  1.00  0.00     0.022 C 
BRANCH  13  14
HETATM   14  C3  UNL     1       6.823  -1.062   1.136  1.00  0.00     0.030 C 
BRANCH  14  15
HETATM   15  C2  UNL     1       7.957  -0.284   1.771  1.00  0.00    -0.001 C 
HETATM   16  C1  UNL     1       7.872   1.183   1.478  1.00  0.00     0.005 C 
ENDBRANCH  14  15
ENDBRANCH  13  14
ENDBRANCH   9  13
ENDBRANCH   4   5
ENDBRANCH   1   4
BRANCH   1  17
HETATM   17  N4  UNL     1      -1.324  -0.687   0.984  1.00  0.00    -0.365 N 
ATOM     18  H4  UNL     1      -1.744  -1.579   1.245  1.00  0.00     0.162 HD
BRANCH  17  19
HETATM   19  C11 UNL     1      -2.194   0.225   0.344  1.00  0.00     0.041 C 
HETATM   20  C12 UNL     1      -2.763   1.164   1.386  1.00  0.00     0.036 C 
HETATM   21  C13 UNL     1      -3.902   1.979   0.814  1.00  0.00    -0.010 C 
HETATM   22  C14 UNL     1      -3.233   2.945  -0.175  1.00  0.00     0.014 C 
HETATM   23  C19 UNL     1      -4.878   1.185   0.022  1.00  0.00     0.026 C 
HETATM   24  C15 UNL     1      -2.540   2.089  -1.224  1.00  0.00    -0.040 C 
HETATM   25  C16 UNL     1      -1.886   3.087  -2.190  1.00  0.00     0.015 C 
HETATM   26  C17 UNL     1      -3.528   1.285  -2.025  1.00  0.00     0.031 C 
HETATM   27  C24 UNL     1      -1.508   1.151  -0.641  1.00  0.00     0.041 C 
HETATM   28  C18 UNL     1      -4.203   0.353  -1.078  1.00  0.00     0.029 C 
HETATM   29 BR1  UNL     1      -5.641  -0.546  -1.990  1.00  0.00    -0.085 Br
HETATM   30  C20 UNL     1      -3.279  -0.596  -0.371  1.00  0.00    -0.002 C 
HETATM   31  C21 UNL     1      -4.095  -1.359   0.639  1.00  0.00     0.019 C 
BRANCH  30  32
HETATM   32  C22 UNL     1      -2.562  -1.559  -1.257  1.00  0.00     0.009 C 
HETATM   33  C23 UNL     1      -3.391  -2.491  -2.060  1.00  0.00     0.006 C 
ENDBRANCH  30  32
ENDBRANCH  17  19
ENDBRANCH   1  17
BRANCH   2  34
HETATM   34  N3  UNL     1       0.295   0.964   3.202  1.00  0.00    -0.344 N 
ATOM     35  H32 UNL     1      -0.719   1.066   3.232  1.00  0.00     0.176 HD
ATOM     36  H31 UNL     1       0.731   1.524   3.935  1.00  0.00     0.176 HD
ENDBRANCH   2  34
TORSDOF 9
