REMARK  2 active torsions:
REMARK  status: ('A' for Active; 'I' for Inactive)
REMARK    1  A    between atoms: C2_3  and  N3_6 
REMARK    2  A    between atoms: N3_6  and  C4_8 
ROOT
HETATM    1  N1  UNL     1       3.136  -2.397  -0.462  1.00  0.00    -0.194 NA
HETATM    2  C1  UNL     1       2.933  -1.327  -0.080  1.00  0.00     0.099 C 
HETATM    3  C2  UNL     1       2.667   0.032   0.377  1.00  0.00     0.293 C 
HETATM    4  C3  UNL     1       3.714   0.967  -0.095  1.00  0.00     0.099 C 
HETATM    5  N2  UNL     1       4.529   1.701  -0.485  1.00  0.00    -0.194 NA
ENDROOT
BRANCH   3   6
HETATM    6  N3  UNL     1       1.447   0.559   0.109  1.00  0.00    -0.391 N 
ATOM      7  H3  UNL     1       1.467   1.382  -0.493  1.00  0.00     0.155 HD
BRANCH   6   8
HETATM    8  C4  UNL     1       0.188   0.178   0.506  1.00  0.00     0.078 C 
HETATM    9  C5  UNL     1      -0.307  -1.176   0.077  1.00  0.00     0.024 C 
HETATM   10  C6  UNL     1      -1.791  -1.182   0.405  1.00  0.00     0.002 C 
HETATM   11  C7  UNL     1      -2.416  -0.448  -0.754  1.00  0.00     0.000 C 
HETATM   12  C8  UNL     1      -1.961   0.977  -0.654  1.00  0.00     0.002 C 
HETATM   13  C9  UNL     1      -0.786   1.274   0.149  1.00  0.00     0.024 C 
ENDBRANCH   6   8
ENDBRANCH   3   6
TORSDOF 2
