REMARK  6 active torsions:
REMARK  status: ('A' for Active; 'I' for Inactive)
REMARK    1  A    between atoms: C4_4  and  N1_5 
REMARK    2  A    between atoms: C5_10  and  C6_11 
REMARK    3  A    between atoms: C6_11  and  S1_12 
REMARK    4  A    between atoms: S1_12  and  C7_13 
REMARK    5  A    between atoms: C7_13  and  N3_15 
REMARK    6  A    between atoms: N3_15  and  C8_17 
ROOT
HETATM    1  C1  UNL     1       5.048   0.324   2.332  1.00  0.00     0.068 C 
HETATM    2  C2  UNL     1       4.399   0.076   0.996  1.00  0.00     0.010 A 
HETATM    3  C3  UNL     1       5.076  -0.542  -0.021  1.00  0.00     0.072 A 
HETATM    4  C4  UNL     1       4.437  -0.742  -1.216  1.00  0.00     0.101 A 
HETATM    5  N2  UNL     1       3.173  -0.332  -1.365  1.00  0.00    -0.332 N 
ATOM      6  H2  UNL     1       2.693  -0.477  -2.253  1.00  0.00     0.168 HD
HETATM    7  C5  UNL     1       2.526   0.278  -0.336  1.00  0.00     0.092 A 
HETATM    8  N4  UNL     1       3.121   0.484   0.830  1.00  0.00    -0.349 N 
ATOM      9  H4  UNL     1       2.622   0.944   1.591  1.00  0.00     0.167 HD
ENDROOT
BRANCH   7  10
HETATM   10  C6  UNL     1       1.127   0.706  -0.569  1.00  0.00     0.158 C 
BRANCH  10  11
HETATM   11  S1  UNL     1      -0.062  -0.557  -0.146  1.00  0.00    -0.093 SA
BRANCH  11  12
HETATM   12  C7  UNL     1      -1.708   0.053  -0.460  1.00  0.00     0.135 C 
HETATM   13  S2  UNL     1      -1.873   1.565  -1.045  1.00  0.00    -0.053 SA
BRANCH  12  14
HETATM   14  N3  UNL     1      -2.865  -0.759  -0.207  1.00  0.00    -0.368 N 
ATOM     15  H3  UNL     1      -2.768  -1.706   0.159  1.00  0.00     0.161 HD
BRANCH  14  16
HETATM   16  C8  UNL     1      -4.150  -0.213  -0.479  1.00  0.00     0.117 C 
HETATM   17  C9  UNL     1      -4.523   1.042   0.284  1.00  0.00     0.031 C 
HETATM   18  C10 UNL     1      -5.924   0.476   0.394  1.00  0.00     0.041 C 
HETATM   19  C11 UNL     1      -5.307  -0.901   0.250  1.00  0.00     0.192 C 
HETATM   20  F1  UNL     1      -6.011  -1.770  -0.556  1.00  0.00    -0.247 F 
ENDBRANCH  14  16
ENDBRANCH  12  14
ENDBRANCH  11  12
ENDBRANCH  10  11
ENDBRANCH   7  10
BRANCH   4  21
HETATM   21  N1  UNL     1       5.023  -1.315  -2.201  1.00  0.00    -0.385 N 
ATOM     22  H12 UNL     1       5.987  -1.628  -2.087  1.00  0.00     0.157 HD
ATOM     23  H11 UNL     1       4.547  -1.464  -3.091  1.00  0.00     0.157 HD
ENDBRANCH   4  21
TORSDOF 6
