REMARK  9 active torsions:
REMARK  status: ('A' for Active; 'I' for Inactive)
REMARK    1  A    between atoms: C2_2  and  C3_3 
REMARK    2  A    between atoms: C3_3  and  C4_4 
REMARK    3  A    between atoms: C11_13  and  C13_15 
REMARK    4  A    between atoms: C13_15  and  O3_16 
REMARK    5  A    between atoms: O3_16  and  C14_17 
REMARK    6  A    between atoms: C16_20  and  O5_21 
REMARK    7  A    between atoms: O5_21  and  C17_22 
REMARK    8  A    between atoms: C23_29  and  O7_30 
REMARK    9  A    between atoms: O7_30  and  C24_31 
ROOT
HETATM    1  C4  UNL     1       2.388  -0.499  -0.474  1.00  0.00     0.123 A 
HETATM    2  O1  UNL     1       3.766  -0.340  -0.162  1.00  0.00    -0.337 OA
HETATM    3  C5  UNL     1       3.991  -0.711   1.126  1.00  0.00     0.164 A 
HETATM    4  C6  UNL     1       5.150  -1.722   1.306  1.00  0.00     0.079 C 
HETATM    5  C7  UNL     1       4.547   0.425   2.013  1.00  0.00     0.079 C 
HETATM    6  O2  UNL     1       2.839  -1.150   1.651  1.00  0.00    -0.316 OA
HETATM    7  C8  UNL     1       1.746  -1.012   0.727  1.00  0.00     0.086 A 
HETATM    8  C9  UNL     1       0.581  -0.622   1.464  1.00  0.00     0.040 C 
HETATM    9  C10 UNL     1      -0.514   0.337   1.107  1.00  0.00    -0.053 C 
HETATM   10  C11 UNL     1      -1.830  -0.173   0.645  1.00  0.00     0.029 C 
HETATM   11  C12 UNL     1      -3.018   0.654   1.125  1.00  0.00     0.025 C 
HETATM   12  C16 UNL     1      -1.953  -0.075  -0.889  1.00  0.00     0.146 C 
HETATM   13  C19 UNL     1      -0.495  -0.407  -1.249  1.00  0.00     0.040 C 
HETATM   14  C20 UNL     1       0.351   0.733  -0.890  1.00  0.00     0.014 C 
HETATM   15  C21 UNL     1       0.164   1.406   0.395  1.00  0.00     0.012 C 
HETATM   16  C22 UNL     1       0.996   1.914   1.446  1.00  0.00     0.023 C 
HETATM   17  C23 UNL     1      -0.237   2.739  -0.094  1.00  0.00     0.144 C 
HETATM   18  C26 UNL     1       1.093   3.108  -0.812  1.00  0.00     0.034 C 
HETATM   19  C27 UNL     1       2.189   2.078  -0.946  1.00  0.00     0.015 C 
HETATM   20  C28 UNL     1       1.810   0.668  -1.201  1.00  0.00    -0.001 C 
HETATM   21  C29 UNL     1       1.902   0.549  -2.747  1.00  0.00     0.019 C 
ENDROOT
BRANCH  10  22
HETATM   22  C13 UNL     1      -2.130  -1.588   1.097  1.00  0.00     0.195 C 
BRANCH  22  23
HETATM   23  O3  UNL     1      -3.437  -1.977   0.628  1.00  0.00    -0.321 OA
BRANCH  23  24
HETATM   24  C14 UNL     1      -3.897  -3.250   0.945  1.00  0.00     0.254 C 
HETATM   25  C15 UNL     1      -5.223  -3.748   0.514  1.00  0.00     0.126 C 
HETATM   26  O4  UNL     1      -3.133  -3.994   1.631  1.00  0.00    -0.266 OA
ENDBRANCH  23  24
ENDBRANCH  22  23
ENDBRANCH  10  22
BRANCH  12  27
HETATM   27  O5  UNL     1      -2.819  -1.061  -1.417  1.00  0.00    -0.315 OA
BRANCH  27  28
HETATM   28  C17 UNL     1      -3.893  -0.749  -2.241  1.00  0.00     0.255 C 
HETATM   29  C18 UNL     1      -4.820  -1.759  -2.813  1.00  0.00     0.126 C 
HETATM   30  O6  UNL     1      -4.080   0.465  -2.512  1.00  0.00    -0.266 OA
ENDBRANCH  27  28
ENDBRANCH  12  27
BRANCH  17  31
HETATM   31  O7  UNL     1      -0.509   3.717   0.894  1.00  0.00    -0.315 OA
BRANCH  31  32
HETATM   32  C24 UNL     1      -1.604   4.533   0.917  1.00  0.00     0.255 C 
HETATM   33  C25 UNL     1      -1.797   5.540   2.015  1.00  0.00     0.126 C 
HETATM   34  O8  UNL     1      -2.451   4.432   0.007  1.00  0.00    -0.266 OA
ENDBRANCH  31  32
ENDBRANCH  17  31
BRANCH   1  35
HETATM   35  C3  UNL     1       2.461  -1.579  -1.556  1.00  0.00     0.072 C 
BRANCH  35  36
HETATM   36  C2  UNL     1       3.023  -2.887  -1.254  1.00  0.00    -0.033 C 
HETATM   37  C1  UNL     1       2.331  -4.029  -1.219  1.00  0.00     0.007 C 
ENDBRANCH  35  36
ENDBRANCH   1  35
TORSDOF 9
