REMARK  7 active torsions:
REMARK  status: ('A' for Active; 'I' for Inactive)
REMARK    1  A    between atoms: C2_3  and  N2_4 
REMARK    2  A    between atoms: C7_10  and  C8_11 
REMARK    3  A    between atoms: C8_11  and  C9_13 
REMARK    4  A    between atoms: N5_18  and  C10_19 
REMARK    5  A    between atoms: C12_29  and  N9_30 
REMARK    6  A    between atoms: N9_30  and  C13_32 
REMARK    7  A    between atoms: C13_32  and  C14_33 
ROOT
HETATM    1  C9  UNL     1      -0.222   1.232   1.327  1.00  0.00     0.146 A 
HETATM    2  N3  UNL     1      -0.559   2.500   1.683  1.00  0.00    -0.279 N 
ATOM      3  H3  UNL     1      -1.447   2.776   2.102  1.00  0.00     0.189 HD
HETATM    4  N4  UNL     1       0.425   3.309   1.408  1.00  0.00    -0.232 N 
ATOM      5  H4  UNL     1       0.413   4.314   1.583  1.00  0.00     0.209 HD
HETATM    6  N5  UNL     1       1.467   2.638   0.859  1.00  0.00    -0.202 N 
HETATM    7  C12 UNL     1       1.068   1.355   0.809  1.00  0.00     0.159 A 
ENDROOT
BRANCH   1   8
HETATM    8  C8  UNL     1      -1.043   0.044   1.476  1.00  0.00     0.223 C 
HETATM    9  O2  UNL     1      -0.706  -1.124   1.146  1.00  0.00    -0.285 OA
BRANCH   8  10
HETATM   10  C7  UNL     1      -2.389   0.226   2.063  1.00  0.00     0.131 A 
HETATM   11  C2  UNL     1      -3.549  -0.085   1.348  1.00  0.00     0.153 A 
HETATM   12  N1  UNL     1      -4.747   0.087   1.911  1.00  0.00    -0.287 N 
HETATM   13  C1  UNL     1      -5.957  -0.231   1.209  1.00  0.00     0.163 C 
HETATM   14  C20 UNL     1      -4.862   0.565   3.182  1.00  0.00     0.330 A 
HETATM   15  N10 UNL     1      -3.770   0.871   3.890  1.00  0.00    -0.274 N 
HETATM   16  O6  UNL     1      -6.013   0.709   3.665  1.00  0.00    -0.246 OA
HETATM   17  C19 UNL     1      -2.536   0.703   3.334  1.00  0.00     0.267 A 
ATOM     18  H10 UNL     1      -3.859   1.228   4.841  1.00  0.00     0.173 HD
HETATM   19  O5  UNL     1      -1.573   1.005   4.042  1.00  0.00    -0.267 OA
BRANCH  11  20
HETATM   20  N2  UNL     1      -3.406  -0.596   0.029  1.00  0.00    -0.241 N 
HETATM   21  C3  UNL     1      -3.425   0.271  -1.132  1.00  0.00     0.158 C 
HETATM   22  C4  UNL     1      -3.398  -0.522  -2.409  1.00  0.00     0.024 C 
HETATM   23  C5  UNL     1      -4.064  -1.855  -2.340  1.00  0.00     0.030 C 
HETATM   24  C6  UNL     1      -4.078  -2.523  -1.014  1.00  0.00     0.201 C 
HETATM   25  O1  UNL     1      -3.229  -1.921  -0.116  1.00  0.00    -0.276 OA
ENDBRANCH  11  20
ENDBRANCH   8  10
ENDBRANCH   1   8
BRANCH   7  26
HETATM   26  N9  UNL     1       1.821   0.289   0.281  1.00  0.00    -0.372 N 
ATOM     27  H9  UNL     1       1.340  -0.610   0.239  1.00  0.00     0.161 HD
BRANCH  26  28
HETATM   28  C13 UNL     1       3.160   0.291  -0.203  1.00  0.00     0.128 C 
BRANCH  28  29
HETATM   29  C14 UNL     1       3.576  -1.047  -0.818  1.00  0.00     0.027 C 
HETATM   30  C15 UNL     1       4.998  -0.963  -1.312  1.00  0.00     0.010 C 
HETATM   31  C16 UNL     1       5.567  -2.295  -1.631  1.00  0.00     0.027 C 
HETATM   32  C17 UNL     1       4.962  -3.469  -0.950  1.00  0.00     0.167 C 
HETATM   33  O4  UNL     1       3.661  -3.346  -0.547  1.00  0.00    -0.391 OA
HETATM   34  C18 UNL     1       3.481  -2.167   0.180  1.00  0.00     0.173 C 
ENDBRANCH  28  29
ENDBRANCH  26  28
ENDBRANCH   7  26
BRANCH   6  35
HETATM   35  C10 UNL     1       2.677   3.271   0.450  1.00  0.00     0.198 A 
HETATM   36  N6  UNL     1       3.872   3.279   1.044  1.00  0.00    -0.220 N 
HETATM   37  O3  UNL     1       4.718   4.003   0.353  1.00  0.00    -0.153 OA
ATOM     38  H6  UNL     1       4.095   2.791   1.912  1.00  0.00     0.198 HD
HETATM   39  N7  UNL     1       4.108   4.486  -0.702  1.00  0.00    -0.222 N 
HETATM   40  C11 UNL     1       2.816   4.045  -0.675  1.00  0.00     0.169 A 
ATOM     41  H7  UNL     1       4.524   5.084  -1.416  1.00  0.00     0.198 HD
HETATM   42  N8  UNL     1       1.961   4.348  -1.581  1.00  0.00    -0.381 N 
ATOM     43  H82 UNL     1       0.996   4.019  -1.561  1.00  0.00     0.157 HD
ATOM     44  H81 UNL     1       2.064   4.923  -2.417  1.00  0.00     0.157 HD
ENDBRANCH   6  35
TORSDOF 7
