REMARK  10 active torsions:
REMARK  status: ('A' for Active; 'I' for Inactive)
REMARK    1  A    between atoms: C2_2  and  N1_4 
REMARK    2  A    between atoms: N1_4  and  N2_6 
REMARK       I    between atoms: N2_6  and  C4_8 
REMARK       I    between atoms: C4_8  and  N3_10 
REMARK    3  A    between atoms: N3_10  and  C5_11 
REMARK    4  A    between atoms: C5_11  and  N4_12 
REMARK    5  A    between atoms: C5_11  and  C6_15 
REMARK    6  A    between atoms: C6_15  and  N5_16 
REMARK    7  A    between atoms: C6_15  and  C12_27 
REMARK       I    between atoms: N5_16  and  C7_18 
REMARK    8  A    between atoms: C7_18  and  C8_20 
REMARK       I    between atoms: C12_27  and  N7_29 
REMARK    9  A    between atoms: C13_34  and  C14_35 
REMARK   10  A    between atoms: C15_38  and  C16_39 
ROOT
HETATM    1  C6  UNL     1      -0.217  -0.561  -0.208  1.00  0.00     0.263 C 
ENDROOT
BRANCH   1   2
HETATM    2  C5  UNL     1       1.026   0.166   0.189  1.00  0.00     0.187 C 
BRANCH   2   3
HETATM    3  N3  UNL     1       2.302  -0.176  -0.073  1.00  0.00    -0.335 NA
HETATM    4  C4  UNL     1       3.583  -0.519  -0.337  1.00  0.00     0.414 C 
HETATM    5  N2  UNL     1       4.683   0.310   0.198  1.00  0.00    -0.239 N 
HETATM    6  O1  UNL     1       4.059  -1.500  -1.013  1.00  0.00    -0.228 OA
ATOM      7  H2  UNL     1       4.476   1.132   0.765  1.00  0.00     0.193 HD
BRANCH   5   8
HETATM    8  N1  UNL     1       5.990  -0.033  -0.073  1.00  0.00    -0.305 N 
ATOM      9  H1  UNL     1       6.241  -1.021  -0.055  1.00  0.00     0.186 HD
BRANCH   8  10
HETATM   10  C2  UNL     1       6.899   0.809  -0.344  1.00  0.00    -0.004 C 
HETATM   11  C1  UNL     1       8.275   0.326  -0.622  1.00  0.00     0.064 C 
HETATM   12  C3  UNL     1       6.628   2.250  -0.387  1.00  0.00     0.064 C 
ENDBRANCH   8  10
ENDBRANCH   5   8
ENDBRANCH   2   3
BRANCH   2  13
HETATM   13  N4  UNL     1       0.834   1.265   0.902  1.00  0.00    -0.375 N 
ATOM     14  H42 UNL     1       1.683   1.761   1.173  1.00  0.00     0.158 HD
ATOM     15  H41 UNL     1      -0.132   1.524   1.100  1.00  0.00     0.158 HD
ENDBRANCH   2  13
ENDBRANCH   1   2
BRANCH   1  16
HETATM   16  N5  UNL     1      -0.207  -1.909   0.348  1.00  0.00    -0.335 N 
HETATM   17  C7  UNL     1      -0.271  -3.057  -0.488  1.00  0.00     0.269 C 
HETATM   18  O2  UNL     1      -0.328  -2.867  -1.723  1.00  0.00    -0.266 OA
ATOM     19  H5  UNL     1      -0.153  -2.031   1.359  1.00  0.00     0.164 HD
BRANCH  17  20
HETATM   20  C8  UNL     1      -0.270  -4.419   0.108  1.00  0.00     0.107 A 
HETATM   21  C9  UNL     1      -0.265  -5.526  -0.715  1.00  0.00     0.086 A 
HETATM   22  S1  UNL     1      -0.292  -6.805   0.424  1.00  0.00    -0.087 SA
HETATM   23  C10 UNL     1      -0.308  -5.872   1.851  1.00  0.00     0.047 A 
HETATM   24  C11 UNL     1      -0.335  -6.323   3.290  1.00  0.00     0.076 C 
HETATM   25  N6  UNL     1      -0.291  -4.637   1.385  1.00  0.00    -0.349 N 
ATOM     26  H6  UNL     1      -0.294  -3.850   2.034  1.00  0.00     0.166 HD
ENDBRANCH  17  20
ENDBRANCH   1  16
BRANCH   1  27
HETATM   27  C12 UNL     1      -1.458   0.070   0.261  1.00  0.00     0.290 C 
HETATM   28  O3  UNL     1      -1.968  -0.348   1.344  1.00  0.00    -0.267 OA
HETATM   29  N7  UNL     1      -2.122   1.130  -0.452  1.00  0.00    -0.142 N 
HETATM   30  N8  UNL     1      -1.738   1.708  -1.560  1.00  0.00    -0.216 N 
HETATM   31  N12 UNL     1      -3.275   1.650  -0.114  1.00  0.00    -0.256 N 
HETATM   32  N9  UNL     1      -2.663   2.608  -1.931  1.00  0.00    -0.265 N 
ATOM     33  H8  UNL     1      -0.873   1.507  -2.063  1.00  0.00     0.210 HD
HETATM   34  C13 UNL     1      -3.649   2.584  -1.023  1.00  0.00     0.182 A 
ATOM     35  H9  UNL     1      -2.623   3.204  -2.757  1.00  0.00     0.190 HD
ATOM     36  H12 UNL     1      -3.813   1.390   0.713  1.00  0.00     0.191 HD
BRANCH  34  37
HETATM   37  C14 UNL     1      -4.888   3.366  -1.008  1.00  0.00     0.153 A 
HETATM   38  N10 UNL     1      -5.870   3.314  -0.103  1.00  0.00    -0.333 N 
HETATM   39  C15 UNL     1      -6.877   4.157  -0.408  1.00  0.00     0.127 A 
ATOM     40  H10 UNL     1      -5.859   2.710   0.719  1.00  0.00     0.168 HD
HETATM   41  C17 UNL     1      -6.489   4.785  -1.600  1.00  0.00     0.126 A 
HETATM   42  N11 UNL     1      -5.277   4.267  -1.916  1.00  0.00    -0.347 N 
ATOM     43  H11 UNL     1      -4.733   4.530  -2.738  1.00  0.00     0.167 HD
BRANCH  39  44
HETATM   44  C16 UNL     1      -8.117   4.392   0.306  1.00  0.00     0.228 C 
HETATM   45  O4  UNL     1      -8.933   5.220  -0.133  1.00  0.00    -0.643 OA
HETATM   46  O5  UNL     1      -8.370   3.699   1.458  1.00  0.00    -0.643 OA
ENDBRANCH  39  44
ENDBRANCH  34  37
ENDBRANCH   1  27
TORSDOF 10
