REMARK  5 active torsions:
REMARK  status: ('A' for Active; 'I' for Inactive)
REMARK    1  A    between atoms: C2_2  and  C4_4 
REMARK    2  A    between atoms: C6_6  and  S1_7 
REMARK    3  A    between atoms: S1_7  and  C7_8 
REMARK    4  A    between atoms: C13_15  and  O1_16 
REMARK    5  A    between atoms: C17_22  and  O3_23 
ROOT
HETATM    1  C7  UNL     1      -1.481  -0.264   1.486  1.00  0.00     0.103 C 
HETATM    2  C8  UNL     1      -1.831  -1.702   1.389  1.00  0.00     0.022 C 
HETATM    3 CL1  UNL     1      -0.974  -2.869   2.331  1.00  0.00    -0.088 Cl
HETATM    4  C9  UNL     1      -2.801  -2.058   0.575  1.00  0.00    -0.005 C 
HETATM    5  C10 UNL     1      -3.566  -1.085  -0.256  1.00  0.00     0.040 C 
HETATM    6  C11 UNL     1      -3.013   0.290  -0.284  1.00  0.00    -0.010 C 
HETATM    7  C12 UNL     1      -3.771   1.262   0.581  1.00  0.00     0.018 C 
HETATM    8  C13 UNL     1      -2.909   0.884  -1.670  1.00  0.00     0.127 C 
HETATM    9  C14 UNL     1      -1.905   2.002  -1.439  1.00  0.00     0.033 C 
HETATM   10  C15 UNL     1      -1.116   1.620  -0.184  1.00  0.00     0.009 C 
HETATM   11  C16 UNL     1      -1.538   0.229   0.083  1.00  0.00     0.016 C 
ENDROOT
BRANCH   1  12
HETATM   12  S1  UNL     1      -0.016   0.004   2.414  1.00  0.00    -0.094 SA
BRANCH  12  13
HETATM   13  C6  UNL     1       1.490  -0.590   1.728  1.00  0.00     0.116 A 
HETATM   14  C5  UNL     1       2.312   0.168   0.915  1.00  0.00     0.057 A 
HETATM   15  C4  UNL     1       3.393  -0.594   0.556  1.00  0.00     0.007 A 
HETATM   16  C17 UNL     1       3.192  -1.811   1.170  1.00  0.00     0.191 A 
HETATM   17  O2  UNL     1       2.074  -1.758   1.839  1.00  0.00    -0.281 OA
BRANCH  15  18
HETATM   18  C2  UNL     1       4.524  -0.182  -0.325  1.00  0.00     0.015 C 
HETATM   19  C1  UNL     1       4.441   1.332  -0.550  1.00  0.00     0.015 C 
HETATM   20  C3  UNL     1       4.446  -0.919  -1.658  1.00  0.00     0.015 C 
ENDBRANCH  15  18
BRANCH  16  21
HETATM   21  O3  UNL     1       4.095  -2.875   1.042  1.00  0.00    -0.340 OA
ATOM     22  H3  UNL     1       3.956  -3.714   1.465  1.00  0.00     0.220 HD
ENDBRANCH  16  21
ENDBRANCH  12  13
ENDBRANCH   1  12
BRANCH   8  23
HETATM   23  O1  UNL     1      -4.146   1.332  -2.083  1.00  0.00    -0.395 OA
ATOM     24  H1  UNL     1      -4.081   1.705  -2.954  1.00  0.00     0.210 HD
ENDBRANCH   8  23
TORSDOF 5
