REMARK  2 active torsions:
REMARK  status: ('A' for Active; 'I' for Inactive)
REMARK    1  A    between atoms: O1_1  and  N1_3 
REMARK    2  A    between atoms: C3_6  and  O2_7 
ROOT
HETATM    1  N1  UNL     1      -0.774  -0.726  -0.103  1.00  0.00    -0.150 NA
HETATM    2  C1  UNL     1      -1.027   0.715  -0.172  1.00  0.00     0.131 C 
HETATM    3  C2  UNL     1       0.458   0.919  -0.042  1.00  0.00     0.091 C 
HETATM    4  C3  UNL     1       0.591  -0.525   0.405  1.00  0.00     0.217 C 
HETATM    5 CL1  UNL     1       0.750  -0.694   2.151  1.00  0.00    -0.069 Cl
ENDROOT
BRANCH   4   6
HETATM    6  O2  UNL     1       1.507  -1.278  -0.307  1.00  0.00    -0.361 OA
ATOM      7  H2  UNL     1       2.389  -1.148   0.021  1.00  0.00     0.213 HD
ENDBRANCH   4   6
BRANCH   1   8
HETATM    8  O1  UNL     1      -1.485  -1.372   0.838  1.00  0.00    -0.309 OA
ATOM      9  H1  UNL     1      -1.321  -2.307   0.883  1.00  0.00     0.237 HD
ENDBRANCH   1   8
TORSDOF 2
