REMARK  3 active torsions:
REMARK  status: ('A' for Active; 'I' for Inactive)
REMARK    1  A    between atoms: C2_2  and  C3_3 
REMARK    2  A    between atoms: C11_12  and  O2_13 
REMARK    3  A    between atoms: O2_13  and  C12_14 
ROOT
HETATM    1  C3  UNL     1      -1.175   0.260   0.541  1.00  0.00     0.007 C 
HETATM    2  C4  UNL     1      -1.831   1.615   0.533  1.00  0.00     0.022 C 
HETATM    3  C5  UNL     1      -0.692  -0.129   1.927  1.00  0.00     0.094 C 
HETATM    4  C6  UNL     1       0.127  -1.351   1.812  1.00  0.00     0.128 C 
HETATM    5  O1  UNL     1       0.495  -1.864   2.880  1.00  0.00    -0.298 OA
HETATM    6  C7  UNL     1       0.540  -2.003   0.570  1.00  0.00     0.089 C 
HETATM    7  C8  UNL     1       0.541  -1.138  -0.642  1.00  0.00    -0.013 C 
HETATM    8  C9  UNL     1      -0.240  -1.757  -1.796  1.00  0.00     0.018 C 
HETATM    9  C10 UNL     1       1.969  -0.958  -1.180  1.00  0.00     0.018 C 
HETATM   10  C11 UNL     1       0.032   0.252  -0.348  1.00  0.00     0.152 C 
ENDROOT
BRANCH  10  11
HETATM   11  O2  UNL     1       1.078   0.932   0.350  1.00  0.00    -0.314 OA
BRANCH  11  12
HETATM   12  C12 UNL     1       1.634   2.107  -0.129  1.00  0.00     0.255 C 
HETATM   13  C13 UNL     1       2.715   2.842   0.561  1.00  0.00     0.126 C 
HETATM   14  O3  UNL     1       1.196   2.565  -1.197  1.00  0.00    -0.266 OA
ENDBRANCH  11  12
ENDBRANCH  10  11
BRANCH   1  15
HETATM   15  C2  UNL     1      -2.210  -0.732   0.135  1.00  0.00    -0.025 C 
HETATM   16  C1  UNL     1      -3.222  -0.439  -0.647  1.00  0.00     0.008 C 
ENDBRANCH   1  15
TORSDOF 3
