REMARK  1 active torsions:
REMARK  status: ('A' for Active; 'I' for Inactive)
REMARK    1  A    between atoms: C11_24  and  N6_25 
ROOT
HETATM    1  N1  UNL     1      -4.305  -0.753  -2.104  1.00  0.00    -0.196 NA
HETATM    2  C1  UNL     1      -3.368  -0.735  -1.427  1.00  0.00     0.076 C 
HETATM    3  C2  UNL     1      -2.158  -0.721  -0.581  1.00  0.00     0.193 C 
HETATM    4  C3  UNL     1      -2.557  -0.706   0.829  1.00  0.00     0.060 C 
HETATM    5  N2  UNL     1      -3.534  -1.453   1.206  1.00  0.00    -0.399 N 
ATOM      6  H21 UNL     1      -3.812  -1.443   2.187  1.00  0.00     0.156 HD
ATOM      7  H22 UNL     1      -3.984  -2.025   0.491  1.00  0.00     0.156 HD
HETATM    8  C4  UNL     1      -1.915   0.110   1.850  1.00  0.00     0.102 C 
HETATM    9  S1  UNL     1      -2.477   0.014   3.563  1.00  0.00    -0.031 SA
HETATM   10  N3  UNL     1      -0.950   0.898   1.534  1.00  0.00    -0.356 N 
ATOM     11  H3  UNL     1      -0.525   1.454   2.276  1.00  0.00     0.162 HD
HETATM   12  C5  UNL     1      -0.426   1.047   0.189  1.00  0.00     0.183 A 
HETATM   13  C6  UNL     1      -1.348   0.505  -0.847  1.00  0.00     0.047 C 
HETATM   14  N4  UNL     1      -1.439   1.091  -1.960  1.00  0.00    -0.401 N 
ATOM     15  H41 UNL     1      -0.886   1.928  -2.142  1.00  0.00     0.155 HD
ATOM     16  H42 UNL     1      -2.071   0.720  -2.670  1.00  0.00     0.155 HD
HETATM   17  C7  UNL     1      -0.130   2.441  -0.144  1.00  0.00     0.261 A 
HETATM   18  O1  UNL     1      -0.910   3.448  -0.122  1.00  0.00    -0.270 OA
HETATM   19  N5  UNL     1       1.228   2.516  -0.517  1.00  0.00    -0.324 N 
ATOM     20  H5  UNL     1       1.721   3.359  -0.813  1.00  0.00     0.169 HD
HETATM   21  C8  UNL     1       1.794   1.211  -0.410  1.00  0.00     0.044 A 
HETATM   22  C9  UNL     1       3.102   0.757  -0.655  1.00  0.00     0.032 A 
HETATM   23  C10 UNL     1       3.403  -0.569  -0.465  1.00  0.00     0.033 A 
HETATM   24  C11 UNL     1       2.462  -1.482  -0.037  1.00  0.00     0.048 A 
HETATM   25  C12 UNL     1       1.193  -1.018   0.197  1.00  0.00     0.043 A 
HETATM   26  C13 UNL     1       0.852   0.323   0.013  1.00  0.00     0.014 A 
ENDROOT
BRANCH  24  27
HETATM   27  N6  UNL     1       2.827  -2.845   0.145  1.00  0.00    -0.307 N 
HETATM   28  N7  UNL     1       3.853  -3.185   0.809  1.00  0.00    -0.345 N 
ATOM     29  H72 UNL     1       4.424  -2.445   1.219  1.00  0.00     0.176 HD
ATOM     30  H71 UNL     1       4.115  -4.162   0.939  1.00  0.00     0.176 HD
ATOM     31  H6  UNL     1       2.245  -3.572  -0.272  1.00  0.00     0.186 HD
ENDBRANCH  24  27
TORSDOF 1
