REMARK  18 active torsions:
REMARK  status: ('A' for Active; 'I' for Inactive)
REMARK    1  A    between atoms: C2_2  and  C3_3 
REMARK    2  A    between atoms: C3_3  and  C5_5 
REMARK    3  A    between atoms: C5_5  and  N1_6 
REMARK    4  A    between atoms: C5_5  and  C11_14 
REMARK       I    between atoms: N1_6  and  C6_7 
REMARK    5  A    between atoms: C6_7  and  O2_9 
REMARK    6  A    between atoms: O2_9  and  C7_10 
REMARK       I    between atoms: C11_14  and  N2_16 
REMARK    7  A    between atoms: N2_16  and  C12_18 
REMARK    8  A    between atoms: C12_18  and  C13_19 
REMARK    9  A    between atoms: C12_18  and  C30_47 
REMARK       I    between atoms: C13_19  and  N3_21 
REMARK   10  A    between atoms: N3_21  and  C14_23 
REMARK   11  A    between atoms: C14_23  and  C15_24 
REMARK   12  A    between atoms: C14_23  and  C22_31 
REMARK   13  A    between atoms: C15_24  and  C16_25 
REMARK   14  A    between atoms: C22_31  and  O5_32 
REMARK   15  A    between atoms: C22_31  and  C23_34 
REMARK       I    between atoms: C23_34  and  N4_36 
REMARK   16  A    between atoms: N4_36  and  C24_38 
REMARK   17  A    between atoms: C24_38  and  C25_39 
REMARK   18  A    between atoms: C25_39  and  C26_40 
ROOT
HETATM    1  C13 UNL     1      -0.775  -1.336   0.303  1.00  0.00     0.241 C 
HETATM    2  O4  UNL     1      -1.091  -0.391  -0.499  1.00  0.00    -0.271 OA
HETATM    3  N3  UNL     1      -1.848  -2.285   0.657  1.00  0.00    -0.349 N 
ATOM      4  H3  UNL     1      -1.718  -3.042   1.328  1.00  0.00     0.163 HD
ENDROOT
BRANCH   3   5
HETATM    5  C14 UNL     1      -3.105  -2.050  -0.031  1.00  0.00     0.147 C 
BRANCH   5   6
HETATM    6  C15 UNL     1      -4.105  -3.072   0.234  1.00  0.00     0.037 C 
BRANCH   6   7
HETATM    7  C16 UNL     1      -3.720  -4.494  -0.083  1.00  0.00    -0.012 C 
HETATM    8  C17 UNL     1      -4.871  -5.431   0.190  1.00  0.00     0.005 C 
HETATM    9  C18 UNL     1      -5.834  -5.540  -0.935  1.00  0.00     0.000 C 
HETATM   10  C19 UNL     1      -5.204  -5.344  -2.307  1.00  0.00     0.000 C 
HETATM   11  C20 UNL     1      -3.755  -5.794  -2.203  1.00  0.00     0.000 C 
HETATM   12  C21 UNL     1      -3.022  -4.745  -1.344  1.00  0.00     0.005 C 
ENDBRANCH   6   7
ENDBRANCH   5   6
BRANCH   5  13
HETATM   13  C22 UNL     1      -3.549  -0.731   0.457  1.00  0.00     0.134 C 
BRANCH  13  14
HETATM   14  O5  UNL     1      -3.021  -0.250   1.558  1.00  0.00    -0.358 OA
ATOM     15  H5  UNL     1      -3.307   0.600   1.872  1.00  0.00     0.217 HD
ENDBRANCH  13  14
BRANCH  13  16
HETATM   16  C23 UNL     1      -4.503   0.168  -0.144  1.00  0.00     0.272 C 
HETATM   17  O6  UNL     1      -5.257  -0.305  -1.009  1.00  0.00    -0.266 OA
HETATM   18  N4  UNL     1      -4.540   1.508   0.259  1.00  0.00    -0.355 N 
ATOM     19  H4  UNL     1      -3.848   1.794   0.952  1.00  0.00     0.162 HD
BRANCH  18  20
HETATM   20  C24 UNL     1      -5.458   2.535  -0.204  1.00  0.00     0.129 C 
BRANCH  20  21
HETATM   21  C25 UNL     1      -5.028   3.825   0.515  1.00  0.00     0.078 C 
BRANCH  21  22
HETATM   22  C26 UNL     1      -6.006   4.897   0.306  1.00  0.00     0.029 A 
HETATM   23  C27 UNL     1      -6.962   5.245   1.326  1.00  0.00     0.114 A 
HETATM   24  N5  UNL     1      -7.721   6.211   0.789  1.00  0.00    -0.360 N 
HETATM   25  C28 UNL     1      -7.309   6.473  -0.464  1.00  0.00     0.182 A 
ATOM     26  H5  UNL     1      -8.496   6.678   1.261  1.00  0.00     0.166 HD
HETATM   27  N6  UNL     1      -6.267   5.657  -0.746  1.00  0.00    -0.350 N 
HETATM   28  C29 UNL     1      -5.628   5.617  -2.028  1.00  0.00     0.156 C 
ENDBRANCH  21  22
ENDBRANCH  20  21
ENDBRANCH  18  20
ENDBRANCH  13  16
ENDBRANCH   5  13
ENDBRANCH   3   5
BRANCH   1  29
HETATM   29  C12 UNL     1       0.560  -1.469   0.818  1.00  0.00     0.180 C 
BRANCH  29  30
HETATM   30  N2  UNL     1       1.496  -0.497   0.299  1.00  0.00    -0.345 N 
HETATM   31  C11 UNL     1       2.779  -0.612  -0.179  1.00  0.00     0.254 C 
HETATM   32  O3  UNL     1       3.441  -1.625  -0.276  1.00  0.00    -0.270 OA
ATOM     33  H2  UNL     1       1.135   0.457   0.285  1.00  0.00     0.163 HD
BRANCH  31  34
HETATM   34  C5  UNL     1       3.487   0.692  -0.660  1.00  0.00     0.264 C 
BRANCH  34  35
HETATM   35  C3  UNL     1       3.660   1.460   0.721  1.00  0.00     0.026 C 
HETATM   36  C4  UNL     1       4.803   0.630   1.435  1.00  0.00     0.014 C 
BRANCH  35  37
HETATM   37  C2  UNL     1       4.248   2.841   0.574  1.00  0.00     0.003 C 
HETATM   38  C1  UNL     1       4.502   3.369   2.014  1.00  0.00     0.005 C 
ENDBRANCH  35  37
ENDBRANCH  34  35
BRANCH  34  39
HETATM   39  N1  UNL     1       4.667   0.528  -1.201  1.00  0.00    -0.375 NA
HETATM   40  C6  UNL     1       5.914   0.318  -1.879  1.00  0.00     0.436 C 
HETATM   41  O1  UNL     1       6.231  -0.061  -2.919  1.00  0.00    -0.221 OA
BRANCH  40  42
HETATM   42  O2  UNL     1       6.965   0.695  -0.966  1.00  0.00    -0.283 OA
BRANCH  42  43
HETATM   43  C7  UNL     1       8.308   0.682  -1.100  1.00  0.00     0.062 C 
HETATM   44  C8  UNL     1       8.801   1.515  -2.259  1.00  0.00     0.046 C 
HETATM   45  C9  UNL     1       8.830   1.441   0.176  1.00  0.00     0.046 C 
HETATM   46  C10 UNL     1       8.967  -0.658  -1.146  1.00  0.00     0.046 C 
ENDBRANCH  42  43
ENDBRANCH  40  42
ENDBRANCH  34  39
ENDBRANCH  31  34
ENDBRANCH  29  30
BRANCH  29  47
HETATM   47  C30 UNL     1       0.541  -1.208   2.372  1.00  0.00     0.009 C 
HETATM   48  C31 UNL     1       0.206   0.242   2.596  1.00  0.00     0.012 C 
HETATM   49  C32 UNL     1       1.815  -1.646   2.965  1.00  0.00     0.012 C 
ENDBRANCH  29  47
ENDBRANCH   1  29
TORSDOF 18
