REMARK  4 active torsions:
REMARK  status: ('A' for Active; 'I' for Inactive)
REMARK    1  A    between atoms: C2_2  and  C3_4 
REMARK    2  A    between atoms: C3_4  and  C4_5 
REMARK    3  A    between atoms: C4_5  and  O3_7 
REMARK    4  A    between atoms: O3_7  and  C5_8 
ROOT
HETATM    1  C5  UNL     1       0.035  -0.493  -0.249  1.00  0.00     0.132 C 
HETATM    2  C6  UNL     1      -0.096  -1.969  -0.000  1.00  0.00     0.032 C 
HETATM    3  C7  UNL     1      -1.109  -2.361   1.012  1.00  0.00     0.002 C 
HETATM    4  C8  UNL     1      -1.901  -1.207   1.576  1.00  0.00     0.001 C 
HETATM    5  C9  UNL     1      -2.843  -0.735   0.498  1.00  0.00     0.009 C 
HETATM    6  C10 UNL     1      -2.326   0.395  -0.330  1.00  0.00    -0.045 C 
HETATM    7  C11 UNL     1      -2.249   1.621   0.537  1.00  0.00     0.015 C 
HETATM    8  C12 UNL     1      -3.390   0.668  -1.395  1.00  0.00     0.015 C 
HETATM    9  C13 UNL     1      -1.054   0.094  -1.068  1.00  0.00     0.041 C 
ENDROOT
BRANCH   1  10
HETATM   10  O3  UNL     1       1.259  -0.345  -0.979  1.00  0.00    -0.316 OA
BRANCH  10  11
HETATM   11  C4  UNL     1       2.293   0.428  -0.527  1.00  0.00     0.266 C 
HETATM   12  O2  UNL     1       2.129   1.023   0.585  1.00  0.00    -0.265 OA
BRANCH  11  13
HETATM   13  C3  UNL     1       3.595   0.650  -1.203  1.00  0.00     0.188 C 
BRANCH  13  14
HETATM   14  C2  UNL     1       4.701  -0.022  -0.440  1.00  0.00     0.132 C 
HETATM   15  C1  UNL     1       5.084   0.477   0.922  1.00  0.00     0.091 C 
HETATM   16  O1  UNL     1       5.324  -0.974  -0.863  1.00  0.00    -0.298 OA
ENDBRANCH  13  14
ENDBRANCH  11  13
ENDBRANCH  10  11
ENDBRANCH   1  10
TORSDOF 4
