REMARK  5 active torsions:
REMARK  status: ('A' for Active; 'I' for Inactive)
REMARK    1  A    between atoms: C2_2  and  C3_3 
REMARK    2  A    between atoms: C3_3  and  N2_7 
REMARK    3  A    between atoms: C11_18  and  C12_19 
REMARK       I    between atoms: C12_19  and  N3_21 
REMARK    4  A    between atoms: N3_21  and  C13_23 
REMARK    5  A    between atoms: C17_27  and  O2_28 
ROOT
HETATM    1  N2  UNL     1      -1.845  -0.205  -0.802  1.00  0.00    -0.351 N 
HETATM    2  C4  UNL     1      -1.709  -0.337  -2.268  1.00  0.00     0.127 C 
HETATM    3  C5  UNL     1      -3.061  -0.606  -2.840  1.00  0.00     0.030 C 
HETATM    4  C6  UNL     1      -3.854  -1.651  -2.129  1.00  0.00     0.078 C 
HETATM    5  S1  UNL     1      -2.959  -2.558  -0.871  1.00  0.00    -0.136 SA
HETATM    6  C7  UNL     1      -1.737  -1.408  -0.086  1.00  0.00     0.100 C 
HETATM    7  C8  UNL     1      -2.119  -1.397   1.365  1.00  0.00     0.122 C 
HETATM    8  C9  UNL     1      -1.905  -2.879   1.715  1.00  0.00     0.247 C 
HETATM    9  F1  UNL     1      -1.410  -3.028   2.981  1.00  0.00    -0.206 F 
HETATM   10  F2  UNL     1      -3.082  -3.590   1.606  1.00  0.00    -0.206 F 
HETATM   11  C10 UNL     1      -0.870  -3.392   0.713  1.00  0.00     0.096 C 
HETATM   12  C11 UNL     1      -0.461  -2.150  -0.080  1.00  0.00     0.122 C 
ENDROOT
BRANCH  12  13
HETATM   13  C12 UNL     1       0.728  -1.525   0.445  1.00  0.00     0.225 C 
HETATM   14  O1  UNL     1       1.247  -2.032   1.507  1.00  0.00    -0.273 OA
HETATM   15  N3  UNL     1       1.431  -0.407  -0.043  1.00  0.00    -0.356 N 
ATOM     16  H3  UNL     1       1.066   0.037  -0.886  1.00  0.00     0.162 HD
BRANCH  15  17
HETATM   17  C13 UNL     1       2.614   0.167   0.535  1.00  0.00     0.086 C 
HETATM   18  C14 UNL     1       2.444   1.581   0.979  1.00  0.00     0.025 C 
HETATM   19  C15 UNL     1       3.464   2.530   0.405  1.00  0.00     0.004 C 
HETATM   20  C16 UNL     1       4.881   2.054   0.620  1.00  0.00     0.032 C 
HETATM   21  C17 UNL     1       5.005   0.553   0.504  1.00  0.00     0.120 C 
HETATM   22  C18 UNL     1       3.824   0.079  -0.354  1.00  0.00     0.056 C 
BRANCH  21  23
HETATM   23  O2  UNL     1       6.191   0.142  -0.061  1.00  0.00    -0.396 OA
ATOM     24  H2  UNL     1       6.269  -0.802  -0.134  1.00  0.00     0.210 HD
ENDBRANCH  21  23
ENDBRANCH  15  17
ENDBRANCH  12  13
BRANCH   1  25
HETATM   25  C3  UNL     1      -2.073   1.106  -0.341  1.00  0.00     0.073 C 
HETATM   26  N1  UNL     1      -1.245   2.008  -0.815  1.00  0.00    -0.389 N 
ATOM     27  H12 UNL     1      -1.410   2.958  -0.481  1.00  0.00     0.157 HD
ATOM     28  H11 UNL     1      -0.517   1.697  -1.459  1.00  0.00     0.157 HD
BRANCH  25  29
HETATM   29  C2  UNL     1      -3.111   1.549   0.577  1.00  0.00     0.071 C 
HETATM   30  C1  UNL     1      -3.041   3.063   0.762  1.00  0.00     0.013 C 
ENDBRANCH  25  29
ENDBRANCH   1  25
TORSDOF 5
