REMARK  13 active torsions:
REMARK  status: ('A' for Active; 'I' for Inactive)
REMARK    1  A    between atoms: C2_2  and  C3_3 
REMARK    2  A    between atoms: C2_2  and  C29_38 
REMARK    3  A    between atoms: C4_4  and  C5_5 
REMARK    4  A    between atoms: C5_5  and  O2_7 
REMARK    5  A    between atoms: O2_7  and  C6_8 
REMARK    6  A    between atoms: C12_14  and  C13_15 
REMARK    7  A    between atoms: C13_15  and  C15_17 
REMARK    8  A    between atoms: C15_17  and  O3_18 
REMARK    9  A    between atoms: C15_17  and  C16_20 
REMARK   10  A    between atoms: C16_20  and  O4_21 
REMARK   11  A    between atoms: C16_20  and  C17_23 
REMARK   12  A    between atoms: C17_23  and  O5_26 
REMARK   13  A    between atoms: C29_38  and  N1_39 
ROOT
HETATM    1  C6  UNL     1      -0.229  -1.037  -1.487  1.00  0.00     0.141 C 
HETATM    2  C7  UNL     1      -0.419  -2.464  -2.098  1.00  0.00     0.041 C 
HETATM    3  C8  UNL     1      -1.088  -3.236  -0.950  1.00  0.00     0.030 C 
HETATM    4  C9  UNL     1      -2.307  -2.508  -0.464  1.00  0.00     0.005 C 
HETATM    5  C10 UNL     1      -2.689  -1.331  -1.274  1.00  0.00     0.002 A 
HETATM    6  C11 UNL     1      -3.328  -0.180  -0.511  1.00  0.00     0.012 A 
HETATM    7  C12 UNL     1      -2.122   0.665  -0.872  1.00  0.00     0.003 A 
HETATM    8  C20 UNL     1      -1.529  -0.400  -1.620  1.00  0.00    -0.009 A 
HETATM    9  C21 UNL     1      -1.675  -0.164  -3.169  1.00  0.00     0.018 C 
HETATM   10  C22 UNL     1      -3.519  -3.433  -0.386  1.00  0.00    -0.043 C 
HETATM   11  C23 UNL     1      -4.599  -2.804   0.485  1.00  0.00     0.015 C 
HETATM   12  C24 UNL     1      -4.131  -3.733  -1.711  1.00  0.00     0.015 C 
HETATM   13  C25 UNL     1      -3.069  -4.677   0.345  1.00  0.00     0.012 C 
HETATM   14  C26 UNL     1      -2.202  -5.461  -0.575  1.00  0.00     0.041 C 
HETATM   15  C27 UNL     1      -1.314  -4.619  -1.444  1.00  0.00     0.086 A 
HETATM   16  C28 UNL     1      -0.014  -5.335  -1.818  1.00  0.00     0.207 A 
HETATM   17  O6  UNL     1      -0.990  -5.011  -2.726  1.00  0.00    -0.375 OA
ENDROOT
BRANCH   1  18
HETATM   18  O2  UNL     1       0.399  -1.281  -0.308  1.00  0.00    -0.312 OA
BRANCH  18  19
HETATM   19  C5  UNL     1       1.780  -1.038  -0.154  1.00  0.00     0.283 C 
HETATM   20  O1  UNL     1       2.354  -0.589  -1.170  1.00  0.00    -0.260 OA
BRANCH  19  21
HETATM   21  C4  UNL     1       2.456  -1.293   1.085  1.00  0.00     0.078 C 
HETATM   22  C3  UNL     1       3.693  -1.134   1.410  1.00  0.00    -0.015 C 
BRANCH  22  23
HETATM   23  C2  UNL     1       4.801  -0.633   0.592  1.00  0.00     0.032 C 
HETATM   24  C1  UNL     1       5.958  -1.650   0.554  1.00  0.00     0.016 C 
BRANCH  23  25
HETATM   25  C29 UNL     1       5.405   0.612   1.214  1.00  0.00     0.280 C 
BRANCH  25  26
HETATM   26  N1  UNL     1       6.511   1.121   0.429  1.00  0.00     0.093 N 
HETATM   27  C30 UNL     1       7.052   2.295   1.087  1.00  0.00     0.298 C 
HETATM   28  C31 UNL     1       6.238   3.524   0.856  1.00  0.00     0.198 C 
HETATM   29  O7  UNL     1       5.961   3.750  -0.487  1.00  0.00    -0.388 OA
HETATM   30  C32 UNL     1       6.630   2.821  -1.306  1.00  0.00     0.198 C 
HETATM   31  C33 UNL     1       6.067   1.449  -0.915  1.00  0.00     0.298 C 
ENDBRANCH  25  26
ENDBRANCH  23  25
ENDBRANCH  22  23
ENDBRANCH  19  21
ENDBRANCH  18  19
ENDBRANCH   1  18
BRANCH   7  32
HETATM   32  C13 UNL     1      -1.564   1.511   0.195  1.00  0.00     0.018 C 
HETATM   33  C14 UNL     1      -1.117   0.878   1.448  1.00  0.00     0.013 C 
BRANCH  32  34
HETATM   34  C15 UNL     1      -2.629   2.557   0.607  1.00  0.00     0.154 C 
BRANCH  34  35
HETATM   35  O3  UNL     1      -2.917   3.275  -0.584  1.00  0.00    -0.393 OA
ATOM     36  H3  UNL     1      -3.570   3.917  -0.331  1.00  0.00     0.210 HD
ENDBRANCH  34  35
BRANCH  34  37
HETATM   37  C16 UNL     1      -2.103   3.564   1.566  1.00  0.00     0.180 C 
BRANCH  37  38
HETATM   38  O4  UNL     1      -0.940   4.130   1.016  1.00  0.00    -0.390 OA
ATOM     39  H4  UNL     1      -0.604   4.773   1.629  1.00  0.00     0.210 HD
ENDBRANCH  37  38
BRANCH  37  40
HETATM   40  C17 UNL     1      -3.091   4.712   1.673  1.00  0.00     0.079 C 
HETATM   41  C18 UNL     1      -4.364   4.289   2.362  1.00  0.00     0.048 C 
HETATM   42  C19 UNL     1      -2.463   5.797   2.557  1.00  0.00     0.048 C 
BRANCH  40  43
HETATM   43  O5  UNL     1      -3.363   5.298   0.461  1.00  0.00    -0.388 OA
ATOM     44  H5  UNL     1      -3.981   6.016   0.528  1.00  0.00     0.210 HD
ENDBRANCH  40  43
ENDBRANCH  37  40
ENDBRANCH  34  37
ENDBRANCH  32  34
ENDBRANCH   7  32
TORSDOF 13
