REMARK  9 active torsions:
REMARK  status: ('A' for Active; 'I' for Inactive)
REMARK       I    between atoms: C2_2  and  N1_4 
REMARK    1  A    between atoms: N1_4  and  C3_6 
REMARK    2  A    between atoms: C3_6  and  C4_7 
REMARK    3  A    between atoms: C4_7  and  O2_8 
REMARK    4  A    between atoms: O2_8  and  C5_9 
REMARK    5  A    between atoms: C5_9  and  N2_11 
REMARK    6  A    between atoms: N2_11  and  N3_13 
REMARK    7  A    between atoms: C9_24  and  C10_25 
REMARK    8  A    between atoms: C10_25  and  O6_26 
REMARK    9  A    between atoms: C11_28  and  O7_29 
ROOT
HETATM    1  C4  UNL     1       0.989   0.201  -0.102  1.00  0.00     0.336 C 
HETATM    2  O3  UNL     1       0.601   0.143   1.210  1.00  0.00    -0.168 OA
HETATM    3  O4  UNL     1      -0.527  -0.496   1.432  1.00  0.00    -0.217 OA
HETATM    4  C6  UNL     1      -1.492   0.148   0.709  1.00  0.00     0.170 C 
HETATM    5  C7  UNL     1      -1.600   1.614   0.987  1.00  0.00     0.057 C 
HETATM    6  C8  UNL     1      -1.128  -0.071  -0.769  1.00  0.00     0.306 C 
HETATM    7  O5  UNL     1      -2.267   0.444  -1.361  1.00  0.00    -0.348 OA
HETATM    8  C9  UNL     1      -3.359   0.015  -0.643  1.00  0.00     0.180 C 
HETATM    9  C11 UNL     1      -2.849  -0.457   0.725  1.00  0.00     0.191 C 
HETATM   10  O8  UNL     1       0.013   0.644  -0.991  1.00  0.00    -0.295 OA
ENDROOT
BRANCH   1  11
HETATM   11  C3  UNL     1       1.452  -1.209  -0.501  1.00  0.00     0.228 C 
BRANCH  11  12
HETATM   12  N1  UNL     1       2.477  -1.597   0.481  1.00  0.00    -0.354 N 
HETATM   13  C2  UNL     1       3.109  -2.863   0.386  1.00  0.00     0.213 C 
HETATM   14  C1  UNL     1       4.142  -3.297   1.347  1.00  0.00     0.117 C 
HETATM   15  O1  UNL     1       2.799  -3.665  -0.538  1.00  0.00    -0.274 OA
ATOM     16  H1  UNL     1       2.733  -0.955   1.231  1.00  0.00     0.162 HD
ENDBRANCH  11  12
ENDBRANCH   1  11
BRANCH   1  17
HETATM   17  O2  UNL     1       2.160   0.988  -0.172  1.00  0.00    -0.259 OA
BRANCH  17  18
HETATM   18  C5  UNL     1       2.254   2.309   0.094  1.00  0.00     0.234 C 
HETATM   19  S1  UNL     1       2.106   2.845   1.618  1.00  0.00    -0.031 SA
BRANCH  18  20
HETATM   20  N2  UNL     1       2.481   3.241  -0.933  1.00  0.00    -0.256 N 
ATOM     21  H2  UNL     1       2.574   2.899  -1.889  1.00  0.00     0.191 HD
BRANCH  20  22
HETATM   22  N3  UNL     1       2.586   4.631  -0.701  1.00  0.00    -0.247 N 
HETATM   23  N4  UNL     1       3.427   4.997   0.194  1.00  0.00    -0.331 N 
ATOM     24  H42 UNL     1       3.983   4.310   0.703  1.00  0.00     0.178 HD
ATOM     25  H41 UNL     1       3.503   6.000   0.361  1.00  0.00     0.178 HD
ATOM     26  H3  UNL     1       2.023   5.306  -1.218  1.00  0.00     0.207 HD
ENDBRANCH  20  22
ENDBRANCH  18  20
ENDBRANCH  17  18
ENDBRANCH   1  17
BRANCH   9  27
HETATM   27  O7  UNL     1      -2.779  -1.855   0.749  1.00  0.00    -0.390 OA
ATOM     28  H7  UNL     1      -3.647  -2.242   0.759  1.00  0.00     0.210 HD
ENDBRANCH   9  27
BRANCH   8  29
HETATM   29  C10 UNL     1      -4.140  -1.080  -1.326  1.00  0.00     0.198 C 
BRANCH  29  30
HETATM   30  O6  UNL     1      -4.594  -0.612  -2.534  1.00  0.00    -0.398 OA
ATOM     31  H6  UNL     1      -5.086  -1.302  -2.964  1.00  0.00     0.209 HD
ENDBRANCH  29  30
ENDBRANCH   8  29
TORSDOF 9
