REMARK  9 active torsions:
REMARK  status: ('A' for Active; 'I' for Inactive)
REMARK    1  A    between atoms: C2_2  and  C3_3 
REMARK    2  A    between atoms: C3_3  and  C4_4 
REMARK    3  A    between atoms: C4_4  and  C5_5 
REMARK    4  A    between atoms: C5_5  and  C6_6 
REMARK    5  A    between atoms: C6_6  and  S1_7 
REMARK    6  A    between atoms: S1_7  and  C7_9 
REMARK    7  A    between atoms: S1_7  and  N1_11 
REMARK    8  A    between atoms: N1_11  and  C8_13 
REMARK       I    between atoms: N3_19  and  C12_21 
REMARK    9  A    between atoms: C12_21  and  C13_23 
ROOT
HETATM    1  C8  UNL     1       0.577   0.178   0.125  1.00  0.00     0.044 A 
HETATM    2  C9  UNL     1       0.844   0.809  -1.068  1.00  0.00     0.047 A 
HETATM    3  C10 UNL     1       2.113   1.268  -1.389  1.00  0.00     0.092 A 
HETATM    4  N2  UNL     1       3.132   1.096  -0.510  1.00  0.00    -0.352 N 
ATOM      5  H2  UNL     1       4.068   1.431  -0.740  1.00  0.00     0.166 HD
HETATM    6  C11 UNL     1       2.907   0.485   0.662  1.00  0.00     0.109 A 
HETATM    7  N3  UNL     1       3.887   0.324   1.498  1.00  0.00    -0.308 N 
ATOM      8  H3  UNL     1       3.722  -0.140   2.391  1.00  0.00     0.170 HD
HETATM    9  C12 UNL     1       5.202   0.797   1.169  1.00  0.00     0.269 C 
HETATM   10  O2  UNL     1       5.543   1.889   1.648  1.00  0.00    -0.266 OA
HETATM   11  C17 UNL     1       1.633   0.020   0.992  1.00  0.00     0.078 A 
ENDROOT
BRANCH   1  12
HETATM   12  N1  UNL     1      -0.698  -0.299   0.490  1.00  0.00    -0.313 N 
ATOM     13  H1  UNL     1      -1.282   0.345   1.023  1.00  0.00     0.176 HD
BRANCH  12  14
HETATM   14  S1  UNL     1      -1.377  -1.810   0.151  1.00  0.00     0.057 S 
HETATM   15  O1  UNL     1      -0.422  -2.719  -0.617  1.00  0.00    -0.244 OA
BRANCH  14  16
HETATM   16  C6  UNL     1      -2.848  -1.663  -0.859  1.00  0.00     0.122 C 
BRANCH  16  17
HETATM   17  C5  UNL     1      -3.848  -0.825  -0.089  1.00  0.00     0.014 C 
BRANCH  17  18
HETATM   18  C4  UNL     1      -5.118  -0.671  -0.905  1.00  0.00     0.001 C 
BRANCH  18  19
HETATM   19  C3  UNL     1      -6.056   0.183  -0.049  1.00  0.00    -0.000 C 
BRANCH  19  20
HETATM   20  C2  UNL     1      -7.375   0.418  -0.750  1.00  0.00    -0.005 C 
HETATM   21  C1  UNL     1      -8.224   1.263   0.165  1.00  0.00     0.005 C 
ENDBRANCH  19  20
ENDBRANCH  18  19
ENDBRANCH  17  18
ENDBRANCH  16  17
ENDBRANCH  14  16
BRANCH  14  22
HETATM   22  C7  UNL     1      -1.661  -2.717   1.421  1.00  0.00     0.171 C 
HETATM   23 CL1  UNL     1      -0.417  -2.873   2.594  1.00  0.00    -0.086 Cl
ENDBRANCH  14  22
ENDBRANCH  12  14
ENDBRANCH   1  12
BRANCH   9  24
HETATM   24  C13 UNL     1       6.091   0.044   0.323  1.00  0.00     0.103 C 
HETATM   25 CL2  UNL     1       5.551  -1.496  -0.337  1.00  0.00    -0.078 Cl
HETATM   26  C14 UNL     1       7.289   0.453   0.019  1.00  0.00    -0.060 C 
HETATM   27  C15 UNL     1       8.179  -0.375  -0.872  1.00  0.00     0.045 C 
HETATM   28  C16 UNL     1       7.821   1.721   0.525  1.00  0.00     0.045 C 
ENDBRANCH   9  24
TORSDOF 9
