REMARK  7 active torsions:
REMARK  status: ('A' for Active; 'I' for Inactive)
REMARK    1  A    between atoms: C2_2  and  C3_3 
REMARK    2  A    between atoms: C5_5  and  C6_6 
REMARK    3  A    between atoms: C6_6  and  O1_7 
REMARK    4  A    between atoms: C6_6  and  N1_9 
REMARK    5  A    between atoms: C8_16  and  C9_17 
REMARK    6  A    between atoms: N4_26  and  C13_27 
REMARK    7  A    between atoms: C13_27  and  C14_28 
ROOT
HETATM    1  C3  UNL     1       0.022  -2.091   0.115  1.00  0.00     0.023 C 
HETATM    2  C4  UNL     1       1.449  -1.703  -0.126  1.00  0.00     0.048 C 
HETATM    3  C5  UNL     1       1.376  -0.286  -0.536  1.00  0.00     0.197 C 
HETATM    4  O2  UNL     1       0.041  -0.009  -0.908  1.00  0.00    -0.366 OA
HETATM    5  C10 UNL     1      -0.780  -0.926  -0.355  1.00  0.00     0.069 C 
HETATM    6  C11 UNL     1      -1.869  -1.269  -1.351  1.00  0.00     0.069 C 
HETATM    7  C12 UNL     1      -3.273  -1.128  -0.766  1.00  0.00     0.276 C 
HETATM    8  N4  UNL     1      -3.434   0.278  -0.441  1.00  0.00     0.094 N 
HETATM    9  C16 UNL     1      -2.420   0.753   0.497  1.00  0.00     0.276 C 
HETATM   10  C17 UNL     1      -1.491  -0.362   0.869  1.00  0.00     0.069 C 
ENDROOT
BRANCH   3  11
HETATM   11  C6  UNL     1       1.899   0.697   0.390  1.00  0.00     0.147 C 
BRANCH  11  12
HETATM   12  O1  UNL     1       1.112   1.731   0.574  1.00  0.00    -0.347 OA
ATOM     13  H1  UNL     1       1.455   2.376   1.181  1.00  0.00     0.219 HD
ENDBRANCH  11  12
BRANCH  11  14
HETATM   14  N1  UNL     1       3.079   0.714   1.087  1.00  0.00    -0.318 N 
HETATM   15  C7  UNL     1       4.215   1.099   0.588  1.00  0.00     0.167 A 
HETATM   16  N2  UNL     1       4.561   1.539  -0.627  1.00  0.00    -0.279 N 
HETATM   17  S1  UNL     1       5.720   1.289   1.444  1.00  0.00    -0.029 SA
HETATM   18  N3  UNL     1       5.757   1.932  -0.815  1.00  0.00    -0.288 N 
ATOM     19  H2  UNL     1       3.881   1.559  -1.387  1.00  0.00     0.189 HD
HETATM   20  C8  UNL     1       6.644   1.915   0.149  1.00  0.00     0.177 A 
ATOM     21  H3  UNL     1       6.031   2.268  -1.738  1.00  0.00     0.187 HD
ATOM     22  H1  UNL     1       3.064   0.405   2.059  1.00  0.00     0.169 HD
BRANCH  20  23
HETATM   23  C9  UNL     1       8.094   2.318   0.126  1.00  0.00     0.440 C 
HETATM   24  F1  UNL     1       8.249   3.428   0.948  1.00  0.00    -0.164 F 
HETATM   25  F2  UNL     1       8.913   1.292   0.523  1.00  0.00    -0.164 F 
HETATM   26  F3  UNL     1       8.433   2.714  -1.142  1.00  0.00    -0.164 F 
ENDBRANCH  20  23
ENDBRANCH  11  14
ENDBRANCH   3  11
BRANCH   1  27
HETATM   27  C2  UNL     1      -0.294  -3.371  -0.579  1.00  0.00     0.003 C 
HETATM   28  C1  UNL     1       0.600  -4.464  -0.048  1.00  0.00     0.005 C 
ENDBRANCH   1  27
BRANCH   8  29
HETATM   29  C13 UNL     1      -4.776   0.576   0.030  1.00  0.00     0.332 C 
BRANCH  29  30
HETATM   30  C14 UNL     1      -4.815   2.035   0.256  1.00  0.00     0.072 A 
HETATM   31  C15 UNL     1      -4.626   3.044  -0.685  1.00  0.00     0.137 A 
HETATM   32  N5  UNL     1      -4.767   4.235  -0.090  1.00  0.00    -0.296 N 
HETATM   33  N6  UNL     1      -5.032   3.991   1.164  1.00  0.00    -0.243 N 
ATOM     34  H5  UNL     1      -4.684   5.152  -0.530  1.00  0.00     0.187 HD
HETATM   35  N7  UNL     1      -5.066   2.692   1.396  1.00  0.00    -0.287 N 
ATOM     36  H6  UNL     1      -5.192   4.709   1.871  1.00  0.00     0.208 HD
ATOM     37  H7  UNL     1      -5.254   2.258   2.300  1.00  0.00     0.188 HD
ENDBRANCH  29  30
ENDBRANCH   8  29
TORSDOF 7
