REMARK  8 active torsions:
REMARK  status: ('A' for Active; 'I' for Inactive)
REMARK    1  A    between atoms: O1_1  and  S1_3 
REMARK    2  A    between atoms: S1_3  and  C1_4 
REMARK    3  A    between atoms: C3_8  and  C4_9 
REMARK    4  A    between atoms: C5_10  and  O4_11 
REMARK    5  A    between atoms: C6_13  and  O5_14 
REMARK    6  A    between atoms: C7_16  and  O6_17 
REMARK    7  A    between atoms: C8_19  and  O7_20 
REMARK    8  A    between atoms: C9_22  and  O8_23 
ROOT
HETATM    1  C4  UNL     1      -0.124   0.129  -0.121  1.00  0.00     0.104 C 
HETATM    2  C5  UNL     1      -0.993  -0.095   1.082  1.00  0.00     0.161 C 
HETATM    3  C6  UNL     1      -2.120   0.923   0.967  1.00  0.00     0.178 C 
HETATM    4  C7  UNL     1      -2.835   0.840  -0.351  1.00  0.00     0.180 C 
HETATM    5  C8  UNL     1      -2.345  -0.299  -1.219  1.00  0.00     0.178 C 
HETATM    6  C9  UNL     1      -0.847  -0.290  -1.361  1.00  0.00     0.161 C 
ENDROOT
BRANCH   1   7
HETATM    7  C3  UNL     1       1.237  -0.483  -0.009  1.00  0.00     0.275 C 
HETATM    8  O3  UNL     1       1.243  -1.863   0.025  1.00  0.00    -0.336 OA
HETATM    9  C2  UNL     1       2.563  -2.269  -0.182  1.00  0.00     0.345 C 
HETATM   10  O2  UNL     1       3.451  -1.703   0.712  1.00  0.00    -0.326 OA
HETATM   11  C1  UNL     1       3.259  -0.353   0.921  1.00  0.00     0.357 C 
HETATM   12  O9  UNL     1       1.907  -0.026   1.109  1.00  0.00    -0.319 OA
BRANCH  11  13
HETATM   13  S1  UNL     1       3.857   0.656  -0.472  1.00  0.00     0.047 SA
BRANCH  13  14
HETATM   14  O1  UNL     1       5.160   1.665  -0.006  1.00  0.00    -0.326 OA
ATOM     15  H1  UNL     1       5.472   2.191  -0.733  1.00  0.00     0.228 HD
ENDBRANCH  13  14
ENDBRANCH  11  13
ENDBRANCH   1   7
BRANCH   2  16
HETATM   16  O4  UNL     1      -1.459  -1.390   1.201  1.00  0.00    -0.392 OA
ATOM     17  H4  UNL     1      -2.009  -1.532   1.962  1.00  0.00     0.210 HD
ENDBRANCH   2  16
BRANCH   6  18
HETATM   18  O8  UNL     1      -0.548   0.610  -2.394  1.00  0.00    -0.392 OA
ATOM     19  H8  UNL     1      -1.007   0.344  -3.182  1.00  0.00     0.210 HD
ENDBRANCH   6  18
BRANCH   3  20
HETATM   20  O5  UNL     1      -1.490   2.178   1.014  1.00  0.00    -0.390 OA
ATOM     21  H5  UNL     1      -2.193   2.813   0.942  1.00  0.00     0.210 HD
ENDBRANCH   3  20
BRANCH   5  22
HETATM   22  O7  UNL     1      -2.900  -0.062  -2.488  1.00  0.00    -0.390 OA
ATOM     23  H7  UNL     1      -2.592  -0.777  -3.033  1.00  0.00     0.210 HD
ENDBRANCH   5  22
BRANCH   4  24
HETATM   24  O6  UNL     1      -4.197   0.641  -0.092  1.00  0.00    -0.390 OA
ATOM     25  H6  UNL     1      -4.649   0.588  -0.926  1.00  0.00     0.210 HD
ENDBRANCH   4  24
TORSDOF 8
