REMARK  11 active torsions:
REMARK  status: ('A' for Active; 'I' for Inactive)
REMARK    1  A    between atoms: C7_7  and  C8_8 
REMARK    2  A    between atoms: C8_8  and  N1_9 
REMARK    3  A    between atoms: N1_9  and  C9_11 
REMARK    4  A    between atoms: C9_11  and  C10_12 
REMARK    5  A    between atoms: C10_12  and  C11_13 
REMARK    6  A    between atoms: C11_13  and  N2_14 
REMARK    7  A    between atoms: N2_14  and  C12_16 
REMARK    8  A    between atoms: C12_16  and  C13_17 
REMARK    9  A    between atoms: C13_17  and  C14_18 
REMARK   10  A    between atoms: C14_18  and  S1_19 
REMARK   11  A    between atoms: S1_19  and  C15_20 
ROOT
HETATM    1  N1  UNL     1      -1.483  -0.374  -1.284  1.00  0.00    -0.398 N 
ATOM      2  H1  UNL     1      -1.737  -0.575  -2.251  1.00  0.00     0.158 HD
ENDROOT
BRANCH   1   3
HETATM    3  C8  UNL     1      -2.097  -1.123  -0.232  1.00  0.00     0.158 C 
BRANCH   3   4
HETATM    4  C7  UNL     1      -3.576  -0.893  -0.238  1.00  0.00    -0.033 A 
HETATM    5  C2  UNL     1      -4.419  -1.543   0.583  1.00  0.00    -0.053 A 
HETATM    6  C1  UNL     1      -3.967  -2.710   1.383  1.00  0.00     0.049 C 
HETATM    7  C3  UNL     1      -5.758  -1.164   0.716  1.00  0.00     0.016 A 
HETATM    8  C4  UNL     1      -6.233  -0.078  -0.027  1.00  0.00    -0.031 A 
HETATM    9  C5  UNL     1      -5.397   0.590  -0.866  1.00  0.00     0.035 A 
HETATM   10  C23 UNL     1      -7.646   0.346   0.105  1.00  0.00     0.042 C 
HETATM   11  C6  UNL     1      -4.082   0.191  -0.978  1.00  0.00     0.039 A 
HETATM   12  N3  UNL     1      -5.910   1.707  -1.559  1.00  0.00    -0.389 N 
HETATM   13  C21 UNL     1      -6.928   2.524  -0.968  1.00  0.00     0.120 C 
ATOM     14  H3  UNL     1      -5.554   1.934  -2.487  1.00  0.00     0.159 HD
HETATM   15  C22 UNL     1      -7.904   1.791  -0.118  1.00  0.00     0.024 C 
ENDBRANCH   3   4
ENDBRANCH   1   3
BRANCH   1  16
HETATM   16  C9  UNL     1      -0.560   0.609  -1.025  1.00  0.00     0.057 C 
BRANCH  16  17
HETATM   17  C10 UNL     1       0.782   0.471  -0.463  1.00  0.00     0.063 C 
BRANCH  17  18
HETATM   18  C11 UNL     1       0.858  -0.117   0.948  1.00  0.00     0.118 C 
BRANCH  18  19
HETATM   19  N2  UNL     1       2.227   0.050   1.369  1.00  0.00    -0.421 N 
ATOM     20  H2  UNL     1       2.476   0.712   2.104  1.00  0.00     0.153 HD
BRANCH  19  21
HETATM   21  C12 UNL     1       3.213  -0.737   0.727  1.00  0.00     0.114 C 
BRANCH  21  22
HETATM   22  C13 UNL     1       4.595  -0.199   1.116  1.00  0.00     0.029 C 
BRANCH  22  23
HETATM   23  C14 UNL     1       4.739   1.233   0.621  1.00  0.00     0.081 C 
BRANCH  23  24
HETATM   24  S1  UNL     1       6.439   1.798   1.072  1.00  0.00    -0.130 SA
BRANCH  24  25
HETATM   25  C15 UNL     1       7.514   0.660   0.203  1.00  0.00     0.000 A 
HETATM   26  C16 UNL     1       7.903   0.878  -1.075  1.00  0.00     0.018 A 
HETATM   27  C17 UNL     1       8.694  -0.066  -1.714  1.00  0.00     0.001 A 
HETATM   28  C18 UNL     1       9.062  -1.200  -1.020  1.00  0.00     0.000 A 
HETATM   29  C19 UNL     1       8.649  -1.406   0.303  1.00  0.00     0.001 A 
HETATM   30  C20 UNL     1       7.872  -0.486   0.933  1.00  0.00     0.018 A 
ENDBRANCH  24  25
ENDBRANCH  23  24
ENDBRANCH  22  23
ENDBRANCH  21  22
ENDBRANCH  19  21
ENDBRANCH  18  19
ENDBRANCH  17  18
ENDBRANCH  16  17
ENDBRANCH   1  16
TORSDOF 11
