REMARK  4 active torsions:
REMARK  status: ('A' for Active; 'I' for Inactive)
REMARK    1  A    between atoms: C12_12  and  O1_13 
REMARK    2  A    between atoms: C17_19  and  O2_20 
REMARK    3  A    between atoms: C30_37  and  O5_38 
REMARK    4  A    between atoms: O5_38  and  C31_39 
ROOT
HETATM    1  C1  UNL     1      -1.880   2.636  -0.610  1.00  0.00     0.026 C 
HETATM    2  C2  UNL     1      -2.125   1.382  -0.229  1.00  0.00    -0.007 C 
HETATM    3  C3  UNL     1      -1.180   0.319  -0.662  1.00  0.00    -0.033 C 
HETATM    4  C4  UNL     1      -1.746  -1.067  -0.492  1.00  0.00    -0.040 C 
HETATM    5  C5  UNL     1      -1.166  -1.931   0.519  1.00  0.00     0.013 C 
HETATM    6  C6  UNL     1      -1.178  -1.714   1.942  1.00  0.00     0.015 C 
HETATM    7  C7  UNL     1       0.321  -2.033   0.086  1.00  0.00     0.015 C 
HETATM    8  C8  UNL     1       0.967  -0.671   0.301  1.00  0.00     0.008 C 
HETATM    9  C9  UNL     1       0.249   0.501  -0.247  1.00  0.00    -0.009 C 
HETATM   10  C10 UNL     1       0.277   1.576   0.870  1.00  0.00     0.021 C 
HETATM   11  C11 UNL     1       0.942   1.186  -1.419  1.00  0.00     0.046 C 
HETATM   12  C12 UNL     1       2.218   0.566  -1.879  1.00  0.00     0.124 C 
HETATM   13  C13 UNL     1       3.027   0.321  -0.636  1.00  0.00     0.033 C 
HETATM   14  C14 UNL     1       4.475   0.346  -0.901  1.00  0.00    -0.015 C 
HETATM   15  C15 UNL     1       4.896  -0.283  -2.226  1.00  0.00     0.018 C 
HETATM   16  C16 UNL     1       4.884   1.824  -1.031  1.00  0.00     0.018 C 
HETATM   17  C17 UNL     1       5.309  -0.292   0.178  1.00  0.00     0.130 C 
HETATM   18  C18 UNL     1       4.477  -0.347   1.421  1.00  0.00     0.012 C 
HETATM   19  C19 UNL     1       5.336  -1.036   2.491  1.00  0.00     0.012 C 
HETATM   20  C20 UNL     1       3.211  -1.094   1.328  1.00  0.00     0.017 C 
HETATM   21  C21 UNL     1       2.419  -0.847   0.032  1.00  0.00    -0.032 C 
HETATM   22  C22 UNL     1       2.671  -2.127  -0.781  1.00  0.00     0.016 C 
HETATM   23  C23 UNL     1      -3.185  -0.965  -0.672  1.00  0.00     0.124 C 
HETATM   24 BR1  UNL     1      -3.388  -0.058  -2.421  1.00  0.00    -0.070 Br
HETATM   25  C24 UNL     1      -4.003  -2.153  -0.832  1.00  0.00     0.163 C 
HETATM   26  O3  UNL     1      -3.822  -3.327  -0.823  1.00  0.00    -0.295 OA
HETATM   27  C25 UNL     1      -5.383  -1.542  -1.056  1.00  0.00     0.124 C 
HETATM   28  C26 UNL     1      -5.804  -1.629  -2.481  1.00  0.00     0.026 C 
HETATM   29  C27 UNL     1      -5.252  -0.157  -0.540  1.00  0.00     0.155 C 
HETATM   30  O4  UNL     1      -5.996   0.726  -0.762  1.00  0.00    -0.296 OA
HETATM   31  C28 UNL     1      -4.024  -0.170   0.274  1.00  0.00     0.096 C 
HETATM   32  C29 UNL     1      -4.449  -0.960   1.525  1.00  0.00     0.033 C 
HETATM   33  C30 UNL     1      -3.361   1.085   0.597  1.00  0.00     0.085 C 
ENDROOT
BRANCH  33  34
HETATM   34  O5  UNL     1      -4.135   2.203   0.825  1.00  0.00    -0.281 OA
BRANCH  34  35
HETATM   35  C31 UNL     1      -4.301   2.920   1.970  1.00  0.00     0.259 C 
HETATM   36  C32 UNL     1      -5.190   4.091   1.975  1.00  0.00     0.126 C 
HETATM   37  O6  UNL     1      -3.651   2.483   2.926  1.00  0.00    -0.265 OA
ENDBRANCH  34  35
ENDBRANCH  33  34
BRANCH  12  38
HETATM   38  O1  UNL     1       2.842   1.504  -2.723  1.00  0.00    -0.395 OA
ATOM     39  H1  UNL     1       3.655   1.109  -3.016  1.00  0.00     0.210 HD
ENDBRANCH  12  38
BRANCH  17  40
HETATM   40  O2  UNL     1       6.456   0.465   0.505  1.00  0.00    -0.394 OA
ATOM     41  H2  UNL     1       6.982   0.062   1.186  1.00  0.00     0.210 HD
ENDBRANCH  17  40
TORSDOF 4
