REMARK  2 active torsions:
REMARK  status: ('A' for Active; 'I' for Inactive)
REMARK    1  A    between atoms: O1_1  and  N1_3 
REMARK    2  A    between atoms: C1_5  and  C2_6 
ROOT
HETATM    1  C2  UNL     1      -0.771  -0.383  -0.092  1.00  0.00     0.030 C 
HETATM    2  C3  UNL     1      -0.504   1.041  -0.441  1.00  0.00     0.010 C 
HETATM    3  C4  UNL     1       0.919   1.463  -0.339  1.00  0.00     0.005 C 
HETATM    4  C5  UNL     1       1.806   0.444   0.306  1.00  0.00    -0.014 C 
HETATM    5  C6  UNL     1       1.116  -0.303   1.436  1.00  0.00     0.010 C 
HETATM    6  C7  UNL     1       0.457  -1.142   0.334  1.00  0.00    -0.005 C 
HETATM    7  C8  UNL     1       1.663  -0.846  -0.510  1.00  0.00     0.010 C 
ENDROOT
BRANCH   1   8
HETATM    8  C1  UNL     1      -1.519  -1.045  -1.170  1.00  0.00     0.091 C 
HETATM    9  N1  UNL     1      -2.708  -0.639  -1.435  1.00  0.00    -0.284 N 
ATOM     10  H1  UNL     1      -3.221  -1.103  -2.185  1.00  0.00     0.192 HD
BRANCH   9  11
HETATM   11  O1  UNL     1      -3.327   0.387  -0.763  1.00  0.00    -0.291 OA
ATOM     12  H1  UNL     1      -4.207   0.687  -0.959  1.00  0.00     0.244 HD
ENDBRANCH   9  11
ENDBRANCH   1   8
TORSDOF 2
