REMARK  12 active torsions:
REMARK  status: ('A' for Active; 'I' for Inactive)
REMARK    1  A    between atoms: O1_2  and  C2_3 
REMARK    2  A    between atoms: C6_7  and  C7_8 
REMARK    3  A    between atoms: N3_13  and  C8_14 
REMARK    4  A    between atoms: C9_15  and  C10_16 
REMARK    5  A    between atoms: C10_16  and  O2_18 
REMARK    6  A    between atoms: C12_22  and  N5_23 
REMARK    7  A    between atoms: N5_23  and  N6_25 
REMARK    8  A    between atoms: C13_30  and  N8_31 
REMARK    9  A    between atoms: N8_31  and  N9_33 
REMARK   10  A    between atoms: C14_35  and  C16_37 
REMARK   11  A    between atoms: C16_37  and  N10_38 
REMARK   12  A    between atoms: C16_37  and  N11_42 
ROOT
HETATM    1  C8  UNL     1      -0.920   0.989   0.368  1.00  0.00     0.147 A 
HETATM    2  C9  UNL     1      -0.980   2.333   0.131  1.00  0.00     0.089 A 
HETATM    3  N4  UNL     1      -2.213   2.921   0.050  1.00  0.00    -0.189 N 
ATOM      4  H4  UNL     1      -2.259   3.924  -0.128  1.00  0.00     0.184 HD
HETATM    5  C12 UNL     1      -3.363   2.249   0.192  1.00  0.00     0.698 A 
HETATM    6  N7  UNL     1      -3.301   0.913   0.427  1.00  0.00    -0.171 N 
ATOM      7  H7  UNL     1      -4.163   0.379   0.538  1.00  0.00     0.186 HD
HETATM    8  C13 UNL     1      -2.114   0.286   0.515  1.00  0.00     0.168 A 
ENDROOT
BRANCH   1   9
HETATM    9  N3  UNL     1       0.315   0.298   0.492  1.00  0.00    -0.175 N 
HETATM   10  N2  UNL     1       0.493  -0.785   1.282  1.00  0.00    -0.219 N 
HETATM   11  N1  UNL     1       1.725  -1.223   1.209  1.00  0.00    -0.268 N 
ATOM     12  H2  UNL     1      -0.236  -1.205   1.859  1.00  0.00     0.210 HD
HETATM   13  C7  UNL     1       2.372  -0.414   0.356  1.00  0.00     0.148 A 
ATOM     14  H1  UNL     1       2.117  -2.024   1.704  1.00  0.00     0.190 HD
HETATM   15  N12 UNL     1       1.492   0.489  -0.056  1.00  0.00    -0.261 N 
ATOM     16  H12 UNL     1       1.704   1.238  -0.716  1.00  0.00     0.191 HD
BRANCH  13  17
HETATM   17  C6  UNL     1       3.799  -0.546  -0.021  1.00  0.00     0.013 A 
HETATM   18  C5  UNL     1       4.403   0.320  -0.904  1.00  0.00     0.015 A 
HETATM   19  C4  UNL     1       5.742   0.196  -1.255  1.00  0.00     0.004 A 
HETATM   20  C3  UNL     1       6.513  -0.811  -0.721  1.00  0.00     0.037 A 
HETATM   21  C2  UNL     1       5.920  -1.685   0.165  1.00  0.00     0.069 A 
HETATM   22  C17 UNL     1       4.572  -1.551   0.511  1.00  0.00     0.052 A 
BRANCH  21  23
HETATM   23  O1  UNL     1       6.661  -2.713   0.725  1.00  0.00    -0.356 OA
HETATM   24  C1  UNL     1       8.013  -2.870   0.396  1.00  0.00     0.210 C 
ENDBRANCH  21  23
ENDBRANCH  13  17
ENDBRANCH   1   9
BRANCH   2  25
HETATM   25  C10 UNL     1       0.195   3.185  -0.067  1.00  0.00     0.167 C 
HETATM   26  C11 UNL     1      -0.206   4.669   0.007  1.00  0.00     0.046 C 
BRANCH  25  27
HETATM   27  O2  UNL     1       0.698   2.976  -1.382  1.00  0.00    -0.390 OA
ATOM     28  H2  UNL     1       1.460   3.529  -1.510  1.00  0.00     0.210 HD
ENDBRANCH  25  27
ENDBRANCH   2  25
BRANCH   8  29
HETATM   29  N8  UNL     1      -2.016  -0.978   0.736  1.00  0.00    -0.283 N 
ATOM     30  H8  UNL     1      -1.076  -1.371   0.786  1.00  0.00     0.188 HD
BRANCH  29  31
HETATM   31  N9  UNL     1      -3.069  -1.845   0.910  1.00  0.00    -0.304 N 
HETATM   32  C14 UNL     1      -3.488  -2.557  -0.075  1.00  0.00     0.057 C 
HETATM   33  C15 UNL     1      -2.810  -2.419  -1.389  1.00  0.00     0.069 C 
ATOM     34  H9  UNL     1      -3.518  -1.923   1.822  1.00  0.00     0.186 HD
BRANCH  32  35
HETATM   35  C16 UNL     1      -4.624  -3.512   0.059  1.00  0.00     0.424 C 
BRANCH  35  36
HETATM   36  N10 UNL     1      -5.667  -3.117  -0.865  1.00  0.00    -0.045 N 
ATOM     37 3H10 UNL     1      -5.954  -2.146  -0.740  1.00  0.00     0.277 HD
ATOM     38 2H10 UNL     1      -5.331  -3.040  -1.825  1.00  0.00     0.277 HD
ATOM     39 1H10 UNL     1      -6.445  -3.771  -0.773  1.00  0.00     0.277 HD
ENDBRANCH  35  36
BRANCH  35  40
HETATM   40  N11 UNL     1      -5.143  -3.423   1.397  1.00  0.00    -0.045 N 
ATOM     41 3H11 UNL     1      -4.424  -3.569   2.106  1.00  0.00     0.277 HD
ATOM     42 2H11 UNL     1      -5.401  -2.470   1.653  1.00  0.00     0.277 HD
ATOM     43 1H11 UNL     1      -5.921  -4.077   1.489  1.00  0.00     0.277 HD
ENDBRANCH  35  40
ENDBRANCH  32  35
ENDBRANCH  29  31
ENDBRANCH   8  29
BRANCH   5  44
HETATM   44  N5  UNL     1      -4.495   2.864   0.105  1.00  0.00    -0.138 N 
ATOM     45  H5  UNL     1      -5.375   2.359   0.211  1.00  0.00     0.205 HD
BRANCH  44  46
HETATM   46  N6  UNL     1      -4.484   4.236  -0.138  1.00  0.00    -0.331 N 
ATOM     47  H62 UNL     1      -3.596   4.727  -0.242  1.00  0.00     0.177 HD
ATOM     48  H61 UNL     1      -5.378   4.722  -0.207  1.00  0.00     0.177 HD
ENDBRANCH  44  46
ENDBRANCH   5  44
TORSDOF 12
