REMARK  6 active torsions:
REMARK  status: ('A' for Active; 'I' for Inactive)
REMARK    1  A    between atoms: C1_1  and  C2_2 
REMARK    2  A    between atoms: C1_1  and  C5_11 
REMARK    3  A    between atoms: C2_2  and  C3_3 
REMARK    4  A    between atoms: C3_3  and  C4_4 
REMARK    5  A    between atoms: C5_11  and  C6_12 
REMARK    6  A    between atoms: C6_12  and  C7_13 
ROOT
HETATM    1  C1  UNL     1       0.848  -0.484  -0.091  1.00  0.00     0.000 C 
ENDROOT
BRANCH   1   2
HETATM    2  C2  UNL     1       1.857  -1.386  -0.801  1.00  0.00     0.007 C 
BRANCH   2   3
HETATM    3  C3  UNL     1       2.887  -0.575  -1.543  1.00  0.00     0.078 C 
BRANCH   3   4
HETATM    4  C4  UNL     1       3.666   0.316  -0.679  1.00  0.00     0.106 A 
HETATM    5  N1  UNL     1       4.814   0.051  -0.046  1.00  0.00    -0.274 N 
HETATM    6  N2  UNL     1       5.181   1.131   0.628  1.00  0.00    -0.007 NA
ATOM      7  H1  UNL     1       5.321  -0.833  -0.077  1.00  0.00     0.185 HD
HETATM    8  N3  UNL     1       4.279   2.076   0.427  1.00  0.00    -0.007 NA
HETATM    9  N4  UNL     1       3.346   1.581  -0.375  1.00  0.00    -0.274 N 
ATOM     10  H4  UNL     1       2.521   2.081  -0.706  1.00  0.00     0.185 HD
ENDBRANCH   3   4
ENDBRANCH   2   3
ENDBRANCH   1   2
BRANCH   1  11
HETATM   11  C5  UNL     1      -0.104  -1.415   0.597  1.00  0.00     0.000 C 
BRANCH  11  12
HETATM   12  C6  UNL     1      -1.186  -0.831   1.403  1.00  0.00     0.006 C 
BRANCH  12  13
HETATM   13  C7  UNL     1      -2.222   0.010   0.838  1.00  0.00     0.013 C 
HETATM   14  C8  UNL     1      -3.098  -0.578  -0.246  1.00  0.00     0.034 C 
HETATM   15  C9  UNL     1      -3.922   0.667  -0.611  1.00  0.00     0.232 C 
HETATM   16  N5  UNL     1      -3.274   1.808   0.014  1.00  0.00    -0.075 N 
HETATM   17  C10 UNL     1      -1.866   1.317   0.187  1.00  0.00     0.237 C 
ATOM     18  H52 UNL     1      -3.364   2.687  -0.495  1.00  0.00     0.277 HD
ATOM     19  H51 UNL     1      -3.721   2.143   0.867  1.00  0.00     0.277 HD
ENDBRANCH  12  13
ENDBRANCH  11  12
ENDBRANCH   1  11
TORSDOF 6
