REMARK  6 active torsions:
REMARK  status: ('A' for Active; 'I' for Inactive)
REMARK    1  A    between atoms: C4_4  and  C5_5 
REMARK    2  A    between atoms: C5_5  and  N1_6 
REMARK    3  A    between atoms: N1_6  and  C6_9 
REMARK    4  A    between atoms: C6_9  and  C7_10 
REMARK    5  A    between atoms: C7_10  and  C8_11 
REMARK    6  A    between atoms: C8_11  and  C9_12 
ROOT
HETATM    1  C6  UNL     1       0.847  -0.622  -0.256  1.00  0.00     0.233 C 
ENDROOT
BRANCH   1   2
HETATM    2  N1  UNL     1      -0.408   0.035   0.067  1.00  0.00    -0.071 N 
ATOM      3  H12 UNL     1      -0.503   0.949  -0.376  1.00  0.00     0.277 HD
ATOM      4  H11 UNL     1      -0.453   0.350   1.036  1.00  0.00     0.277 HD
BRANCH   2   5
HETATM    5  C5  UNL     1      -1.472  -0.867  -0.278  1.00  0.00     0.270 C 
BRANCH   5   6
HETATM    6  C4  UNL     1      -2.812  -0.320   0.002  1.00  0.00    -0.033 A 
HETATM    7  C3  UNL     1      -3.899  -1.116  -0.296  1.00  0.00     0.009 A 
HETATM    8  C2  UNL     1      -5.198  -0.714  -0.080  1.00  0.00     0.001 A 
HETATM    9  C1  UNL     1      -5.400   0.539   0.458  1.00  0.00     0.000 A 
HETATM   10  C11 UNL     1      -4.333   1.367   0.771  1.00  0.00     0.001 A 
HETATM   11  C10 UNL     1      -3.040   0.925   0.538  1.00  0.00     0.009 A 
ENDBRANCH   5   6
ENDBRANCH   2   5
ENDBRANCH   1   2
BRANCH   1  12
HETATM   12  C7  UNL     1       2.044   0.237   0.065  1.00  0.00     0.035 C 
BRANCH  12  13
HETATM   13  C8  UNL     1       3.277  -0.533  -0.305  1.00  0.00     0.081 C 
BRANCH  13  14
HETATM   14  C9  UNL     1       4.527   0.223  -0.029  1.00  0.00     0.113 A 
HETATM   15  N2  UNL     1       5.152   1.047  -0.884  1.00  0.00    -0.272 N 
HETATM   16  N3  UNL     1       6.209   1.524  -0.287  1.00  0.00    -0.227 N 
ATOM     17  H2  UNL     1       4.853   1.263  -1.835  1.00  0.00     0.190 HD
HETATM   18  N4  UNL     1       6.287   1.034   0.927  1.00  0.00    -0.227 N 
ATOM     19  H3  UNL     1       6.873   2.178  -0.701  1.00  0.00     0.210 HD
HETATM   20  N5  UNL     1       5.250   0.228   1.094  1.00  0.00    -0.272 N 
ATOM     21  H4  UNL     1       7.012   1.236   1.615  1.00  0.00     0.210 HD
ATOM     22  H5  UNL     1       5.038  -0.301   1.940  1.00  0.00     0.190 HD
ENDBRANCH  13  14
ENDBRANCH  12  13
ENDBRANCH   1  12
TORSDOF 6
