REMARK  8 active torsions:
REMARK  status: ('A' for Active; 'I' for Inactive)
REMARK    1  A    between atoms: C5_5  and  N1_6 
REMARK    2  A    between atoms: C9_12  and  C10_13 
REMARK       I    between atoms: C10_13  and  N3_15 
REMARK    3  A    between atoms: N3_15  and  C11_17 
REMARK    4  A    between atoms: C11_17  and  C12_18 
REMARK    5  A    between atoms: C12_18  and  C13_19 
REMARK    6  A    between atoms: C13_19  and  N4_20 
REMARK    7  A    between atoms: C18_27  and  N5_28 
REMARK    8  A    between atoms: C22_36  and  N7_37 
ROOT
HETATM    1  N1  UNL     1      -1.426  -0.151   0.753  1.00  0.00    -0.323 N 
HETATM    2  C6  UNL     1      -1.109   0.599   1.810  1.00  0.00     0.185 A 
HETATM    3  N2  UNL     1       0.229   0.694   1.931  1.00  0.00    -0.349 N 
ATOM      4  H2  UNL     1       0.725   1.212   2.656  1.00  0.00     0.166 HD
HETATM    5  C7  UNL     1       0.808  -0.013   0.929  1.00  0.00     0.079 A 
HETATM    6  C8  UNL     1       2.108  -0.270   0.548  1.00  0.00     0.054 A 
HETATM    7  C9  UNL     1       2.333  -1.047  -0.561  1.00  0.00     0.077 A 
HETATM    8  C18 UNL     1       1.235  -1.554  -1.272  1.00  0.00     0.116 A 
HETATM    9  N6  UNL     1      -0.017  -1.287  -0.875  1.00  0.00    -0.326 N 
ATOM     10  H6  UNL     1      -0.802  -1.667  -1.405  1.00  0.00     0.169 HD
HETATM   11  C19 UNL     1      -0.259  -0.527   0.210  1.00  0.00     0.137 A 
ENDROOT
BRANCH   7  12
HETATM   12  C10 UNL     1       3.676  -1.377  -1.048  1.00  0.00     0.255 C 
HETATM   13  O1  UNL     1       3.887  -1.475  -2.285  1.00  0.00    -0.268 OA
HETATM   14  N3  UNL     1       4.753  -1.600  -0.167  1.00  0.00    -0.356 N 
ATOM     15  H3  UNL     1       4.603  -1.521   0.839  1.00  0.00     0.162 HD
BRANCH  14  16
HETATM   16  C11 UNL     1       6.068  -1.939  -0.667  1.00  0.00     0.128 C 
BRANCH  16  17
HETATM   17  C12 UNL     1       6.703  -0.947  -1.546  1.00  0.00     0.064 C 
BRANCH  17  18
HETATM   18  C13 UNL     1       6.951   0.404  -0.959  1.00  0.00     0.065 C 
BRANCH  18  19
HETATM   19  N4  UNL     1       7.756   0.485   0.184  1.00  0.00    -0.368 N 
HETATM   20  C14 UNL     1       8.060   1.807   0.600  1.00  0.00     0.133 C 
HETATM   21  C15 UNL     1       9.566   1.862   0.801  1.00  0.00     0.105 C 
HETATM   22  C16 UNL     1      10.094   0.490   0.545  1.00  0.00     0.277 C 
HETATM   23  F1  UNL     1      10.843   0.428  -0.617  1.00  0.00    -0.200 F 
HETATM   24  F2  UNL     1      10.800   0.001   1.632  1.00  0.00    -0.200 F 
HETATM   25  C17 UNL     1       8.849  -0.361   0.387  1.00  0.00     0.141 C 
ENDBRANCH  18  19
ENDBRANCH  17  18
ENDBRANCH  16  17
ENDBRANCH  14  16
ENDBRANCH   7  12
BRANCH   8  26
HETATM   26  N5  UNL     1       1.512  -2.271  -2.307  1.00  0.00    -0.385 N 
ATOM     27  H52 UNL     1       2.465  -2.474  -2.609  1.00  0.00     0.157 HD
ATOM     28  H51 UNL     1       0.714  -2.640  -2.824  1.00  0.00     0.157 HD
ENDBRANCH   8  26
BRANCH   1  29
HETATM   29  C5  UNL     1      -2.710  -0.503   0.283  1.00  0.00     0.093 C 
HETATM   30  C4  UNL     1      -3.393   0.283  -0.716  1.00  0.00     0.036 C 
HETATM   31  C2  UNL     1      -4.580   1.117  -0.345  1.00  0.00    -0.015 C 
HETATM   32  C1  UNL     1      -5.225   1.481  -1.704  1.00  0.00     0.017 C 
HETATM   33  C3  UNL     1      -4.234   2.411   0.344  1.00  0.00     0.017 C 
HETATM   34  C22 UNL     1      -5.597   0.286   0.400  1.00  0.00     0.230 C 
HETATM   35  C21 UNL     1      -5.060  -0.945   1.034  1.00  0.00     0.038 C 
HETATM   36  C20 UNL     1      -3.638  -0.655   1.486  1.00  0.00     0.028 C 
BRANCH  34  37
HETATM   37  N7  UNL     1      -6.800   0.140  -0.342  1.00  0.00     0.093 N 
HETATM   38  C23 UNL     1      -7.513  -1.068  -0.288  1.00  0.00     0.273 C 
HETATM   39  C24 UNL     1      -8.516  -0.981   0.839  1.00  0.00     0.032 C 
HETATM   40  C25 UNL     1      -8.755   0.490   0.982  1.00  0.00     0.032 C 
HETATM   41  C26 UNL     1      -7.805   1.146   0.002  1.00  0.00     0.273 C 
ENDBRANCH  34  37
ENDBRANCH   1  29
TORSDOF 8
