REMARK  10 active torsions:
REMARK  status: ('A' for Active; 'I' for Inactive)
REMARK    1  A    between atoms: N1_1  and  N2_4 
REMARK    2  A    between atoms: N2_4  and  N3_5 
REMARK    3  A    between atoms: N3_5  and  N4_7 
REMARK    4  A    between atoms: C1_9  and  O1_10 
REMARK    5  A    between atoms: C1_9  and  C2_12 
REMARK    6  A    between atoms: C3_15  and  N6_16 
REMARK    7  A    between atoms: N7_18  and  C4_20 
REMARK    8  A    between atoms: C5_23  and  N9_24 
REMARK    9  A    between atoms: N9_24  and  N10_26 
REMARK   10  A    between atoms: C8_39  and  N15_40 
ROOT
HETATM    1  C2  UNL     1       3.486  -0.594   0.109  1.00  0.00     0.131 A 
HETATM    2  N5  UNL     1       2.258   0.000   0.284  1.00  0.00    -0.332 N 
ATOM      3  H5  UNL     1       2.179   1.017   0.291  1.00  0.00     0.168 HD
HETATM    4  C3  UNL     1       1.167  -0.757   0.445  1.00  0.00     0.163 A 
HETATM    5  C7  UNL     1       1.273  -2.139   0.436  1.00  0.00     0.163 A 
HETATM    6  N13 UNL     1       0.105  -2.917   0.608  1.00  0.00    -0.079 NA
HETATM    7  N14 UNL     1       2.445  -2.740   0.268  1.00  0.00    -0.326 N 
ATOM      8  H14 UNL     1       2.509  -3.758   0.262  1.00  0.00     0.168 HD
HETATM    9  C8  UNL     1       3.587  -1.956   0.100  1.00  0.00     0.132 A 
ENDROOT
BRANCH   4  10
HETATM   10  N6  UNL     1      -0.132  -0.207   0.631  1.00  0.00    -0.268 N 
HETATM   11  N7  UNL     1      -0.980  -0.431  -0.288  1.00  0.00    -0.129 N 
ATOM     12  H7  UNL     1      -0.683  -0.984  -1.092  1.00  0.00     0.205 HD
ATOM     13  H6  UNL     1      -0.370   0.339   1.459  1.00  0.00     0.189 HD
BRANCH  11  14
HETATM   14  C4  UNL     1      -2.315   0.043  -0.260  1.00  0.00     0.713 A 
HETATM   15  N8  UNL     1      -2.588   1.224   0.322  1.00  0.00    -0.167 N 
HETATM   16  C5  UNL     1      -3.831   1.727   0.381  1.00  0.00     0.205 A 
ATOM     17  H8  UNL     1      -1.822   1.757   0.734  1.00  0.00     0.186 HD
HETATM   18  C6  UNL     1      -4.858   0.999  -0.179  1.00  0.00     0.306 A 
HETATM   19  O2  UNL     1      -6.060   1.379  -0.179  1.00  0.00    -0.263 OA
HETATM   20  N11 UNL     1      -4.568  -0.186  -0.759  1.00  0.00    -0.249 N 
HETATM   21  N12 UNL     1      -3.331  -0.645  -0.796  1.00  0.00    -0.128 N 
ATOM     22  H11 UNL     1      -5.319  -0.736  -1.176  1.00  0.00     0.191 HD
ATOM     23  H12 UNL     1      -3.145  -1.543  -1.242  1.00  0.00     0.205 HD
BRANCH  16  24
HETATM   24  N9  UNL     1      -4.101   2.856   0.935  1.00  0.00    -0.287 N 
ATOM     25  H9  UNL     1      -3.329   3.382   1.344  1.00  0.00     0.188 HD
BRANCH  24  26
HETATM   26  N10 UNL     1      -5.362   3.401   1.013  1.00  0.00    -0.343 N 
ATOM     27 2H10 UNL     1      -6.122   2.861   0.599  1.00  0.00     0.176 HD
ATOM     28 1H10 UNL     1      -5.576   4.296   1.452  1.00  0.00     0.176 HD
ENDBRANCH  24  26
ENDBRANCH  16  24
ENDBRANCH  11  14
ENDBRANCH   4  10
BRANCH   1  29
HETATM   29  C1  UNL     1       4.644   0.267  -0.062  1.00  0.00     0.188 C 
HETATM   30  N4  UNL     1       4.381   1.563  -0.029  1.00  0.00    -0.252 N 
ATOM     31  H4  UNL     1       3.433   1.913   0.107  1.00  0.00     0.191 HD
BRANCH  30  32
HETATM   32  N3  UNL     1       5.460   2.423  -0.189  1.00  0.00    -0.154 N 
ATOM     33  H3  UNL     1       6.146   2.480   0.564  1.00  0.00     0.225 HD
BRANCH  32  34
HETATM   34  N2  UNL     1       5.633   3.115  -1.182  1.00  0.00    -0.228 NA
BRANCH  34  35
HETATM   35  N1  UNL     1       5.749   3.882  -2.130  1.00  0.00    -0.259 N 
ATOM     36  H12 UNL     1       5.177   4.445  -1.501  1.00  0.00     0.193 HD
ATOM     37  H11 UNL     1       5.893   4.459  -2.958  1.00  0.00     0.193 HD
ENDBRANCH  34  35
ENDBRANCH  32  34
ENDBRANCH  30  32
BRANCH  29  38
HETATM   38  O1  UNL     1       5.945  -0.135  -0.248  1.00  0.00    -0.343 OA
ATOM     39  H1  UNL     1       6.134  -1.066  -0.272  1.00  0.00     0.219 HD
ENDBRANCH  29  38
ENDBRANCH   1  29
BRANCH   9  40
HETATM   40  N15 UNL     1       4.668  -2.587  -0.054  1.00  0.00    -0.383 N 
ATOM     41 2H15 UNL     1       5.503  -2.014  -0.177  1.00  0.00     0.157 HD
ATOM     42 1H15 UNL     1       4.743  -3.604  -0.061  1.00  0.00     0.157 HD
ENDBRANCH   9  40
TORSDOF 10
