REMARK  3 active torsions:
REMARK  status: ('A' for Active; 'I' for Inactive)
REMARK    1  A    between atoms: C2_2  and  C3_3 
REMARK    2  A    between atoms: C3_3  and  C4_4 
REMARK    3  A    between atoms: C4_4  and  C5_5 
ROOT
HETATM    1  C5  UNL     1       0.892  -0.375   0.434  1.00  0.00    -0.004 C 
HETATM    2  C6  UNL     1       1.422   0.937   0.002  1.00  0.00    -0.006 C 
HETATM    3  C7  UNL     1       1.930   0.962  -1.418  1.00  0.00     0.038 C 
HETATM    4  C8  UNL     1       3.010  -0.069  -1.610  1.00  0.00     0.187 C 
HETATM    5  C9  UNL     1       2.344  -1.421  -1.317  1.00  0.00     0.038 C 
HETATM    6  C10 UNL     1       1.948  -1.452   0.122  1.00  0.00    -0.006 C 
HETATM    7  C11 UNL     1       3.092  -1.204   1.074  1.00  0.00     0.038 C 
HETATM    8  C12 UNL     1       3.674   0.153   0.673  1.00  0.00     0.187 C 
HETATM    9  C13 UNL     1       2.652   1.243   0.882  1.00  0.00     0.038 C 
HETATM   10  N1  UNL     1       4.103   0.053  -0.690  1.00  0.00    -0.067 N 
ATOM     11  H11 UNL     1       4.706   0.836  -0.941  1.00  0.00     0.278 HD
ATOM     12  H12 UNL     1       4.767  -0.712  -0.809  1.00  0.00     0.278 HD
ENDROOT
BRANCH   1  13
HETATM   13  C4  UNL     1      -0.440  -0.802  -0.036  1.00  0.00     0.037 C 
BRANCH  13  14
HETATM   14  C3  UNL     1      -1.624   0.006   0.287  1.00  0.00     0.056 C 
HETATM   15  S1  UNL     1      -3.088  -0.990  -0.292  1.00  0.00    -0.148 SA
HETATM   16  C14 UNL     1      -4.532   0.071  -0.021  1.00  0.00     0.076 C 
HETATM   17  C15 UNL     1      -4.467   1.283  -0.916  1.00  0.00     0.020 C 
HETATM   18  C16 UNL     1      -3.213   1.313  -1.760  1.00  0.00     0.076 C 
HETATM   19  S2  UNL     1      -1.732   1.509  -0.703  1.00  0.00    -0.148 SA
BRANCH  14  20
HETATM   20  C2  UNL     1      -1.889   0.213   1.749  1.00  0.00     0.027 C 
HETATM   21  C1  UNL     1      -2.098  -1.090   2.443  1.00  0.00     0.007 C 
ENDBRANCH  14  20
ENDBRANCH  13  14
ENDBRANCH   1  13
TORSDOF 3
