REMARK  16 active torsions:
REMARK  status: ('A' for Active; 'I' for Inactive)
REMARK    1  A    between atoms: N1_2  and  C2_3 
REMARK    2  A    between atoms: N1_2  and  C11_22 
REMARK    3  A    between atoms: C2_3  and  N2_5 
REMARK    4  A    between atoms: N2_5  and  C3_7 
REMARK    5  A    between atoms: C3_7  and  C4_8 
REMARK    6  A    between atoms: C4_8  and  C5_9 
REMARK    7  A    between atoms: C5_9  and  C6_10 
REMARK       I    between atoms: C6_10  and  N3_12 
REMARK    8  A    between atoms: N3_12  and  C7_14 
REMARK    9  A    between atoms: C7_14  and  C8_15 
REMARK   10  A    between atoms: C8_15  and  C9_16 
REMARK   11  A    between atoms: C9_16  and  C10_17 
REMARK   12  A    between atoms: C10_17  and  N4_18 
REMARK   13  A    between atoms: C11_22  and  C12_23 
REMARK   14  A    between atoms: C11_22  and  C19_30 
REMARK   15  A    between atoms: C12_23  and  C13_24 
REMARK       I    between atoms: C19_30  and  N5_32 
REMARK   16  A    between atoms: N5_32  and  C20_34 
ROOT
HETATM    1  C1  UNL     1       0.486   0.255   0.643  1.00  0.00     0.159 C 
HETATM    2  N1  UNL     1      -0.714  -0.386   0.103  1.00  0.00    -0.324 N 
ENDROOT
BRANCH   2   3
HETATM    3  C2  UNL     1      -0.568  -1.213  -1.010  1.00  0.00     0.174 C 
HETATM    4  S1  UNL     1      -1.946  -1.939  -1.688  1.00  0.00    -0.041 SA
BRANCH   3   5
HETATM    5  N2  UNL     1       0.590  -1.552  -1.733  1.00  0.00    -0.367 N 
ATOM      6  H2  UNL     1       0.430  -2.195  -2.509  1.00  0.00     0.161 HD
BRANCH   5   7
HETATM    7  C3  UNL     1       1.959  -1.149  -1.567  1.00  0.00     0.122 C 
BRANCH   7   8
HETATM    8  C4  UNL     1       2.859  -1.886  -2.553  1.00  0.00     0.029 C 
BRANCH   8   9
HETATM    9  C5  UNL     1       4.274  -1.470  -2.422  1.00  0.00     0.105 C 
BRANCH   9  10
HETATM   10  C6  UNL     1       4.904  -1.760  -1.129  1.00  0.00     0.221 C 
HETATM   11  O1  UNL     1       4.332  -2.425  -0.249  1.00  0.00    -0.273 OA
HETATM   12  N3  UNL     1       6.246  -1.254  -0.855  1.00  0.00    -0.341 N 
ATOM     13  H3  UNL     1       6.761  -0.706  -1.544  1.00  0.00     0.167 HD
BRANCH  12  14
HETATM   14  C7  UNL     1       6.796  -1.558   0.405  1.00  0.00     0.064 C 
BRANCH  14  15
HETATM   15  C8  UNL     1       8.122  -1.075   0.791  1.00  0.00     0.046 C 
BRANCH  15  16
HETATM   16  C9  UNL     1       8.347   0.377   0.909  1.00  0.00     0.032 C 
BRANCH  16  17
HETATM   17  C10 UNL     1       8.209   1.230  -0.309  1.00  0.00     0.230 C 
BRANCH  17  18
HETATM   18  N4  UNL     1       9.140   0.853  -1.357  1.00  0.00    -0.079 N 
ATOM     19  H43 UNL     1      10.100   0.855  -1.014  1.00  0.00     0.274 HD
ATOM     20  H42 UNL     1       9.051  -0.136  -1.589  1.00  0.00     0.274 HD
ATOM     21  H41 UNL     1       9.046   1.436  -2.189  1.00  0.00     0.274 HD
ENDBRANCH  17  18
ENDBRANCH  16  17
ENDBRANCH  15  16
ENDBRANCH  14  15
ENDBRANCH  12  14
ENDBRANCH   9  10
ENDBRANCH   8   9
ENDBRANCH   7   8
ENDBRANCH   5   7
ENDBRANCH   3   5
ENDBRANCH   2   3
BRANCH   2  22
HETATM   22  C11 UNL     1      -1.941  -0.093   0.756  1.00  0.00     0.101 C 
BRANCH  22  23
HETATM   23  C12 UNL     1      -2.452   1.281   0.695  1.00  0.00     0.013 C 
BRANCH  23  24
HETATM   24  C13 UNL     1      -2.776   1.978  -0.551  1.00  0.00     0.010 C 
HETATM   25  C14 UNL     1      -3.823   1.475  -1.451  1.00  0.00     0.008 C 
HETATM   26  C15 UNL     1      -5.215   2.026  -1.242  1.00  0.00     0.001 C 
HETATM   27  C16 UNL     1      -5.270   3.491  -0.967  1.00  0.00     0.000 C 
HETATM   28  C17 UNL     1      -4.406   3.706   0.286  1.00  0.00     0.001 C 
HETATM   29  C18 UNL     1      -3.000   3.462  -0.164  1.00  0.00     0.008 C 
ENDBRANCH  23  24
ENDBRANCH  22  23
BRANCH  22  30
HETATM   30  C19 UNL     1      -2.897  -1.174   1.011  1.00  0.00     0.268 C 
HETATM   31  O2  UNL     1      -2.512  -2.396   1.091  1.00  0.00    -0.266 OA
HETATM   32  N5  UNL     1      -4.293  -1.010   1.195  1.00  0.00    -0.342 N 
ATOM     33  H5  UNL     1      -4.689  -0.071   1.146  1.00  0.00     0.163 HD
BRANCH  32  34
HETATM   34  C20 UNL     1      -5.185  -2.138   1.453  1.00  0.00     0.178 C 
HETATM   35  C21 UNL     1      -5.903  -1.963   2.770  1.00  0.00     0.054 C 
HETATM   36  C22 UNL     1      -7.125  -1.142   2.421  1.00  0.00     0.125 C 
HETATM   37  N6  UNL     1      -7.465  -1.624   1.087  1.00  0.00    -0.359 N 
HETATM   38  C23 UNL     1      -6.281  -2.093   0.461  1.00  0.00     0.240 C 
ATOM     39  H6  UNL     1      -8.397  -1.624   0.673  1.00  0.00     0.162 HD
HETATM   40  O3  UNL     1      -6.231  -2.407  -0.750  1.00  0.00    -0.271 OA
ENDBRANCH  32  34
ENDBRANCH  22  30
ENDBRANCH   2  22
TORSDOF 16
