REMARK  3 active torsions:
REMARK  status: ('A' for Active; 'I' for Inactive)
REMARK    1  A    between atoms: C1_1  and  C2_2 
REMARK    2  A    between atoms: C1_1  and  C6_6 
REMARK    3  A    between atoms: C2_2  and  C3_3 
ROOT
HETATM    1  C6  UNL     1      -0.875  -0.056   0.445  1.00  0.00    -0.004 C 
HETATM    2  C7  UNL     1      -1.733  -0.188  -0.795  1.00  0.00     0.005 C 
HETATM    3  C8  UNL     1      -3.014  -0.743  -0.220  1.00  0.00     0.000 C 
HETATM    4  C9  UNL     1      -3.191   0.075   1.035  1.00  0.00     0.000 C 
HETATM    5  C10 UNL     1      -1.810   0.550   1.441  1.00  0.00     0.005 C 
ENDROOT
BRANCH   1   6
HETATM    6  C1  UNL     1       0.293   0.873   0.152  1.00  0.00     0.084 C 
BRANCH   6   7
HETATM    7  C2  UNL     1       1.443   0.485   0.390  1.00  0.00    -0.178 C 
BRANCH   7   8
HETATM    8  C3  UNL     1       2.760   0.041   0.662  1.00  0.00     0.052 A 
HETATM    9  C4  UNL     1       3.838   0.084  -0.476  1.00  0.00     0.017 A 
HETATM   10  C5  UNL     1       3.363  -1.185   0.052  1.00  0.00     0.017 A 
ENDBRANCH   7   8
ENDBRANCH   6   7
ENDBRANCH   1   6
TORSDOF 3
