REMARK  2 active torsions:
REMARK  status: ('A' for Active; 'I' for Inactive)
REMARK    1  A    between atoms: C2_2  and  C3_3 
REMARK    2  A    between atoms: C3_3  and  S1_4 
ROOT
HETATM    1  S1  UNL     1      -0.545  -0.537  -0.475  1.00  0.00    -0.216 SA
HETATM    2  C4  UNL     1       0.704  -1.632   0.222  1.00  0.00     0.063 C 
HETATM    3  C5  UNL     1       2.009  -1.103  -0.381  1.00  0.00     0.009 C 
HETATM    4  C6  UNL     1       2.375   0.118   0.397  1.00  0.00     0.001 C 
HETATM    5  C7  UNL     1       1.340   1.182   0.424  1.00  0.00     0.009 C 
HETATM    6  C8  UNL     1       0.255   1.044  -0.585  1.00  0.00     0.063 C 
ENDROOT
BRANCH   1   7
HETATM    7  C3  UNL     1      -1.910  -0.535   0.628  1.00  0.00     0.089 C 
BRANCH   7   8
HETATM    8  C2  UNL     1      -3.223  -0.430  -0.065  1.00  0.00    -0.027 C 
HETATM    9  C1  UNL     1      -3.846   0.730  -0.052  1.00  0.00     0.007 C 
ENDBRANCH   7   8
ENDBRANCH   1   7
TORSDOF 2
