REMARK  0 active torsions:
REMARK  status: ('A' for Active; 'I' for Inactive)
ROOT
HETATM    1  C1  UNL     1      -2.283  -0.204  -0.043  1.00  0.00     0.015 C 
HETATM    2  C2  UNL     1      -0.813  -0.071  -0.011  1.00  0.00    -0.043 C 
HETATM    3  C3  UNL     1      -0.266   1.314   0.197  1.00  0.00     0.009 C 
HETATM    4  C4  UNL     1       1.217   1.339   0.262  1.00  0.00     0.001 C 
HETATM    5  C5  UNL     1       1.900   0.080  -0.138  1.00  0.00     0.005 C 
HETATM    6  C6  UNL     1       0.983  -1.116  -0.090  1.00  0.00    -0.013 C 
HETATM    7  C7  UNL     1      -0.082  -0.979   0.987  1.00  0.00     0.013 C 
HETATM    8  C8  UNL     1      -0.131  -0.831  -1.107  1.00  0.00     0.013 C 
ENDROOT
TORSDOF 0
