REMARK  3 active torsions:
REMARK  status: ('A' for Active; 'I' for Inactive)
REMARK    1  A    between atoms: C2_2  and  C3_3 
REMARK    2  A    between atoms: C4_4  and  C5_5 
REMARK    3  A    between atoms: C5_5  and  C6_6 
ROOT
HETATM    1  C6  UNL     1      -0.855   0.338   0.638  1.00  0.00    -0.011 C 
HETATM    2  C7  UNL     1      -1.475  -0.823  -0.137  1.00  0.00     0.005 C 
HETATM    3  C8  UNL     1      -2.761  -1.031   0.630  1.00  0.00     0.000 C 
HETATM    4  C9  UNL     1      -3.267   0.386   0.787  1.00  0.00     0.000 C 
HETATM    5  C10 UNL     1      -2.036   1.278   0.741  1.00  0.00     0.005 C 
ENDROOT
BRANCH   1   6
HETATM    6  C5  UNL     1       0.285   0.961  -0.151  1.00  0.00     0.031 C 
BRANCH   6   7
HETATM    7  C4  UNL     1       1.339  -0.019  -0.418  1.00  0.00    -0.026 C 
HETATM    8  C3  UNL     1       2.582   0.147   0.012  1.00  0.00    -0.005 C 
BRANCH   8   9
HETATM    9  C2  UNL     1       3.628  -0.812  -0.246  1.00  0.00    -0.011 C 
HETATM   10  C1  UNL     1       4.839  -0.611   0.194  1.00  0.00     0.011 C 
ENDBRANCH   8   9
ENDBRANCH   6   7
ENDBRANCH   1   6
TORSDOF 3
