REMARK  3 active torsions:
REMARK  status: ('A' for Active; 'I' for Inactive)
REMARK    1  A    between atoms: C2_2  and  C3_3 
REMARK    2  A    between atoms: C3_3  and  C4_4 
REMARK    3  A    between atoms: C4_4  and  C5_5 
ROOT
HETATM    1  C4  UNL     1      -0.041   0.349  -0.079  1.00  0.00    -0.020 C 
HETATM    2  C7  UNL     1      -0.612  -0.735   0.781  1.00  0.00     0.014 C 
HETATM    3  C8  UNL     1      -1.117  -1.730  -0.236  1.00  0.00     0.001 C 
HETATM    4  C9  UNL     1      -1.750  -0.838  -1.287  1.00  0.00     0.001 C 
HETATM    5  C10 UNL     1      -0.773   0.302  -1.400  1.00  0.00     0.014 C 
ENDROOT
BRANCH   1   6
HETATM    6  C3  UNL     1       1.422   0.200  -0.358  1.00  0.00     0.039 C 
BRANCH   6   7
HETATM    7  C2  UNL     1       2.283   0.240   0.817  1.00  0.00    -0.036 C 
HETATM    8  C1  UNL     1       3.049  -0.787   1.115  1.00  0.00     0.007 C 
ENDBRANCH   6   7
ENDBRANCH   1   6
BRANCH   1   9
HETATM    9  C5  UNL     1      -0.332   1.660   0.592  1.00  0.00    -0.027 C 
HETATM   10  C6  UNL     1      -1.535   2.200   0.534  1.00  0.00     0.007 C 
ENDBRANCH   1   9
TORSDOF 3
