REMARK  2 active torsions:
REMARK  status: ('A' for Active; 'I' for Inactive)
REMARK    1  A    between atoms: C2_2  and  C3_3 
REMARK    2  A    between atoms: C3_3  and  C5_5 
ROOT
HETATM    1  C5  UNL     1      -0.330   0.148   0.561  1.00  0.00    -0.026 A 
HETATM    2  C6  UNL     1      -0.242  -0.615   1.762  1.00  0.00     0.016 A 
HETATM    3  C7  UNL     1      -1.420  -0.877   0.977  1.00  0.00    -0.004 A 
HETATM    4  C8  UNL     1      -1.867  -0.604  -0.394  1.00  0.00     0.010 C 
HETATM    5  C9  UNL     1      -1.487   0.845  -0.017  1.00  0.00    -0.009 C 
HETATM    6  C10 UNL     1      -1.333   1.763  -1.142  1.00  0.00     0.011 C 
ENDROOT
BRANCH   1   7
HETATM    7  C3  UNL     1       0.784  -0.214  -0.349  1.00  0.00     0.012 C 
HETATM    8  C4  UNL     1       0.980  -1.730  -0.526  1.00  0.00     0.015 C 
BRANCH   7   9
HETATM    9  C2  UNL     1       2.028   0.149   0.456  1.00  0.00    -0.032 C 
HETATM   10  C1  UNL     1       2.899   1.024   0.038  1.00  0.00     0.007 C 
ENDBRANCH   7   9
ENDBRANCH   1   7
TORSDOF 2
