REMARK  3 active torsions:
REMARK  status: ('A' for Active; 'I' for Inactive)
REMARK    1  A    between atoms: C2_2  and  C3_3 
REMARK    2  A    between atoms: C4_4  and  C5_5 
REMARK    3  A    between atoms: C6_6  and  C7_7 
ROOT
HETATM    1  C5  UNL     1       0.555  -0.892   1.108  1.00  0.00    -0.004 C 
HETATM    2  C6  UNL     1      -0.734  -0.868   1.101  1.00  0.00    -0.022 C 
ENDROOT
BRANCH   1   3
HETATM    3  C4  UNL     1       1.369  -0.180   0.155  1.00  0.00    -0.000 C 
HETATM    4  C3  UNL     1       2.708  -0.243   0.211  1.00  0.00    -0.001 C 
BRANCH   4   5
HETATM    5  C2  UNL     1       3.477   0.486  -0.764  1.00  0.00    -0.010 C 
HETATM    6  C1  UNL     1       4.791   0.444  -0.734  1.00  0.00     0.011 C 
ENDBRANCH   4   5
ENDBRANCH   1   3
BRANCH   2   7
HETATM    7  C7  UNL     1      -1.504  -0.106   0.109  1.00  0.00     0.008 C 
HETATM    8  C8  UNL     1      -2.840  -0.765  -0.248  1.00  0.00     0.008 C 
HETATM    9  C9  UNL     1      -3.462   0.611  -0.144  1.00  0.00     0.001 C 
HETATM   10  C10 UNL     1      -2.362   0.940   0.842  1.00  0.00     0.008 C 
ENDBRANCH   2   7
TORSDOF 3
