REMARK  2 active torsions:
REMARK  status: ('A' for Active; 'I' for Inactive)
REMARK    1  A    between atoms: C2_2  and  C3_3 
REMARK    2  A    between atoms: C3_3  and  C6_6 
ROOT
HETATM    1  C6  UNL     1       0.153   0.231   0.462  1.00  0.00     0.018 C 
HETATM    2  C7  UNL     1       1.351   0.091  -0.421  1.00  0.00     0.009 C 
HETATM    3  C8  UNL     1       2.414  -0.367   0.581  1.00  0.00     0.001 C 
HETATM    4  C9  UNL     1       1.633  -1.406   1.370  1.00  0.00     0.001 C 
HETATM    5  C10 UNL     1       0.230  -0.869   1.459  1.00  0.00     0.009 C 
ENDROOT
BRANCH   1   6
HETATM    6  C3  UNL     1      -1.139   0.333  -0.264  1.00  0.00    -0.059 C 
HETATM    7  C4  UNL     1      -1.790   1.492  -0.138  1.00  0.00    -0.024 C 
HETATM    8  C5  UNL     1      -1.262   2.583   0.661  1.00  0.00     0.036 C 
BRANCH   6   9
HETATM    9  C2  UNL     1      -1.724  -0.714  -1.077  1.00  0.00    -0.003 C 
HETATM   10  C1  UNL     1      -1.215  -1.871  -1.281  1.00  0.00     0.012 C 
ENDBRANCH   6   9
ENDBRANCH   1   6
TORSDOF 2
