REMARK  0 active torsions:
REMARK  status: ('A' for Active; 'I' for Inactive)
ROOT
HETATM    1  C1  UNL     1       0.242   1.565   0.206  1.00  0.00     0.010 C 
HETATM    2  C2  UNL     1      -0.511   0.487   1.017  1.00  0.00    -0.010 C 
HETATM    3  C3  UNL     1      -1.567   0.245  -0.083  1.00  0.00     0.010 C 
HETATM    4  C4  UNL     1      -0.528  -0.370  -1.049  1.00  0.00    -0.010 C 
HETATM    5  C5  UNL     1      -0.249  -1.561  -0.103  1.00  0.00     0.010 C 
HETATM    6  C6  UNL     1       0.436  -0.660   0.951  1.00  0.00    -0.010 C 
HETATM    7  C7  UNL     1       1.572  -0.248  -0.008  1.00  0.00     0.010 C 
HETATM    8  C8  UNL     1       0.618   0.567  -0.911  1.00  0.00    -0.010 C 
ENDROOT
TORSDOF 0
