REMARK  1 active torsions:
REMARK  status: ('A' for Active; 'I' for Inactive)
REMARK    1  A    between atoms: O1_1  and  C1_3 
ROOT
HETATM    1  C1  UNL     1       0.082   1.560  -0.239  1.00  0.00     0.118 C 
HETATM    2  C2  UNL     1      -1.290   0.976  -0.199  1.00  0.00     0.032 C 
HETATM    3  C3  UNL     1      -1.356  -0.313   0.567  1.00  0.00     0.002 C 
HETATM    4  C4  UNL     1      -0.740  -1.407  -0.229  1.00  0.00     0.000 C 
HETATM    5  C5  UNL     1       0.648  -1.225  -0.658  1.00  0.00     0.000 C 
HETATM    6  C6  UNL     1       1.548  -0.432   0.211  1.00  0.00     0.002 C 
HETATM    7  C7  UNL     1       1.069   0.886   0.661  1.00  0.00     0.032 C 
ENDROOT
BRANCH   1   8
HETATM    8  O1  UNL     1       0.631   1.633  -1.507  1.00  0.00    -0.396 OA
ATOM      9  H1  UNL     1       1.505   2.005  -1.532  1.00  0.00     0.210 HD
ENDBRANCH   1   8
TORSDOF 1
