REMARK  0 active torsions:
REMARK  status: ('A' for Active; 'I' for Inactive)
ROOT
HETATM    1  C1  UNL     1      -2.559  -0.486  -1.272  1.00  0.00     0.012 C 
HETATM    2  C2  UNL     1      -1.802  -0.540  -0.332  1.00  0.00    -0.113 C 
HETATM    3  C3  UNL     1      -0.867  -0.595   0.797  1.00  0.00     0.064 C 
HETATM    4  C4  UNL     1       0.383  -1.361   0.437  1.00  0.00     0.017 C 
HETATM    5  C5  UNL     1       1.187  -0.694  -0.639  1.00  0.00     0.001 C 
HETATM    6  C6  UNL     1       1.460   0.751  -0.393  1.00  0.00     0.000 C 
HETATM    7  C7  UNL     1       0.148   1.460  -0.104  1.00  0.00     0.001 C 
HETATM    8  C8  UNL     1      -0.404   0.822   1.169  1.00  0.00     0.017 C 
ENDROOT
TORSDOF 0
