REMARK  13 active torsions:
REMARK  status: ('A' for Active; 'I' for Inactive)
REMARK    1  A    between atoms: C3_3  and  C4_4 
REMARK    2  A    between atoms: C5_5  and  C6_6 
REMARK    3  A    between atoms: C8_8  and  C9_9 
REMARK    4  A    between atoms: C10_10  and  C11_11 
REMARK    5  A    between atoms: C11_11  and  C12_13 
REMARK    6  A    between atoms: C12_13  and  C13_14 
REMARK    7  A    between atoms: C15_16  and  C16_17 
REMARK    8  A    between atoms: C17_18  and  C18_19 
REMARK    9  A    between atoms: C18_19  and  O2_20 
REMARK   10  A    between atoms: C18_19  and  C19_22 
REMARK   11  A    between atoms: C19_22  and  O3_23 
REMARK   12  A    between atoms: C19_22  and  C20_25 
REMARK   13  A    between atoms: C20_25  and  O4_27 
ROOT
HETATM    1  C13 UNL     1      -0.590  -0.333  -1.063  1.00  0.00     0.001 A 
HETATM    2  C14 UNL     1      -1.095  -1.212  -2.118  1.00  0.00     0.014 A 
HETATM    3  C15 UNL     1      -2.018  -0.760  -0.947  1.00  0.00     0.013 A 
ENDROOT
BRANCH   1   4
HETATM    4  C12 UNL     1      -0.309   1.129  -1.250  1.00  0.00     0.088 C 
BRANCH   4   5
HETATM    5  C11 UNL     1       0.711   1.248  -2.320  1.00  0.00     0.149 C 
HETATM    6  O1  UNL     1       0.296   1.325  -3.523  1.00  0.00    -0.293 OA
BRANCH   5   7
HETATM    7  C10 UNL     1       2.130   1.282  -2.088  1.00  0.00     0.050 C 
HETATM    8  C9  UNL     1       2.641   1.197  -0.853  1.00  0.00     0.004 C 
BRANCH   8   9
HETATM    9  C8  UNL     1       4.087   1.235  -0.647  1.00  0.00     0.007 C 
HETATM   10  C6  UNL     1       4.601   1.150   0.578  1.00  0.00    -0.062 C 
HETATM   11  C7  UNL     1       3.686   1.008   1.723  1.00  0.00     0.048 C 
BRANCH  10  12
HETATM   12  C5  UNL     1       6.044   1.195   0.711  1.00  0.00     0.007 C 
HETATM   13  C4  UNL     1       6.687   1.123   1.848  1.00  0.00     0.000 C 
BRANCH  13  14
HETATM   14  C3  UNL     1       8.144   1.180   1.852  1.00  0.00    -0.004 C 
HETATM   15  C2  UNL     1       8.771   1.107   3.000  1.00  0.00    -0.031 C 
HETATM   16  C1  UNL     1       8.050   0.971   4.282  1.00  0.00     0.036 C 
ENDBRANCH  13  14
ENDBRANCH  10  12
ENDBRANCH   8   9
ENDBRANCH   5   7
ENDBRANCH   4   5
ENDBRANCH   1   4
BRANCH   3  17
HETATM   17  C16 UNL     1      -3.145   0.061  -1.391  1.00  0.00    -0.023 C 
HETATM   18  C17 UNL     1      -4.397  -0.328  -1.173  1.00  0.00     0.003 C 
BRANCH  18  19
HETATM   19  C18 UNL     1      -4.792  -1.579  -0.488  1.00  0.00     0.172 C 
BRANCH  19  20
HETATM   20  O2  UNL     1      -5.064  -1.345   0.844  1.00  0.00    -0.389 OA
ATOM     21  H2  UNL     1      -5.318  -2.148   1.284  1.00  0.00     0.210 HD
ENDBRANCH  19  20
BRANCH  19  22
HETATM   22  C19 UNL     1      -5.996  -2.227  -1.132  1.00  0.00     0.178 C 
BRANCH  22  23
HETATM   23  O3  UNL     1      -6.241  -3.422  -0.464  1.00  0.00    -0.390 OA
ATOM     24  H3  UNL     1      -6.998  -3.829  -0.869  1.00  0.00     0.210 HD
ENDBRANCH  22  23
BRANCH  22  25
HETATM   25  C20 UNL     1      -7.213  -1.366  -1.176  1.00  0.00     0.145 C 
HETATM   26  C21 UNL     1      -7.750  -1.146   0.228  1.00  0.00     0.042 C 
BRANCH  25  27
HETATM   27  O4  UNL     1      -8.242  -2.062  -1.853  1.00  0.00    -0.393 OA
ATOM     28  H4  UNL     1      -9.017  -1.514  -1.881  1.00  0.00     0.210 HD
ENDBRANCH  25  27
ENDBRANCH  22  25
ENDBRANCH  19  22
ENDBRANCH  18  19
ENDBRANCH   3  17
TORSDOF 13
