REMARK  11 active torsions:
REMARK  status: ('A' for Active; 'I' for Inactive)
REMARK    1  A    between atoms: C2_5  and  O2_6 
REMARK    2  A    between atoms: C3_11  and  C4_12 
REMARK    3  A    between atoms: C4_12  and  C5_13 
REMARK    4  A    between atoms: C6_14  and  C7_15 
REMARK    5  A    between atoms: C7_15  and  C8_16 
REMARK    6  A    between atoms: C8_16  and  C9_17 
REMARK    7  A    between atoms: C9_17  and  C10_18 
REMARK    8  A    between atoms: C10_18  and  C11_19 
REMARK    9  A    between atoms: C11_19  and  C12_20 
REMARK   10  A    between atoms: C12_20  and  S1_21 
REMARK   11  A    between atoms: S1_21  and  C13_22 
ROOT
HETATM    1  C5  UNL     1       4.614  -1.615  -0.395  1.00  0.00    -0.028 C 
HETATM    2  C6  UNL     1       3.682  -0.798   0.051  1.00  0.00    -0.031 C 
ENDROOT
BRANCH   2   3
HETATM    3  C7  UNL     1       2.240  -1.159  -0.190  1.00  0.00     0.027 C 
BRANCH   3   4
HETATM    4  C8  UNL     1       1.514  -1.303   1.106  1.00  0.00     0.004 C 
BRANCH   4   5
HETATM    5  C9  UNL     1       0.079  -1.676   0.858  1.00  0.00     0.000 C 
BRANCH   5   6
HETATM    6  C10 UNL     1      -0.634  -0.633   0.047  1.00  0.00     0.001 C 
BRANCH   6   7
HETATM    7  C11 UNL     1      -2.083  -1.028  -0.182  1.00  0.00     0.010 C 
BRANCH   7   8
HETATM    8  C12 UNL     1      -2.725   0.069  -1.002  1.00  0.00     0.074 C 
BRANCH   8   9
HETATM    9  S1  UNL     1      -4.467  -0.329  -1.324  1.00  0.00    -0.164 SA
BRANCH   9  10
HETATM   10  C13 UNL     1      -5.444  -0.326   0.203  1.00  0.00     0.047 C 
HETATM   11  C14 UNL     1      -6.859  -0.660  -0.133  1.00  0.00     0.015 C 
HETATM   12  C15 UNL     1      -7.857   0.386   0.273  1.00  0.00     0.001 C 
HETATM   13  C16 UNL     1      -7.491   1.773  -0.169  1.00  0.00     0.000 C 
HETATM   14  C17 UNL     1      -6.000   2.012  -0.171  1.00  0.00     0.001 C 
HETATM   15  C18 UNL     1      -5.307   1.067   0.814  1.00  0.00     0.015 C 
ENDBRANCH   9  10
ENDBRANCH   8   9
ENDBRANCH   7   8
ENDBRANCH   6   7
ENDBRANCH   5   6
ENDBRANCH   4   5
ENDBRANCH   3   4
ENDBRANCH   2   3
BRANCH   1  16
HETATM   16  C4  UNL     1       6.060  -1.384  -0.229  1.00  0.00     0.070 C 
BRANCH  16  17
HETATM   17  C3  UNL     1       6.397  -0.115   0.483  1.00  0.00     0.285 C 
HETATM   18  C1  UNL     1       7.898   0.012   0.612  1.00  0.00     0.252 C 
HETATM   19  O1  UNL     1       8.604  -0.928   1.002  1.00  0.00    -0.271 OA
HETATM   20  N1  UNL     1       8.244   1.333   0.218  1.00  0.00    -0.310 N 
HETATM   21  C2  UNL     1       7.015   2.032  -0.022  1.00  0.00     0.429 C 
ATOM     22  H1  UNL     1       9.186   1.712   0.124  1.00  0.00     0.166 HD
HETATM   23  N2  UNL     1       6.075   0.995  -0.406  1.00  0.00    -0.018 N 
ATOM     24  H22 UNL     1       5.097   1.284  -0.380  1.00  0.00     0.283 HD
ATOM     25  H21 UNL     1       6.093   0.758  -1.398  1.00  0.00     0.283 HD
BRANCH  21  26
HETATM   26  O2  UNL     1       7.144   3.007  -1.016  1.00  0.00    -0.354 OA
ATOM     27  H2  UNL     1       6.330   3.470  -1.175  1.00  0.00     0.214 HD
ENDBRANCH  21  26
ENDBRANCH  16  17
ENDBRANCH   1  16
TORSDOF 11
