REMARK  5 active torsions:
REMARK  status: ('A' for Active; 'I' for Inactive)
REMARK    1  A    between atoms: C6_6  and  C7_7 
REMARK    2  A    between atoms: C8_8  and  C9_9 
REMARK    3  A    between atoms: C10_10  and  C11_11 
REMARK    4  A    between atoms: C12_12  and  C13_13 
REMARK    5  A    between atoms: C15_17  and  C16_18 
ROOT
HETATM    1  C11 UNL     1      -0.563  -1.161  -0.172  1.00  0.00    -0.070 C 
HETATM    2  C12 UNL     1      -1.782  -1.286  -0.180  1.00  0.00    -0.035 C 
ENDROOT
BRANCH   2   3
HETATM    3  C13 UNL     1      -3.208  -1.419  -0.210  1.00  0.00     0.146 A 
HETATM    4  C14 UNL     1      -3.889  -2.600  -0.407  1.00  0.00     0.137 A 
HETATM    5  N1  UNL     1      -5.222  -2.304  -0.366  1.00  0.00    -0.343 N 
HETATM    6  C15 UNL     1      -5.316  -0.985  -0.151  1.00  0.00     0.159 A 
ATOM      7  H1  UNL     1      -5.995  -2.960  -0.477  1.00  0.00     0.167 HD
HETATM    8  O1  UNL     1      -4.120  -0.491  -0.063  1.00  0.00    -0.283 OA
BRANCH   6   9
HETATM    9  C16 UNL     1      -6.594  -0.260  -0.040  1.00  0.00     0.015 A 
HETATM   10  C17 UNL     1      -7.801  -0.915  -0.154  1.00  0.00     0.016 A 
HETATM   11  C18 UNL     1      -9.010  -0.249  -0.052  1.00  0.00     0.001 A 
HETATM   12  C19 UNL     1      -9.040   1.112   0.171  1.00  0.00     0.000 A 
HETATM   13  C20 UNL     1      -7.840   1.782   0.287  1.00  0.00     0.001 A 
HETATM   14  C21 UNL     1      -6.629   1.099   0.183  1.00  0.00     0.016 A 
ENDBRANCH   6   9
ENDBRANCH   2   3
BRANCH   1  15
HETATM   15  C10 UNL     1       0.860  -0.990  -0.166  1.00  0.00     0.073 C 
HETATM   16  C9  UNL     1       1.418   0.207  -0.144  1.00  0.00     0.073 C 
BRANCH  16  17
HETATM   17  C8  UNL     1       2.837   0.402  -0.138  1.00  0.00    -0.072 C 
HETATM   18  C7  UNL     1       4.030   0.586  -0.127  1.00  0.00    -0.062 C 
BRANCH  18  19
HETATM   19  C6  UNL     1       5.462   0.830  -0.103  1.00  0.00     0.018 A 
HETATM   20  C5  UNL     1       5.950   2.045  -0.537  1.00  0.00     0.020 A 
HETATM   21  C4  UNL     1       7.289   2.282  -0.518  1.00  0.00     0.002 A 
HETATM   22  C3  UNL     1       8.189   1.328  -0.070  1.00  0.00     0.007 A 
HETATM   23  C2  UNL     1       7.708   0.112   0.365  1.00  0.00    -0.061 A 
HETATM   24  C1  UNL     1       8.658  -0.912   0.844  1.00  0.00     0.048 C 
HETATM   25  C22 UNL     1       6.344  -0.130   0.345  1.00  0.00     0.027 A 
ENDBRANCH  18  19
ENDBRANCH  16  17
ENDBRANCH   1  15
TORSDOF 5
