REMARK  5 active torsions:
REMARK  status: ('A' for Active; 'I' for Inactive)
REMARK    1  A    between atoms: C2_2  and  C4_4 
REMARK    2  A    between atoms: C7_7  and  C8_8 
REMARK    3  A    between atoms: C9_9  and  C10_10 
REMARK    4  A    between atoms: C11_11  and  C12_12 
REMARK    5  A    between atoms: C13_13  and  C14_14 
ROOT
HETATM    1  C10 UNL     1       1.309  -0.914  -0.144  1.00  0.00     0.073 C 
HETATM    2  C11 UNL     1       2.180   0.014  -0.488  1.00  0.00     0.073 C 
ENDROOT
BRANCH   2   3
HETATM    3  C12 UNL     1       3.598  -0.158  -0.449  1.00  0.00    -0.072 C 
HETATM    4  C13 UNL     1       4.797  -0.290  -0.406  1.00  0.00    -0.060 C 
BRANCH   4   5
HETATM    5  C14 UNL     1       6.228  -0.422  -0.349  1.00  0.00     0.047 A 
HETATM    6  C15 UNL     1       6.891  -1.530  -0.838  1.00  0.00     0.023 A 
HETATM    7  C16 UNL     1       8.259  -1.667  -0.789  1.00  0.00     0.004 A 
HETATM    8  C17 UNL     1       8.993  -0.648  -0.224  1.00  0.00     0.040 A 
HETATM    9  C18 UNL     1       8.373   0.495   0.286  1.00  0.00     0.104 A 
HETATM   10  O1  UNL     1       8.802   1.573   0.854  1.00  0.00    -0.304 OA
HETATM   11  C20 UNL     1       6.992   0.580   0.210  1.00  0.00     0.086 A 
HETATM   12  C19 UNL     1       7.822   2.369   1.162  1.00  0.00     0.234 A 
HETATM   13  N1  UNL     1       6.672   1.765   0.766  1.00  0.00    -0.343 N 
ATOM     14  H1  UNL     1       5.730   2.142   0.871  1.00  0.00     0.167 HD
ENDBRANCH   4   5
ENDBRANCH   2   3
BRANCH   1  15
HETATM   15  C9  UNL     1      -0.109  -0.714  -0.192  1.00  0.00    -0.072 C 
HETATM   16  C8  UNL     1      -1.305  -0.524  -0.228  1.00  0.00    -0.062 C 
BRANCH  16  17
HETATM   17  C7  UNL     1      -2.720  -0.284  -0.263  1.00  0.00     0.018 A 
HETATM   18  C6  UNL     1      -3.403   0.020  -1.427  1.00  0.00     0.021 A 
HETATM   19  C5  UNL     1      -4.764   0.249  -1.447  1.00  0.00     0.009 A 
HETATM   20  C4  UNL     1      -5.494   0.179  -0.283  1.00  0.00    -0.055 A 
HETATM   21  C22 UNL     1      -4.817  -0.123   0.871  1.00  0.00     0.009 A 
HETATM   22  C21 UNL     1      -3.442  -0.354   0.894  1.00  0.00     0.021 A 
BRANCH  20  23
HETATM   23  C2  UNL     1      -6.957   0.424  -0.296  1.00  0.00     0.010 C 
HETATM   24  C1  UNL     1      -7.633  -0.863   0.138  1.00  0.00     0.015 C 
HETATM   25  C3  UNL     1      -7.346   1.571   0.607  1.00  0.00     0.015 C 
ENDBRANCH  20  23
ENDBRANCH  16  17
ENDBRANCH   1  15
TORSDOF 5
