REMARK  8 active torsions:
REMARK  status: ('A' for Active; 'I' for Inactive)
REMARK    1  A    between atoms: C4_6  and  C5_7 
REMARK    2  A    between atoms: C5_7  and  N2_8 
REMARK    3  A    between atoms: N2_8  and  C6_10 
REMARK    4  A    between atoms: C13_23  and  N6_24 
REMARK    5  A    between atoms: N6_24  and  C14_26 
REMARK    6  A    between atoms: C14_26  and  C15_27 
REMARK    7  A    between atoms: C15_27  and  N7_28 
REMARK    8  A    between atoms: N7_28  and  C16_30 
ROOT
HETATM    1  C6  UNL     1       3.871  -0.793  -0.434  1.00  0.00     0.678 A 
HETATM    2  N3  UNL     1       2.561  -0.654  -0.138  1.00  0.00    -0.190 N 
ATOM      3  H3  UNL     1       2.251   0.014   0.568  1.00  0.00     0.184 HD
HETATM    4  C7  UNL     1       1.682  -1.417  -0.796  1.00  0.00     0.070 A 
HETATM    5  C8  UNL     1       2.029  -2.339  -1.756  1.00  0.00    -0.014 A 
HETATM    6  C9  UNL     1       3.383  -2.472  -2.052  1.00  0.00     0.115 A 
HETATM    7  N4  UNL     1       4.235  -1.687  -1.371  1.00  0.00    -0.201 N 
ATOM      8  H4  UNL     1       5.230  -1.775  -1.580  1.00  0.00     0.183 HD
HETATM    9  C10 UNL     1       1.026  -3.180  -2.376  1.00  0.00     0.048 C 
HETATM   10  C11 UNL     1      -0.375  -2.719  -2.327  1.00  0.00     0.063 C 
HETATM   11  C12 UNL     1      -0.700  -1.858  -1.185  1.00  0.00     0.041 A 
HETATM   12  N5  UNL     1      -2.029  -1.671  -0.835  1.00  0.00    -0.195 N 
ATOM     13  H5  UNL     1      -2.754  -2.179  -1.342  1.00  0.00     0.184 HD
HETATM   14  C13 UNL     1      -2.383  -0.840   0.153  1.00  0.00     0.678 A 
HETATM   15  N9  UNL     1      -1.430  -0.169   0.822  1.00  0.00    -0.201 N 
ATOM     16  H9  UNL     1      -1.697   0.466   1.574  1.00  0.00     0.183 HD
HETATM   17  C21 UNL     1      -0.127  -0.322   0.515  1.00  0.00     0.121 A 
HETATM   18  C22 UNL     1       0.261  -1.178  -0.502  1.00  0.00     0.031 A 
ENDROOT
BRANCH  14  19
HETATM   19  N6  UNL     1      -3.643  -0.715   0.426  1.00  0.00    -0.224 N 
ATOM     20  H6  UNL     1      -4.316  -1.253  -0.120  1.00  0.00     0.177 HD
BRANCH  19  21
HETATM   21  C14 UNL     1      -4.138   0.154   1.471  1.00  0.00     0.157 C 
BRANCH  21  22
HETATM   22  C15 UNL     1      -4.323   1.526   0.832  1.00  0.00     0.140 C 
BRANCH  22  23
HETATM   23  N7  UNL     1      -5.270   1.401  -0.240  1.00  0.00    -0.388 N 
ATOM     24  H7  UNL     1      -4.924   1.284  -1.192  1.00  0.00     0.159 HD
BRANCH  23  25
HETATM   25  C16 UNL     1      -6.530   1.432  -0.041  1.00  0.00     0.030 A 
HETATM   26  C17 UNL     1      -7.053   1.588   1.209  1.00  0.00     0.046 A 
HETATM   27  C18 UNL     1      -8.451   1.610   1.325  1.00  0.00     0.089 A 
HETATM   28  N8  UNL     1      -9.259   1.485   0.265  1.00  0.00    -0.375 N 
HETATM   29  C19 UNL     1      -8.766   1.331  -0.972  1.00  0.00     0.089 A 
ATOM     30  H8  UNL     1     -10.270   1.507   0.401  1.00  0.00     0.164 HD
HETATM   31  C20 UNL     1      -7.405   1.305  -1.122  1.00  0.00     0.046 A 
ENDBRANCH  23  25
ENDBRANCH  22  23
ENDBRANCH  21  22
ENDBRANCH  19  21
ENDBRANCH  14  19
BRANCH   1  32
HETATM   32  N2  UNL     1       4.767  -0.065   0.188  1.00  0.00    -0.222 N 
ATOM     33  H2  UNL     1       4.490   0.612   0.899  1.00  0.00     0.178 HD
BRANCH  32  34
HETATM   34  C5  UNL     1       6.157  -0.247  -0.161  1.00  0.00     0.178 C 
BRANCH  34  35
HETATM   35  C4  UNL     1       7.036   0.695   0.581  1.00  0.00    -0.025 A 
HETATM   36  C3  UNL     1       7.586   0.384   1.807  1.00  0.00     0.096 A 
HETATM   37  N1  UNL     1       8.376   1.260   2.449  1.00  0.00    -0.375 N 
HETATM   38  C2  UNL     1       8.674   2.469   1.947  1.00  0.00     0.087 A 
ATOM     39  H1  UNL     1       8.765   0.996   3.354  1.00  0.00     0.164 HD
HETATM   40  C1  UNL     1       8.142   2.811   0.724  1.00  0.00     0.018 A 
HETATM   41  C23 UNL     1       7.329   1.932   0.044  1.00  0.00     0.011 A 
ENDBRANCH  34  35
ENDBRANCH  32  34
ENDBRANCH   1  32
TORSDOF 8
