REMARK  7 active torsions:
REMARK  status: ('A' for Active; 'I' for Inactive)
REMARK    1  A    between atoms: C4_7  and  N3_8 
REMARK    2  A    between atoms: C5_10  and  C6_11 
REMARK    3  A    between atoms: C6_11  and  N4_12 
REMARK    4  A    between atoms: N5_15  and  C9_16 
REMARK    5  A    between atoms: C17_26  and  N7_27 
REMARK    6  A    between atoms: N7_27  and  C18_29 
REMARK    7  A    between atoms: C21_32  and  O1_33 
ROOT
HETATM    1  N1  UNL     1      -6.185  -3.633  -0.235  1.00  0.00    -0.191 NA
HETATM    2  C1  UNL     1      -5.312  -2.857  -0.298  1.00  0.00     0.104 C 
HETATM    3  C2  UNL     1      -4.242  -1.910  -0.351  1.00  0.00     0.104 A 
HETATM    4  C3  UNL     1      -2.942  -2.299  -0.421  1.00  0.00     0.132 A 
HETATM    5  N2  UNL     1      -1.946  -1.366  -0.470  1.00  0.00    -0.200 N 
ATOM      6  H2  UNL     1      -0.980  -1.689  -0.522  1.00  0.00     0.183 HD
HETATM    7  C4  UNL     1      -2.176  -0.052  -0.453  1.00  0.00     0.683 A 
HETATM    8  N6  UNL     1      -3.505   0.319  -0.381  1.00  0.00    -0.175 N 
ATOM      9  H6  UNL     1      -3.729   1.314  -0.364  1.00  0.00     0.186 HD
HETATM   10  C17 UNL     1      -4.493  -0.541  -0.333  1.00  0.00     0.139 A 
ENDROOT
BRANCH  10  11
HETATM   11  N7  UNL     1      -5.730  -0.198  -0.268  1.00  0.00    -0.370 N 
ATOM     12  H7  UNL     1      -6.407  -0.960  -0.236  1.00  0.00     0.161 HD
BRANCH  11  13
HETATM   13  C18 UNL     1      -6.266   1.120  -0.236  1.00  0.00     0.083 C 
HETATM   14  C19 UNL     1      -6.765   1.482   1.170  1.00  0.00     0.028 C 
HETATM   15  C20 UNL     1      -7.638   0.375   1.710  1.00  0.00     0.034 C 
HETATM   16  C21 UNL     1      -8.733  -0.039   0.789  1.00  0.00     0.118 C 
HETATM   17  C22 UNL     1      -8.346  -0.091  -0.659  1.00  0.00     0.034 C 
HETATM   18  C23 UNL     1      -7.538   1.099  -1.097  1.00  0.00     0.028 C 
BRANCH  16  19
HETATM   19  O1  UNL     1      -9.111  -1.351   1.161  1.00  0.00    -0.396 OA
ATOM     20  H1  UNL     1      -9.809  -1.615   0.574  1.00  0.00     0.210 HD
ENDBRANCH  16  19
ENDBRANCH  11  13
ENDBRANCH  10  11
BRANCH   7  21
HETATM   21  N3  UNL     1      -1.338   0.836  -0.497  1.00  0.00    -0.203 N 
HETATM   22  C5  UNL     1      -0.011   1.109  -0.570  1.00  0.00     0.109 C 
ATOM     23  H3  UNL     1      -1.833   1.727  -0.467  1.00  0.00     0.183 HD
BRANCH  22  24
HETATM   24  C6  UNL     1       0.989  -0.045  -0.482  1.00  0.00     0.318 C 
BRANCH  24  25
HETATM   25  N4  UNL     1       2.301   0.559  -0.583  1.00  0.00     0.102 N 
HETATM   26  C7  UNL     1       2.673   1.368   0.541  1.00  0.00     0.318 C 
HETATM   27  C8  UNL     1       4.165   1.409   0.748  1.00  0.00     0.093 C 
HETATM   28  N5  UNL     1       4.816   0.165   0.828  1.00  0.00    -0.366 N 
HETATM   29  C15 UNL     1       4.201  -0.849   0.081  1.00  0.00     0.093 C 
HETATM   30  C16 UNL     1       3.341  -0.330  -1.012  1.00  0.00     0.318 C 
BRANCH  28  31
HETATM   31  C9  UNL     1       6.229   0.284   0.777  1.00  0.00     0.088 C 
HETATM   32  C10 UNL     1       6.783   0.861  -0.501  1.00  0.00     0.026 C 
HETATM   33  C11 UNL     1       7.790  -0.079  -1.164  1.00  0.00     0.002 C 
HETATM   34  C12 UNL     1       8.940  -0.386  -0.256  1.00  0.00     0.000 C 
HETATM   35  C13 UNL     1       8.442  -0.626   1.149  1.00  0.00     0.002 C 
HETATM   36  C14 UNL     1       6.962  -1.015   1.032  1.00  0.00     0.026 C 
ENDBRANCH  28  31
ENDBRANCH  24  25
ENDBRANCH  22  24
ENDBRANCH   7  21
TORSDOF 7
