REMARK  5 active torsions:
REMARK  status: ('A' for Active; 'I' for Inactive)
REMARK       I    between atoms: C1_2  and  N2_4 
REMARK    1  A    between atoms: C3_9  and  N4_10 
REMARK    2  A    between atoms: C9_18  and  N6_19 
REMARK    3  A    between atoms: N6_19  and  C10_21 
REMARK    4  A    between atoms: C13_24  and  C14_25 
REMARK    5  A    between atoms: C14_25  and  N7_26 
ROOT
HETATM    1  N1  UNL     1      -1.747  -4.983  -1.260  1.00  0.00    -0.039 NA
HETATM    2  C1  UNL     1      -1.780  -3.609  -1.725  1.00  0.00     0.346 C 
HETATM    3  O1  UNL     1      -0.775  -3.244  -2.347  1.00  0.00    -0.250 OA
HETATM    4  N2  UNL     1      -2.923  -2.884  -1.417  1.00  0.00    -0.142 N 
ATOM      5  H2  UNL     1      -3.823  -3.340  -1.569  1.00  0.00     0.188 HD
HETATM    6  C2  UNL     1      -2.938  -1.695  -0.960  1.00  0.00     0.715 A 
HETATM    7  N3  UNL     1      -4.158  -1.107  -0.706  1.00  0.00    -0.021 N 
ATOM      8  H3  UNL     1      -5.007  -1.643  -0.883  1.00  0.00     0.203 HD
HETATM    9  C3  UNL     1      -4.271   0.134  -0.238  1.00  0.00     0.709 A 
HETATM   10  N5  UNL     1      -3.126   0.811  -0.014  1.00  0.00    -0.021 N 
ATOM     11  H5  UNL     1      -3.181   1.764   0.346  1.00  0.00     0.203 HD
HETATM   12  C9  UNL     1      -1.920   0.279  -0.247  1.00  0.00     0.707 A 
HETATM   13  N8  UNL     1      -1.846  -0.973  -0.718  1.00  0.00    -0.021 N 
ATOM     14  H8  UNL     1      -0.929  -1.384  -0.896  1.00  0.00     0.203 HD
ENDROOT
BRANCH  12  15
HETATM   15  N6  UNL     1      -0.867   0.967  -0.022  1.00  0.00    -0.220 N 
ATOM     16  H6  UNL     1      -0.988   1.915   0.333  1.00  0.00     0.178 HD
BRANCH  15  17
HETATM   17  C10 UNL     1       0.461   0.504  -0.232  1.00  0.00     0.099 C 
HETATM   18  C11 UNL     1       0.989  -0.429   0.822  1.00  0.00     0.026 C 
HETATM   19  C12 UNL     1       2.111  -1.213   0.180  1.00  0.00     0.008 C 
HETATM   20  C13 UNL     1       3.194  -0.186  -0.183  1.00  0.00     0.014 C 
HETATM   21  C19 UNL     1       2.830   1.213   0.159  1.00  0.00     0.008 C 
HETATM   22  C20 UNL     1       1.470   1.634  -0.329  1.00  0.00     0.026 C 
BRANCH  20  23
HETATM   23  C14 UNL     1       4.411  -0.595   0.608  1.00  0.00     0.277 C 
BRANCH  23  24
HETATM   24  N7  UNL     1       5.563   0.211   0.467  1.00  0.00     0.090 N 
HETATM   25  C15 UNL     1       6.587  -0.334   1.336  1.00  0.00     0.282 C 
HETATM   26  C16 UNL     1       7.936   0.274   1.123  1.00  0.00     0.104 C 
HETATM   27  S1  UNL     1       8.502  -0.342  -0.518  1.00  0.00    -0.166 SA
HETATM   28  C17 UNL     1       6.919  -0.711  -1.386  1.00  0.00     0.104 C 
HETATM   29  C18 UNL     1       5.970   0.376  -0.875  1.00  0.00     0.282 C 
ENDBRANCH  23  24
ENDBRANCH  20  23
ENDBRANCH  15  17
ENDBRANCH  12  15
BRANCH   9  30
HETATM   30  N4  UNL     1      -5.515   0.762   0.031  1.00  0.00    -0.217 N 
HETATM   31  C4  UNL     1      -6.022   0.731   1.382  1.00  0.00     0.141 C 
HETATM   32  C5  UNL     1      -6.805   1.968   1.729  1.00  0.00     0.020 C 
HETATM   33  C6  UNL     1      -6.427   3.056   0.749  1.00  0.00     0.003 C 
HETATM   34  C7  UNL     1      -6.971   2.627  -0.610  1.00  0.00     0.020 C 
HETATM   35  C8  UNL     1      -6.212   1.399  -1.065  1.00  0.00     0.141 C 
ENDBRANCH   9  30
TORSDOF 5
