REMARK  10 active torsions:
REMARK  status: ('A' for Active; 'I' for Inactive)
REMARK    1  A    between atoms: C2_2  and  C3_3 
REMARK    2  A    between atoms: C7_11  and  O1_12 
REMARK    3  A    between atoms: O1_12  and  C8_13 
REMARK    4  A    between atoms: C8_13  and  C9_14 
REMARK    5  A    between atoms: C9_14  and  O2_17 
REMARK    6  A    between atoms: C12_19  and  O3_20 
REMARK    7  A    between atoms: C12_19  and  C13_22 
REMARK    8  A    between atoms: C15_26  and  C16_27 
REMARK    9  A    between atoms: C17_28  and  C18_29 
REMARK   10  A    between atoms: C18_29  and  O4_32 
ROOT
HETATM    1  C3  UNL     1      -4.406   2.367   0.066  1.00  0.00     0.037 A 
HETATM    2  N1  UNL     1      -4.778   3.077   1.143  1.00  0.00    -0.304 N 
ATOM      3  H1  UNL     1      -5.616   3.655   1.201  1.00  0.00     0.186 HD
HETATM    4  N2  UNL     1      -3.890   2.916   2.128  1.00  0.00    -0.300 N 
ATOM      5  H2  UNL     1      -3.939   3.346   3.052  1.00  0.00     0.187 HD
HETATM    6  C4  UNL     1      -2.933   2.101   1.701  1.00  0.00     0.056 A 
HETATM    7  C5  UNL     1      -3.211   1.705   0.384  1.00  0.00     0.014 A 
HETATM    8  C6  UNL     1      -2.626   0.881  -0.441  1.00  0.00     0.024 C 
HETATM    9  C7  UNL     1      -1.323   0.118  -0.126  1.00  0.00     0.186 C 
HETATM   10  C12 UNL     1      -0.443   1.122   0.579  1.00  0.00     0.139 C 
HETATM   11  C21 UNL     1      -0.705   0.918   2.072  1.00  0.00     0.077 C 
HETATM   12  C22 UNL     1      -1.841   1.782   2.412  1.00  0.00     0.008 C 
ENDROOT
BRANCH  10  13
HETATM   13  O3  UNL     1      -0.781   2.438   0.290  1.00  0.00    -0.380 OA
ATOM     14  H3  UNL     1      -0.227   3.070   0.734  1.00  0.00     0.211 HD
ENDBRANCH  10  13
BRANCH  10  15
HETATM   15  C13 UNL     1       1.000   0.970   0.285  1.00  0.00     0.090 A 
HETATM   16  N3  UNL     1       1.802   1.799  -0.361  1.00  0.00    -0.359 N 
HETATM   17  C14 UNL     1       3.062   1.530  -0.491  1.00  0.00     0.116 A 
ATOM     18  H3  UNL     1       1.425   2.658  -0.761  1.00  0.00     0.165 HD
HETATM   19  C15 UNL     1       3.527   0.366   0.057  1.00  0.00     0.075 A 
HETATM   20  S1  UNL     1       2.100  -0.287   0.743  1.00  0.00    -0.063 SA
BRANCH  19  21
HETATM   21  C16 UNL     1       4.880  -0.164   0.076  1.00  0.00    -0.055 C 
HETATM   22  C17 UNL     1       6.001  -0.591   0.125  1.00  0.00    -0.063 C 
BRANCH  22  23
HETATM   23  C18 UNL     1       7.378  -1.132   0.219  1.00  0.00     0.114 C 
HETATM   24  C19 UNL     1       8.318  -0.333  -0.676  1.00  0.00     0.060 C 
HETATM   25  C20 UNL     1       7.320  -2.533  -0.308  1.00  0.00     0.060 C 
BRANCH  23  26
HETATM   26  O4  UNL     1       7.814  -1.115   1.538  1.00  0.00    -0.378 OA
ATOM     27  H4  UNL     1       8.696  -1.462   1.598  1.00  0.00     0.211 HD
ENDBRANCH  23  26
ENDBRANCH  22  23
ENDBRANCH  19  21
ENDBRANCH  10  15
BRANCH   9  28
HETATM   28  O1  UNL     1      -1.771  -0.809   0.768  1.00  0.00    -0.376 OA
BRANCH  28  29
HETATM   29  C8  UNL     1      -1.896  -2.093   0.660  1.00  0.00     0.205 C 
BRANCH  29  30
HETATM   30  C9  UNL     1      -2.840  -2.577  -0.389  1.00  0.00     0.072 C 
HETATM   31  C10 UNL     1      -2.279  -2.477  -1.754  1.00  0.00     0.047 C 
HETATM   32  C11 UNL     1      -3.178  -4.067  -0.136  1.00  0.00     0.047 C 
BRANCH  30  33
HETATM   33  O2  UNL     1      -4.099  -1.961  -0.267  1.00  0.00    -0.388 OA
ATOM     34  H2  UNL     1      -4.700  -2.269  -0.935  1.00  0.00     0.210 HD
ENDBRANCH  30  33
ENDBRANCH  29  30
ENDBRANCH  28  29
ENDBRANCH   9  28
BRANCH   1  35
HETATM   35  C2  UNL     1      -5.106   2.385  -1.239  1.00  0.00     0.055 C 
HETATM   36  C1  UNL     1      -4.579   3.538  -2.100  1.00  0.00     0.011 C 
ENDBRANCH   1  35
TORSDOF 10
