REMARK  5 active torsions:
REMARK  status: ('A' for Active; 'I' for Inactive)
REMARK       I    between atoms: C3_3  and  N1_5 
REMARK    1  A    between atoms: N1_5  and  S1_7 
REMARK    2  A    between atoms: S1_7  and  C4_10 
REMARK    3  A    between atoms: C7_15  and  C8_16 
REMARK    4  A    between atoms: C13_25  and  N5_26 
REMARK    5  A    between atoms: N5_26  and  C14_28 
ROOT
HETATM    1  C1  UNL     1       8.329   2.346  -0.608  1.00  0.00     0.022 C 
HETATM    2  C2  UNL     1       7.182   2.532  -0.280  1.00  0.00    -0.016 C 
HETATM    3  C3  UNL     1       5.832   2.771   0.123  1.00  0.00     0.309 C 
HETATM    4  O1  UNL     1       5.523   3.708   0.897  1.00  0.00    -0.257 OA
HETATM    5  N1  UNL     1       4.798   1.932  -0.359  1.00  0.00    -0.239 N 
ATOM      6  H1  UNL     1       5.048   1.170  -0.989  1.00  0.00     0.182 HD
ENDROOT
BRANCH   5   7
HETATM    7  S1  UNL     1       3.146   2.132   0.062  1.00  0.00     0.268 S 
HETATM    8  O2  UNL     1       2.952   2.725   1.414  1.00  0.00    -0.200 OA
HETATM    9  O3  UNL     1       2.504   2.986  -1.012  1.00  0.00    -0.200 OA
BRANCH   7  10
HETATM   10  C4  UNL     1       2.355   0.550  -0.028  1.00  0.00     0.107 A 
HETATM   11  C5  UNL     1       2.929  -0.651  -0.374  1.00  0.00     0.114 A 
HETATM   12  N2  UNL     1       2.010  -1.598  -0.322  1.00  0.00    -0.363 N 
HETATM   13  C6  UNL     1       0.842  -1.054   0.050  1.00  0.00     0.055 A 
ATOM     14  H2  UNL     1       2.164  -2.584  -0.531  1.00  0.00     0.165 HD
HETATM   15  C7  UNL     1      -0.405  -1.629   0.248  1.00  0.00     0.007 A 
HETATM   16  C20 UNL     1       1.036   0.303   0.241  1.00  0.00     0.018 A 
HETATM   17  C12 UNL     1      -1.434  -0.802   0.642  1.00  0.00     0.044 A 
HETATM   18  C13 UNL     1      -1.270   0.544   0.839  1.00  0.00     0.035 A 
HETATM   19  C19 UNL     1      -0.027   1.089   0.635  1.00  0.00     0.044 A 
BRANCH  15  20
HETATM   20  C8  UNL     1      -0.605  -3.056   0.031  1.00  0.00     0.007 A 
HETATM   21  C9  UNL     1      -0.171  -3.703  -1.097  1.00  0.00     0.102 A 
HETATM   22  N3  UNL     1      -0.388  -5.020  -1.225  1.00  0.00    -0.361 N 
HETATM   23  C10 UNL     1      -1.026  -5.759  -0.281  1.00  0.00     0.180 A 
ATOM     24  H3  UNL     1      -0.059  -5.488  -2.070  1.00  0.00     0.166 HD
HETATM   25  N4  UNL     1      -1.450  -5.118   0.825  1.00  0.00    -0.361 N 
HETATM   26  C11 UNL     1      -1.264  -3.806   1.012  1.00  0.00     0.102 A 
ATOM     27  H4  UNL     1      -1.931  -5.653   1.548  1.00  0.00     0.166 HD
ENDBRANCH  15  20
BRANCH  18  28
HETATM   28  N5  UNL     1      -2.332   1.347   1.241  1.00  0.00    -0.342 N 
ATOM     29  H5  UNL     1      -2.155   1.899   2.081  1.00  0.00     0.167 HD
BRANCH  28  30
HETATM   30  C14 UNL     1      -3.479   1.505   0.737  1.00  0.00     0.105 A 
HETATM   31  C15 UNL     1      -3.965   0.884  -0.390  1.00  0.00     0.048 A 
HETATM   32  C16 UNL     1      -5.252   1.115  -0.878  1.00  0.00     0.005 A 
HETATM   33  C17 UNL     1      -6.077   1.994  -0.218  1.00  0.00     0.017 A 
HETATM   34  C18 UNL     1      -5.576   2.609   0.909  1.00  0.00     0.089 A 
HETATM   35  N6  UNL     1      -4.343   2.368   1.350  1.00  0.00    -0.352 N 
ATOM     36  H6  UNL     1      -4.027   2.853   2.190  1.00  0.00     0.166 HD
ENDBRANCH  28  30
ENDBRANCH  18  28
ENDBRANCH   7  10
ENDBRANCH   5   7
TORSDOF 5
