REMARK  12 active torsions:
REMARK  status: ('A' for Active; 'I' for Inactive)
REMARK    1  A    between atoms: C2_7  and  C3_8 
REMARK    2  A    between atoms: C3_8  and  N4_9 
REMARK    3  A    between atoms: C5_11  and  C6_12 
REMARK    4  A    between atoms: C6_12  and  N5_13 
REMARK    5  A    between atoms: N5_13  and  C7_15 
REMARK    6  A    between atoms: C8_18  and  N7_19 
REMARK    7  A    between atoms: C10_26  and  N10_27 
REMARK    8  A    between atoms: C11_28  and  O1_29 
REMARK    9  A    between atoms: C12_31  and  C13_32 
REMARK   10  A    between atoms: C13_32  and  N11_33 
REMARK   11  A    between atoms: C13_32  and  O2_37 
REMARK   12  A    between atoms: C14_41  and  N13_42 
ROOT
HETATM    1  C7  UNL     1      -1.127   2.028  -0.466  1.00  0.00     0.148 A 
HETATM    2  N6  UNL     1      -0.683   3.238  -0.092  1.00  0.00    -0.175 N 
ATOM      3  H6  UNL     1       0.029   3.706  -0.653  1.00  0.00     0.186 HD
HETATM    4  C8  UNL     1      -1.163   3.847   1.015  1.00  0.00     0.678 A 
HETATM    5  N8  UNL     1      -2.102   3.225   1.751  1.00  0.00    -0.177 N 
ATOM      6  H8  UNL     1      -2.468   3.680   2.587  1.00  0.00     0.185 HD
HETATM    7  C9  UNL     1      -2.566   2.010   1.399  1.00  0.00     0.163 A 
HETATM    8  N9  UNL     1      -3.547   1.375   2.180  1.00  0.00    -0.080 NA
HETATM    9  C10 UNL     1      -2.098   1.363   0.277  1.00  0.00     0.145 A 
ENDROOT
BRANCH   1  10
HETATM   10  N5  UNL     1      -0.689   1.431  -1.512  1.00  0.00    -0.368 N 
ATOM     11  H5  UNL     1      -1.047   0.511  -1.769  1.00  0.00     0.161 HD
BRANCH  10  12
HETATM   12  C6  UNL     1       0.319   2.078  -2.324  1.00  0.00     0.181 C 
BRANCH  12  13
HETATM   13  C5  UNL     1       1.681   1.985  -1.741  1.00  0.00     0.062 A 
HETATM   14  C4  UNL     1       2.092   1.234  -0.669  1.00  0.00     0.140 A 
HETATM   15  N4  UNL     1       3.409   1.463  -0.488  1.00  0.00    -0.280 N 
HETATM   16  N15 UNL     1       3.766   2.323  -1.423  1.00  0.00    -0.240 N 
HETATM   17  N14 UNL     1       2.747   2.652  -2.187  1.00  0.00    -0.287 N 
ATOM     18  H15 UNL     1       4.712   2.686  -1.539  1.00  0.00     0.208 HD
ATOM     19  H14 UNL     1       2.768   3.298  -2.976  1.00  0.00     0.188 HD
BRANCH  15  20
HETATM   20  C3  UNL     1       4.250   0.866   0.538  1.00  0.00     0.229 C 
BRANCH  20  21
HETATM   21  C2  UNL     1       4.874  -0.397   0.076  1.00  0.00     0.133 A 
HETATM   22  N3  UNL     1       6.064  -0.458  -0.544  1.00  0.00    -0.271 N 
HETATM   23  N2  UNL     1       6.373  -1.699  -0.841  1.00  0.00    -0.225 N 
ATOM     24  H3  UNL     1       6.649   0.351  -0.756  1.00  0.00     0.190 HD
HETATM   25  N1  UNL     1       5.374  -2.454  -0.411  1.00  0.00    -0.223 N 
ATOM     26  H2  UNL     1       7.219  -2.019  -1.312  1.00  0.00     0.210 HD
HETATM   27  C1  UNL     1       5.352  -3.895  -0.559  1.00  0.00     0.202 C 
HETATM   28  N16 UNL     1       4.447  -1.671   0.153  1.00  0.00    -0.269 N 
ATOM     29  H16 UNL     1       3.570  -1.985   0.569  1.00  0.00     0.190 HD
ENDBRANCH  20  21
ENDBRANCH  15  20
ENDBRANCH  12  13
ENDBRANCH  10  12
ENDBRANCH   1  10
BRANCH   9  30
HETATM   30  N10 UNL     1      -2.532   0.089  -0.169  1.00  0.00    -0.117 N 
HETATM   31  C11 UNL     1      -2.155  -1.126   0.270  1.00  0.00     0.191 A 
HETATM   32  C12 UNL     1      -2.803  -2.125  -0.412  1.00  0.00     0.134 A 
HETATM   33  N12 UNL     1      -3.597  -1.502  -1.291  1.00  0.00    -0.186 N 
HETATM   34  C14 UNL     1      -3.443  -0.173  -1.155  1.00  0.00     0.685 A 
ATOM     35  H12 UNL     1      -4.219  -1.961  -1.957  1.00  0.00     0.184 HD
BRANCH  31  36
HETATM   36  O1  UNL     1      -1.235  -1.358   1.277  1.00  0.00    -0.344 OA
ATOM     37  H1  UNL     1      -0.969  -2.216   1.587  1.00  0.00     0.219 HD
ENDBRANCH  31  36
BRANCH  32  38
HETATM   38  C13 UNL     1      -2.679  -3.596  -0.241  1.00  0.00     0.372 C 
BRANCH  38  39
HETATM   39  N11 UNL     1      -4.029  -4.171  -0.238  1.00  0.00    -0.047 N 
ATOM     40 3H11 UNL     1      -4.637  -3.743   0.460  1.00  0.00     0.277 HD
ATOM     41 2H11 UNL     1      -4.568  -3.915  -1.065  1.00  0.00     0.277 HD
ATOM     42 1H11 UNL     1      -3.944  -5.181  -0.121  1.00  0.00     0.277 HD
ENDBRANCH  38  39
BRANCH  38  43
HETATM   43  O2  UNL     1      -2.126  -3.895   0.993  1.00  0.00    -0.365 OA
ATOM     44  H2  UNL     1      -2.047  -4.835   1.102  1.00  0.00     0.212 HD
ENDBRANCH  38  43
ENDBRANCH  32  38
BRANCH  34  45
HETATM   45  N13 UNL     1      -4.072   0.685  -1.864  1.00  0.00    -0.234 N 
ATOM     46 2H13 UNL     1      -3.955   1.693  -1.761  1.00  0.00     0.174 HD
ATOM     47 1H13 UNL     1      -4.751   0.490  -2.599  1.00  0.00     0.174 HD
ENDBRANCH  34  45
ENDBRANCH   9  30
BRANCH   4  48
HETATM   48  N7  UNL     1      -0.726   5.020   1.371  1.00  0.00    -0.234 N 
ATOM     49  H72 UNL     1      -0.014   5.492   0.813  1.00  0.00     0.174 HD
ATOM     50  H71 UNL     1      -1.088   5.480   2.206  1.00  0.00     0.174 HD
ENDBRANCH   4  48
TORSDOF 12
