REMARK  10 active torsions:
REMARK  status: ('A' for Active; 'I' for Inactive)
REMARK    1  A    between atoms: N1_2  and  O1_3 
REMARK    2  A    between atoms: N1_2  and  C2_5 
REMARK    3  A    between atoms: C3_8  and  N3_9 
REMARK    4  A    between atoms: N3_9  and  C4_11 
REMARK    5  A    between atoms: C5_14  and  N5_15 
REMARK    6  A    between atoms: N5_15  and  N6_17 
REMARK    7  A    between atoms: N6_17  and  C6_19 
REMARK    8  A    between atoms: C9_30  and  C10_31 
REMARK    9  A    between atoms: C10_31  and  C11_32 
REMARK   10  A    between atoms: C13_40  and  N16_41 
ROOT
HETATM    1  C11 UNL     1      -5.242   1.089   0.213  1.00  0.00     0.104 C 
HETATM    2  N12 UNL     1      -5.330   2.495   0.426  1.00  0.00    -0.087 NA
HETATM    3  N13 UNL     1      -6.272   0.362   0.452  1.00  0.00    -0.285 N 
ATOM      4  H13 UNL     1      -6.235  -0.647   0.305  1.00  0.00     0.179 HD
HETATM    5  C12 UNL     1      -7.440   0.961   0.913  1.00  0.00     0.182 C 
HETATM    6  N14 UNL     1      -8.409   1.468   1.276  1.00  0.00    -0.172 NA
ENDROOT
BRANCH   1   7
HETATM    7  C10 UNL     1      -3.962   0.470  -0.288  1.00  0.00     0.106 C 
BRANCH   7   8
HETATM    8  C9  UNL     1      -4.123  -1.013  -0.411  1.00  0.00     0.160 C 
HETATM    9  C6  UNL     1      -2.939  -1.714  -0.893  1.00  0.00     0.122 C 
HETATM   10  N7  UNL     1      -2.781  -2.994  -0.964  1.00  0.00    -0.317 N 
HETATM   11  C7  UNL     1      -3.699  -4.049  -0.591  1.00  0.00     0.196 C 
ATOM     12  H7  UNL     1      -1.883  -3.305  -1.335  1.00  0.00     0.170 HD
HETATM   13  N8  UNL     1      -3.573  -5.277  -1.302  1.00  0.00    -0.063 NA
HETATM   14  N9  UNL     1      -4.633  -3.999   0.332  1.00  0.00    -0.305 N 
HETATM   15  C8  UNL     1      -4.862  -2.815   1.127  1.00  0.00     0.191 C 
ATOM     16  H9  UNL     1      -5.214  -4.822   0.492  1.00  0.00     0.171 HD
HETATM   17  N10 UNL     1      -5.409  -3.010   2.448  1.00  0.00    -0.063 NA
HETATM   18  N11 UNL     1      -4.642  -1.599   0.794  1.00  0.00    -0.352 N 
ATOM     19  H11 UNL     1      -4.879  -0.920   1.518  1.00  0.00     0.163 HD
BRANCH   9  20
HETATM   20  N6  UNL     1      -1.815  -0.924  -1.351  1.00  0.00    -0.273 N 
ATOM     21  H6  UNL     1      -1.914  -0.340  -2.182  1.00  0.00     0.189 HD
BRANCH  20  22
HETATM   22  N5  UNL     1      -0.596  -0.952  -0.668  1.00  0.00    -0.130 N 
ATOM     23  H5  UNL     1      -0.229  -1.822  -0.283  1.00  0.00     0.205 HD
BRANCH  22  24
HETATM   24  C5  UNL     1       0.122   0.278  -0.526  1.00  0.00     0.726 A 
HETATM   25  N4  UNL     1       1.305   0.337   0.112  1.00  0.00    -0.020 N 
HETATM   26  C4  UNL     1       1.980   1.490   0.245  1.00  0.00     0.713 A 
ATOM     27  H4  UNL     1       1.700  -0.517   0.505  1.00  0.00     0.203 HD
HETATM   28  N17 UNL     1       1.476   2.611  -0.264  1.00  0.00    -0.021 N 
HETATM   29  C13 UNL     1       0.303   2.598  -0.906  1.00  0.00     0.705 A 
ATOM     30  H17 UNL     1       1.988   3.487  -0.164  1.00  0.00     0.203 HD
HETATM   31  N15 UNL     1      -0.353   1.430  -1.026  1.00  0.00    -0.020 N 
ATOM     32  H15 UNL     1      -1.247   1.419  -1.517  1.00  0.00     0.203 HD
BRANCH  26  33
HETATM   33  N3  UNL     1       3.239   1.562   0.923  1.00  0.00    -0.175 N 
ATOM     34  H3  UNL     1       3.299   1.967   1.857  1.00  0.00     0.186 HD
BRANCH  33  35
HETATM   35  C3  UNL     1       4.284   1.115   0.348  1.00  0.00     0.138 A 
HETATM   36  N2  UNL     1       5.451   1.208   1.038  1.00  0.00    -0.174 N 
HETATM   37  C2  UNL     1       6.575   0.750   0.471  1.00  0.00     0.705 A 
ATOM     38  H2  UNL     1       5.471   1.619   1.971  1.00  0.00     0.186 HD
HETATM   39  N18 UNL     1       6.567   0.200  -0.766  1.00  0.00    -0.200 N 
HETATM   40  C15 UNL     1       5.436   0.092  -1.473  1.00  0.00     0.110 A 
ATOM     41  H18 UNL     1       7.441  -0.139  -1.167  1.00  0.00     0.183 HD
HETATM   42  C14 UNL     1       4.270   0.560  -0.903  1.00  0.00     0.067 A 
BRANCH  37  43
HETATM   43  N1  UNL     1       7.806   0.834   1.167  1.00  0.00    -0.095 N 
HETATM   44  C1  UNL     1       8.643   2.002   1.023  1.00  0.00     0.205 C 
BRANCH  43  45
HETATM   45  O1  UNL     1       8.201  -0.170   1.964  1.00  0.00    -0.274 OA
ATOM     46  H1  UNL     1       7.650  -0.938   2.059  1.00  0.00     0.245 HD
ENDBRANCH  43  45
ENDBRANCH  37  43
ENDBRANCH  33  35
ENDBRANCH  26  33
BRANCH  29  47
HETATM   47  N16 UNL     1      -0.215   3.676  -1.415  1.00  0.00    -0.234 N 
ATOM     48 2H16 UNL     1      -1.110   3.666  -1.905  1.00  0.00     0.174 HD
ATOM     49 1H16 UNL     1       0.282   4.562  -1.324  1.00  0.00     0.174 HD
ENDBRANCH  29  47
ENDBRANCH  22  24
ENDBRANCH  20  22
ENDBRANCH   9  20
ENDBRANCH   7   8
ENDBRANCH   1   7
TORSDOF 10
