REMARK  16 active torsions:
REMARK  status: ('A' for Active; 'I' for Inactive)
REMARK    1  A    between atoms: C2_2  and  C4_4 
REMARK    2  A    between atoms: C4_4  and  C5_5 
REMARK    3  A    between atoms: C5_5  and  O1_6 
REMARK    4  A    between atoms: C5_5  and  C6_8 
REMARK    5  A    between atoms: C6_8  and  N1_9 
REMARK    6  A    between atoms: C6_8  and  C28_41 
REMARK       I    between atoms: N1_9  and  C7_11 
REMARK    7  A    between atoms: C7_11  and  C8_13 
REMARK    8  A    between atoms: C8_13  and  C9_14 
REMARK    9  A    between atoms: C9_14  and  N2_15 
REMARK   10  A    between atoms: C9_14  and  C10_19 
REMARK   11  A    between atoms: C10_19  and  C11_20 
REMARK   12  A    between atoms: C12_21  and  C13_22 
REMARK       I    between atoms: C13_22  and  N3_24 
REMARK   13  A    between atoms: C17_28  and  C18_29 
REMARK   14  A    between atoms: C18_29  and  C20_31 
REMARK       I    between atoms: C20_31  and  N4_33 
REMARK       I    between atoms: C28_41  and  N5_43 
REMARK   15  A    between atoms: N5_43  and  C29_45 
REMARK   16  A    between atoms: C29_45  and  C30_46 
ROOT
HETATM    1  C9  UNL     1      -1.428   1.826   0.421  1.00  0.00     0.195 C 
ENDROOT
BRANCH   1   2
HETATM    2  C8  UNL     1      -2.849   2.056   0.084  1.00  0.00     0.136 C 
BRANCH   2   3
HETATM    3  C7  UNL     1      -3.593   0.817  -0.326  1.00  0.00     0.224 C 
HETATM    4  N1  UNL     1      -4.986   0.849  -0.249  1.00  0.00    -0.324 N 
ATOM      5  H1  UNL     1      -5.398   1.743   0.017  1.00  0.00     0.169 HD
HETATM    6  O2  UNL     1      -2.958  -0.173  -0.690  1.00  0.00    -0.273 OA
BRANCH   4   7
HETATM    7  C6  UNL     1      -5.895  -0.199  -0.493  1.00  0.00     0.109 C 
BRANCH   7   8
HETATM    8  C5  UNL     1      -6.082  -1.111   0.722  1.00  0.00     0.174 C 
BRANCH   8   9
HETATM    9  C4  UNL     1      -6.210  -0.204   1.935  1.00  0.00     0.042 C 
BRANCH   9  10
HETATM   10  C2  UNL     1      -6.013  -1.002   3.216  1.00  0.00    -0.020 C 
HETATM   11  C1  UNL     1      -6.148   0.006   4.348  1.00  0.00     0.009 C 
HETATM   12  C3  UNL     1      -7.028  -2.085   3.304  1.00  0.00     0.009 C 
ENDBRANCH   9  10
ENDBRANCH   8   9
BRANCH   8  13
HETATM   13  O1  UNL     1      -4.778  -1.689   0.879  1.00  0.00    -0.389 OA
ATOM     14  H1  UNL     1      -4.698  -2.256   0.121  1.00  0.00     0.210 HD
ENDBRANCH   8  13
ENDBRANCH   7   8
BRANCH   7  15
HETATM   15  C28 UNL     1      -7.130   0.051  -1.195  1.00  0.00     0.267 C 
HETATM   16  O5  UNL     1      -7.322  -0.465  -2.353  1.00  0.00    -0.266 OA
HETATM   17  N5  UNL     1      -8.177   0.859  -0.673  1.00  0.00    -0.337 N 
ATOM     18  H5  UNL     1      -7.977   1.310   0.220  1.00  0.00     0.164 HD
BRANCH  17  19
HETATM   19  C29 UNL     1      -9.469   1.129  -1.220  1.00  0.00     0.121 A 
HETATM   20  C31 UNL     1     -10.451  -0.061  -0.977  1.00  0.00     0.045 A 
HETATM   21  C32 UNL     1     -10.162   0.476  -2.317  1.00  0.00     0.045 A 
BRANCH  19  22
HETATM   22  C30 UNL     1     -10.105   2.349  -0.555  1.00  0.00     0.202 C 
HETATM   23  O6  UNL     1      -9.374   3.185  -0.002  1.00  0.00    -0.646 OA
HETATM   24  O7  UNL     1     -11.471   2.532  -0.561  1.00  0.00    -0.646 OA
ENDBRANCH  19  22
ENDBRANCH  17  19
ENDBRANCH   7  15
ENDBRANCH   4   7
ENDBRANCH   2   3
ENDBRANCH   1   2
BRANCH   1  25
HETATM   25  N2  UNL     1      -1.160   0.852   1.424  1.00  0.00    -0.074 N 
ATOM     26  H23 UNL     1      -1.680   1.081   2.271  1.00  0.00     0.274 HD
ATOM     27  H22 UNL     1      -1.599  -0.033   1.168  1.00  0.00     0.274 HD
ATOM     28  H21 UNL     1      -0.180   0.693   1.657  1.00  0.00     0.274 HD
ENDBRANCH   1  25
BRANCH   1  29
HETATM   29  C10 UNL     1      -0.415   1.815  -0.686  1.00  0.00     0.060 C 
BRANCH  29  30
HETATM   30  C11 UNL     1       0.924   1.555  -0.123  1.00  0.00    -0.019 C 
HETATM   31  C12 UNL     1       1.811   0.663  -0.381  1.00  0.00     0.070 C 
BRANCH  31  32
HETATM   32  C13 UNL     1       1.777  -0.404  -1.348  1.00  0.00     0.243 C 
HETATM   33  O3  UNL     1       0.717  -0.571  -2.035  1.00  0.00    -0.268 OA
HETATM   34  N3  UNL     1       2.874  -1.260  -1.580  1.00  0.00    -0.348 N 
HETATM   35  C14 UNL     1       2.937  -2.257  -2.604  1.00  0.00     0.126 C 
HETATM   36  C27 UNL     1       4.150  -1.108  -0.828  1.00  0.00     0.131 C 
HETATM   37  C15 UNL     1       4.265  -2.121  -3.329  1.00  0.00     0.020 C 
HETATM   38  C16 UNL     1       4.904  -0.778  -3.178  1.00  0.00     0.009 C 
HETATM   39  C17 UNL     1       4.896  -0.187  -1.806  1.00  0.00     0.016 C 
BRANCH  39  40
HETATM   40  C18 UNL     1       5.921   0.710  -1.336  1.00  0.00     0.079 C 
HETATM   41  C19 UNL     1       5.828   1.986  -2.235  1.00  0.00     0.020 C 
BRANCH  40  42
HETATM   42  C20 UNL     1       7.333   0.324  -1.378  1.00  0.00     0.224 C 
HETATM   43  O4  UNL     1       7.987   0.587  -2.433  1.00  0.00    -0.273 OA
HETATM   44  N4  UNL     1       7.996  -0.318  -0.333  1.00  0.00    -0.352 N 
HETATM   45  C21 UNL     1       7.482  -0.725   0.944  1.00  0.00     0.126 C 
HETATM   46  C26 UNL     1       9.441  -0.639  -0.509  1.00  0.00     0.126 C 
HETATM   47  C22 UNL     1       8.291  -0.254   2.105  1.00  0.00     0.024 C 
HETATM   48  C23 UNL     1       9.652   0.254   1.845  1.00  0.00    -0.015 C 
HETATM   49  C24 UNL     1      10.734  -0.410   2.688  1.00  0.00     0.010 C 
HETATM   50  C25 UNL     1      10.119   0.335   0.442  1.00  0.00     0.024 C 
ENDBRANCH  40  42
ENDBRANCH  39  40
ENDBRANCH  31  32
ENDBRANCH  29  30
ENDBRANCH   1  29
TORSDOF 16
