REMARK  13 active torsions:
REMARK  status: ('A' for Active; 'I' for Inactive)
REMARK    1  A    between atoms: C2_2  and  N1_3 
REMARK    2  A    between atoms: C2_2  and  C28_41 
REMARK       I    between atoms: N1_3  and  C3_5 
REMARK    3  A    between atoms: C3_5  and  C4_7 
REMARK    4  A    between atoms: C4_7  and  N2_8 
REMARK    5  A    between atoms: C4_7  and  C22_35 
REMARK    6  A    between atoms: N2_8  and  C5_10 
REMARK    7  A    between atoms: C5_10  and  C6_11 
REMARK    8  A    between atoms: C5_10  and  C19_32 
REMARK       I    between atoms: C6_11  and  N3_13 
REMARK       I    between atoms: N3_13  and  C7_15 
REMARK    9  A    between atoms: C7_15  and  C8_17 
REMARK   10  A    between atoms: C8_17  and  N4_18 
REMARK   11  A    between atoms: C8_17  and  C16_29 
REMARK       I    between atoms: N4_18  and  C9_20 
REMARK   12  A    between atoms: C9_20  and  C10_22 
REMARK   13  A    between atoms: C10_22  and  C11_23 
REMARK       I    between atoms: C28_41  and  N5_43 
ROOT
HETATM    1  C5  UNL     1      -0.572  -2.174   1.784  1.00  0.00     0.174 C 
ENDROOT
BRANCH   1   2
HETATM    2  N2  UNL     1      -1.715  -2.822   1.393  1.00  0.00    -0.396 N 
ATOM      3  H2  UNL     1      -1.885  -3.762   1.750  1.00  0.00     0.154 HD
BRANCH   2   4
HETATM    4  C4  UNL     1      -2.680  -2.245   0.510  1.00  0.00     0.174 C 
BRANCH   4   5
HETATM    5  C3  UNL     1      -3.256  -1.001   0.960  1.00  0.00     0.241 C 
HETATM    6  N1  UNL     1      -4.061  -0.090   0.263  1.00  0.00    -0.346 N 
ATOM      7  H1  UNL     1      -4.321  -0.296  -0.702  1.00  0.00     0.163 HD
HETATM    8  O1  UNL     1      -2.987  -0.664   2.176  1.00  0.00    -0.271 OA
BRANCH   6   9
HETATM    9  C2  UNL     1      -4.540   1.149   0.878  1.00  0.00     0.172 C 
HETATM   10  C1  UNL     1      -5.826   0.788   1.661  1.00  0.00     0.042 C 
BRANCH   9  11
HETATM   11  C28 UNL     1      -4.957   2.121  -0.131  1.00  0.00     0.242 C 
HETATM   12  O6  UNL     1      -4.972   1.814  -1.376  1.00  0.00    -0.271 OA
HETATM   13  N5  UNL     1      -5.360   3.422   0.197  1.00  0.00    -0.346 N 
HETATM   14  C29 UNL     1      -5.844   4.371  -0.811  1.00  0.00     0.152 C 
HETATM   15  C32 UNL     1      -5.294   3.913   1.554  1.00  0.00     0.152 C 
HETATM   16  C30 UNL     1      -6.293   5.609  -0.059  1.00  0.00     0.187 C 
HETATM   17  O7  UNL     1      -5.299   6.171   0.703  1.00  0.00    -0.388 OA
HETATM   18  C31 UNL     1      -4.584   5.267   1.464  1.00  0.00     0.187 C 
ENDBRANCH   9  11
ENDBRANCH   6   9
ENDBRANCH   4   5
BRANCH   4  19
HETATM   19  C22 UNL     1      -3.784  -3.323   0.358  1.00  0.00     0.017 C 
HETATM   20  C23 UNL     1      -3.137  -4.616  -0.078  1.00  0.00     0.007 C 
HETATM   21  C24 UNL     1      -3.881  -5.220  -1.221  1.00  0.00     0.000 C 
HETATM   22  C25 UNL     1      -3.867  -4.241  -2.385  1.00  0.00     0.000 C 
HETATM   23  C26 UNL     1      -4.599  -2.987  -2.001  1.00  0.00     0.000 C 
HETATM   24  C27 UNL     1      -4.916  -2.971  -0.507  1.00  0.00     0.007 C 
ENDBRANCH   4  19
ENDBRANCH   2   4
ENDBRANCH   1   2
BRANCH   1  25
HETATM   25  C6  UNL     1       0.390  -1.730   0.751  1.00  0.00     0.247 C 
HETATM   26  O2  UNL     1       0.164  -1.934  -0.447  1.00  0.00    -0.271 OA
HETATM   27  N3  UNL     1       1.601  -1.047   1.116  1.00  0.00    -0.291 N 
HETATM   28  C7  UNL     1       2.507  -0.518   0.172  1.00  0.00     0.271 C 
ATOM     29  H3  UNL     1       1.816  -0.939   2.107  1.00  0.00     0.172 HD
HETATM   30  O3  UNL     1       2.195  -0.661  -1.047  1.00  0.00    -0.266 OA
BRANCH  28  31
HETATM   31  C8  UNL     1       3.723   0.152   0.582  1.00  0.00     0.084 C 
BRANCH  31  32
HETATM   32  N4  UNL     1       4.244   1.142  -0.333  1.00  0.00    -0.326 N 
HETATM   33  C9  UNL     1       5.541   1.141  -0.869  1.00  0.00     0.222 C 
HETATM   34  O4  UNL     1       6.329   0.232  -0.562  1.00  0.00    -0.273 OA
ATOM     35  H4  UNL     1       3.621   1.900  -0.611  1.00  0.00     0.168 HD
BRANCH  33  36
HETATM   36  C10 UNL     1       5.963   2.206  -1.783  1.00  0.00     0.108 C 
BRANCH  36  37
HETATM   37  C11 UNL     1       7.346   2.126  -2.312  1.00  0.00    -0.002 C 
HETATM   38  C12 UNL     1       7.530   3.357  -3.216  1.00  0.00     0.031 C 
HETATM   39  C13 UNL     1       7.810   2.947  -4.636  1.00  0.00     0.168 C 
HETATM   40  O5  UNL     1       8.999   2.253  -4.668  1.00  0.00    -0.391 OA
HETATM   41  C14 UNL     1       8.877   1.072  -3.980  1.00  0.00     0.168 C 
HETATM   42  C15 UNL     1       7.582   0.938  -3.200  1.00  0.00     0.031 C 
ENDBRANCH  36  37
ENDBRANCH  33  36
ENDBRANCH  31  32
BRANCH  31  43
HETATM   43  C16 UNL     1       3.720   0.550   2.008  1.00  0.00     0.033 C 
HETATM   44  C17 UNL     1       2.672   1.492   2.470  1.00  0.00     0.016 C 
HETATM   45  C18 UNL     1       5.120   0.969   2.488  1.00  0.00     0.016 C 
ENDBRANCH  31  43
ENDBRANCH  28  31
ENDBRANCH   1  25
BRANCH   1  46
HETATM   46  C19 UNL     1       0.246  -3.192   2.637  1.00  0.00     0.009 C 
HETATM   47  C20 UNL     1      -0.554  -3.647   3.833  1.00  0.00     0.012 C 
HETATM   48  C21 UNL     1       0.775  -4.313   1.802  1.00  0.00     0.012 C 
ENDBRANCH   1  46
TORSDOF 13
