REMARK  4 active torsions:
REMARK  status: ('A' for Active; 'I' for Inactive)
REMARK    1  A    between atoms: O1_2  and  N1_3 
REMARK    2  A    between atoms: N1_3  and  C2_5 
REMARK    3  A    between atoms: C3_8  and  N3_9 
REMARK       I    between atoms: N5_14  and  C4_15 
REMARK       I    between atoms: C4_15  and  N6_17 
REMARK    4  A    between atoms: C8_21  and  C9_22 
ROOT
HETATM    1  C2  UNL     1       2.257   0.378  -0.646  1.00  0.00     0.742 A 
HETATM    2  N2  UNL     1       3.181  -0.499  -1.035  1.00  0.00    -0.018 N 
ATOM      3  H2  UNL     1       4.172  -0.315  -1.191  1.00  0.00     0.203 HD
HETATM    4  C3  UNL     1       2.555  -1.661  -1.179  1.00  0.00     0.706 A 
HETATM    5  N4  UNL     1       1.248  -1.488  -0.877  1.00  0.00    -0.106 N 
ATOM      6  H4  UNL     1       0.539  -2.220  -0.906  1.00  0.00     0.207 HD
HETATM    7  N5  UNL     1       1.026  -0.232  -0.540  1.00  0.00    -0.015 N 
HETATM    8  C4  UNL     1      -0.178   0.404  -0.150  1.00  0.00     0.360 C 
HETATM    9  O2  UNL     1      -0.075   1.657   0.119  1.00  0.00    -0.244 OA
HETATM   10  N6  UNL     1      -1.446  -0.200  -0.035  1.00  0.00    -0.317 N 
HETATM   11  C5  UNL     1      -1.869  -1.532  -0.255  1.00  0.00     0.129 C 
HETATM   12  C6  UNL     1      -3.345  -1.606  -0.010  1.00  0.00     0.022 C 
HETATM   13  C7  UNL     1      -3.807  -0.198  -0.147  1.00  0.00     0.038 C 
HETATM   14  C8  UNL     1      -2.629   0.581   0.382  1.00  0.00     0.190 C 
ENDROOT
BRANCH   1  15
HETATM   15  N1  UNL     1       2.473   1.634  -0.397  1.00  0.00    -0.094 N 
ATOM     16  H1  UNL     1       1.708   2.241  -0.102  1.00  0.00     0.213 HD
BRANCH  15  17
HETATM   17  O1  UNL     1       3.726   2.129  -0.533  1.00  0.00    -0.271 OA
HETATM   18  C1  UNL     1       4.465   2.721   0.515  1.00  0.00     0.238 C 
ENDBRANCH  15  17
ENDBRANCH   1  15
BRANCH   4  19
HETATM   19  N3  UNL     1       3.082  -2.799  -1.550  1.00  0.00    -0.233 N 
ATOM     20  H32 UNL     1       4.068  -2.929  -1.778  1.00  0.00     0.174 HD
ATOM     21  H31 UNL     1       2.601  -3.692  -1.661  1.00  0.00     0.174 HD
ENDBRANCH   4  19
BRANCH  14  22
HETATM   22  C9  UNL     1      -2.610   0.610   1.854  1.00  0.00     0.197 C 
HETATM   23  O3  UNL     1      -1.719   0.050   2.517  1.00  0.00    -0.646 OA
HETATM   24  O4  UNL     1      -3.615   1.281   2.531  1.00  0.00    -0.646 OA
ENDBRANCH  14  22
TORSDOF 4
