REMARK  5 active torsions:
REMARK  status: ('A' for Active; 'I' for Inactive)
REMARK    1  A    between atoms: C3_7  and  O2_8 
REMARK    2  A    between atoms: C4_10  and  C5_11 
REMARK    3  A    between atoms: N3_12  and  N4_14 
REMARK    4  A    between atoms: N4_14  and  C6_16 
REMARK    5  A    between atoms: C6_16  and  N5_18 
ROOT
HETATM    1  N5  UNL     1       5.020   0.248  -0.183  1.00  0.00    -0.269 N 
ATOM      2  H5  UNL     1       5.334  -0.707  -0.011  1.00  0.00     0.180 HD
HETATM    3  C7  UNL     1       5.991   1.228  -0.422  1.00  0.00     0.184 C 
HETATM    4  N6  UNL     1       6.805   2.028  -0.609  1.00  0.00    -0.172 NA
ENDROOT
BRANCH   1   5
HETATM    5  C6  UNL     1       3.636   0.504  -0.166  1.00  0.00     0.199 C 
HETATM    6  S1  UNL     1       3.105   2.008  -0.435  1.00  0.00    -0.038 SA
BRANCH   5   7
HETATM    7  N4  UNL     1       2.727  -0.536   0.082  1.00  0.00    -0.276 N 
ATOM      8  H4  UNL     1       3.059  -1.485   0.252  1.00  0.00     0.189 HD
BRANCH   7   9
HETATM    9  N3  UNL     1       1.354  -0.249   0.092  1.00  0.00    -0.309 N 
HETATM   10  C5  UNL     1       0.449  -1.153   0.131  1.00  0.00     0.128 C 
ATOM     11  H3  UNL     1       1.063   0.728   0.067  1.00  0.00     0.186 HD
BRANCH  10  12
HETATM   12  C4  UNL     1      -0.948  -0.776   0.140  1.00  0.00     0.100 A 
HETATM   13  C3  UNL     1      -1.924  -1.777   0.182  1.00  0.00     0.161 A 
HETATM   14  N2  UNL     1      -3.208  -1.412   0.189  1.00  0.00    -0.288 N 
HETATM   15  C2  UNL     1      -3.568  -0.116   0.157  1.00  0.00     0.331 A 
ATOM     16  H2  UNL     1      -3.931  -2.131   0.219  1.00  0.00     0.172 HD
HETATM   17  N1  UNL     1      -2.660   0.881   0.115  1.00  0.00    -0.270 N 
HETATM   18  O1  UNL     1      -4.786   0.252   0.163  1.00  0.00    -0.246 OA
HETATM   19  C1  UNL     1      -3.081   2.272   0.080  1.00  0.00     0.164 C 
HETATM   20  C8  UNL     1      -1.375   0.539   0.107  1.00  0.00     0.267 A 
HETATM   21  O3  UNL     1      -0.515   1.454   0.068  1.00  0.00    -0.267 OA
BRANCH  13  22
HETATM   22  O2  UNL     1      -1.490  -3.093   0.215  1.00  0.00    -0.345 OA
ATOM     23  H2  UNL     1      -0.576  -3.353   0.210  1.00  0.00     0.219 HD
ENDBRANCH  13  22
ENDBRANCH  10  12
ENDBRANCH   7   9
ENDBRANCH   5   7
ENDBRANCH   1   5
TORSDOF 5
