REMARK  4 active torsions:
REMARK  status: ('A' for Active; 'I' for Inactive)
REMARK    1  A    between atoms: C2_2  and  N1_3 
REMARK    2  A    between atoms: C2_2  and  C3_7 
REMARK    3  A    between atoms: C3_7  and  O1_8 
REMARK    4  A    between atoms: O1_8  and  C4_9 
REMARK       I    between atoms: C4_9  and  N2_11 
ROOT
HETATM    1  C4  UNL     1       1.171  -0.910  -0.357  1.00  0.00     0.364 C 
HETATM    2  O2  UNL     1       1.486  -1.756  -1.231  1.00  0.00    -0.238 OA
HETATM    3  N2  UNL     1      -0.206  -0.683  -0.013  1.00  0.00    -0.305 N 
HETATM    4  C5  UNL     1      -0.488   0.288   0.984  1.00  0.00     0.132 C 
HETATM    5  C6  UNL     1      -1.610   1.209   0.762  1.00  0.00     0.046 C 
HETATM    6  C7  UNL     1      -2.153   1.347  -0.607  1.00  0.00     0.096 C 
HETATM    7  C8  UNL     1      -3.640   0.999  -0.690  1.00  0.00     0.147 C 
HETATM    8  N3  UNL     1      -3.983  -0.185   0.028  1.00  0.00    -0.363 N 
ATOM      9  H3  UNL     1      -4.947  -0.142   0.358  1.00  0.00     0.162 HD
HETATM   10  C9  UNL     1      -3.363  -1.422   0.422  1.00  0.00     0.185 C 
HETATM   11  N4  UNL     1      -4.138  -2.207   1.310  1.00  0.00    -0.064 NA
HETATM   12  N5  UNL     1      -2.220  -1.919   0.090  1.00  0.00    -0.342 N 
ATOM     13  H5  UNL     1      -2.049  -2.823   0.531  1.00  0.00     0.164 HD
HETATM   14  C10 UNL     1      -1.118  -1.506  -0.758  1.00  0.00     0.208 C 
HETATM   15  C11 UNL     1      -1.654  -0.630  -1.900  1.00  0.00     0.161 C 
HETATM   16  N6  UNL     1      -1.393   0.742  -1.654  1.00  0.00    -0.412 N 
ATOM     17  H6  UNL     1      -0.703   1.266  -2.193  1.00  0.00     0.153 HD
ENDROOT
BRANCH   1  18
HETATM   18  O1  UNL     1       2.197  -0.209   0.257  1.00  0.00    -0.302 OA
BRANCH  18  19
HETATM   19  C3  UNL     1       3.531  -0.477  -0.124  1.00  0.00     0.213 C 
BRANCH  19  20
HETATM   20  C2  UNL     1       4.495   0.388   0.659  1.00  0.00     0.203 C 
HETATM   21  C1  UNL     1       4.214   1.829   0.303  1.00  0.00     0.042 C 
BRANCH  20  22
HETATM   22  N1  UNL     1       5.840   0.033   0.189  1.00  0.00    -0.073 N 
ATOM     23  H13 UNL     1       5.965   0.219  -0.806  1.00  0.00     0.274 HD
ATOM     24  H12 UNL     1       6.555   0.667   0.544  1.00  0.00     0.274 HD
ATOM     25  H11 UNL     1       6.030  -0.940   0.429  1.00  0.00     0.274 HD
ENDBRANCH  20  22
ENDBRANCH  19  20
ENDBRANCH  18  19
ENDBRANCH   1  18
TORSDOF 4
