REMARK  2 active torsions:
REMARK  status: ('A' for Active; 'I' for Inactive)
REMARK    1  A    between atoms: N1_1  and  C1_4 
REMARK    2  A    between atoms: C2_7  and  N3_8 
REMARK       I    between atoms: N6_22  and  C10_23 
ROOT
HETATM    1  C1  UNL     1       1.346  -2.174   1.100  1.00  0.00     0.134 A 
HETATM    2  N2  UNL     1       0.117  -1.791   0.711  1.00  0.00    -0.176 N 
ATOM      3  H2  UNL     1      -0.676  -2.409   0.884  1.00  0.00     0.186 HD
HETATM    4  C2  UNL     1      -0.093  -0.598   0.092  1.00  0.00     0.683 A 
HETATM    5  N5  UNL     1       0.942   0.230  -0.146  1.00  0.00    -0.175 N 
ATOM      6  H5  UNL     1       0.773   1.122  -0.611  1.00  0.00     0.186 HD
HETATM    7  C7  UNL     1       2.193  -0.098   0.219  1.00  0.00     0.154 A 
HETATM    8  C8  UNL     1       2.381  -1.314   0.847  1.00  0.00     0.122 A 
HETATM    9  C9  UNL     1       3.796  -0.999   0.923  1.00  0.00     0.275 A 
HETATM   10  O1  UNL     1       4.830  -1.562   1.368  1.00  0.00    -0.266 OA
HETATM   11  N6  UNL     1       3.566   0.265   0.265  1.00  0.00    -0.215 N 
HETATM   12  C10 UNL     1       4.392   1.351  -0.133  1.00  0.00     0.343 C 
HETATM   13  N7  UNL     1       3.810   2.474  -0.779  1.00  0.00    -0.039 NA
HETATM   14  O2  UNL     1       5.609   1.340   0.071  1.00  0.00    -0.250 OA
ENDROOT
BRANCH   4  15
HETATM   15  N3  UNL     1      -1.415  -0.247  -0.297  1.00  0.00    -0.214 N 
HETATM   16  C3  UNL     1      -1.715   0.998  -0.957  1.00  0.00     0.168 C 
HETATM   17  C4  UNL     1      -3.194   1.016  -1.267  1.00  0.00     0.252 C 
HETATM   18  N4  UNL     1      -4.009   0.819  -0.088  1.00  0.00    -0.072 N 
HETATM   19  C5  UNL     1      -3.644  -0.361   0.659  1.00  0.00     0.252 C 
ATOM     20  H42 UNL     1      -3.993   1.647   0.508  1.00  0.00     0.277 HD
ATOM     21  H41 UNL     1      -5.000   0.806  -0.329  1.00  0.00     0.277 HD
HETATM   22  C6  UNL     1      -2.525  -1.144  -0.038  1.00  0.00     0.168 C 
ENDBRANCH   4  15
BRANCH   1  23
HETATM   23  N1  UNL     1       1.504  -3.310   1.683  1.00  0.00    -0.384 N 
ATOM     24  H12 UNL     1       0.733  -3.951   1.871  1.00  0.00     0.157 HD
ATOM     25  H11 UNL     1       2.436  -3.600   1.978  1.00  0.00     0.157 HD
ENDBRANCH   1  23
TORSDOF 2
