REMARK  4 active torsions:
REMARK  status: ('A' for Active; 'I' for Inactive)
REMARK    1  A    between atoms: N1_2  and  N2_4 
REMARK    2  A    between atoms: C2_6  and  C3_7 
REMARK    3  A    between atoms: C3_7  and  N3_8 
REMARK    4  A    between atoms: N3_8  and  N4_10 
ROOT
HETATM    1  N2  UNL     1      -0.242  -0.837   0.499  1.00  0.00    -0.315 N 
ATOM      2  H2  UNL     1      -0.817  -1.512   1.003  1.00  0.00     0.185 HD
HETATM    3  C2  UNL     1       1.027  -1.047   0.397  1.00  0.00     0.125 C 
ENDROOT
BRANCH   3   4
HETATM    4  C3  UNL     1       1.893  -0.095  -0.325  1.00  0.00     0.125 C 
BRANCH   4   5
HETATM    5  N3  UNL     1       2.481   0.840   0.286  1.00  0.00    -0.317 N 
ATOM      6  H3  UNL     1       1.838   1.627   0.197  1.00  0.00     0.185 HD
BRANCH   5   7
HETATM    7  N4  UNL     1       3.434   1.312   0.942  1.00  0.00    -0.345 N 
ATOM      8  H42 UNL     1       4.050   0.502   1.009  1.00  0.00     0.176 HD
ATOM      9  H41 UNL     1       3.909   2.068   1.436  1.00  0.00     0.176 HD
ENDBRANCH   5   7
ENDBRANCH   4   5
ENDBRANCH   3   4
BRANCH   1  10
HETATM   10  N1  UNL     1      -0.847   0.280  -0.057  1.00  0.00    -0.341 N 
HETATM   11  C1  UNL     1      -2.254   0.526   0.113  1.00  0.00     0.167 C 
ATOM     12  H1  UNL     1      -0.285   0.939  -0.596  1.00  0.00     0.179 HD
ENDBRANCH   1  10
TORSDOF 4
