REMARK  2 active torsions:
REMARK  status: ('A' for Active; 'I' for Inactive)
REMARK    1  A    between atoms: N1_2  and  N2_4 
REMARK    2  A    between atoms: C2_6  and  N3_7 
ROOT
HETATM    1  N2  UNL     1       0.534  -0.357   0.217  1.00  0.00    -0.299 N 
ATOM      2  H2  UNL     1       0.669  -1.056  -0.513  1.00  0.00     0.187 HD
HETATM    3  C2  UNL     1      -0.647  -0.054   0.608  1.00  0.00     0.215 C 
ENDROOT
BRANCH   3   4
HETATM    4  N3  UNL     1      -1.821  -0.642   0.079  1.00  0.00    -0.297 N 
HETATM    5  C3  UNL     1      -2.810   0.206  -0.519  1.00  0.00     0.178 C 
HETATM    6  N4  UNL     1      -2.000  -1.878   0.128  1.00  0.00    -0.342 N 
ATOM      7  H42 UNL     1      -1.296  -2.481   0.554  1.00  0.00     0.177 HD
ATOM      8  H41 UNL     1      -2.846  -2.302  -0.253  1.00  0.00     0.177 HD
ENDBRANCH   3   4
BRANCH   1   9
HETATM    9  N1  UNL     1       1.628   0.272   0.793  1.00  0.00    -0.340 N 
HETATM   10  C1  UNL     1       2.965   0.219   0.203  1.00  0.00     0.167 C 
ATOM     11  H1  UNL     1       1.495   0.791   1.661  1.00  0.00     0.179 HD
ENDBRANCH   1   9
TORSDOF 2
