REMARK  2 active torsions:
REMARK  status: ('A' for Active; 'I' for Inactive)
REMARK    1  A    between atoms: N1_2  and  N2_3 
REMARK    2  A    between atoms: N1_2  and  N3_6 
ROOT
HETATM    1  C1  UNL     1       1.272  -1.140   0.498  1.00  0.00     0.172 C 
HETATM    2  N1  UNL     1       0.700  -0.103   0.020  1.00  0.00    -0.209 N 
ENDROOT
BRANCH   2   3
HETATM    3  N2  UNL     1      -0.572  -0.190  -0.582  1.00  0.00    -0.320 N 
HETATM    4  C2  UNL     1      -1.779   0.108   0.131  1.00  0.00     0.169 C 
ATOM      5  H2  UNL     1      -0.635  -0.475  -1.559  1.00  0.00     0.181 HD
ENDBRANCH   2   3
BRANCH   2   6
HETATM    6  N3  UNL     1       1.268   1.176   0.049  1.00  0.00    -0.230 N 
HETATM    7  N4  UNL     1       2.351   1.459  -0.536  1.00  0.00    -0.329 N 
ATOM      8  H42 UNL     1       2.820   0.711  -1.048  1.00  0.00     0.178 HD
ATOM      9  H41 UNL     1       2.765   2.391  -0.515  1.00  0.00     0.178 HD
ATOM     10  H3  UNL     1       0.786   1.912   0.565  1.00  0.00     0.210 HD
ENDBRANCH   2   6
TORSDOF 2
