REMARK  21 active torsions:
REMARK  status: ('A' for Active; 'I' for Inactive)
REMARK    1  A    between atoms: C5_7  and  N2_8 
REMARK    2  A    between atoms: N2_8  and  C6_10 
REMARK    3  A    between atoms: C6_10  and  C7_11 
REMARK    4  A    between atoms: C7_11  and  C8_12 
REMARK    5  A    between atoms: C7_11  and  C9_15 
REMARK    6  A    between atoms: C8_12  and  O1_13 
REMARK    7  A    between atoms: N5_20  and  C10_21 
REMARK    8  A    between atoms: C10_21  and  C11_22 
REMARK    9  A    between atoms: C11_22  and  C12_23 
REMARK   10  A    between atoms: C12_23  and  C13_24 
REMARK   11  A    between atoms: C13_24  and  C14_25 
REMARK   12  A    between atoms: C14_25  and  C15_26 
REMARK   13  A    between atoms: C15_26  and  C16_27 
REMARK   14  A    between atoms: C16_27  and  C17_28 
REMARK   15  A    between atoms: C17_28  and  N6_29 
REMARK   16  A    between atoms: C20_32  and  C21_33 
REMARK       I    between atoms: C21_33  and  N7_35 
REMARK   17  A    between atoms: N7_35  and  C22_37 
REMARK   18  A    between atoms: C22_37  and  C23_38 
REMARK   19  A    between atoms: C23_38  and  N8_39 
REMARK       I    between atoms: N8_39  and  C24_41 
REMARK   20  A    between atoms: C24_41  and  C25_43 
REMARK   21  A    between atoms: C25_43  and  C26_44 
ROOT
HETATM    1  C12 UNL     1      -1.343  -0.082  -0.703  1.00  0.00     0.002 C 
ENDROOT
BRANCH   1   2
HETATM    2  C11 UNL     1      -2.077  -1.029   0.164  1.00  0.00     0.022 C 
BRANCH   2   3
HETATM    3  C10 UNL     1      -2.745  -0.513   1.374  1.00  0.00     0.148 C 
BRANCH   3   4
HETATM    4  N5  UNL     1      -3.796   0.454   1.163  1.00  0.00    -0.301 N 
HETATM    5  N4  UNL     1      -5.053   0.009   0.980  1.00  0.00    -0.282 N 
HETATM    6  C5  UNL     1      -6.072   0.852   0.790  1.00  0.00     0.144 A 
ATOM      7  H4  UNL     1      -5.232  -0.995   0.987  1.00  0.00     0.189 HD
HETATM    8  C4  UNL     1      -5.909   2.228   0.769  1.00  0.00     0.090 A 
HETATM    9  N1  UNL     1      -6.727   3.286   0.603  1.00  0.00    -0.362 N 
HETATM   10  C28 UNL     1      -4.631   2.710   0.954  1.00  0.00     0.019 A 
HETATM   11  C3  UNL     1      -5.997   4.426   0.680  1.00  0.00     0.096 A 
ATOM     12  H1  UNL     1      -7.733   3.237   0.445  1.00  0.00     0.165 HD
HETATM   13  C2  UNL     1      -4.677   4.096   0.900  1.00  0.00    -0.033 A 
HETATM   14  C1  UNL     1      -3.534   5.031   1.049  1.00  0.00     0.050 C 
HETATM   15  C27 UNL     1      -3.628   1.782   1.144  1.00  0.00     0.124 A 
BRANCH   6  16
HETATM   16  N2  UNL     1      -7.287   0.423   0.614  1.00  0.00    -0.372 N 
ATOM     17  H2  UNL     1      -8.050   1.085   0.472  1.00  0.00     0.161 HD
BRANCH  16  18
HETATM   18  C6  UNL     1      -7.551  -1.012   0.621  1.00  0.00     0.137 C 
BRANCH  18  19
HETATM   19  C7  UNL     1      -9.015  -1.251   0.305  1.00  0.00     0.116 C 
BRANCH  19  20
HETATM   20  C8  UNL     1      -9.340  -0.683  -1.062  1.00  0.00     0.179 C 
BRANCH  20  21
HETATM   21  O1  UNL     1      -8.592  -1.260  -2.061  1.00  0.00    -0.400 OA
ATOM     22  H1  UNL     1      -8.796  -0.904  -2.918  1.00  0.00     0.209 HD
ENDBRANCH  20  21
ENDBRANCH  19  20
BRANCH  19  23
HETATM   23  C9  UNL     1      -9.322  -2.682   0.430  1.00  0.00     0.238 C 
HETATM   24  N3  UNL     1      -8.681  -3.694  -0.334  1.00  0.00    -0.062 NA
HETATM   25  O2  UNL     1     -10.193  -3.064   1.249  1.00  0.00    -0.276 OA
ENDBRANCH  19  23
ENDBRANCH  18  19
ENDBRANCH  16  18
ENDBRANCH   6  16
ENDBRANCH   3   4
ENDBRANCH   2   3
ENDBRANCH   1   2
BRANCH   1  26
HETATM   26  C13 UNL     1      -0.161   0.607  -0.051  1.00  0.00     0.000 C 
BRANCH  26  27
HETATM   27  C14 UNL     1       0.540   1.547  -0.941  1.00  0.00     0.000 C 
BRANCH  27  28
HETATM   28  C15 UNL     1       1.151   1.157  -2.200  1.00  0.00     0.002 C 
BRANCH  28  29
HETATM   29  C16 UNL     1       2.300   0.249  -2.234  1.00  0.00     0.022 C 
BRANCH  29  30
HETATM   30  C17 UNL     1       2.115  -1.111  -1.701  1.00  0.00     0.148 C 
BRANCH  30  31
HETATM   31  N6  UNL     1       3.342  -1.914  -1.876  1.00  0.00    -0.303 N 
HETATM   32  C18 UNL     1       3.611  -2.682  -2.944  1.00  0.00     0.112 A 
HETATM   33  C19 UNL     1       4.866  -3.219  -2.666  1.00  0.00     0.055 A 
HETATM   34  C20 UNL     1       5.299  -2.746  -1.432  1.00  0.00     0.117 A 
HETATM   35  N10 UNL     1       4.306  -1.945  -1.000  1.00  0.00    -0.294 N 
ATOM     36  H10 UNL     1       4.308  -1.437  -0.116  1.00  0.00     0.187 HD
BRANCH  34  37
HETATM   37  C21 UNL     1       6.556  -3.051  -0.764  1.00  0.00     0.269 C 
HETATM   38  O3  UNL     1       7.356  -3.822  -1.321  1.00  0.00    -0.266 OA
HETATM   39  N7  UNL     1       6.837  -2.476   0.481  1.00  0.00    -0.354 N 
ATOM     40  H7  UNL     1       6.145  -1.856   0.902  1.00  0.00     0.162 HD
BRANCH  39  41
HETATM   41  C22 UNL     1       8.057  -2.725   1.185  1.00  0.00     0.142 C 
BRANCH  41  42
HETATM   42  C23 UNL     1       9.235  -2.241   0.398  1.00  0.00     0.142 C 
BRANCH  42  43
HETATM   43  N8  UNL     1       9.104  -0.833   0.137  1.00  0.00    -0.359 N 
HETATM   44  C24 UNL     1       9.051   0.156   1.156  1.00  0.00     0.226 C 
HETATM   45  O4  UNL     1       9.125  -0.186   2.347  1.00  0.00    -0.273 OA
ATOM     46  H8  UNL     1       9.046  -0.527  -0.834  1.00  0.00     0.162 HD
BRANCH  44  47
HETATM   47  C25 UNL     1       8.908   1.596   0.822  1.00  0.00     0.202 C 
BRANCH  47  48
HETATM   48  C26 UNL     1       8.885   2.435   2.015  1.00  0.00     0.239 C 
HETATM   49  N9  UNL     1       8.751   3.859   1.888  1.00  0.00    -0.062 NA
HETATM   50  O5  UNL     1       8.977   1.966   3.154  1.00  0.00    -0.276 OA
ENDBRANCH  47  48
ENDBRANCH  44  47
ENDBRANCH  42  43
ENDBRANCH  41  42
ENDBRANCH  39  41
ENDBRANCH  34  37
ENDBRANCH  30  31
ENDBRANCH  29  30
ENDBRANCH  28  29
ENDBRANCH  27  28
ENDBRANCH  26  27
ENDBRANCH   1  26
TORSDOF 21
