REMARK  1 active torsions:
REMARK  status: ('A' for Active; 'I' for Inactive)
REMARK       I    between atoms: C1_2  and  N3_7 
REMARK    1  A    between atoms: N2_3  and  O1_5 
ROOT
HETATM    1  N1  UNL     1       1.923   1.851  -0.133  1.00  0.00    -0.060 NA
HETATM    2  C1  UNL     1       1.541   0.493  -0.012  1.00  0.00     0.234 C 
HETATM    3  N2  UNL     1       2.488  -0.378   0.002  1.00  0.00    -0.239 N 
ATOM      4  H2  UNL     1       3.457  -0.069  -0.073  1.00  0.00     0.197 HD
HETATM    5  N3  UNL     1       0.194   0.058   0.091  1.00  0.00    -0.228 N 
HETATM    6  C2  UNL     1      -0.934   0.730  -0.520  1.00  0.00     0.161 C 
HETATM    7  C3  UNL     1      -1.942  -0.425  -0.536  1.00  0.00     0.051 C 
HETATM    8  C4  UNL     1      -1.575  -1.051   0.797  1.00  0.00     0.203 C 
HETATM    9  O2  UNL     1      -0.191  -1.038   0.774  1.00  0.00    -0.276 OA
ENDROOT
BRANCH   3  10
HETATM   10  O1  UNL     1       2.216  -1.695   0.114  1.00  0.00    -0.287 OA
ATOM     11  H1  UNL     1       2.915  -2.338   0.124  1.00  0.00     0.244 HD
ENDBRANCH   3  10
TORSDOF 1
