REMARK  2 active torsions:
REMARK  status: ('A' for Active; 'I' for Inactive)
REMARK    1  A    between atoms: C5_6  and  O2_7 
REMARK    2  A    between atoms: C6_9  and  N1_10 
ROOT
HETATM    1  C1  UNL     1      -2.078  -0.775   0.454  1.00  0.00     0.012 C 
HETATM    2  C2  UNL     1      -0.702  -0.186   0.613  1.00  0.00     0.019 C 
HETATM    3  C3  UNL     1      -0.705   1.231   0.160  1.00  0.00     0.033 C 
HETATM    4  C4  UNL     1       0.567   1.760  -0.370  1.00  0.00     0.171 C 
HETATM    5  O1  UNL     1       1.701   1.068  -0.162  1.00  0.00    -0.359 OA
HETATM    6  C5  UNL     1       1.655  -0.238   0.139  1.00  0.00     0.287 C 
HETATM    7  C6  UNL     1       0.351  -0.935  -0.169  1.00  0.00     0.241 C 
ENDROOT
BRANCH   7   8
HETATM    8  N1  UNL     1       0.093  -0.928  -1.577  1.00  0.00    -0.070 N 
ATOM      9  H13 UNL     1      -0.840  -1.285  -1.782  1.00  0.00     0.274 HD
ATOM     10  H12 UNL     1      -0.016   0.024  -1.926  1.00  0.00     0.274 HD
ATOM     11  H11 UNL     1       0.804  -1.434  -2.105  1.00  0.00     0.274 HD
ENDBRANCH   7   8
BRANCH   6  12
HETATM   12  O2  UNL     1       1.996  -0.470   1.486  1.00  0.00    -0.369 OA
ATOM     13  H2  UNL     1       1.963  -1.395   1.699  1.00  0.00     0.212 HD
ENDBRANCH   6  12
TORSDOF 2
