REMARK  2 active torsions:
REMARK  status: ('A' for Active; 'I' for Inactive)
REMARK    1  A    between atoms: C5_6  and  N1_7 
REMARK    2  A    between atoms: C6_11  and  N2_12 
ROOT
HETATM    1  C1  UNL     1      -2.256   0.673  -0.382  1.00  0.00     0.014 C 
HETATM    2  C2  UNL     1      -0.909  -0.024  -0.615  1.00  0.00     0.038 C 
HETATM    3  C3  UNL     1      -0.934  -1.452  -0.176  1.00  0.00     0.174 C 
HETATM    4  O1  UNL     1       0.038  -1.812   0.705  1.00  0.00    -0.389 OA
HETATM    5  C4  UNL     1       1.303  -1.366   0.420  1.00  0.00     0.202 C 
HETATM    6  C5  UNL     1       1.423   0.128   0.311  1.00  0.00     0.237 C 
HETATM    7  C6  UNL     1       0.124   0.815   0.056  1.00  0.00     0.221 C 
ENDROOT
BRANCH   6   8
HETATM    8  N1  UNL     1       2.351   0.487  -0.738  1.00  0.00    -0.071 N 
ATOM      9  H13 UNL     1       3.260   0.042  -0.609  1.00  0.00     0.274 HD
ATOM     10  H12 UNL     1       2.098   0.061  -1.630  1.00  0.00     0.274 HD
ATOM     11  H11 UNL     1       2.432   1.501  -0.812  1.00  0.00     0.274 HD
ENDBRANCH   6   8
BRANCH   7  12
HETATM   12  N2  UNL     1      -0.417   1.378   1.299  1.00  0.00    -0.072 N 
ATOM     13  H23 UNL     1      -1.283   1.892   1.141  1.00  0.00     0.274 HD
ATOM     14  H22 UNL     1      -0.784   0.655   1.918  1.00  0.00     0.274 HD
ATOM     15  H21 UNL     1       0.290   1.952   1.758  1.00  0.00     0.274 HD
ENDBRANCH   7  12
TORSDOF 2
