REMARK  2 active torsions:
REMARK  status: ('A' for Active; 'I' for Inactive)
REMARK    1  A    between atoms: C5_6  and  O2_7 
REMARK    2  A    between atoms: C6_9  and  O3_10 
ROOT
HETATM    1  C1  UNL     1      -1.784  -0.945  -0.451  1.00  0.00     0.048 C 
HETATM    2  C2  UNL     1      -0.647   0.038  -0.264  1.00  0.00     0.082 C 
HETATM    3  C3  UNL     1      -1.275   1.403  -0.044  1.00  0.00     0.048 C 
HETATM    4  O1  UNL     1       0.207   0.024  -1.332  1.00  0.00    -0.376 OA
HETATM    5  C4  UNL     1       1.478  -0.240  -0.919  1.00  0.00     0.203 C 
HETATM    6  C5  UNL     1       1.540   0.097   0.578  1.00  0.00     0.173 C 
HETATM    7  C6  UNL     1       0.144  -0.310   0.979  1.00  0.00     0.182 C 
ENDROOT
BRANCH   7   8
HETATM    8  O3  UNL     1       0.196  -1.706   1.180  1.00  0.00    -0.390 OA
ATOM      9  H3  UNL     1       0.692  -1.924   1.960  1.00  0.00     0.210 HD
ENDBRANCH   7   8
BRANCH   6  10
HETATM   10  O2  UNL     1       1.766   1.451   0.669  1.00  0.00    -0.391 OA
ATOM     11  H2  UNL     1       1.804   1.659   1.595  1.00  0.00     0.210 HD
ENDBRANCH   6  10
TORSDOF 2
