REMARK  2 active torsions:
REMARK  status: ('A' for Active; 'I' for Inactive)
REMARK    1  A    between atoms: C3_4  and  N1_5 
REMARK    2  A    between atoms: C4_9  and  O2_10 
ROOT
HETATM    1  C1  UNL     1       2.344   0.485  -0.138  1.00  0.00     0.040 C 
HETATM    2  C2  UNL     1       0.915   0.316  -0.456  1.00  0.00     0.126 C 
HETATM    3  O1  UNL     1       0.171   1.509  -0.373  1.00  0.00    -0.352 OA
HETATM    4  C3  UNL     1      -1.151   1.102  -0.504  1.00  0.00     0.348 C 
HETATM    5  C4  UNL     1      -1.253  -0.302   0.002  1.00  0.00     0.180 C 
HETATM    6  C5  UNL     1       0.148  -0.484   0.608  1.00  0.00     0.043 C 
HETATM    7  C6  UNL     1       0.556  -1.908   0.659  1.00  0.00     0.015 C 
ENDROOT
BRANCH   4   8
HETATM    8  N1  UNL     1      -2.063   1.992   0.209  1.00  0.00    -0.050 N 
ATOM      9  H13 UNL     1      -1.799   2.088   1.189  1.00  0.00     0.277 HD
ATOM     10  H12 UNL     1      -1.941   2.961  -0.084  1.00  0.00     0.277 HD
ATOM     11  H11 UNL     1      -3.034   1.693   0.113  1.00  0.00     0.277 HD
ENDBRANCH   4   8
BRANCH   5  12
HETATM   12  O2  UNL     1      -1.299  -1.151  -1.100  1.00  0.00    -0.391 OA
ATOM     13  H2  UNL     1      -1.364  -2.043  -0.779  1.00  0.00     0.210 HD
ENDBRANCH   5  12
TORSDOF 2
