REMARK  17 active torsions:
REMARK  status: ('A' for Active; 'I' for Inactive)
REMARK    1  A    between atoms: C2_2  and  C3_3 
REMARK    2  A    between atoms: C3_3  and  C4_4 
REMARK    3  A    between atoms: C6_9  and  C7_10 
REMARK    4  A    between atoms: C7_10  and  C8_11 
REMARK    5  A    between atoms: C8_11  and  C9_12 
REMARK    6  A    between atoms: C9_12  and  C10_13 
REMARK    7  A    between atoms: C10_13  and  N2_14 
REMARK    8  A    between atoms: N2_14  and  C11_15 
REMARK    9  A    between atoms: N2_14  and  C12_17 
REMARK   10  A    between atoms: C12_17  and  C13_18 
REMARK   11  A    between atoms: C13_18  and  C14_19 
REMARK   12  A    between atoms: C14_19  and  N3_20 
REMARK       I    between atoms: N3_20  and  C15_21 
REMARK   13  A    between atoms: C15_21  and  C16_23 
REMARK   14  A    between atoms: C16_23  and  C17_24 
REMARK   15  A    between atoms: C17_24  and  C18_25 
REMARK   16  A    between atoms: C18_25  and  N4_26 
REMARK   17  A    between atoms: C18_25  and  C19_30 
ROOT
HETATM    1  C4  UNL     1      -4.703  -1.600  -1.040  1.00  0.00     0.077 C 
HETATM    2  N1  UNL     1      -4.180  -1.420   0.278  1.00  0.00    -0.323 N 
ATOM      3  H1  UNL     1      -4.771  -1.769   1.033  1.00  0.00     0.169 HD
HETATM    4  C5  UNL     1      -2.962  -0.828   0.688  1.00  0.00     0.245 C 
HETATM    5  O1  UNL     1      -2.239  -1.634   1.375  1.00  0.00    -0.271 OA
HETATM    6  C6  UNL     1      -2.452   0.491   0.448  1.00  0.00     0.177 C 
HETATM    7  N5  UNL     1      -2.835   1.165  -0.777  1.00  0.00    -0.346 N 
ATOM      8  H5  UNL     1      -2.466   0.789  -1.650  1.00  0.00     0.163 HD
HETATM    9  C20 UNL     1      -3.678   2.301  -0.867  1.00  0.00     0.249 C 
HETATM   10  O6  UNL     1      -3.341   3.279  -1.621  1.00  0.00    -0.271 OA
HETATM   11  C21 UNL     1      -4.960   2.492  -0.159  1.00  0.00     0.277 C 
HETATM   12  C22 UNL     1      -5.034   3.729   0.695  1.00  0.00     0.043 C 
HETATM   13  C23 UNL     1      -6.403   3.628   1.388  1.00  0.00     0.003 C 
HETATM   14  C24 UNL     1      -7.485   3.221   0.449  1.00  0.00     0.002 C 
HETATM   15  C25 UNL     1      -7.787   1.777   0.347  1.00  0.00     0.033 C 
HETATM   16  C26 UNL     1      -6.648   0.833   0.217  1.00  0.00     0.194 C 
HETATM   17  C27 UNL     1      -6.497   0.259  -1.175  1.00  0.00     0.118 C 
HETATM   18  C28 UNL     1      -6.109  -1.222  -1.113  1.00  0.00     0.177 C 
HETATM   19  O7  UNL     1      -7.074  -1.954  -1.135  1.00  0.00    -0.291 OA
HETATM   20  N6  UNL     1      -5.383   1.396   0.646  1.00  0.00    -0.058 N 
ATOM     21  H61 UNL     1      -5.417   1.659   1.631  1.00  0.00     0.278 HD
ATOM     22  H62 UNL     1      -4.661   0.677   0.691  1.00  0.00     0.278 HD
ENDROOT
BRANCH   6  23
HETATM   23  C7  UNL     1      -0.963   0.577   0.625  1.00  0.00     0.035 C 
BRANCH  23  24
HETATM   24  C8  UNL     1      -0.378   0.333   1.950  1.00  0.00     0.004 C 
BRANCH  24  25
HETATM   25  C9  UNL     1       1.144   0.534   1.845  1.00  0.00     0.020 C 
BRANCH  25  26
HETATM   26  C10 UNL     1       1.722  -0.490   0.945  1.00  0.00     0.125 C 
BRANCH  26  27
HETATM   27  N2  UNL     1       3.203  -0.238   0.847  1.00  0.00    -0.359 N 
BRANCH  27  28
HETATM   28  C11 UNL     1       3.985  -0.843   1.832  1.00  0.00     0.350 C 
HETATM   29  O2  UNL     1       5.220  -0.692   1.897  1.00  0.00    -0.284 OA
ENDBRANCH  27  28
BRANCH  27  30
HETATM   30  C12 UNL     1       3.641   0.557  -0.259  1.00  0.00     0.131 C 
BRANCH  30  31
HETATM   31  C13 UNL     1       3.878  -0.174  -1.537  1.00  0.00     0.079 C 
BRANCH  31  32
HETATM   32  C14 UNL     1       5.010  -1.164  -1.531  1.00  0.00     0.160 C 
BRANCH  32  33
HETATM   33  N3  UNL     1       6.279  -0.581  -1.344  1.00  0.00    -0.388 NA
HETATM   34  C15 UNL     1       7.472  -0.032  -1.168  1.00  0.00     0.290 C 
HETATM   35  O3  UNL     1       8.035   0.820  -1.945  1.00  0.00    -0.257 OA
BRANCH  34  36
HETATM   36  C16 UNL     1       8.358  -0.383   0.055  1.00  0.00     0.122 C 
BRANCH  36  37
HETATM   37  C17 UNL     1       9.646   0.368  -0.062  1.00  0.00     0.054 C 
BRANCH  37  38
HETATM   38  C18 UNL     1      10.593   0.142   1.067  1.00  0.00     0.283 C 
BRANCH  38  39
HETATM   39  N4  UNL     1      11.795   0.964   0.780  1.00  0.00    -0.065 N 
ATOM     40  H43 UNL     1      12.205   0.775  -0.135  1.00  0.00     0.275 HD
ATOM     41  H42 UNL     1      11.582   1.949   0.622  1.00  0.00     0.275 HD
ATOM     42  H41 UNL     1      12.443   0.809   1.552  1.00  0.00     0.275 HD
ENDBRANCH  38  39
BRANCH  38  43
HETATM   43  C19 UNL     1      11.010  -1.245   1.189  1.00  0.00     0.204 C 
HETATM   44  O4  UNL     1      12.212  -1.557   0.922  1.00  0.00    -0.646 OA
HETATM   45  O5  UNL     1      10.146  -2.246   1.589  1.00  0.00    -0.646 OA
ENDBRANCH  38  43
ENDBRANCH  37  38
ENDBRANCH  36  37
ENDBRANCH  34  36
ENDBRANCH  32  33
ENDBRANCH  31  32
ENDBRANCH  30  31
ENDBRANCH  27  30
ENDBRANCH  26  27
ENDBRANCH  25  26
ENDBRANCH  24  25
ENDBRANCH  23  24
ENDBRANCH   6  23
BRANCH   1  46
HETATM   46  C3  UNL     1      -4.276  -2.844  -1.714  1.00  0.00     0.006 C 
BRANCH  46  47
HETATM   47  C2  UNL     1      -4.498  -4.163  -1.127  1.00  0.00     0.025 C 
HETATM   48  C1  UNL     1      -5.863  -4.676  -0.854  1.00  0.00     0.009 C 
ENDBRANCH  46  47
ENDBRANCH   1  46
TORSDOF 17
