REMARK  17 active torsions:
REMARK  status: ('A' for Active; 'I' for Inactive)
REMARK    1  A    between atoms: C2_2  and  C3_3 
REMARK    2  A    between atoms: C3_3  and  C4_4 
REMARK    3  A    between atoms: C4_4  and  C5_5 
REMARK    4  A    between atoms: C7_10  and  C8_11 
REMARK    5  A    between atoms: C8_11  and  C9_12 
REMARK    6  A    between atoms: C9_12  and  C10_13 
REMARK    7  A    between atoms: C10_13  and  C11_14 
REMARK    8  A    between atoms: C11_14  and  C12_15 
REMARK       I    between atoms: C12_15  and  N2_17 
REMARK    9  A    between atoms: N2_17  and  C14_19 
REMARK   10  A    between atoms: C14_19  and  C15_20 
REMARK   11  A    between atoms: C15_20  and  C16_21 
REMARK   12  A    between atoms: C20_26  and  C21_27 
REMARK   13  A    between atoms: C22_32  and  O6_33 
REMARK   14  A    between atoms: C23_35  and  C24_36 
REMARK   15  A    between atoms: C24_36  and  C25_37 
REMARK   16  A    between atoms: C25_37  and  C26_38 
REMARK   17  A    between atoms: C26_38  and  N4_39 
ROOT
HETATM    1  C5  UNL     1      -2.317  -2.863  -0.032  1.00  0.00     0.080 C 
HETATM    2  N1  UNL     1      -1.513  -1.815   0.568  1.00  0.00    -0.326 N 
ATOM      3  H1  UNL     1      -1.266  -1.938   1.550  1.00  0.00     0.168 HD
HETATM    4  C6  UNL     1      -1.042  -0.660  -0.049  1.00  0.00     0.228 C 
HETATM    5  O1  UNL     1      -0.641   0.304   0.675  1.00  0.00    -0.273 OA
HETATM    6  C7  UNL     1      -0.950  -0.412  -1.526  1.00  0.00     0.111 C 
HETATM    7  C20 UNL     1      -1.466   0.946  -1.824  1.00  0.00     0.197 C 
HETATM    8  N3  UNL     1      -2.860   1.170  -1.511  1.00  0.00    -0.357 N 
ATOM      9  H3  UNL     1      -3.147   2.136  -1.670  1.00  0.00     0.162 HD
HETATM   10  C22 UNL     1      -3.885   0.386  -1.050  1.00  0.00     0.135 C 
HETATM   11  C23 UNL     1      -4.283  -0.070   0.292  1.00  0.00     0.159 C 
HETATM   12  N7  UNL     1      -4.471  -1.504   0.404  1.00  0.00    -0.344 N 
ATOM     13  H7  UNL     1      -5.254  -1.792   0.990  1.00  0.00     0.163 HD
HETATM   14  C28 UNL     1      -3.747  -2.545  -0.165  1.00  0.00     0.264 C 
HETATM   15  O7  UNL     1      -4.409  -3.361  -0.926  1.00  0.00    -0.266 OA
ENDROOT
BRANCH   6  16
HETATM   16  C8  UNL     1       0.429  -0.735  -2.018  1.00  0.00     0.017 C 
BRANCH  16  17
HETATM   17  C9  UNL     1       1.526   0.042  -1.399  1.00  0.00     0.001 C 
BRANCH  17  18
HETATM   18  C10 UNL     1       2.879  -0.350  -1.978  1.00  0.00     0.009 C 
BRANCH  18  19
HETATM   19  C11 UNL     1       3.886   0.533  -1.256  1.00  0.00     0.103 C 
BRANCH  19  20
HETATM   20  C12 UNL     1       5.267   0.297  -1.676  1.00  0.00     0.219 C 
HETATM   21  O2  UNL     1       5.556  -0.562  -2.512  1.00  0.00    -0.273 OA
HETATM   22  N2  UNL     1       6.298   1.122  -1.063  1.00  0.00    -0.356 N 
HETATM   23  C13 UNL     1       5.938   2.121  -0.098  1.00  0.00     0.152 C 
BRANCH  22  24
HETATM   24  C14 UNL     1       7.642   0.898  -1.505  1.00  0.00     0.132 C 
BRANCH  24  25
HETATM   25  C15 UNL     1       8.374  -0.160  -0.789  1.00  0.00     0.084 C 
BRANCH  25  26
HETATM   26  C16 UNL     1       8.694   0.030   0.629  1.00  0.00     0.054 A 
HETATM   27  C17 UNL     1       8.804   1.153   1.405  1.00  0.00     0.034 A 
HETATM   28  C18 UNL     1       9.122   0.757   2.683  1.00  0.00     0.027 A 
HETATM   29  C19 UNL     1       9.190  -0.616   2.613  1.00  0.00     0.142 A 
HETATM   30  O3  UNL     1       8.940  -1.017   1.415  1.00  0.00    -0.327 OA
ENDBRANCH  25  26
ENDBRANCH  24  25
ENDBRANCH  22  24
ENDBRANCH  19  20
ENDBRANCH  18  19
ENDBRANCH  17  18
ENDBRANCH  16  17
ENDBRANCH   6  16
BRANCH   7  31
HETATM   31  C21 UNL     1      -1.353   1.356  -3.265  1.00  0.00     0.197 C 
HETATM   32  O4  UNL     1      -2.340   1.745  -3.944  1.00  0.00    -0.646 OA
HETATM   33  O5  UNL     1      -0.149   1.326  -3.915  1.00  0.00    -0.646 OA
ENDBRANCH   7  31
BRANCH   1  34
HETATM   34  C4  UNL     1      -1.951  -4.222   0.443  1.00  0.00     0.063 C 
BRANCH  34  35
HETATM   35  C3  UNL     1      -2.007  -4.539   1.872  1.00  0.00     0.006 C 
BRANCH  35  36
HETATM   36  C2  UNL     1      -3.335  -4.452   2.556  1.00  0.00    -0.004 C 
HETATM   37  C1  UNL     1      -4.295  -5.445   1.945  1.00  0.00     0.005 C 
ENDBRANCH  35  36
ENDBRANCH  34  35
ENDBRANCH   1  34
BRANCH  10  38
HETATM   38  O6  UNL     1      -4.709  -0.067  -1.974  1.00  0.00    -0.348 OA
ATOM     39  H6  UNL     1      -5.420  -0.611  -1.654  1.00  0.00     0.219 HD
ENDBRANCH  10  38
BRANCH  11  40
HETATM   40  C24 UNL     1      -5.629   0.620   0.673  1.00  0.00     0.035 C 
BRANCH  40  41
HETATM   41  C25 UNL     1      -5.504   2.115   0.686  1.00  0.00     0.022 C 
BRANCH  41  42
HETATM   42  C26 UNL     1      -4.502   2.652   1.646  1.00  0.00     0.122 C 
BRANCH  42  43
HETATM   43  N4  UNL     1      -4.439   4.069   1.599  1.00  0.00    -0.367 N 
HETATM   44  C27 UNL     1      -5.122   4.964   1.076  1.00  0.00     0.196 C 
HETATM   45  N5  UNL     1      -6.292   4.873   0.282  1.00  0.00    -0.067 NA
HETATM   46  N6  UNL     1      -4.667   6.328   1.298  1.00  0.00    -0.067 NA
ATOM     47  H4  UNL     1      -3.643   4.440   2.118  1.00  0.00     0.161 HD
ENDBRANCH  42  43
ENDBRANCH  41  42
ENDBRANCH  40  41
ENDBRANCH  11  40
TORSDOF 17
