REMARK  21 active torsions:
REMARK  status: ('A' for Active; 'I' for Inactive)
REMARK    1  A    between atoms: C2_2  and  C3_3 
REMARK    2  A    between atoms: C4_4  and  C5_5 
REMARK    3  A    between atoms: C5_5  and  N1_6 
REMARK    4  A    between atoms: N1_6  and  S1_8 
REMARK    5  A    between atoms: S1_8  and  N2_11 
REMARK    6  A    between atoms: N2_11  and  C6_13 
REMARK    7  A    between atoms: C6_13  and  C7_14 
REMARK    8  A    between atoms: C7_14  and  C8_15 
REMARK    9  A    between atoms: C8_15  and  C9_16 
REMARK   10  A    between atoms: C9_16  and  C10_17 
REMARK   11  A    between atoms: C10_17  and  N3_18 
REMARK   12  A    between atoms: N3_18  and  C11_20 
REMARK   13  A    between atoms: C12_23  and  N5_24 
REMARK   14  A    between atoms: N5_24  and  C13_26 
REMARK   15  A    between atoms: C13_26  and  C14_27 
REMARK   16  A    between atoms: C14_27  and  C15_28 
REMARK   17  A    between atoms: C15_28  and  N6_29 
REMARK   18  A    between atoms: C18_34  and  N8_35 
REMARK   19  A    between atoms: N8_35  and  C19_37 
REMARK   20  A    between atoms: C24_42  and  C25_43 
REMARK   21  A    between atoms: C25_43  and  N9_44 
ROOT
HETATM    1  C11 UNL     1      -0.131   0.507   0.500  1.00  0.00     0.707 A 
HETATM    2  N4  UNL     1      -1.073   1.442   0.773  1.00  0.00    -0.022 N 
ATOM      3  H4  UNL     1      -0.785   2.330   1.185  1.00  0.00     0.203 HD
HETATM    4  C12 UNL     1      -2.374   1.233   0.517  1.00  0.00     0.707 A 
HETATM    5  N7  UNL     1      -2.721   0.053  -0.026  1.00  0.00    -0.021 N 
ATOM      6  H7  UNL     1      -3.706  -0.119  -0.226  1.00  0.00     0.203 HD
HETATM    7  C18 UNL     1      -1.835  -0.907  -0.317  1.00  0.00     0.711 A 
HETATM    8  N12 UNL     1      -0.527  -0.644  -0.037  1.00  0.00    -0.021 N 
ATOM      9  H12 UNL     1       0.173  -1.355  -0.247  1.00  0.00     0.203 HD
ENDROOT
BRANCH   1  10
HETATM   10  N3  UNL     1       1.087   0.751   0.755  1.00  0.00    -0.225 N 
ATOM     11  H3  UNL     1       1.268   1.669   1.161  1.00  0.00     0.177 HD
BRANCH  10  12
HETATM   12  C10 UNL     1       2.236  -0.059   0.561  1.00  0.00     0.138 C 
BRANCH  12  13
HETATM   13  C9  UNL     1       3.338   0.837   0.023  1.00  0.00     0.020 C 
BRANCH  13  14
HETATM   14  C8  UNL     1       2.862   1.419  -1.290  1.00  0.00     0.003 C 
BRANCH  14  15
HETATM   15  C7  UNL     1       2.583   0.352  -2.294  1.00  0.00     0.020 C 
BRANCH  15  16
HETATM   16  C6  UNL     1       3.852  -0.443  -2.534  1.00  0.00     0.133 C 
BRANCH  16  17
HETATM   17  N2  UNL     1       4.935   0.368  -3.046  1.00  0.00    -0.303 N 
ATOM     18  H2  UNL     1       4.890   1.368  -3.240  1.00  0.00     0.173 HD
BRANCH  17  19
HETATM   19  S1  UNL     1       6.318  -0.644  -3.273  1.00  0.00     0.315 S 
HETATM   20  O1  UNL     1       5.821  -2.069  -3.422  1.00  0.00    -0.183 OA
HETATM   21  O2  UNL     1       6.992  -0.293  -4.571  1.00  0.00    -0.183 OA
BRANCH  19  22
HETATM   22  N1  UNL     1       7.406  -0.604  -1.965  1.00  0.00    -0.292 N 
ATOM     23  H1  UNL     1       8.182   0.057  -1.919  1.00  0.00     0.174 HD
BRANCH  22  24
HETATM   24  C5  UNL     1       7.153  -1.567  -0.932  1.00  0.00     0.227 C 
BRANCH  24  25
HETATM   25  C4  UNL     1       8.158  -1.444   0.154  1.00  0.00    -0.086 C 
HETATM   26  C3  UNL     1       8.982  -1.330   1.026  1.00  0.00    -0.105 C 
BRANCH  26  27
HETATM   27  C2  UNL     1      10.004  -1.205   2.081  1.00  0.00     0.089 C 
HETATM   28  C1  UNL     1      10.628   0.165   1.927  1.00  0.00     0.018 C 
ENDBRANCH  26  27
ENDBRANCH  24  25
ENDBRANCH  22  24
ENDBRANCH  19  22
ENDBRANCH  17  19
ENDBRANCH  16  17
ENDBRANCH  15  16
ENDBRANCH  14  15
ENDBRANCH  13  14
ENDBRANCH  12  13
ENDBRANCH  10  12
ENDBRANCH   1  10
BRANCH   4  29
HETATM   29  N5  UNL     1      -3.256   2.144   0.791  1.00  0.00    -0.225 N 
ATOM     30  H5  UNL     1      -4.242   1.975   0.592  1.00  0.00     0.177 HD
BRANCH  29  31
HETATM   31  C13 UNL     1      -2.845   3.390   1.374  1.00  0.00     0.140 C 
BRANCH  31  32
HETATM   32  C14 UNL     1      -3.970   4.420   1.342  1.00  0.00     0.050 C 
BRANCH  32  33
HETATM   33  C15 UNL     1      -4.335   4.640  -0.098  1.00  0.00     0.273 C 
BRANCH  33  34
HETATM   34  N6  UNL     1      -5.406   5.607  -0.252  1.00  0.00     0.080 N 
HETATM   35  C16 UNL     1      -6.676   5.080   0.271  1.00  0.00     0.309 C 
HETATM   36  C17 UNL     1      -5.069   6.705   0.669  1.00  0.00     0.309 C 
ENDBRANCH  33  34
ENDBRANCH  32  33
ENDBRANCH  31  32
ENDBRANCH  29  31
ENDBRANCH   4  29
BRANCH   7  37
HETATM   37  N8  UNL     1      -2.123  -2.046  -0.846  1.00  0.00    -0.190 N 
ATOM     38  H8  UNL     1      -1.398  -2.736  -1.043  1.00  0.00     0.184 HD
BRANCH  37  39
HETATM   39  C19 UNL     1      -3.497  -2.306  -1.147  1.00  0.00     0.057 A 
HETATM   40  C20 UNL     1      -4.071  -1.744  -2.279  1.00  0.00     0.030 A 
HETATM   41  C21 UNL     1      -5.392  -2.019  -2.534  1.00  0.00     0.002 A 
HETATM   42  C22 UNL     1      -6.140  -2.833  -1.691  1.00  0.00     0.001 A 
HETATM   43  C23 UNL     1      -5.558  -3.385  -0.570  1.00  0.00     0.011 A 
HETATM   44  C24 UNL     1      -4.233  -3.115  -0.306  1.00  0.00    -0.013 A 
BRANCH  44  45
HETATM   45  C25 UNL     1      -3.556  -3.693   0.897  1.00  0.00     0.162 C 
BRANCH  45  46
HETATM   46  N9  UNL     1      -4.528  -4.498   1.608  1.00  0.00    -0.363 N 
HETATM   47  C26 UNL     1      -4.539  -5.780   1.481  1.00  0.00     0.197 C 
HETATM   48  N10 UNL     1      -3.634  -6.496   0.664  1.00  0.00    -0.067 NA
HETATM   49  N11 UNL     1      -5.524  -6.506   2.210  1.00  0.00    -0.067 NA
ATOM     50  H9  UNL     1      -5.211  -4.045   2.216  1.00  0.00     0.162 HD
ENDBRANCH  45  46
ENDBRANCH  44  45
ENDBRANCH  37  39
ENDBRANCH   7  37
TORSDOF 21
