REMARK  21 active torsions:
REMARK  status: ('A' for Active; 'I' for Inactive)
REMARK    1  A    between atoms: C2_2  and  C3_3 
REMARK    2  A    between atoms: C3_3  and  N1_4 
REMARK    3  A    between atoms: N1_4  and  C4_6 
REMARK    4  A    between atoms: C5_9  and  N3_10 
REMARK    5  A    between atoms: N3_10  and  C6_12 
REMARK    6  A    between atoms: C6_12  and  C7_13 
REMARK    7  A    between atoms: C7_13  and  C8_14 
REMARK    8  A    between atoms: C8_14  and  N4_15 
REMARK    9  A    between atoms: N4_15  and  C9_17 
REMARK   10  A    between atoms: C9_17  and  O1_18 
REMARK   11  A    between atoms: C9_17  and  C10_20 
REMARK   12  A    between atoms: C10_20  and  C11_21 
REMARK   13  A    between atoms: C11_21  and  C12_22 
REMARK   14  A    between atoms: C12_22  and  C13_23 
REMARK   15  A    between atoms: C12_22  and  C16_30 
REMARK   16  A    between atoms: C13_23  and  C14_24 
REMARK   17  A    between atoms: C14_24  and  N5_25 
REMARK   18  A    between atoms: N9_39  and  C23_41 
REMARK   19  A    between atoms: C23_41  and  C24_42 
REMARK   20  A    between atoms: C24_42  and  C25_43 
REMARK   21  A    between atoms: C25_43  and  N10_44 
ROOT
HETATM    1  C4  UNL     1       2.378  -3.313   1.687  1.00  0.00     0.707 A 
HETATM    2  N2  UNL     1       1.701  -3.060   0.557  1.00  0.00    -0.022 N 
ATOM      3  H2  UNL     1       1.099  -3.768   0.136  1.00  0.00     0.203 HD
HETATM    4  C5  UNL     1       1.839  -1.846  -0.005  1.00  0.00     0.707 A 
HETATM    5  N8  UNL     1       2.660  -0.909   0.585  1.00  0.00    -0.022 N 
ATOM      6  H8  UNL     1       2.753   0.006   0.144  1.00  0.00     0.203 HD
HETATM    7  C22 UNL     1       3.337  -1.148   1.706  1.00  0.00     0.707 A 
HETATM    8  N9  UNL     1       4.111  -0.323   2.281  1.00  0.00    -0.225 N 
ATOM      9  H9  UNL     1       4.568  -0.638   3.137  1.00  0.00     0.177 HD
HETATM   10  N12 UNL     1       3.178  -2.393   2.257  1.00  0.00    -0.022 N 
ATOM     11  H12 UNL     1       3.676  -2.627   3.116  1.00  0.00     0.203 HD
ENDROOT
BRANCH   4  12
HETATM   12  N3  UNL     1       1.245  -1.520  -1.076  1.00  0.00    -0.225 N 
ATOM     13  H3  UNL     1       1.387  -0.584  -1.455  1.00  0.00     0.177 HD
BRANCH  12  14
HETATM   14  C6  UNL     1       0.380  -2.427  -1.770  1.00  0.00     0.139 C 
BRANCH  14  15
HETATM   15  C7  UNL     1      -1.027  -2.357  -1.185  1.00  0.00     0.040 C 
BRANCH  15  16
HETATM   16  C8  UNL     1      -1.524  -0.961  -1.350  1.00  0.00     0.123 C 
BRANCH  16  17
HETATM   17  N4  UNL     1      -2.890  -0.819  -0.840  1.00  0.00    -0.371 N 
ATOM     18  H4  UNL     1      -3.634  -0.575  -1.494  1.00  0.00     0.161 HD
BRANCH  17  19
HETATM   19  C9  UNL     1      -3.214  -1.004   0.506  1.00  0.00     0.135 C 
BRANCH  19  20
HETATM   20  O1  UNL     1      -2.189  -1.293   1.286  1.00  0.00    -0.346 OA
ATOM     21  H1  UNL     1      -2.409  -1.419   2.201  1.00  0.00     0.219 HD
ENDBRANCH  19  20
BRANCH  19  22
HETATM   22  C10 UNL     1      -4.460  -0.939   1.197  1.00  0.00     0.052 C 
BRANCH  22  23
HETATM   23  C11 UNL     1      -5.648  -0.700   0.761  1.00  0.00    -0.013 C 
BRANCH  23  24
HETATM   24  C12 UNL     1      -6.223  -0.411  -0.533  1.00  0.00     0.042 C 
BRANCH  24  25
HETATM   25  C13 UNL     1      -6.151   1.037  -0.931  1.00  0.00     0.033 C 
BRANCH  25  26
HETATM   26  C14 UNL     1      -6.857   1.960   0.006  1.00  0.00     0.123 C 
BRANCH  26  27
HETATM   27  N5  UNL     1      -6.761   3.348  -0.412  1.00  0.00    -0.367 N 
HETATM   28  C15 UNL     1      -7.683   4.206  -0.144  1.00  0.00     0.196 C 
HETATM   29  N6  UNL     1      -7.593   5.548  -0.546  1.00  0.00    -0.067 NA
HETATM   30  N7  UNL     1      -8.818   3.758   0.581  1.00  0.00    -0.067 NA
ATOM     31  H5  UNL     1      -5.939   3.652  -0.933  1.00  0.00     0.161 HD
ENDBRANCH  26  27
ENDBRANCH  25  26
ENDBRANCH  24  25
BRANCH  24  32
HETATM   32  C16 UNL     1      -7.655  -0.889  -0.539  1.00  0.00    -0.050 A 
HETATM   33  C17 UNL     1      -7.949  -1.983   0.260  1.00  0.00     0.008 A 
HETATM   34  C18 UNL     1      -9.226  -2.518   0.332  1.00  0.00     0.001 A 
HETATM   35  C19 UNL     1     -10.190  -1.899  -0.438  1.00  0.00     0.000 A 
HETATM   36  C20 UNL     1      -9.937  -0.826  -1.231  1.00  0.00     0.001 A 
HETATM   37  C21 UNL     1      -8.644  -0.306  -1.287  1.00  0.00     0.008 A 
ENDBRANCH  24  32
ENDBRANCH  23  24
ENDBRANCH  22  23
ENDBRANCH  19  22
ENDBRANCH  17  19
ENDBRANCH  16  17
ENDBRANCH  15  16
ENDBRANCH  14  15
ENDBRANCH  12  14
ENDBRANCH   4  12
BRANCH   1  38
HETATM   38  N1  UNL     1       2.292  -4.448   2.281  1.00  0.00    -0.222 N 
ATOM     39  H1  UNL     1       2.832  -4.580   3.136  1.00  0.00     0.178 HD
BRANCH  38  40
HETATM   40  C3  UNL     1       1.495  -5.532   1.826  1.00  0.00     0.164 C 
BRANCH  40  41
HETATM   41  C2  UNL     1       2.223  -6.503   0.954  1.00  0.00    -0.017 C 
HETATM   42  C1  UNL     1       1.858  -6.764  -0.280  1.00  0.00     0.008 C 
ENDBRANCH  40  41
ENDBRANCH  38  40
ENDBRANCH   1  38
BRANCH   8  43
HETATM   43  C23 UNL     1       4.399   0.988   1.849  1.00  0.00     0.140 C 
BRANCH  43  44
HETATM   44  C24 UNL     1       5.864   1.144   1.462  1.00  0.00     0.050 C 
BRANCH  44  45
HETATM   45  C25 UNL     1       6.100   2.549   1.014  1.00  0.00     0.274 C 
BRANCH  45  46
HETATM   46  N10 UNL     1       7.486   2.760   0.637  1.00  0.00     0.091 N 
HETATM   47  C26 UNL     1       7.624   4.134   0.219  1.00  0.00     0.302 C 
HETATM   48  C27 UNL     1       9.069   4.471  -0.098  1.00  0.00     0.302 C 
HETATM   49  N11 UNL     1       9.748   3.209  -0.325  1.00  0.00     0.087 N 
HETATM   50  C28 UNL     1      11.114   3.366  -0.720  1.00  0.00     0.310 C 
HETATM   51  C29 UNL     1       8.975   2.394  -1.219  1.00  0.00     0.302 C 
HETATM   52  C30 UNL     1       7.812   1.817  -0.406  1.00  0.00     0.302 C 
ENDBRANCH  45  46
ENDBRANCH  44  45
ENDBRANCH  43  44
ENDBRANCH   8  43
TORSDOF 21
