REMARK  18 active torsions:
REMARK  status: ('A' for Active; 'I' for Inactive)
REMARK    1  A    between atoms: N1_1  and  C1_5 
REMARK    2  A    between atoms: C1_5  and  C2_6 
REMARK    3  A    between atoms: C2_6  and  C3_7 
REMARK    4  A    between atoms: C3_7  and  C4_8 
REMARK    5  A    between atoms: C4_8  and  C5_9 
REMARK    6  A    between atoms: C5_9  and  N2_10 
REMARK    7  A    between atoms: C5_9  and  C6_14 
REMARK       I    between atoms: C6_14  and  N3_16 
REMARK    8  A    between atoms: N3_16  and  C7_18 
REMARK    9  A    between atoms: C7_18  and  C8_19 
REMARK   10  A    between atoms: C8_19  and  C9_20 
REMARK   11  A    between atoms: C9_20  and  C10_21 
REMARK   12  A    between atoms: C10_21  and  C11_22 
REMARK   13  A    between atoms: C11_22  and  C12_23 
REMARK   14  A    between atoms: C11_22  and  C15_30 
REMARK   15  A    between atoms: C12_23  and  C13_24 
REMARK   16  A    between atoms: C13_24  and  N4_25 
REMARK       I    between atoms: N4_25  and  C14_27 
REMARK   17  A    between atoms: N7_33  and  C17_34 
REMARK   18  A    between atoms: C17_34  and  C18_35 
ROOT
HETATM    1  C11 UNL     1      -0.752  -0.411   0.528  1.00  0.00    -0.057 C 
ENDROOT
BRANCH   1   2
HETATM    2  C10 UNL     1      -0.089   0.376  -0.542  1.00  0.00     0.036 C 
BRANCH   2   3
HETATM    3  C9  UNL     1       1.249   0.036  -1.015  1.00  0.00     0.006 C 
BRANCH   3   4
HETATM    4  C8  UNL     1       2.473   0.110  -0.203  1.00  0.00     0.020 C 
BRANCH   4   5
HETATM    5  C7  UNL     1       2.632  -0.711   1.024  1.00  0.00     0.122 C 
BRANCH   5   6
HETATM    6  N3  UNL     1       3.990  -0.544   1.573  1.00  0.00    -0.359 N 
HETATM    7  C6  UNL     1       5.089  -0.979   0.808  1.00  0.00     0.248 C 
HETATM    8  O1  UNL     1       4.919  -1.508  -0.307  1.00  0.00    -0.271 OA
ATOM      9  H3  UNL     1       4.131  -0.121   2.490  1.00  0.00     0.162 HD
BRANCH   7  10
HETATM   10  C5  UNL     1       6.457  -0.812   1.320  1.00  0.00     0.274 C 
BRANCH  10  11
HETATM   11  C4  UNL     1       7.267   0.251   0.588  1.00  0.00     0.042 C 
BRANCH  11  12
HETATM   12  C3  UNL     1       7.453  -0.001  -0.863  1.00  0.00     0.004 C 
BRANCH  12  13
HETATM   13  C2  UNL     1       8.258   1.104  -1.496  1.00  0.00     0.027 C 
BRANCH  13  14
HETATM   14  C1  UNL     1       9.604   1.189  -0.861  1.00  0.00     0.229 C 
BRANCH  14  15
HETATM   15  N1  UNL     1      10.420   2.243  -1.476  1.00  0.00    -0.079 N 
ATOM     16  H13 UNL     1      10.490   2.120  -2.486  1.00  0.00     0.274 HD
ATOM     17  H12 UNL     1       9.941   3.144  -1.460  1.00  0.00     0.274 HD
ATOM     18  H11 UNL     1      11.341   2.301  -1.042  1.00  0.00     0.274 HD
ENDBRANCH  14  15
ENDBRANCH  13  14
ENDBRANCH  12  13
ENDBRANCH  11  12
ENDBRANCH  10  11
BRANCH  10  19
HETATM   19  N2  UNL     1       6.430  -0.328   2.719  1.00  0.00    -0.067 N 
ATOM     20  H23 UNL     1       7.350  -0.148   3.121  1.00  0.00     0.275 HD
ATOM     21  H22 UNL     1       6.076   0.622   2.830  1.00  0.00     0.275 HD
ATOM     22  H21 UNL     1       5.888  -1.040   3.209  1.00  0.00     0.275 HD
ENDBRANCH  10  19
ENDBRANCH   7  10
ENDBRANCH   5   6
ENDBRANCH   4   5
ENDBRANCH   3   4
ENDBRANCH   2   3
ENDBRANCH   1   2
BRANCH   1  23
HETATM   23  C12 UNL     1      -0.977  -1.838   0.314  1.00  0.00    -0.003 C 
BRANCH  23  24
HETATM   24  C13 UNL     1      -1.786  -2.374  -0.779  1.00  0.00     0.149 C 
BRANCH  24  25
HETATM   25  N4  UNL     1      -1.792  -3.857  -0.749  1.00  0.00    -0.363 N 
HETATM   26  C14 UNL     1      -2.830  -4.562  -0.609  1.00  0.00     0.197 C 
HETATM   27  N5  UNL     1      -2.704  -5.973  -0.596  1.00  0.00    -0.067 NA
HETATM   28  N6  UNL     1      -4.122  -4.008  -0.464  1.00  0.00    -0.067 NA
ATOM     29  H4  UNL     1      -0.899  -4.339  -0.848  1.00  0.00     0.162 HD
ENDBRANCH  24  25
ENDBRANCH  23  24
ENDBRANCH   1  23
BRANCH   1  30
HETATM   30  C15 UNL     1      -1.876   0.410   1.091  1.00  0.00     0.201 C 
HETATM   31  C16 UNL     1      -2.934   0.859   0.218  1.00  0.00     0.247 C 
HETATM   32  O2  UNL     1      -3.158   0.614  -0.981  1.00  0.00    -0.271 OA
HETATM   33  N7  UNL     1      -3.905   1.743   0.827  1.00  0.00    -0.281 N 
HETATM   34  C25 UNL     1      -3.971   1.931   2.221  1.00  0.00     0.238 C 
HETATM   35  O3  UNL     1      -4.352   3.071   2.661  1.00  0.00    -0.272 OA
HETATM   36  C26 UNL     1      -3.641   0.928   3.234  1.00  0.00     0.213 C 
HETATM   37  S1  UNL     1      -2.639  -0.345   2.508  1.00  0.00     0.041 S 
HETATM   38  O4  UNL     1      -3.703  -1.574   2.085  1.00  0.00    -0.256 OA
BRANCH  33  39
HETATM   39  C17 UNL     1      -4.830   2.458  -0.028  1.00  0.00     0.193 C 
BRANCH  39  40
HETATM   40  C18 UNL     1      -6.076   1.739  -0.288  1.00  0.00     0.039 A 
HETATM   41  N8  UNL     1      -6.401   0.531   0.187  1.00  0.00    -0.366 N 
HETATM   42  C19 UNL     1      -7.616   0.197  -0.260  1.00  0.00     0.101 A 
ATOM     43  H8  UNL     1      -5.815  -0.043   0.793  1.00  0.00     0.165 HD
HETATM   44  C20 UNL     1      -8.078   1.217  -1.039  1.00  0.00     0.007 A 
HETATM   45  C21 UNL     1      -9.249   1.374  -1.724  1.00  0.00     0.101 A 
HETATM   46  C24 UNL     1      -7.115   2.194  -1.064  1.00  0.00     0.002 A 
HETATM   47  N9  UNL     1      -9.479   2.480  -2.431  1.00  0.00    -0.374 N 
HETATM   48  C22 UNL     1      -8.551   3.448  -2.468  1.00  0.00     0.088 A 
ATOM     49  H9  UNL     1     -10.355   2.590  -2.941  1.00  0.00     0.164 HD
HETATM   50  C23 UNL     1      -7.374   3.325  -1.798  1.00  0.00     0.031 A 
ENDBRANCH  39  40
ENDBRANCH  33  39
ENDBRANCH   1  30
TORSDOF 18
