REMARK  4 active torsions:
REMARK  status: ('A' for Active; 'I' for Inactive)
REMARK    1  A    between atoms: O1_2  and  C2_3 
REMARK    2  A    between atoms: C2_3  and  C3_5 
REMARK    3  A    between atoms: C4_8  and  O3_9 
REMARK    4  A    between atoms: C7_14  and  N3_15 
ROOT
HETATM    1  C3  UNL     1       1.047   0.666   0.072  1.00  0.00     0.136 A 
HETATM    2  N1  UNL     1       0.026   1.540   0.102  1.00  0.00    -0.329 N 
ATOM      3  H1  UNL     1       0.240   2.536   0.160  1.00  0.00     0.168 HD
HETATM    4  C4  UNL     1      -1.263   1.163   0.059  1.00  0.00     0.171 A 
HETATM    5  C6  UNL     1      -1.511  -0.192  -0.019  1.00  0.00     0.117 A 
HETATM    6  N2  UNL     1      -2.771  -0.669  -0.066  1.00  0.00    -0.187 N 
ATOM      7  H2  UNL     1      -3.558  -0.021  -0.043  1.00  0.00     0.184 HD
HETATM    8  C7  UNL     1      -2.999  -1.987  -0.142  1.00  0.00     0.679 A 
HETATM    9  N4  UNL     1      -2.001  -2.887  -0.174  1.00  0.00    -0.156 N 
ATOM     10  H4  UNL     1      -2.215  -3.883  -0.232  1.00  0.00     0.187 HD
HETATM   11  C8  UNL     1      -0.729  -2.479  -0.130  1.00  0.00     0.274 A 
HETATM   12  O4  UNL     1       0.191  -3.321  -0.160  1.00  0.00    -0.267 OA
HETATM   13  C9  UNL     1      -0.473  -1.132  -0.052  1.00  0.00     0.091 A 
HETATM   14  C10 UNL     1       0.835  -0.694  -0.006  1.00  0.00     0.097 A 
HETATM   15  N5  UNL     1       1.929  -1.623  -0.038  1.00  0.00    -0.099 NA
ENDROOT
BRANCH   1  16
HETATM   16  C2  UNL     1       2.439   1.126   0.121  1.00  0.00     0.311 C 
HETATM   17  O2  UNL     1       2.696   2.352   0.192  1.00  0.00    -0.258 OA
BRANCH  16  18
HETATM   18  O1  UNL     1       3.507   0.248   0.091  1.00  0.00    -0.321 OA
HETATM   19  C1  UNL     1       4.860   0.662   0.137  1.00  0.00     0.213 C 
ENDBRANCH  16  18
ENDBRANCH   1  16
BRANCH   4  20
HETATM   20  O3  UNL     1      -2.321   2.040   0.089  1.00  0.00    -0.339 OA
HETATM   21  C5  UNL     1      -2.220   3.428   0.167  1.00  0.00     0.211 C 
ENDBRANCH   4  20
BRANCH   8  22
HETATM   22  N3  UNL     1      -4.205  -2.416  -0.186  1.00  0.00    -0.234 N 
ATOM     23  H32 UNL     1      -4.962  -1.733  -0.162  1.00  0.00     0.174 HD
ATOM     24  H31 UNL     1      -4.379  -3.419  -0.244  1.00  0.00     0.174 HD
ENDBRANCH   8  22
TORSDOF 4
