REMARK  3 active torsions:
REMARK  status: ('A' for Active; 'I' for Inactive)
REMARK    1  A    between atoms: N1_1  and  C1_4 
REMARK    2  A    between atoms: C2_7  and  C3_8 
REMARK    3  A    between atoms: C4_19  and  C5_20 
ROOT
HETATM    1  C1  UNL     1       1.525  -1.943   1.048  1.00  0.00     0.679 A 
HETATM    2  N2  UNL     1       2.374  -1.078   0.464  1.00  0.00    -0.173 N 
ATOM      3  H2  UNL     1       3.380  -1.242   0.485  1.00  0.00     0.186 HD
HETATM    4  C2  UNL     1       1.869   0.006  -0.147  1.00  0.00     0.170 A 
HETATM    5  N7  UNL     1       0.552   0.183  -0.152  1.00  0.00    -0.324 N 
ATOM      6  H7  UNL     1       0.183   1.011  -0.620  1.00  0.00     0.169 HD
HETATM    7  C4  UNL     1      -0.326  -0.660   0.420  1.00  0.00     0.140 A 
HETATM    8  N10 UNL     1       0.182  -1.742   1.030  1.00  0.00    -0.176 N 
ATOM      9  H10 UNL     1      -0.440  -2.413   1.480  1.00  0.00     0.186 HD
ENDROOT
BRANCH   4  10
HETATM   10  C3  UNL     1       2.754   0.982  -0.800  1.00  0.00     0.182 A 
HETATM   11  N3  UNL     1       4.093   0.919  -0.864  1.00  0.00    -0.266 N 
HETATM   12  N4  UNL     1       4.497   1.978  -1.530  1.00  0.00    -0.226 N 
ATOM     13  H3  UNL     1       4.685   0.188  -0.470  1.00  0.00     0.190 HD
HETATM   14  N5  UNL     1       3.469   2.718  -1.894  1.00  0.00    -0.226 N 
ATOM     15  H4  UNL     1       5.472   2.197  -1.737  1.00  0.00     0.210 HD
HETATM   16  N6  UNL     1       2.399   2.101  -1.443  1.00  0.00    -0.266 N 
ATOM     17  H5  UNL     1       3.498   3.592  -2.419  1.00  0.00     0.210 HD
ATOM     18  H6  UNL     1       1.440   2.427  -1.565  1.00  0.00     0.190 HD
ENDBRANCH   4  10
BRANCH   1  19
HETATM   19  N1  UNL     1       1.967  -3.009   1.653  1.00  0.00    -0.234 N 
ATOM     20  H12 UNL     1       2.976  -3.160   1.667  1.00  0.00     0.174 HD
ATOM     21  H11 UNL     1       1.323  -3.665   2.096  1.00  0.00     0.174 HD
ENDBRANCH   1  19
BRANCH   7  22
HETATM   22  C5  UNL     1      -1.737  -0.353   0.345  1.00  0.00     0.092 A 
HETATM   23  C6  UNL     1      -2.669  -1.175   0.909  1.00  0.00     0.110 A 
HETATM   24  N8  UNL     1      -3.993  -0.853   0.817  1.00  0.00    -0.361 N 
HETATM   25  C7  UNL     1      -4.396   0.259   0.182  1.00  0.00     0.183 A 
ATOM     26  H8  UNL     1      -4.688  -1.469   1.239  1.00  0.00     0.166 HD
HETATM   27  N9  UNL     1      -3.468   1.046  -0.361  1.00  0.00    -0.319 N 
HETATM   28  C8  UNL     1      -2.156   0.780  -0.302  1.00  0.00     0.261 A 
ATOM     29  H9  UNL     1      -3.771   1.891  -0.845  1.00  0.00     0.169 HD
HETATM   30  O1  UNL     1      -1.346   1.589  -0.849  1.00  0.00    -0.267 OA
ENDBRANCH   7  22
TORSDOF 3
