REMARK  14 active torsions:
REMARK  status: ('A' for Active; 'I' for Inactive)
REMARK    1  A    between atoms: C3_3  and  C4_4 
REMARK    2  A    between atoms: C4_4  and  C5_5 
REMARK    3  A    between atoms: C5_5  and  C6_6 
REMARK    4  A    between atoms: C6_6  and  C7_7 
REMARK    5  A    between atoms: C7_7  and  C8_8 
REMARK    6  A    between atoms: C8_8  and  C9_9 
REMARK    7  A    between atoms: C9_9  and  C10_10 
REMARK    8  A    between atoms: C10_10  and  C11_11 
REMARK    9  A    between atoms: C11_11  and  C12_12 
REMARK   10  A    between atoms: C12_12  and  C13_13 
REMARK   11  A    between atoms: C13_13  and  C14_14 
REMARK   12  A    between atoms: C14_14  and  C15_15 
REMARK   13  A    between atoms: C15_15  and  C16_16 
REMARK   14  A    between atoms: C16_16  and  C17_17 
ROOT
HETATM    1  C1  UNL     1      -8.823   3.041   1.174  1.00  0.00     0.012 C 
HETATM    2  C2  UNL     1      -8.650   2.311   0.214  1.00  0.00    -0.117 C 
HETATM    3  C3  UNL     1      -8.461   1.424  -0.943  1.00  0.00     0.093 C 
ENDROOT
BRANCH   3   4
HETATM    4  C4  UNL     1      -7.498   0.305  -0.487  1.00  0.00     0.012 C 
BRANCH   4   5
HETATM    5  C5  UNL     1      -6.226   0.943  -0.073  1.00  0.00     0.001 C 
BRANCH   5   6
HETATM    6  C6  UNL     1      -5.236  -0.084   0.417  1.00  0.00     0.000 C 
BRANCH   6   7
HETATM    7  C7  UNL     1      -4.918  -1.058  -0.671  1.00  0.00     0.000 C 
BRANCH   7   8
HETATM    8  C8  UNL     1      -3.932  -2.088  -0.194  1.00  0.00     0.000 C 
BRANCH   8   9
HETATM    9  C9  UNL     1      -2.646  -1.406   0.213  1.00  0.00     0.000 C 
BRANCH   9  10
HETATM   10  C10 UNL     1      -1.617  -2.419   0.672  1.00  0.00     0.000 C 
BRANCH  10  11
HETATM   11  C11 UNL     1      -0.371  -1.686   1.099  1.00  0.00     0.000 C 
BRANCH  11  12
HETATM   12  C12 UNL     1       0.177  -0.912  -0.048  1.00  0.00     0.000 C 
BRANCH  12  13
HETATM   13  C13 UNL     1       1.432  -0.183   0.342  1.00  0.00     0.000 C 
BRANCH  13  14
HETATM   14  C14 UNL     1       2.507  -1.112   0.769  1.00  0.00     0.000 C 
BRANCH  14  15
HETATM   15  C15 UNL     1       3.802  -0.394   1.169  1.00  0.00     0.000 C 
BRANCH  15  16
HETATM   16  C16 UNL     1       4.341   0.386   0.034  1.00  0.00     0.006 C 
BRANCH  16  17
HETATM   17  C17 UNL     1       5.621   1.114   0.333  1.00  0.00     0.011 C 
HETATM   18  C18 UNL     1       6.087   1.878  -0.886  1.00  0.00     0.008 C 
HETATM   19  C19 UNL     1       7.208   1.103  -1.560  1.00  0.00     0.028 C 
HETATM   20  C20 UNL     1       8.351   1.006  -0.607  1.00  0.00     0.232 C 
HETATM   21  N1  UNL     1       7.950   1.028   0.786  1.00  0.00    -0.075 N 
HETATM   22  C21 UNL     1       6.707   0.247   0.867  1.00  0.00     0.237 C 
ATOM     23  H12 UNL     1       8.677   0.701   1.423  1.00  0.00     0.277 HD
ATOM     24  H11 UNL     1       7.863   1.970   1.168  1.00  0.00     0.277 HD
ENDBRANCH  16  17
ENDBRANCH  15  16
ENDBRANCH  14  15
ENDBRANCH  13  14
ENDBRANCH  12  13
ENDBRANCH  11  12
ENDBRANCH  10  11
ENDBRANCH   9  10
ENDBRANCH   8   9
ENDBRANCH   7   8
ENDBRANCH   6   7
ENDBRANCH   5   6
ENDBRANCH   4   5
ENDBRANCH   3   4
TORSDOF 14
