REMARK  14 active torsions:
REMARK  status: ('A' for Active; 'I' for Inactive)
REMARK    1  A    between atoms: C3_3  and  C4_4 
REMARK    2  A    between atoms: C4_4  and  C5_5 
REMARK    3  A    between atoms: C5_5  and  C6_6 
REMARK    4  A    between atoms: C6_6  and  C7_7 
REMARK    5  A    between atoms: C7_7  and  C8_8 
REMARK    6  A    between atoms: C8_8  and  C9_9 
REMARK    7  A    between atoms: C9_9  and  C10_10 
REMARK    8  A    between atoms: C10_10  and  C11_11 
REMARK    9  A    between atoms: C11_11  and  C12_12 
REMARK   10  A    between atoms: C12_12  and  C13_13 
REMARK   11  A    between atoms: C13_13  and  C14_14 
REMARK   12  A    between atoms: C14_14  and  C15_15 
REMARK   13  A    between atoms: C15_15  and  N1_16 
REMARK   14  A    between atoms: N1_16  and  C16_18 
ROOT
HETATM    1  C11 UNL     1       0.678  -1.596  -0.162  1.00  0.00     0.000 C 
ENDROOT
BRANCH   1   2
HETATM    2  C10 UNL     1      -0.254  -1.071  -1.217  1.00  0.00     0.000 C 
BRANCH   2   3
HETATM    3  C9  UNL     1      -1.301  -2.064  -1.566  1.00  0.00     0.000 C 
BRANCH   3   4
HETATM    4  C8  UNL     1      -2.132  -2.414  -0.380  1.00  0.00     0.000 C 
BRANCH   4   5
HETATM    5  C7  UNL     1      -2.831  -1.200   0.215  1.00  0.00     0.000 C 
BRANCH   5   6
HETATM    6  C6  UNL     1      -3.710  -0.614  -0.838  1.00  0.00     0.000 C 
BRANCH   6   7
HETATM    7  C5  UNL     1      -4.467   0.621  -0.375  1.00  0.00     0.001 C 
BRANCH   7   8
HETATM    8  C4  UNL     1      -5.349   0.343   0.786  1.00  0.00     0.009 C 
BRANCH   8   9
HETATM    9  C3  UNL     1      -6.080   1.575   1.250  1.00  0.00     0.011 A 
HETATM   10  C2  UNL     1      -5.231   2.688   1.673  1.00  0.00    -0.026 A 
HETATM   11  C1  UNL     1      -5.702   3.525   0.787  1.00  0.00    -0.030 A 
HETATM   12  C21 UNL     1      -6.622   2.512   0.245  1.00  0.00     0.035 A 
ENDBRANCH   8   9
ENDBRANCH   7   8
ENDBRANCH   6   7
ENDBRANCH   5   6
ENDBRANCH   4   5
ENDBRANCH   3   4
ENDBRANCH   2   3
ENDBRANCH   1   2
BRANCH   1  13
HETATM   13  C12 UNL     1       1.708  -0.485   0.104  1.00  0.00     0.000 C 
BRANCH  13  14
HETATM   14  C13 UNL     1       2.694  -0.936   1.158  1.00  0.00     0.002 C 
BRANCH  14  15
HETATM   15  C14 UNL     1       3.463  -2.142   0.779  1.00  0.00     0.020 C 
BRANCH  15  16
HETATM   16  C15 UNL     1       4.340  -2.088  -0.407  1.00  0.00     0.119 C 
BRANCH  16  17
HETATM   17  N1  UNL     1       5.443  -1.179  -0.377  1.00  0.00    -0.393 N 
ATOM     18  H1  UNL     1       6.369  -1.604  -0.329  1.00  0.00     0.159 HD
BRANCH  17  19
HETATM   19  C16 UNL     1       5.413   0.241  -0.406  1.00  0.00     0.001 C 
HETATM   20  C17 UNL     1       4.957   1.056  -1.315  1.00  0.00    -0.002 C 
HETATM   21  C18 UNL     1       5.128   2.489  -0.932  1.00  0.00     0.029 C 
HETATM   22  C19 UNL     1       5.259   2.367   0.594  1.00  0.00     0.010 C 
HETATM   23  C20 UNL     1       5.986   1.055   0.696  1.00  0.00     0.056 C 
ENDBRANCH  17  19
ENDBRANCH  16  17
ENDBRANCH  15  16
ENDBRANCH  14  15
ENDBRANCH  13  14
ENDBRANCH   1  13
TORSDOF 14
