REMARK  14 active torsions:
REMARK  status: ('A' for Active; 'I' for Inactive)
REMARK    1  A    between atoms: C1_1  and  C2_2 
REMARK    2  A    between atoms: C1_1  and  C11_11 
REMARK    3  A    between atoms: C2_2  and  C3_3 
REMARK    4  A    between atoms: C3_3  and  C4_4 
REMARK    5  A    between atoms: C4_4  and  C5_5 
REMARK    6  A    between atoms: C5_5  and  C6_6 
REMARK    7  A    between atoms: C6_6  and  C7_7 
REMARK    8  A    between atoms: C7_7  and  C8_8 
REMARK    9  A    between atoms: C11_11  and  C12_12 
REMARK   10  A    between atoms: C12_12  and  C13_13 
REMARK   11  A    between atoms: C13_13  and  C14_14 
REMARK   12  A    between atoms: C14_14  and  C15_15 
REMARK   13  A    between atoms: C15_15  and  C16_16 
REMARK   14  A    between atoms: C16_16  and  C17_17 
ROOT
HETATM    1  C12 UNL     1      -0.680   1.616  -1.788  1.00  0.00    -0.031 C 
ENDROOT
BRANCH   1   2
HETATM    2  C11 UNL     1      -0.135   1.203  -0.488  1.00  0.00     0.027 C 
BRANCH   2   3
HETATM    3  C1  UNL     1       0.642  -0.063  -0.442  1.00  0.00     0.004 C 
BRANCH   3   4
HETATM    4  C2  UNL     1       1.832  -0.072  -1.340  1.00  0.00     0.000 C 
BRANCH   4   5
HETATM    5  C3  UNL     1       2.798   1.001  -0.977  1.00  0.00     0.000 C 
BRANCH   5   6
HETATM    6  C4  UNL     1       3.998   0.982  -1.876  1.00  0.00     0.000 C 
BRANCH   6   7
HETATM    7  C5  UNL     1       4.739  -0.304  -1.799  1.00  0.00     0.000 C 
BRANCH   7   8
HETATM    8  C6  UNL     1       5.232  -0.617  -0.408  1.00  0.00     0.000 C 
BRANCH   8   9
HETATM    9  C7  UNL     1       6.173   0.448   0.111  1.00  0.00     0.004 C 
BRANCH   9  10
HETATM   10  C8  UNL     1       6.596   0.022   1.507  1.00  0.00    -0.014 A 
HETATM   11  C9  UNL     1       5.423  -0.115   2.459  1.00  0.00     0.005 A 
HETATM   12  C10 UNL     1       6.463   0.927   2.655  1.00  0.00     0.005 A 
ENDBRANCH   9  10
ENDBRANCH   8   9
ENDBRANCH   7   8
ENDBRANCH   6   7
ENDBRANCH   5   6
ENDBRANCH   4   5
ENDBRANCH   3   4
ENDBRANCH   2   3
ENDBRANCH   1   2
BRANCH   1  13
HETATM   13  C13 UNL     1      -1.600   0.797  -2.567  1.00  0.00    -0.031 C 
BRANCH  13  14
HETATM   14  C14 UNL     1      -2.941   0.435  -2.070  1.00  0.00     0.027 C 
BRANCH  14  15
HETATM   15  C15 UNL     1      -2.966  -0.427  -0.861  1.00  0.00     0.006 C 
BRANCH  15  16
HETATM   16  C16 UNL     1      -4.460  -0.689  -0.558  1.00  0.00     0.033 C 
BRANCH  16  17
HETATM   17  C17 UNL     1      -4.600  -1.559   0.658  1.00  0.00     0.185 C 
HETATM   18  C18 UNL     1      -3.979  -0.888   1.845  1.00  0.00     0.033 C 
HETATM   19  C19 UNL     1      -5.050  -0.766   2.938  1.00  0.00     0.004 C 
HETATM   20  C20 UNL     1      -6.165   0.075   2.302  1.00  0.00     0.027 C 
HETATM   21  C21 UNL     1      -6.766  -0.697   1.143  1.00  0.00     0.232 C 
HETATM   22  N1  UNL     1      -5.979  -1.862   0.881  1.00  0.00    -0.071 N 
ATOM     23  H12 UNL     1      -6.366  -2.397   0.104  1.00  0.00     0.277 HD
ATOM     24  H11 UNL     1      -6.086  -2.551   1.626  1.00  0.00     0.277 HD
ENDBRANCH  16  17
ENDBRANCH  15  16
ENDBRANCH  14  15
ENDBRANCH  13  14
ENDBRANCH   1  13
TORSDOF 14
