REMARK  14 active torsions:
REMARK  status: ('A' for Active; 'I' for Inactive)
REMARK    1  A    between atoms: C4_4  and  C5_5 
REMARK    2  A    between atoms: C5_5  and  N1_6 
REMARK    3  A    between atoms: N1_6  and  C6_9 
REMARK    4  A    between atoms: C6_9  and  C7_10 
REMARK    5  A    between atoms: C7_10  and  C8_11 
REMARK    6  A    between atoms: C8_11  and  C9_12 
REMARK    7  A    between atoms: C9_12  and  C10_13 
REMARK    8  A    between atoms: C10_13  and  C11_14 
REMARK    9  A    between atoms: C11_14  and  C12_15 
REMARK   10  A    between atoms: C12_15  and  C13_16 
REMARK   11  A    between atoms: C13_16  and  C14_17 
REMARK   12  A    between atoms: C14_17  and  C15_18 
REMARK   13  A    between atoms: C15_18  and  C16_19 
REMARK   14  A    between atoms: C16_19  and  C17_20 
ROOT
HETATM    1  C7  UNL     1       1.508  -0.517  -0.491  1.00  0.00     0.027 C 
ENDROOT
BRANCH   1   2
HETATM    2  C6  UNL     1       2.440  -1.193   0.490  1.00  0.00     0.232 C 
BRANCH   2   3
HETATM    3  N1  UNL     1       3.697  -0.501   0.578  1.00  0.00    -0.075 N 
ATOM      4  H12 UNL     1       4.236  -0.801   1.390  1.00  0.00     0.277 HD
ATOM      5  H11 UNL     1       3.570   0.479   0.830  1.00  0.00     0.277 HD
BRANCH   3   6
HETATM    6  C5  UNL     1       4.453  -0.643  -0.644  1.00  0.00     0.237 C 
BRANCH   6   7
HETATM    7  C4  UNL     1       5.764   0.089  -0.591  1.00  0.00     0.015 C 
HETATM    8  C3  UNL     1       6.666  -0.417   0.533  1.00  0.00     0.033 C 
HETATM    9  C2  UNL     1       7.930   0.424   0.460  1.00  0.00    -0.030 C 
HETATM   10  C1  UNL     1       8.514   0.487  -0.729  1.00  0.00    -0.031 C 
HETATM   11  C21 UNL     1       7.890  -0.254  -1.844  1.00  0.00     0.027 C 
HETATM   12  C20 UNL     1       6.427   0.085  -1.922  1.00  0.00     0.010 C 
ENDBRANCH   6   7
ENDBRANCH   3   6
ENDBRANCH   2   3
ENDBRANCH   1   2
BRANCH   1  13
HETATM   13  C8  UNL     1       1.253   0.908  -0.071  1.00  0.00     0.002 C 
BRANCH  13  14
HETATM   14  C9  UNL     1       0.629   0.954   1.278  1.00  0.00     0.000 C 
BRANCH  14  15
HETATM   15  C10 UNL     1      -0.681   0.234   1.297  1.00  0.00     0.000 C 
BRANCH  15  16
HETATM   16  C11 UNL     1      -1.622   0.848   0.322  1.00  0.00     0.000 C 
BRANCH  16  17
HETATM   17  C12 UNL     1      -2.962   0.153   0.337  1.00  0.00     0.000 C 
BRANCH  17  18
HETATM   18  C13 UNL     1      -3.656   0.201   1.649  1.00  0.00     0.000 C 
BRANCH  18  19
HETATM   19  C14 UNL     1      -5.011  -0.477   1.647  1.00  0.00     0.000 C 
BRANCH  19  20
HETATM   20  C15 UNL     1      -5.873   0.212   0.637  1.00  0.00     0.000 C 
BRANCH  20  21
HETATM   21  C16 UNL     1      -7.283  -0.392   0.579  1.00  0.00     0.004 C 
BRANCH  21  22
HETATM   22  C17 UNL     1      -8.046   0.374  -0.455  1.00  0.00    -0.014 A 
HETATM   23  C18 UNL     1      -7.430   0.300  -1.854  1.00  0.00     0.005 A 
HETATM   24  C19 UNL     1      -8.787  -0.246  -1.560  1.00  0.00     0.005 A 
ENDBRANCH  21  22
ENDBRANCH  20  21
ENDBRANCH  19  20
ENDBRANCH  18  19
ENDBRANCH  17  18
ENDBRANCH  16  17
ENDBRANCH  15  16
ENDBRANCH  14  15
ENDBRANCH  13  14
ENDBRANCH   1  13
TORSDOF 14
