REMARK  7 active torsions:
REMARK  status: ('A' for Active; 'I' for Inactive)
REMARK    1  A    between atoms: N1_2  and  S1_4 
REMARK    2  A    between atoms: S1_4  and  N2_5 
REMARK    3  A    between atoms: S1_4  and  C3_8 
REMARK    4  A    between atoms: C3_8  and  N3_9 
REMARK    5  A    between atoms: C3_8  and  N5_13 
REMARK    6  A    between atoms: N3_9  and  N4_10 
REMARK    7  A    between atoms: N5_13  and  O1_14 
ROOT
HETATM    1  C3  UNL     1       1.076   0.384  -0.034  1.00  0.00     0.303 C 
ENDROOT
BRANCH   1   2
HETATM    2  S1  UNL     1      -0.166  -0.846   0.201  1.00  0.00    -0.019 SA
BRANCH   2   3
HETATM    3  N1  UNL     1      -1.707  -0.195   0.550  1.00  0.00    -0.258 NA
HETATM    4  C1  UNL     1      -2.100   0.863  -0.351  1.00  0.00     0.124 C 
HETATM    5  C2  UNL     1      -2.688  -1.269   0.381  1.00  0.00     0.124 C 
ENDBRANCH   2   3
BRANCH   2   6
HETATM    6  N2  UNL     1      -0.220  -1.822  -1.230  1.00  0.00    -0.369 NA
ATOM      7  H22 UNL     1      -0.938  -2.533  -1.094  1.00  0.00     0.164 HD
ATOM      8  H21 UNL     1       0.700  -2.211  -1.438  1.00  0.00     0.164 HD
ENDBRANCH   2   6
ENDBRANCH   1   2
BRANCH   1   9
HETATM    9  N3  UNL     1       1.255   1.219   1.134  1.00  0.00    -0.111 NA
BRANCH   9  10
HETATM   10  N4  UNL     1       2.235   2.159   0.894  1.00  0.00    -0.346 N 
ATOM     11  H42 UNL     1       2.749   2.241   0.017  1.00  0.00     0.172 HD
ATOM     12  H41 UNL     1       2.361   2.748   1.717  1.00  0.00     0.172 HD
ENDBRANCH   9  10
ENDBRANCH   1   9
BRANCH   1  13
HETATM   13  N5  UNL     1       2.333  -0.298  -0.284  1.00  0.00    -0.067 NA
BRANCH  13  14
HETATM   14  O1  UNL     1       2.615  -1.068   0.787  1.00  0.00    -0.294 OA
ATOM     15  H1  UNL     1       3.438  -1.514   0.623  1.00  0.00     0.238 HD
ENDBRANCH  13  14
ENDBRANCH   1  13
TORSDOF 7
