REMARK  4 active torsions:
REMARK  status: ('A' for Active; 'I' for Inactive)
REMARK    1  A    between atoms: C2_3  and  N2_4 
REMARK    2  A    between atoms: N2_4  and  C3_7 
REMARK    3  A    between atoms: C3_7  and  N3_8 
REMARK    4  A    between atoms: C3_7  and  C4_12 
ROOT
HETATM    1  N1  UNL     1       4.323   1.426   1.428  1.00  0.00    -0.196 NA
HETATM    2  C1  UNL     1       3.600   0.870   0.718  1.00  0.00     0.086 C 
HETATM    3  C2  UNL     1       2.671   0.159  -0.162  1.00  0.00     0.358 C 
ENDROOT
BRANCH   3   4
HETATM    4  N2  UNL     1       1.344   0.431   0.284  1.00  0.00    -0.029 N 
ATOM      5  H22 UNL     1       1.244   0.193   1.271  1.00  0.00     0.281 HD
ATOM      6  H21 UNL     1       1.183   1.437   0.331  1.00  0.00     0.281 HD
BRANCH   4   7
HETATM    7  C3  UNL     1       0.315  -0.208  -0.495  1.00  0.00     0.434 C 
BRANCH   7   8
HETATM    8  N3  UNL     1       0.349   0.202  -1.887  1.00  0.00    -0.044 N 
ATOM      9  H33 UNL     1       0.302   1.217  -1.974  1.00  0.00     0.277 HD
ATOM     10  H32 UNL     1       1.271   0.047  -2.295  1.00  0.00     0.277 HD
ATOM     11  H31 UNL     1      -0.380  -0.251  -2.439  1.00  0.00     0.277 HD
ENDBRANCH   7   8
BRANCH   7  12
HETATM   12  C4  UNL     1      -0.986   0.099   0.143  1.00  0.00     0.110 A 
HETATM   13  N4  UNL     1      -1.363   1.307   0.584  1.00  0.00    -0.350 N 
HETATM   14  C5  UNL     1      -2.600   1.256   1.113  1.00  0.00     0.182 A 
ATOM     15  H4  UNL     1      -0.791   2.150   0.527  1.00  0.00     0.166 HD
HETATM   16  N5  UNL     1      -3.003  -0.005   1.001  1.00  0.00    -0.339 N 
HETATM   17  C6  UNL     1      -2.036  -0.751   0.408  1.00  0.00     0.143 A 
ATOM     18  H5  UNL     1      -3.906  -0.360   1.314  1.00  0.00     0.167 HD
HETATM   19  N6  UNL     1      -2.095  -2.140   0.116  1.00  0.00    -0.080 NA
ENDBRANCH   7  12
ENDBRANCH   4   7
ENDBRANCH   3   4
TORSDOF 4
