REMARK  6 active torsions:
REMARK  status: ('A' for Active; 'I' for Inactive)
REMARK    1  A    between atoms: C2_3  and  N2_4 
REMARK    2  A    between atoms: C2_3  and  C3_8 
REMARK    3  A    between atoms: C3_8  and  N3_9 
REMARK    4  A    between atoms: C5_11  and  C6_12 
REMARK    5  A    between atoms: C6_12  and  N4_13 
REMARK    6  A    between atoms: C6_12  and  N5_17 
ROOT
HETATM    1  N1  UNL     1      -3.660  -0.172  -1.960  1.00  0.00    -0.195 NA
HETATM    2  C1  UNL     1      -3.307  -0.305  -0.875  1.00  0.00     0.094 C 
HETATM    3  C2  UNL     1      -2.880  -0.463   0.507  1.00  0.00     0.308 C 
ENDROOT
BRANCH   3   4
HETATM    4  N2  UNL     1      -2.422   0.778   1.094  1.00  0.00    -0.061 N 
ATOM      5  H23 UNL     1      -1.685   1.200   0.529  1.00  0.00     0.276 HD
ATOM      6  H22 UNL     1      -3.131   1.506   1.011  1.00  0.00     0.276 HD
ATOM      7  H21 UNL     1      -2.123   0.667   2.063  1.00  0.00     0.276 HD
ENDBRANCH   3   4
BRANCH   3   8
HETATM    8  C3  UNL     1      -1.748  -1.467   0.549  1.00  0.00     0.197 C 
BRANCH   8   9
HETATM    9  N3  UNL     1      -0.619  -1.038  -0.239  1.00  0.00    -0.284 N 
HETATM   10  C4  UNL     1       0.407  -0.297   0.216  1.00  0.00     0.142 A 
HETATM   11  C5  UNL     1       1.303  -0.078  -0.819  1.00  0.00     0.101 A 
HETATM   12  N6  UNL     1       0.770  -0.709  -1.878  1.00  0.00    -0.285 N 
HETATM   13  N7  UNL     1      -0.375  -1.275  -1.514  1.00  0.00    -0.241 N 
ATOM     14  H6  UNL     1       1.179  -0.747  -2.812  1.00  0.00     0.188 HD
ATOM     15  H7  UNL     1      -0.980  -1.816  -2.132  1.00  0.00     0.208 HD
BRANCH  11  16
HETATM   16  C6  UNL     1       2.543   0.688  -0.701  1.00  0.00     0.430 C 
BRANCH  16  17
HETATM   17  N4  UNL     1       2.391   1.938   0.018  1.00  0.00    -0.045 N 
ATOM     18  H43 UNL     1       1.655   2.507  -0.401  1.00  0.00     0.277 HD
ATOM     19  H42 UNL     1       1.979   1.776   0.937  1.00  0.00     0.277 HD
ATOM     20  H41 UNL     1       3.256   2.472   0.100  1.00  0.00     0.277 HD
ENDBRANCH  16  17
BRANCH  16  21
HETATM   21  N5  UNL     1       3.628  -0.107  -0.112  1.00  0.00    -0.045 N 
ATOM     22  H53 UNL     1       3.351  -0.503   0.786  1.00  0.00     0.277 HD
ATOM     23  H52 UNL     1       3.776  -0.973  -0.631  1.00  0.00     0.277 HD
ATOM     24  H51 UNL     1       4.493   0.427  -0.030  1.00  0.00     0.277 HD
ENDBRANCH  16  21
ENDBRANCH  11  16
ENDBRANCH   8   9
ENDBRANCH   3   8
TORSDOF 6
