REMARK  16 active torsions:
REMARK  status: ('A' for Active; 'I' for Inactive)
REMARK    1  A    between atoms: C1_4  and  N2_5 
REMARK    2  A    between atoms: C1_4  and  C2_10 
REMARK    3  A    between atoms: N2_5  and  N3_7 
REMARK    4  A    between atoms: N5_14  and  C3_15 
REMARK    5  A    between atoms: C5_20  and  O3_21 
REMARK    6  A    between atoms: C6_23  and  O4_24 
REMARK    7  A    between atoms: C7_26  and  C8_27 
REMARK    8  A    between atoms: C9_34  and  C10_35 
REMARK    9  A    between atoms: C10_35  and  N10_36 
REMARK   10  A    between atoms: C12_38  and  C13_39 
REMARK   11  A    between atoms: C13_39  and  O5_40 
REMARK   12  A    between atoms: C13_39  and  C14_42 
REMARK   13  A    between atoms: C14_42  and  O6_43 
REMARK   14  A    between atoms: C14_42  and  C15_45 
REMARK   15  A    between atoms: C15_45  and  O7_46 
REMARK   16  A    between atoms: C16_53  and  N14_54 
ROOT
HETATM    1  C3  UNL     1      -3.367  -0.773  -1.607  1.00  0.00     0.157 A 
HETATM    2  N6  UNL     1      -4.130  -1.625  -2.317  1.00  0.00    -0.304 N 
ATOM      3  H6  UNL     1      -5.112  -1.732  -2.063  1.00  0.00     0.171 HD
HETATM    4  C4  UNL     1      -3.649  -2.339  -3.346  1.00  0.00     0.283 A 
HETATM    5  O2  UNL     1      -4.414  -3.136  -3.991  1.00  0.00    -0.265 OA
HETATM    6  C5  UNL     1      -2.339  -2.236  -3.732  1.00  0.00     0.169 A 
HETATM    7  C6  UNL     1      -1.503  -1.379  -3.044  1.00  0.00     0.122 A 
HETATM    8  C7  UNL     1      -2.039  -0.649  -1.976  1.00  0.00     0.092 A 
ENDROOT
BRANCH   8   9
HETATM    9  C8  UNL     1      -1.223   0.270  -1.207  1.00  0.00     0.139 A 
HETATM   10  N7  UNL     1      -1.092   1.562  -1.529  1.00  0.00    -0.270 N 
HETATM   11  N8  UNL     1      -0.353   2.414  -0.842  1.00  0.00    -0.240 N 
ATOM     12  H7  UNL     1      -1.590   1.908  -2.349  1.00  0.00     0.190 HD
HETATM   13  N9  UNL     1       0.287   1.946   0.222  1.00  0.00    -0.273 N 
ATOM     14  H8  UNL     1      -0.277   3.393  -1.118  1.00  0.00     0.208 HD
HETATM   15  C9  UNL     1       0.212   0.670   0.616  1.00  0.00     0.118 A 
ATOM     16  H9  UNL     1       0.863   2.589   0.765  1.00  0.00     0.190 HD
HETATM   17  N13 UNL     1      -0.554  -0.168  -0.115  1.00  0.00    -0.328 N 
ATOM     18  H13 UNL     1      -0.630  -1.147   0.160  1.00  0.00     0.169 HD
BRANCH  15  19
HETATM   19  C10 UNL     1       0.962   0.245   1.814  1.00  0.00     0.223 C 
BRANCH  19  20
HETATM   20  N10 UNL     1       2.281  -0.196   1.426  1.00  0.00    -0.278 N 
HETATM   21  C11 UNL     1       3.369   0.578   1.340  1.00  0.00     0.137 A 
HETATM   22  C12 UNL     1       4.433  -0.191   0.941  1.00  0.00     0.072 A 
HETATM   23  N11 UNL     1       3.950  -1.447   0.791  1.00  0.00    -0.284 N 
HETATM   24  N12 UNL     1       2.645  -1.426   1.090  1.00  0.00    -0.020 NA
ATOM     25  H11 UNL     1       4.486  -2.265   0.501  1.00  0.00     0.184 HD
BRANCH  22  26
HETATM   26  C13 UNL     1       5.832   0.224   0.711  1.00  0.00     0.201 C 
BRANCH  26  27
HETATM   27  O5  UNL     1       6.764  -0.643   1.260  1.00  0.00    -0.387 OA
ATOM     28  H5  UNL     1       7.664  -0.376   1.112  1.00  0.00     0.210 HD
ENDBRANCH  26  27
BRANCH  26  29
HETATM   29  C14 UNL     1       6.131   0.449  -0.751  1.00  0.00     0.176 C 
BRANCH  29  30
HETATM   30  O6  UNL     1       6.097  -0.720  -1.487  1.00  0.00    -0.390 OA
ATOM     31  H6  UNL     1       6.285  -0.578  -2.407  1.00  0.00     0.210 HD
ENDBRANCH  29  30
BRANCH  29  32
HETATM   32  C15 UNL     1       5.133   1.428  -1.343  1.00  0.00     0.198 C 
BRANCH  32  33
HETATM   33  O7  UNL     1       5.104   2.629  -0.663  1.00  0.00    -0.398 OA
ATOM     34  H7  UNL     1       4.480   3.242  -1.033  1.00  0.00     0.209 HD
ENDBRANCH  32  33
ENDBRANCH  29  32
ENDBRANCH  26  29
ENDBRANCH  22  26
ENDBRANCH  19  20
ENDBRANCH  15  19
ENDBRANCH   8   9
BRANCH   1  35
HETATM   35  N5  UNL     1      -3.873  -0.015  -0.518  1.00  0.00    -0.161 N 
HETATM   36  O1  UNL     1      -4.220   1.206  -0.388  1.00  0.00    -0.146 OA
HETATM   37  N4  UNL     1      -4.632   1.488   0.792  1.00  0.00    -0.234 N 
HETATM   38  C2  UNL     1      -4.571   0.358   1.569  1.00  0.00     0.147 A 
ATOM     39  H4  UNL     1      -4.953   2.404   1.104  1.00  0.00     0.197 HD
HETATM   40  C16 UNL     1      -4.083  -0.588   0.710  1.00  0.00     0.164 A 
BRANCH  38  41
HETATM   41  C1  UNL     1      -4.961   0.309   2.963  1.00  0.00     0.146 C 
HETATM   42  N1  UNL     1      -4.894  -0.754   3.660  1.00  0.00    -0.382 N 
ATOM     43  H12 UNL     1      -5.169  -0.789   4.642  1.00  0.00     0.157 HD
ATOM     44  H11 UNL     1      -4.549  -1.601   3.209  1.00  0.00     0.157 HD
BRANCH  41  45
HETATM   45  N2  UNL     1      -5.451   1.512   3.603  1.00  0.00    -0.290 N 
ATOM     46  H2  UNL     1      -6.323   1.948   3.302  1.00  0.00     0.188 HD
BRANCH  45  47
HETATM   47  N3  UNL     1      -4.707   2.052   4.630  1.00  0.00    -0.344 N 
ATOM     48  H32 UNL     1      -3.837   1.604   4.919  1.00  0.00     0.176 HD
ATOM     49  H31 UNL     1      -5.052   2.899   5.081  1.00  0.00     0.176 HD
ENDBRANCH  45  47
ENDBRANCH  41  45
ENDBRANCH  38  41
BRANCH  40  50
HETATM   50  N14 UNL     1      -3.860  -1.820   1.017  1.00  0.00    -0.382 N 
ATOM     51 2H14 UNL     1      -4.016  -2.246   1.930  1.00  0.00     0.157 HD
ATOM     52 1H14 UNL     1      -3.496  -2.525   0.376  1.00  0.00     0.157 HD
ENDBRANCH  40  50
ENDBRANCH   1  35
BRANCH   7  53
HETATM   53  O4  UNL     1      -0.166  -1.224  -3.379  1.00  0.00    -0.357 OA
ATOM     54  H4  UNL     1       0.409  -0.634  -2.906  1.00  0.00     0.218 HD
ENDBRANCH   7  53
BRANCH   6  55
HETATM   55  O3  UNL     1      -1.843  -2.975  -4.796  1.00  0.00    -0.354 OA
ATOM     56  H3  UNL     1      -0.934  -2.904  -5.064  1.00  0.00     0.218 HD
ENDBRANCH   6  55
TORSDOF 16
