REMARK  13 active torsions:
REMARK  status: ('A' for Active; 'I' for Inactive)
REMARK    1  A    between atoms: O1_2  and  C2_3 
REMARK    2  A    between atoms: C3_6  and  N2_7 
REMARK    3  A    between atoms: C4_14  and  O2_15 
REMARK    4  A    between atoms: O2_15  and  C5_16 
REMARK    5  A    between atoms: C6_19  and  N7_20 
REMARK    6  A    between atoms: C7_25  and  N9_26 
REMARK    7  A    between atoms: C8_29  and  N10_30 
REMARK    8  A    between atoms: N10_30  and  C9_32 
REMARK    9  A    between atoms: C9_32  and  N11_33 
REMARK   10  A    between atoms: C10_38  and  C11_39 
REMARK       I    between atoms: C11_39  and  N14_41 
REMARK   11  A    between atoms: N14_41  and  C12_43 
REMARK   12  A    between atoms: C13_47  and  O4_48 
REMARK   13  A    between atoms: C15_54  and  O6_55 
ROOT
HETATM    1  C5  UNL     1      -1.806  -0.822  -2.237  1.00  0.00     0.197 A 
HETATM    2  N6  UNL     1      -2.593   0.110  -2.817  1.00  0.00    -0.168 N 
ATOM      3  H6  UNL     1      -3.606  -0.012  -2.820  1.00  0.00     0.186 HD
HETATM    4  C6  UNL     1      -2.050   1.196  -3.389  1.00  0.00     0.679 A 
HETATM    5  N8  UNL     1      -0.724   1.328  -3.369  1.00  0.00    -0.175 N 
ATOM      6  H8  UNL     1      -0.323   2.158  -3.806  1.00  0.00     0.186 HD
HETATM    7  C7  UNL     1       0.127   0.440  -2.810  1.00  0.00     0.146 A 
HETATM    8  C8  UNL     1      -0.424  -0.673  -2.223  1.00  0.00     0.130 A 
ENDROOT
BRANCH   8   9
HETATM    9  N10 UNL     1       0.347  -1.691  -1.609  1.00  0.00    -0.343 N 
ATOM     10  H10 UNL     1       0.696  -2.434  -2.214  1.00  0.00     0.167 HD
BRANCH   9  11
HETATM   11  C9  UNL     1       0.682  -1.776  -0.224  1.00  0.00     0.229 C 
BRANCH  11  12
HETATM   12  N11 UNL     1       1.451  -0.675   0.295  1.00  0.00    -0.176 N 
HETATM   13  N12 UNL     1       0.983   0.441   0.823  1.00  0.00    -0.219 N 
HETATM   14  N13 UNL     1       1.964   1.235   1.207  1.00  0.00    -0.264 N 
ATOM     15  H12 UNL     1      -0.008   0.661   0.921  1.00  0.00     0.210 HD
HETATM   16  C10 UNL     1       3.116   0.607   0.916  1.00  0.00     0.206 A 
ATOM     17  H13 UNL     1       1.867   2.152   1.642  1.00  0.00     0.190 HD
HETATM   18  N16 UNL     1       2.785  -0.556   0.361  1.00  0.00    -0.256 N 
ATOM     19  H16 UNL     1       3.450  -1.256   0.033  1.00  0.00     0.191 HD
BRANCH  16  20
HETATM   20  C11 UNL     1       4.443   1.156   1.186  1.00  0.00     0.291 C 
HETATM   21  O3  UNL     1       4.590   2.279   1.714  1.00  0.00    -0.264 OA
HETATM   22  N14 UNL     1       5.587   0.400   0.841  1.00  0.00    -0.305 N 
ATOM     23  H14 UNL     1       5.468  -0.517   0.410  1.00  0.00     0.167 HD
BRANCH  22  24
HETATM   24  C12 UNL     1       6.920   0.898   1.086  1.00  0.00     0.440 C 
HETATM   25  N15 UNL     1       7.683  -0.124   1.819  1.00  0.00     0.020 N 
HETATM   26  C13 UNL     1       8.769   0.321   0.963  1.00  0.00     0.475 C 
ATOM     27 2H15 UNL     1       7.750  -0.145   2.837  1.00  0.00     0.288 HD
ATOM     28 1H15 UNL     1       7.389  -1.099   1.883  1.00  0.00     0.288 HD
HETATM   29  O5  UNL     1       7.802   0.709   0.028  1.00  0.00    -0.289 OA
BRANCH  26  30
HETATM   30  O4  UNL     1       9.435   1.443   1.431  1.00  0.00    -0.349 OA
ATOM     31  H4  UNL     1      10.145   1.734   0.871  1.00  0.00     0.214 HD
ENDBRANCH  26  30
ENDBRANCH  22  24
ENDBRANCH  16  20
ENDBRANCH  11  12
ENDBRANCH   9  11
ENDBRANCH   8   9
BRANCH   1  32
HETATM   32  O2  UNL     1      -2.418  -1.927  -1.659  1.00  0.00    -0.256 OA
BRANCH  32  33
HETATM   33  C4  UNL     1      -3.793  -2.067  -1.680  1.00  0.00     0.271 A 
HETATM   34  N2  UNL     1      -4.690  -1.728  -0.739  1.00  0.00    -0.185 N 
HETATM   35  N3  UNL     1      -5.880  -2.056  -1.215  1.00  0.00    -0.216 N 
HETATM   36  N4  UNL     1      -5.730  -2.579  -2.402  1.00  0.00    -0.224 N 
ATOM     37  H3  UNL     1      -6.769  -1.922  -0.734  1.00  0.00     0.210 HD
HETATM   38  N5  UNL     1      -4.454  -2.608  -2.736  1.00  0.00    -0.247 N 
ATOM     39  H4  UNL     1      -6.492  -2.918  -2.989  1.00  0.00     0.210 HD
ATOM     40  H5  UNL     1      -4.050  -2.962  -3.603  1.00  0.00     0.192 HD
BRANCH  34  41
HETATM   41  C3  UNL     1      -4.408  -1.133   0.515  1.00  0.00     0.137 A 
HETATM   42  N1  UNL     1      -5.172  -0.210   1.121  1.00  0.00    -0.319 N 
HETATM   43  C2  UNL     1      -4.599   0.138   2.307  1.00  0.00     0.177 A 
ATOM     44  H1  UNL     1      -6.043   0.170   0.752  1.00  0.00     0.169 HD
HETATM   45  C15 UNL     1      -3.437  -0.590   2.452  1.00  0.00     0.120 A 
HETATM   46  C14 UNL     1      -3.325  -1.388   1.316  1.00  0.00     0.091 A 
BRANCH  43  47
HETATM   47  O1  UNL     1      -5.055   1.054   3.244  1.00  0.00    -0.339 OA
HETATM   48  C1  UNL     1      -6.252   1.788   3.071  1.00  0.00     0.211 C 
ENDBRANCH  43  47
BRANCH  45  49
HETATM   49  O6  UNL     1      -2.529  -0.572   3.489  1.00  0.00    -0.356 OA
ATOM     50  H6  UNL     1      -1.728  -1.074   3.589  1.00  0.00     0.218 HD
ENDBRANCH  45  49
ENDBRANCH  34  41
ENDBRANCH  32  33
ENDBRANCH   1  32
BRANCH   7  51
HETATM   51  N9  UNL     1       1.409   0.622  -2.832  1.00  0.00    -0.383 N 
ATOM     52  H92 UNL     1       1.818   1.448  -3.268  1.00  0.00     0.157 HD
ATOM     53  H91 UNL     1       2.051  -0.048  -2.410  1.00  0.00     0.157 HD
ENDBRANCH   7  51
BRANCH   4  54
HETATM   54  N7  UNL     1      -2.829   2.088  -3.945  1.00  0.00    -0.234 N 
ATOM     55  H72 UNL     1      -3.844   1.987  -3.960  1.00  0.00     0.174 HD
ATOM     56  H71 UNL     1      -2.416   2.913  -4.380  1.00  0.00     0.174 HD
ENDBRANCH   4  54
TORSDOF 13
