REMARK  13 active torsions:
REMARK  status: ('A' for Active; 'I' for Inactive)
REMARK    1  A    between atoms: O1_2  and  C2_3 
REMARK    2  A    between atoms: C2_3  and  C3_5 
REMARK    3  A    between atoms: C5_10  and  C6_11 
REMARK    4  A    between atoms: C6_11  and  O3_12 
REMARK    5  A    between atoms: C6_11  and  N2_14 
REMARK       I    between atoms: N2_14  and  C7_16 
REMARK    6  A    between atoms: C7_16  and  C8_18 
REMARK    7  A    between atoms: C8_18  and  N3_19 
REMARK    8  A    between atoms: C8_18  and  C11_24 
REMARK    9  A    between atoms: N3_19  and  O5_20 
REMARK   10  A    between atoms: O5_20  and  C9_21 
REMARK   11  A    between atoms: C12_27  and  C13_28 
REMARK   12  A    between atoms: C14_31  and  C15_32 
REMARK   13  A    between atoms: N7_33  and  O7_35 
ROOT
HETATM    1  C8  UNL     1       1.093   0.412  -0.373  1.00  0.00     0.244 C 
ENDROOT
BRANCH   1   2
HETATM    2  C7  UNL     1      -0.221   0.712   0.245  1.00  0.00     0.245 C 
HETATM    3  N2  UNL     1      -1.432   0.084  -0.133  1.00  0.00    -0.330 N 
ATOM      4  H2  UNL     1      -1.421  -0.619  -0.872  1.00  0.00     0.165 HD
HETATM    5  O4  UNL     1      -0.251   1.572   1.154  1.00  0.00    -0.271 OA
BRANCH   3   6
HETATM    6  C6  UNL     1      -2.676   0.418   0.504  1.00  0.00     0.279 C 
BRANCH   6   7
HETATM    7  C5  UNL     1      -3.723   0.928  -0.454  1.00  0.00     0.431 C 
HETATM    8  N1  UNL     1      -4.133  -0.062  -1.406  1.00  0.00    -0.039 N 
HETATM    9  C4  UNL     1      -5.578  -0.167  -1.321  1.00  0.00     0.278 C 
ATOM     10  H12 UNL     1      -3.659  -0.957  -1.281  1.00  0.00     0.279 HD
ATOM     11  H11 UNL     1      -3.801   0.131  -2.351  1.00  0.00     0.279 HD
HETATM   12  C3  UNL     1      -5.848   0.225   0.103  1.00  0.00     0.312 C 
HETATM   13  N9  UNL     1      -4.897   1.273   0.334  1.00  0.00    -0.027 N 
ATOM     14  H92 UNL     1      -5.261   2.205   0.135  1.00  0.00     0.281 HD
ATOM     15  H91 UNL     1      -4.694   1.428   1.321  1.00  0.00     0.281 HD
BRANCH  12  16
HETATM   16  C2  UNL     1      -7.250   0.675   0.313  1.00  0.00     0.291 C 
HETATM   17  O2  UNL     1      -7.541   1.835   0.651  1.00  0.00    -0.263 OA
BRANCH  16  18
HETATM   18  O1  UNL     1      -8.272  -0.240   0.123  1.00  0.00    -0.325 OA
HETATM   19  C1  UNL     1      -9.649   0.092   0.299  1.00  0.00     0.213 C 
ENDBRANCH  16  18
ENDBRANCH  12  16
ENDBRANCH   6   7
BRANCH   6  20
HETATM   20  O3  UNL     1      -3.222  -0.674   1.197  1.00  0.00    -0.373 OA
ATOM     21  H3  UNL     1      -2.562  -0.995   1.801  1.00  0.00     0.212 HD
ENDBRANCH   6  20
ENDBRANCH   3   6
ENDBRANCH   1   2
BRANCH   1  22
HETATM   22  N3  UNL     1       2.160   1.177   0.184  1.00  0.00    -0.073 NA
BRANCH  22  23
HETATM   23  O5  UNL     1       1.980   2.539   0.037  1.00  0.00    -0.206 OA
BRANCH  23  24
HETATM   24  C9  UNL     1       2.763   3.302  -0.816  1.00  0.00     0.273 C 
HETATM   25  C10 UNL     1       2.621   4.749  -1.015  1.00  0.00     0.127 C 
HETATM   26  O6  UNL     1       3.658   2.682  -1.458  1.00  0.00    -0.264 OA
ENDBRANCH  23  24
ENDBRANCH  22  23
ENDBRANCH   1  22
BRANCH   1  27
HETATM   27  C11 UNL     1       1.378  -1.052  -0.106  1.00  0.00     0.263 C 
HETATM   28  N4  UNL     1       1.460  -1.355   1.293  1.00  0.00    -0.111 NA
HETATM   29  N5  UNL     1       2.665  -2.047   1.491  1.00  0.00    -0.107 NA
HETATM   30  C12 UNL     1       3.178  -2.334   0.176  1.00  0.00     0.285 C 
HETATM   31  O8  UNL     1       2.583  -1.427  -0.694  1.00  0.00    -0.338 OA
BRANCH  30  32
HETATM   32  C13 UNL     1       4.689  -2.202   0.164  1.00  0.00     0.088 A 
HETATM   33  N6  UNL     1       5.329  -1.585  -0.774  1.00  0.00    -0.347 N 
HETATM   34  C14 UNL     1       6.651  -1.505  -0.725  1.00  0.00     0.093 A 
ATOM     35  H6  UNL     1       4.819  -1.161  -1.549  1.00  0.00     0.166 HD
HETATM   36  S1  UNL     1       7.018  -2.340   0.715  1.00  0.00    -0.054 SA
HETATM   37  C16 UNL     1       5.420  -2.753   1.183  1.00  0.00     0.115 A 
HETATM   38  N8  UNL     1       4.947  -3.485   2.336  1.00  0.00    -0.092 NA
BRANCH  34  39
HETATM   39  C15 UNL     1       7.566  -0.852  -1.688  1.00  0.00     0.151 C 
HETATM   40  N7  UNL     1       8.817  -0.887  -1.457  1.00  0.00    -0.278 N 
ATOM     41  H7  UNL     1       9.159  -1.361  -0.621  1.00  0.00     0.193 HD
BRANCH  40  42
HETATM   42  O7  UNL     1       9.703  -0.305  -2.304  1.00  0.00    -0.290 OA
ATOM     43  H7  UNL     1      10.637  -0.331  -2.132  1.00  0.00     0.244 HD
ENDBRANCH  40  42
ENDBRANCH  34  39
ENDBRANCH  30  32
ENDBRANCH   1  27
TORSDOF 13
