REMARK  11 active torsions:
REMARK  status: ('A' for Active; 'I' for Inactive)
REMARK    1  A    between atoms: C2_2  and  O1_3 
REMARK    2  A    between atoms: C2_2  and  C4_7 
REMARK       I    between atoms: C4_7  and  N2_9 
REMARK    3  A    between atoms: N2_9  and  N3_11 
REMARK    4  A    between atoms: N3_11  and  N4_13 
REMARK    5  A    between atoms: N4_13  and  C5_15 
REMARK    6  A    between atoms: C6_16  and  C7_17 
REMARK    7  A    between atoms: C7_17  and  O3_18 
REMARK    8  A    between atoms: C7_17  and  N5_20 
REMARK    9  A    between atoms: N5_20  and  N6_22 
REMARK       I    between atoms: N6_22  and  C8_24 
REMARK       I    between atoms: C8_24  and  N7_25 
REMARK       I    between atoms: C8_24  and  N12_35 
REMARK   10  A    between atoms: N7_25  and  N8_27 
REMARK   11  A    between atoms: C11_41  and  N15_42 
ROOT
HETATM    1  C1  UNL     1       7.621   0.973   1.069  1.00  0.00     0.073 C 
HETATM    2  C2  UNL     1       6.588  -0.127   1.325  1.00  0.00     0.225 C 
HETATM    3  C3  UNL     1       6.063   0.022   2.672  1.00  0.00     0.107 C 
HETATM    4  N1  UNL     1       5.641   0.161   3.739  1.00  0.00    -0.193 NA
ENDROOT
BRANCH   2   5
HETATM    5  O1  UNL     1       7.260  -1.343   1.189  1.00  0.00    -0.368 OA
ATOM      6  H1  UNL     1       6.619  -2.026   1.348  1.00  0.00     0.212 HD
ENDBRANCH   2   5
BRANCH   2   7
HETATM    7  C4  UNL     1       5.523   0.027   0.302  1.00  0.00     0.286 C 
HETATM    8  O2  UNL     1       4.855   1.090   0.336  1.00  0.00    -0.267 OA
HETATM    9  N2  UNL     1       5.237  -0.938  -0.678  1.00  0.00    -0.252 N 
ATOM     10  H2  UNL     1       5.776  -1.804  -0.713  1.00  0.00     0.191 HD
BRANCH   9  11
HETATM   11  N3  UNL     1       4.219  -0.715  -1.603  1.00  0.00    -0.239 N 
ATOM     12  H3  UNL     1       4.397  -0.785  -2.605  1.00  0.00     0.208 HD
BRANCH  11  13
HETATM   13  N4  UNL     1       3.071  -0.424  -1.167  1.00  0.00    -0.281 N 
ATOM     14  H4  UNL     1       2.926  -0.362  -0.159  1.00  0.00     0.188 HD
BRANCH  13  15
HETATM   15  C5  UNL     1       1.970  -0.179  -2.039  1.00  0.00     0.120 A 
HETATM   16  C6  UNL     1       0.625  -0.391  -1.809  1.00  0.00     0.106 A 
HETATM   17  N18 UNL     1       0.002  -0.005  -2.926  1.00  0.00    -0.297 N 
HETATM   18  N19 UNL     1       0.886   0.428  -3.821  1.00  0.00    -0.285 N 
ATOM     19  H18 UNL     1      -1.007  -0.038  -3.072  1.00  0.00     0.187 HD
HETATM   20  C14 UNL     1       2.134   0.343  -3.320  1.00  0.00     0.161 A 
ATOM     21  H19 UNL     1       0.653   0.774  -4.752  1.00  0.00     0.188 HD
HETATM   22  N20 UNL     1       3.366   0.703  -3.952  1.00  0.00    -0.079 NA
BRANCH  16  23
HETATM   23  C7  UNL     1       0.099  -0.939  -0.541  1.00  0.00     0.288 C 
BRANCH  23  24
HETATM   24  O3  UNL     1       0.706  -0.321   0.574  1.00  0.00    -0.370 OA
ATOM     25  H3  UNL     1       0.368  -0.673   1.389  1.00  0.00     0.212 HD
ENDBRANCH  23  24
BRANCH  23  26
HETATM   26  N5  UNL     1      -1.329  -0.667  -0.400  1.00  0.00    -0.288 N 
ATOM     27  H5  UNL     1      -1.853  -0.159  -1.113  1.00  0.00     0.184 HD
BRANCH  26  28
HETATM   28  N6  UNL     1      -1.939  -1.141   0.766  1.00  0.00    -0.131 N 
HETATM   29  C8  UNL     1      -2.829  -0.492   1.414  1.00  0.00     0.737 C 
HETATM   30  N7  UNL     1      -3.378  -1.072   2.583  1.00  0.00    -0.105 N 
HETATM   31  N12 UNL     1      -3.243   0.785   0.950  1.00  0.00    -0.050 N 
ATOM     32  H7  UNL     1      -3.402  -0.512   3.435  1.00  0.00     0.208 HD
HETATM   33  N13 UNL     1      -2.610   1.917   0.843  1.00  0.00    -0.219 N 
HETATM   34  C13 UNL     1      -4.513   1.012   0.504  1.00  0.00     0.180 A 
HETATM   35  N14 UNL     1      -3.405   2.875   0.348  1.00  0.00    -0.278 N 
ATOM     36  H13 UNL     1      -1.634   2.057   1.103  1.00  0.00     0.209 HD
HETATM   37  C10 UNL     1      -4.613   2.342   0.122  1.00  0.00     0.140 A 
ATOM     38  H14 UNL     1      -3.137   3.843   0.173  1.00  0.00     0.189 HD
HETATM   39  C11 UNL     1      -5.839   2.766  -0.363  1.00  0.00     0.132 A 
HETATM   40  N16 UNL     1      -6.881   1.924  -0.457  1.00  0.00    -0.337 N 
HETATM   41  C12 UNL     1      -6.769   0.645  -0.084  1.00  0.00     0.183 A 
ATOM     42  H16 UNL     1      -7.772   2.266  -0.819  1.00  0.00     0.168 HD
HETATM   43  N17 UNL     1      -5.584   0.214   0.390  1.00  0.00    -0.335 N 
ATOM     44  H17 UNL     1      -5.498  -0.762   0.674  1.00  0.00     0.168 HD
ATOM     45  H6  UNL     1      -1.658  -2.056   1.119  1.00  0.00     0.205 HD
BRANCH  30  46
HETATM   46  N8  UNL     1      -3.887  -2.369   2.630  1.00  0.00    -0.161 N 
HETATM   47  C9  UNL     1      -3.941  -3.262   1.605  1.00  0.00     0.246 A 
HETATM   48  N9  UNL     1      -4.501  -4.413   2.032  1.00  0.00    -0.277 N 
HETATM   49  N10 UNL     1      -4.784  -4.223   3.302  1.00  0.00    -0.226 N 
ATOM     50  H9  UNL     1      -4.670  -5.256   1.483  1.00  0.00     0.189 HD
HETATM   51  N11 UNL     1      -4.416  -2.993   3.665  1.00  0.00    -0.205 N 
ATOM     52  H10 UNL     1      -5.219  -4.911   3.916  1.00  0.00     0.210 HD
ATOM     53  H11 UNL     1      -4.527  -2.596   4.598  1.00  0.00     0.212 HD
ENDBRANCH  30  46
BRANCH  39  54
HETATM   54  N15 UNL     1      -5.948   4.002  -0.723  1.00  0.00    -0.383 N 
ATOM     55 2H15 UNL     1      -5.157   4.642  -0.652  1.00  0.00     0.157 HD
ATOM     56 1H15 UNL     1      -6.851   4.314  -1.080  1.00  0.00     0.157 HD
ENDBRANCH  39  54
ENDBRANCH  26  28
ENDBRANCH  23  26
ENDBRANCH  16  23
ENDBRANCH  13  15
ENDBRANCH  11  13
ENDBRANCH   9  11
ENDBRANCH   2   7
TORSDOF 11
