REMARK  13 active torsions:
REMARK  status: ('A' for Active; 'I' for Inactive)
REMARK    1  A    between atoms: N1_1  and  N2_4 
REMARK    2  A    between atoms: N2_4  and  C1_6 
REMARK    3  A    between atoms: C1_6  and  O1_7 
REMARK    4  A    between atoms: C1_6  and  C2_9 
REMARK    5  A    between atoms: N6_16  and  C3_17 
REMARK    6  A    between atoms: C4_18  and  C5_19 
REMARK    7  A    between atoms: C5_19  and  O2_20 
REMARK    8  A    between atoms: C5_19  and  N7_22 
REMARK    9  A    between atoms: N7_22  and  C6_24 
REMARK   10  A    between atoms: C6_24  and  C7_25 
REMARK   11  A    between atoms: C9_30  and  C10_31 
REMARK   12  A    between atoms: N8_34  and  N9_35 
REMARK       I    between atoms: N9_35  and  C11_37 
REMARK   13  A    between atoms: N11_42  and  N12_43 
ROOT
HETATM    1  C3  UNL     1      -1.760  -0.569   0.601  1.00  0.00     0.185 A 
HETATM    2  C4  UNL     1      -0.830  -0.946  -0.431  1.00  0.00     0.135 A 
HETATM    3  N8  UNL     1      -1.319  -1.958  -1.137  1.00  0.00    -0.196 N 
HETATM    4  C12 UNL     1      -2.561  -2.230  -0.571  1.00  0.00     0.368 A 
HETATM    5  O6  UNL     1      -3.378  -3.100  -0.914  1.00  0.00    -0.243 OA
HETATM    6  N11 UNL     1      -2.778  -1.386   0.451  1.00  0.00    -0.190 N 
ENDROOT
BRANCH   1   7
HETATM    7  N6  UNL     1      -1.540   0.501   1.488  1.00  0.00    -0.202 N 
HETATM    8  C2  UNL     1      -1.829   1.772   1.263  1.00  0.00     0.173 A 
HETATM    9  N3  UNL     1      -1.417   2.487   2.366  1.00  0.00    -0.268 N 
HETATM   10  N4  UNL     1      -0.897   1.636   3.225  1.00  0.00    -0.226 N 
ATOM     11  H3  UNL     1      -1.500   3.496   2.494  1.00  0.00     0.190 HD
HETATM   12  N5  UNL     1      -0.969   0.448   2.704  1.00  0.00    -0.218 N 
ATOM     13  H4  UNL     1      -0.507   1.868   4.138  1.00  0.00     0.210 HD
ATOM     14  H5  UNL     1      -0.639  -0.405   3.154  1.00  0.00     0.210 HD
BRANCH   8  15
HETATM   15  C1  UNL     1      -2.448   2.420   0.122  1.00  0.00     0.304 C 
BRANCH  15  16
HETATM   16  N2  UNL     1      -3.494   3.331   0.436  1.00  0.00    -0.307 N 
ATOM     17  H2  UNL     1      -3.321   4.335   0.482  1.00  0.00     0.183 HD
BRANCH  16  18
HETATM   18  N1  UNL     1      -4.750   2.814   0.677  1.00  0.00    -0.347 N 
ATOM     19  H12 UNL     1      -4.907   1.807   0.628  1.00  0.00     0.176 HD
ATOM     20  H11 UNL     1      -5.500   3.467   0.902  1.00  0.00     0.176 HD
ENDBRANCH  16  18
ENDBRANCH  15  16
BRANCH  15  21
HETATM   21  O1  UNL     1      -2.753   1.557  -0.937  1.00  0.00    -0.368 OA
ATOM     22  H1  UNL     1      -2.054   0.948  -1.147  1.00  0.00     0.212 HD
ENDBRANCH  15  21
ENDBRANCH   8  15
ENDBRANCH   1   7
BRANCH   2  23
HETATM   23  C5  UNL     1       0.417  -0.187  -0.548  1.00  0.00     0.271 C 
BRANCH  23  24
HETATM   24  O2  UNL     1       0.597   0.223  -1.914  1.00  0.00    -0.371 OA
ATOM     25  H2  UNL     1       1.406   0.715  -1.990  1.00  0.00     0.212 HD
ENDBRANCH  23  24
BRANCH  23  26
HETATM   26  N7  UNL     1       1.648  -0.748  -0.188  1.00  0.00    -0.388 N 
ATOM     27  H7  UNL     1       1.977  -1.600  -0.643  1.00  0.00     0.156 HD
BRANCH  26  28
HETATM   28  C6  UNL     1       2.441  -0.118   0.822  1.00  0.00     0.165 C 
BRANCH  28  29
HETATM   29  C7  UNL     1       3.812   0.259   0.186  1.00  0.00     0.026 A 
HETATM   30  S1  UNL     1       3.976   0.200  -1.508  1.00  0.00    -0.053 SA
HETATM   31  S2  UNL     1       5.856   1.071  -1.543  1.00  0.00    -0.040 SA
HETATM   32  C8  UNL     1       5.936   1.236   0.137  1.00  0.00     0.096 A 
HETATM   33  S3  UNL     1       7.289   1.953   0.840  1.00  0.00    -0.070 SA
HETATM   34  C9  UNL     1       4.858   0.796   0.862  1.00  0.00     0.084 A 
BRANCH  34  35
HETATM   35  C10 UNL     1       4.833   0.888   2.360  1.00  0.00     0.212 C 
HETATM   36  O3  UNL     1       4.380   1.886   2.954  1.00  0.00    -0.644 OA
HETATM   37  O4  UNL     1       5.327  -0.182   3.099  1.00  0.00    -0.644 OA
ENDBRANCH  34  35
ENDBRANCH  28  29
ENDBRANCH  26  28
ENDBRANCH  23  26
ENDBRANCH   2  23
BRANCH   6  38
HETATM   38  N12 UNL     1      -3.934  -1.367   1.257  1.00  0.00    -0.333 N 
ATOM     39 2H12 UNL     1      -4.099  -0.726   2.033  1.00  0.00     0.177 HD
ATOM     40 1H12 UNL     1      -4.724  -2.001   1.141  1.00  0.00     0.177 HD
ENDBRANCH   6  38
BRANCH   3  41
HETATM   41  N9  UNL     1      -0.844  -2.771  -2.144  1.00  0.00    -0.243 N 
HETATM   42  C11 UNL     1       0.279  -3.105  -2.799  1.00  0.00     0.347 C 
HETATM   43  N10 UNL     1       0.297  -4.104  -3.888  1.00  0.00    -0.038 NA
HETATM   44  O5  UNL     1       1.474  -2.690  -2.674  1.00  0.00    -0.249 OA
ATOM     45  H9  UNL     1      -1.621  -3.309  -2.527  1.00  0.00     0.192 HD
ENDBRANCH   3  41
TORSDOF 13
