REMARK  15 active torsions:
REMARK  status: ('A' for Active; 'I' for Inactive)
REMARK    1  A    between atoms: C2_2  and  C3_3 
REMARK    2  A    between atoms: C2_2  and  N4_18 
REMARK    3  A    between atoms: C3_3  and  O1_4 
REMARK    4  A    between atoms: C3_3  and  C4_6 
REMARK    5  A    between atoms: C4_6  and  N1_7 
REMARK    6  A    between atoms: C6_11  and  S1_12 
REMARK    7  A    between atoms: N4_18  and  O5_19 
REMARK    8  A    between atoms: N4_18  and  C7_21 
REMARK    9  A    between atoms: C7_21  and  C8_22 
REMARK   10  A    between atoms: C7_21  and  C11_36 
REMARK       I    between atoms: C8_22  and  N5_24 
REMARK   11  A    between atoms: N5_24  and  C9_26 
REMARK   12  A    between atoms: C11_36  and  N10_41 
REMARK   13  A    between atoms: N9_37  and  O8_39 
REMARK   14  A    between atoms: N10_41  and  O9_43 
REMARK   15  A    between atoms: O9_43  and  C12_44 
ROOT
HETATM    1  C7  UNL     1      -1.314  -1.436   0.352  1.00  0.00     0.271 C 
ENDROOT
BRANCH   1   2
HETATM    2  N4  UNL     1       0.016  -1.285   0.004  1.00  0.00    -0.268 N 
BRANCH   2   3
HETATM    3  C2  UNL     1       0.518  -0.790  -1.172  1.00  0.00     0.136 C 
HETATM    4  C1  UNL     1       0.329  -1.416  -2.488  1.00  0.00     0.037 C 
BRANCH   3   5
HETATM    5  C3  UNL     1       2.040  -0.578  -0.999  1.00  0.00     0.162 C 
BRANCH   5   6
HETATM    6  O1  UNL     1       2.577  -0.075  -2.181  1.00  0.00    -0.392 OA
ATOM      7  H1  UNL     1       3.512   0.055  -2.075  1.00  0.00     0.210 HD
ENDBRANCH   5   6
BRANCH   5   8
HETATM    8  C4  UNL     1       2.303   0.468   0.059  1.00  0.00     0.183 C 
BRANCH   8   9
HETATM    9  N1  UNL     1       3.751   0.605   0.153  1.00  0.00    -0.283 N 
HETATM   10  C5  UNL     1       4.565  -0.101   0.965  1.00  0.00     0.202 A 
HETATM   11  N2  UNL     1       5.839   0.304   0.775  1.00  0.00    -0.324 N 
HETATM   12  C6  UNL     1       5.828   1.261  -0.153  1.00  0.00     0.241 A 
ATOM     13  H2  UNL     1       6.663  -0.058   1.256  1.00  0.00     0.169 HD
HETATM   14  N3  UNL     1       4.545   1.424  -0.514  1.00  0.00    -0.271 N 
ATOM     15  H3  UNL     1       4.224   2.094  -1.213  1.00  0.00     0.189 HD
BRANCH  12  16
HETATM   16  S1  UNL     1       7.250   2.088  -0.729  1.00  0.00     0.173 S 
HETATM   17  O2  UNL     1       8.265   2.194   0.396  1.00  0.00    -0.589 OA
HETATM   18  O3  UNL     1       6.857   3.502  -1.085  1.00  0.00    -0.589 OA
HETATM   19  O4  UNL     1       7.917   1.313  -2.043  1.00  0.00    -0.589 OA
ENDBRANCH  12  16
ENDBRANCH   8   9
ENDBRANCH   5   8
ENDBRANCH   3   5
ENDBRANCH   2   3
BRANCH   2  20
HETATM   20  O5  UNL     1       0.889  -2.012   0.758  1.00  0.00    -0.291 OA
ATOM     21  H5  UNL     1       0.541  -2.355   1.573  1.00  0.00     0.244 HD
ENDBRANCH   2  20
ENDBRANCH   1   2
BRANCH   1  22
HETATM   22  C8  UNL     1      -2.179  -2.385  -0.336  1.00  0.00     0.256 C 
HETATM   23  O6  UNL     1      -1.802  -3.143  -1.247  1.00  0.00    -0.270 OA
HETATM   24  N5  UNL     1      -3.565  -2.481   0.036  1.00  0.00    -0.306 N 
ATOM     25  H5  UNL     1      -3.925  -1.881   0.779  1.00  0.00     0.170 HD
BRANCH  24  26
HETATM   26  C9  UNL     1      -4.439  -3.388  -0.605  1.00  0.00     0.176 A 
HETATM   27  N6  UNL     1      -4.111  -4.245  -1.598  1.00  0.00    -0.222 N 
HETATM   28  O7  UNL     1      -5.161  -4.933  -1.951  1.00  0.00    -0.153 OA
ATOM     29  H6  UNL     1      -3.182  -4.339  -2.009  1.00  0.00     0.198 HD
HETATM   30  N7  UNL     1      -6.179  -4.547  -1.210  1.00  0.00    -0.222 N 
HETATM   31  C10 UNL     1      -5.775  -3.595  -0.367  1.00  0.00     0.167 A 
ATOM     32  H7  UNL     1      -7.127  -4.918  -1.271  1.00  0.00     0.198 HD
HETATM   33  N8  UNL     1      -6.517  -3.009   0.485  1.00  0.00    -0.381 N 
ATOM     34  H82 UNL     1      -6.208  -2.281   1.129  1.00  0.00     0.157 HD
ATOM     35  H81 UNL     1      -7.510  -3.163   0.662  1.00  0.00     0.157 HD
ENDBRANCH  24  26
ENDBRANCH   1  22
BRANCH   1  36
HETATM   36  C11 UNL     1      -2.022  -0.091   0.510  1.00  0.00     0.156 C 
HETATM   37  N9  UNL     1      -2.946   0.162  -0.339  1.00  0.00    -0.253 N 
ATOM     38  H9  UNL     1      -3.180  -0.510  -1.070  1.00  0.00     0.195 HD
BRANCH  37  39
HETATM   39  O8  UNL     1      -3.614   1.354  -0.246  1.00  0.00    -0.288 OA
ATOM     40  H8  UNL     1      -4.300   1.542  -0.876  1.00  0.00     0.244 HD
ENDBRANCH  37  39
BRANCH  36  41
HETATM   41  N10 UNL     1      -1.683   0.826   1.506  1.00  0.00    -0.241 N 
ATOM     42  H10 UNL     1      -1.717   0.584   2.496  1.00  0.00     0.196 HD
BRANCH  41  43
HETATM   43  O9  UNL     1      -1.296   2.091   1.068  1.00  0.00    -0.197 OA
BRANCH  43  44
HETATM   44  C12 UNL     1      -1.166   3.161   1.934  1.00  0.00     0.273 A 
HETATM   45  N11 UNL     1      -0.863   3.065   3.173  1.00  0.00    -0.248 N 
HETATM   46  N12 UNL     1      -0.820   4.340   3.740  1.00  0.00    -0.006 NA
ATOM     47  H11 UNL     1      -0.681   2.193   3.669  1.00  0.00     0.187 HD
HETATM   48  N13 UNL     1      -1.086   5.303   2.752  1.00  0.00    -0.006 NA
HETATM   49  N14 UNL     1      -1.343   4.516   1.601  1.00  0.00    -0.248 N 
ATOM     50  H14 UNL     1      -1.612   4.873   0.684  1.00  0.00     0.187 HD
ENDBRANCH  43  44
ENDBRANCH  41  43
ENDBRANCH  36  41
ENDBRANCH   1  36
TORSDOF 15
