REMARK  3 active torsions:
REMARK  status: ('A' for Active; 'I' for Inactive)
REMARK    1  A    between atoms: N1_1  and  C1_5 
REMARK    2  A    between atoms: C1_5  and  C2_6 
REMARK    3  A    between atoms: C1_5  and  C3_8 
ROOT
HETATM    1  C3  UNL     1      -0.059   0.257   0.372  1.00  0.00     0.055 C 
HETATM    2  C4  UNL     1      -0.478   1.065  -0.829  1.00  0.00     0.017 C 
HETATM    3  C5  UNL     1      -1.963   1.378  -0.626  1.00  0.00     0.045 C 
HETATM    4  C6  UNL     1      -2.718   0.199  -0.123  1.00  0.00     0.060 C 
HETATM    5  N2  UNL     1      -2.054  -1.043  -0.176  1.00  0.00    -0.382 N 
ATOM      6  H2  UNL     1      -2.531  -1.879  -0.514  1.00  0.00     0.164 HD
HETATM    7  C7  UNL     1      -0.713  -1.097   0.251  1.00  0.00     0.066 C 
ENDROOT
BRANCH   1   8
HETATM    8  C1  UNL     1       1.426   0.173   0.535  1.00  0.00     0.202 C 
BRANCH   8   9
HETATM    9  N1  UNL     1       1.810  -0.603   1.687  1.00  0.00    -0.074 N 
ATOM     10  H13 UNL     1       1.654  -1.602   1.556  1.00  0.00     0.274 HD
ATOM     11  H12 UNL     1       2.821  -0.636   1.818  1.00  0.00     0.274 HD
ATOM     12  H11 UNL     1       1.322  -0.234   2.503  1.00  0.00     0.274 HD
ENDBRANCH   8   9
BRANCH   8  13
HETATM   13  C2  UNL     1       2.143  -0.368  -0.663  1.00  0.00     0.119 C 
HETATM   14  S1  UNL     1       3.937  -0.223  -0.357  1.00  0.00    -0.096 SA
ENDBRANCH   8  13
ENDBRANCH   1   8
TORSDOF 3
