REMARK  4 active torsions:
REMARK  status: ('A' for Active; 'I' for Inactive)
REMARK    1  A    between atoms: O1_2  and  N1_3 
REMARK    2  A    between atoms: N1_3  and  C2_5 
REMARK    3  A    between atoms: C2_5  and  N2_7 
REMARK    4  A    between atoms: N2_7  and  N3_9 
ROOT
HETATM    1  N2  UNL     1       0.005  -0.394  -0.098  1.00  0.00    -0.275 N 
ATOM      2  H2  UNL     1      -0.195  -1.029  -0.871  1.00  0.00     0.189 HD
ENDROOT
BRANCH   1   3
HETATM    3  C2  UNL     1       1.314  -0.308   0.396  1.00  0.00     0.210 C 
HETATM    4  S1  UNL     1       1.629   0.704   1.628  1.00  0.00    -0.037 SA
BRANCH   3   5
HETATM    5  N1  UNL     1       2.344  -1.091  -0.168  1.00  0.00    -0.240 N 
ATOM      6  H1  UNL     1       2.139  -1.725  -0.940  1.00  0.00     0.197 HD
BRANCH   5   7
HETATM    7  O1  UNL     1       3.614  -0.998   0.322  1.00  0.00    -0.283 OA
HETATM    8  C1  UNL     1       4.085   0.286   0.152  1.00  0.00     0.237 C 
ENDBRANCH   5   7
ENDBRANCH   3   5
ENDBRANCH   1   3
BRANCH   1   9
HETATM    9  N3  UNL     1      -1.024   0.365   0.440  1.00  0.00    -0.307 N 
HETATM   10  C3  UNL     1      -2.219   0.311  -0.015  1.00  0.00    -0.004 C 
HETATM   11  C4  UNL     1      -3.315   1.126   0.566  1.00  0.00     0.064 C 
HETATM   12  C5  UNL     1      -2.539  -0.589  -1.159  1.00  0.00     0.064 C 
ATOM     13  H3  UNL     1      -0.822   0.986   1.223  1.00  0.00     0.186 HD
ENDBRANCH   1   9
TORSDOF 4
