REMARK  3 active torsions:
REMARK  status: ('A' for Active; 'I' for Inactive)
REMARK    1  A    between atoms: C2_2  and  N1_4 
REMARK    2  A    between atoms: N1_4  and  N2_5 
REMARK    3  A    between atoms: N1_4  and  N3_8 
ROOT
HETATM    1  N3  UNL     1      -0.328  -1.000   0.395  1.00  0.00    -0.273 N 
ATOM      2  H3  UNL     1      -0.446  -1.821   0.989  1.00  0.00     0.190 HD
HETATM    3  C4  UNL     1       0.874  -0.614   0.145  1.00  0.00     0.093 C 
HETATM    4  C5  UNL     1       1.985  -1.385   0.734  1.00  0.00     0.077 C 
HETATM    5  C6  UNL     1       3.325  -1.010   0.136  1.00  0.00     0.009 C 
HETATM    6  C7  UNL     1       3.368   0.497  -0.100  1.00  0.00     0.020 C 
HETATM    7  C8  UNL     1       2.386   0.767  -1.237  1.00  0.00     0.121 C 
HETATM    8  N4  UNL     1       1.056   0.524  -0.677  1.00  0.00    -0.379 N 
ATOM      9  H4  UNL     1       0.281   1.157  -0.874  1.00  0.00     0.160 HD
ENDROOT
BRANCH   1  10
HETATM   10  N1  UNL     1      -1.482  -0.380  -0.086  1.00  0.00    -0.235 N 
BRANCH  10  11
HETATM   11  C2  UNL     1      -2.385   0.213   0.859  1.00  0.00     0.118 C 
HETATM   12  C1  UNL     1      -2.477   1.702   0.500  1.00  0.00     0.035 C 
HETATM   13  C3  UNL     1      -3.763  -0.407   0.807  1.00  0.00     0.035 C 
ENDBRANCH  10  11
BRANCH  10  14
HETATM   14  N2  UNL     1      -1.690  -0.375  -1.467  1.00  0.00    -0.328 N 
ATOM     15  H22 UNL     1      -2.533   0.078  -1.819  1.00  0.00     0.178 HD
ATOM     16  H21 UNL     1      -1.048  -0.796  -2.139  1.00  0.00     0.178 HD
ENDBRANCH  10  14
ENDBRANCH   1  10
TORSDOF 3
