REMARK  4 active torsions:
REMARK  status: ('A' for Active; 'I' for Inactive)
REMARK    1  A    between atoms: O1_2  and  C2_3 
REMARK    2  A    between atoms: C5_6  and  C6_7 
REMARK    3  A    between atoms: C6_7  and  N1_8 
REMARK    4  A    between atoms: C6_7  and  C7_12 
ROOT
HETATM    1  C6  UNL     1       1.022  -1.000  -0.270  1.00  0.00     0.191 C 
ENDROOT
BRANCH   1   2
HETATM    2  C5  UNL     1      -0.254  -0.499  -0.859  1.00  0.00     0.019 C 
HETATM    3  C4  UNL     1      -1.298  -1.581  -1.000  1.00  0.00     0.009 C 
HETATM    4  C3  UNL     1      -2.594  -1.042  -0.444  1.00  0.00     0.032 C 
HETATM    5  C2  UNL     1      -2.363   0.389  -0.100  1.00  0.00     0.121 C 
HETATM    6  C11 UNL     1      -0.864   0.533   0.074  1.00  0.00     0.038 C 
BRANCH   5   7
HETATM    7  O1  UNL     1      -3.010   0.699   1.093  1.00  0.00    -0.391 OA
HETATM    8  C1  UNL     1      -3.908   1.731   0.820  1.00  0.00     0.202 C 
ENDBRANCH   5   7
ENDBRANCH   1   2
BRANCH   1   9
HETATM    9  N1  UNL     1       1.606  -2.060  -1.106  1.00  0.00    -0.074 N 
ATOM     10  H13 UNL     1       0.944  -2.818  -1.270  1.00  0.00     0.274 HD
ATOM     11  H12 UNL     1       1.731  -1.753  -2.071  1.00  0.00     0.274 HD
ATOM     12  H11 UNL     1       2.478  -2.403  -0.703  1.00  0.00     0.274 HD
ENDBRANCH   1   9
BRANCH   1  13
HETATM   13  C7  UNL     1       2.062   0.101  -0.246  1.00  0.00     0.016 C 
HETATM   14  C8  UNL     1       3.402  -0.363   0.348  1.00  0.00     0.007 C 
HETATM   15  C9  UNL     1       3.529   1.072   0.879  1.00  0.00     0.001 C 
HETATM   16  C10 UNL     1       1.994   1.033   0.947  1.00  0.00     0.007 C 
ENDBRANCH   1  13
TORSDOF 4
