REMARK  3 active torsions:
REMARK  status: ('A' for Active; 'I' for Inactive)
REMARK    1  A    between atoms: N1_2  and  C3_4 
REMARK    2  A    between atoms: C3_4  and  C4_5 
REMARK    3  A    between atoms: C4_5  and  C5_6 
ROOT
HETATM    1  C3  UNL     1      -0.108  -0.308   0.192  1.00  0.00     0.132 C 
HETATM    2  C6  UNL     1      -1.299  -0.960   0.894  1.00  0.00     0.063 C 
HETATM    3  C7  UNL     1      -2.342  -0.762  -0.174  1.00  0.00     0.031 C 
HETATM    4  C8  UNL     1      -1.524  -0.959  -1.424  1.00  0.00     0.171 C 
HETATM    5  O1  UNL     1      -0.186  -0.872  -1.107  1.00  0.00    -0.361 OA
ENDROOT
BRANCH   1   6
HETATM    6  N1  UNL     1      -0.173   1.046   0.056  1.00  0.00    -0.391 N 
HETATM    7  C1  UNL     1       0.639   1.837  -0.771  1.00  0.00     0.145 C 
HETATM    8  C2  UNL     1      -0.696   1.835   1.133  1.00  0.00     0.145 C 
ENDBRANCH   1   6
BRANCH   1   9
HETATM    9  C4  UNL     1       1.096  -0.910   0.817  1.00  0.00     0.072 C 
BRANCH   9  10
HETATM   10  C5  UNL     1       2.424  -0.724   0.200  1.00  0.00     0.091 C 
HETATM   11  S1  UNL     1       2.511  -1.367  -1.494  1.00  0.00    -0.098 SA
ENDBRANCH   9  10
ENDBRANCH   1   9
TORSDOF 3
