REMARK  4 active torsions:
REMARK  status: ('A' for Active; 'I' for Inactive)
REMARK    1  A    between atoms: O1_2  and  C2_3 
REMARK    2  A    between atoms: C2_3  and  C3_4 
REMARK    3  A    between atoms: C3_4  and  O2_5 
REMARK    4  A    between atoms: C3_4  and  C4_7 
ROOT
HETATM    1  C2  UNL     1      -0.466   0.226  -0.014  1.00  0.00     0.190 C 
HETATM    2  C7  UNL     1      -1.146  -1.071   0.261  1.00  0.00     0.073 C 
HETATM    3  C8  UNL     1      -2.498  -0.922  -0.431  1.00  0.00     0.032 C 
HETATM    4  C9  UNL     1      -2.175   0.156  -1.455  1.00  0.00     0.171 C 
HETATM    5  O3  UNL     1      -1.351   1.002  -0.764  1.00  0.00    -0.353 OA
ENDROOT
BRANCH   1   6
HETATM    6  O1  UNL     1      -0.175   0.965   1.120  1.00  0.00    -0.358 OA
HETATM    7  C1  UNL     1      -1.295   1.256   1.883  1.00  0.00     0.205 C 
ENDBRANCH   1   6
BRANCH   1   8
HETATM    8  C3  UNL     1       0.794   0.072  -0.814  1.00  0.00     0.184 C 
BRANCH   8   9
HETATM    9  O2  UNL     1       1.229   1.354  -1.147  1.00  0.00    -0.390 OA
ATOM     10  H2  UNL     1       2.027   1.256  -1.654  1.00  0.00     0.210 HD
ENDBRANCH   8   9
BRANCH   8  11
HETATM   11  C4  UNL     1       1.891  -0.662  -0.160  1.00  0.00     0.020 A 
HETATM   12  C5  UNL     1       2.557  -0.308   1.080  1.00  0.00     0.008 A 
HETATM   13  C6  UNL     1       3.279  -0.016  -0.239  1.00  0.00     0.008 A 
ENDBRANCH   8  11
ENDBRANCH   1   8
TORSDOF 4
