REMARK  1 active torsions:
REMARK  status: ('A' for Active; 'I' for Inactive)
REMARK    1  A    between atoms: C5_5  and  N1_7 
ROOT
HETATM    1  C1  UNL     1       1.408   1.195  -0.064  1.00  0.00     0.017 C 
HETATM    2  C2  UNL     1       0.706  -0.129  -0.041  1.00  0.00    -0.013 A 
HETATM    3  C3  UNL     1       1.273  -1.194  -0.921  1.00  0.00     0.017 C 
HETATM    4  C4  UNL     1       0.156  -0.503   1.328  1.00  0.00     0.050 A 
HETATM    5  C5  UNL     1      -0.761  -0.158   0.164  1.00  0.00     0.128 A 
HETATM    6  C6  UNL     1      -1.479   1.149   0.147  1.00  0.00     0.047 C 
ENDROOT
BRANCH   5   7
HETATM    7  N1  UNL     1      -1.552  -1.298  -0.276  1.00  0.00    -0.070 N 
ATOM      8  H13 UNL     1      -1.366  -1.450  -1.267  1.00  0.00     0.275 HD
ATOM      9  H12 UNL     1      -1.156  -2.140   0.141  1.00  0.00     0.275 HD
ATOM     10  H11 UNL     1      -2.562  -1.318  -0.135  1.00  0.00     0.275 HD
ENDBRANCH   5   7
TORSDOF 1
