REMARK  6 active torsions:
REMARK  status: ('A' for Active; 'I' for Inactive)
REMARK       I    between atoms: C1_2  and  N1_3 
REMARK    1  A    between atoms: C1_2  and  C8_13 
REMARK    2  A    between atoms: N1_3  and  C2_5 
REMARK    3  A    between atoms: C11_16  and  C12_17 
REMARK    4  A    between atoms: C12_17  and  N2_18 
REMARK       I    between atoms: N2_18  and  C13_19 
REMARK    5  A    between atoms: N2_18  and  C20_27 
REMARK    6  A    between atoms: C13_19  and  C14_21 
ROOT
HETATM    1  C8  UNL     1       2.109   0.132   1.450  1.00  0.00     0.078 C 
HETATM    2  C9  UNL     1       1.016  -0.890   1.625  1.00  0.00     0.014 C 
HETATM    3  C10 UNL     1      -0.276  -0.131   1.914  1.00  0.00     0.007 C 
HETATM    4  C11 UNL     1      -0.829   0.494   0.703  1.00  0.00     0.004 C 
HETATM    5  C25 UNL     1       0.344   1.150  -0.042  1.00  0.00     0.007 C 
HETATM    6  C26 UNL     1       1.499   1.387   0.876  1.00  0.00     0.014 C 
ENDROOT
BRANCH   4   7
HETATM    7  C12 UNL     1      -1.590  -0.313  -0.283  1.00  0.00     0.130 C 
BRANCH   7   8
HETATM    8  N2  UNL     1      -2.778  -0.985   0.087  1.00  0.00    -0.347 N 
HETATM    9  C13 UNL     1      -3.995  -0.186   0.078  1.00  0.00     0.224 C 
HETATM   10  O2  UNL     1      -5.103  -0.734   0.403  1.00  0.00    -0.273 OA
BRANCH   9  11
HETATM   11  C14 UNL     1      -4.096   1.234  -0.278  1.00  0.00     0.078 C 
HETATM   12  C15 UNL     1      -5.130   1.325  -1.383  1.00  0.00     0.014 C 
HETATM   13  C16 UNL     1      -6.160   2.388  -1.112  1.00  0.00     0.001 C 
HETATM   14  C17 UNL     1      -5.499   3.653  -0.614  1.00  0.00     0.000 C 
HETATM   15  C18 UNL     1      -4.922   3.382   0.731  1.00  0.00     0.001 C 
HETATM   16  C19 UNL     1      -4.572   1.945   0.975  1.00  0.00     0.014 C 
ENDBRANCH   9  11
BRANCH   8  17
HETATM   17  C20 UNL     1      -2.971  -2.357   0.368  1.00  0.00     0.087 C 
HETATM   18  C21 UNL     1      -2.271  -3.054   1.446  1.00  0.00     0.025 C 
HETATM   19  C22 UNL     1      -2.640  -4.540   1.192  1.00  0.00     0.002 C 
HETATM   20  C23 UNL     1      -2.647  -4.649  -0.317  1.00  0.00     0.002 C 
HETATM   21  C24 UNL     1      -2.718  -3.238  -0.872  1.00  0.00     0.025 C 
ENDBRANCH   8  17
ENDBRANCH   7   8
ENDBRANCH   4   7
BRANCH   1  22
HETATM   22  C1  UNL     1       3.201  -0.353   0.587  1.00  0.00     0.222 C 
HETATM   23  O1  UNL     1       3.136  -1.499   0.103  1.00  0.00    -0.273 OA
HETATM   24  N1  UNL     1       4.306   0.468   0.312  1.00  0.00    -0.356 N 
ATOM     25  H1  UNL     1       4.339   1.403   0.718  1.00  0.00     0.162 HD
BRANCH  24  26
HETATM   26  C2  UNL     1       5.418   0.023  -0.543  1.00  0.00     0.084 C 
HETATM   27  C3  UNL     1       6.661   0.051   0.283  1.00  0.00     0.031 C 
HETATM   28  C4  UNL     1       7.903   0.367  -0.481  1.00  0.00     0.081 C 
HETATM   29  C5  UNL     1       7.812   0.112  -1.949  1.00  0.00     0.243 C 
HETATM   30  F1  UNL     1       8.963   0.658  -2.533  1.00  0.00    -0.206 F 
HETATM   31  F2  UNL     1       7.810  -1.236  -2.243  1.00  0.00    -0.206 F 
HETATM   32  C6  UNL     1       6.637   0.758  -2.608  1.00  0.00     0.081 C 
HETATM   33  C7  UNL     1       5.455   0.950  -1.716  1.00  0.00     0.031 C 
ENDBRANCH  24  26
ENDBRANCH   1  22
TORSDOF 6
