REMARK  7 active torsions:
REMARK  status: ('A' for Active; 'I' for Inactive)
REMARK    1  A    between atoms: C2_2  and  C3_3 
REMARK    2  A    between atoms: C3_3  and  N1_4 
REMARK    3  A    between atoms: N1_4  and  C4_5 
REMARK    4  A    between atoms: N1_4  and  S1_25 
REMARK    5  A    between atoms: C8_11  and  C9_12 
REMARK    6  A    between atoms: C9_12  and  N3_14 
REMARK    7  A    between atoms: N3_14  and  C11_17 
ROOT
HETATM    1  C4  UNL     1       2.766  -0.078  -0.031  1.00  0.00     0.046 A 
HETATM    2  C5  UNL     1       2.770  -0.836   1.108  1.00  0.00     0.032 A 
HETATM    3  C6  UNL     1       1.609  -1.303   1.734  1.00  0.00     0.033 A 
HETATM    4  C7  UNL     1       0.387  -0.985   1.175  1.00  0.00     0.044 A 
HETATM    5  N2  UNL     1      -0.860  -1.302   1.534  1.00  0.00    -0.356 N 
ATOM      6  H2  UNL     1      -1.125  -1.870   2.338  1.00  0.00     0.166 HD
HETATM    7  C8  UNL     1      -1.697  -0.746   0.658  1.00  0.00     0.058 A 
HETATM    8  C14 UNL     1      -0.971  -0.071  -0.265  1.00  0.00     0.048 A 
HETATM    9 BR1  UNL     1      -1.578   0.938  -1.780  1.00  0.00    -0.048 Br
HETATM   10  C15 UNL     1       0.367  -0.222   0.044  1.00  0.00     0.012 A 
HETATM   11  C16 UNL     1       1.546   0.231  -0.566  1.00  0.00     0.045 A 
ENDROOT
BRANCH   7  12
HETATM   12  C9  UNL     1      -3.212  -0.754   0.708  1.00  0.00     0.235 C 
HETATM   13  C10 UNL     1      -3.579  -2.121   0.223  1.00  0.00     0.047 C 
BRANCH  12  14
HETATM   14  N3  UNL     1      -3.714   0.388   0.054  1.00  0.00    -0.044 N 
ATOM     15  H32 UNL     1      -3.285   1.236   0.425  1.00  0.00     0.280 HD
ATOM     16  H31 UNL     1      -3.375   0.433  -0.907  1.00  0.00     0.280 HD
BRANCH  14  17
HETATM   17  C11 UNL     1      -5.162   0.484   0.094  1.00  0.00     0.194 C 
HETATM   18  C12 UNL     1      -5.577   1.886   0.470  1.00  0.00     0.064 C 
HETATM   19  C13 UNL     1      -5.718   0.223  -1.318  1.00  0.00     0.064 C 
HETATM   20 CL1  UNL     1      -5.902  -0.574   1.309  1.00  0.00    -0.088 Cl
ENDBRANCH  14  17
ENDBRANCH  12  14
ENDBRANCH   7  12
BRANCH   1  21
HETATM   21  N1  UNL     1       3.936   0.286  -0.770  1.00  0.00    -0.273 N 
BRANCH  21  22
HETATM   22  C3  UNL     1       4.414   1.645  -0.755  1.00  0.00     0.168 C 
BRANCH  22  23
HETATM   23  C2  UNL     1       4.717   2.181   0.562  1.00  0.00    -0.016 C 
HETATM   24  C1  UNL     1       4.007   3.262   0.981  1.00  0.00     0.008 C 
ENDBRANCH  22  23
ENDBRANCH  21  22
BRANCH  21  25
HETATM   25  S1  UNL     1       4.763  -0.843  -1.820  1.00  0.00     0.229 S 
HETATM   26  C17 UNL     1       5.365  -2.259  -0.924  1.00  0.00     0.186 C 
HETATM   27  O1  UNL     1       3.842  -1.250  -2.933  1.00  0.00    -0.206 OA
HETATM   28  O2  UNL     1       5.944  -0.092  -2.412  1.00  0.00    -0.206 OA
ENDBRANCH  21  25
ENDBRANCH   1  21
TORSDOF 7
