REMARK  10 active torsions:
REMARK  status: ('A' for Active; 'I' for Inactive)
REMARK    1  A    between atoms: C2_2  and  C3_3 
REMARK    2  A    between atoms: C3_3  and  C4_4 
REMARK    3  A    between atoms: C5_8  and  C6_9 
REMARK    4  A    between atoms: C6_9  and  N2_10 
REMARK    5  A    between atoms: C6_9  and  C7_14 
REMARK    6  A    between atoms: C7_14  and  C8_15 
REMARK    7  A    between atoms: C8_15  and  O2_16 
REMARK    8  A    between atoms: C8_15  and  C9_18 
REMARK    9  A    between atoms: C9_18  and  N3_19 
REMARK   10  A    between atoms: N3_19  and  C10_21 
ROOT
HETATM    1  C6  UNL     1      -1.183   1.048  -0.997  1.00  0.00     0.262 C 
ENDROOT
BRANCH   1   2
HETATM    2  C5  UNL     1      -2.518   0.354  -0.969  1.00  0.00     0.179 A 
HETATM    3  O1  UNL     1      -2.769  -0.804  -1.506  1.00  0.00    -0.221 OA
HETATM    4  N1  UNL     1      -4.021  -1.133  -1.314  1.00  0.00    -0.247 N 
HETATM    5  C4  UNL     1      -4.628  -0.155  -0.623  1.00  0.00     0.103 A 
ATOM      6  H1  UNL     1      -4.464  -1.993  -1.637  1.00  0.00     0.196 HD
HETATM    7  N4  UNL     1      -3.651   0.781  -0.414  1.00  0.00    -0.325 N 
ATOM      8  H4  UNL     1      -3.771   1.662   0.086  1.00  0.00     0.169 HD
BRANCH   5   9
HETATM    9  C3  UNL     1      -6.039  -0.064  -0.175  1.00  0.00     0.078 C 
BRANCH   9  10
HETATM   10  C2  UNL     1      -6.195  -0.667   1.208  1.00  0.00     0.003 C 
HETATM   11  C1  UNL     1      -5.797  -2.131   1.124  1.00  0.00     0.005 C 
ENDBRANCH   9  10
ENDBRANCH   5   9
ENDBRANCH   1   2
BRANCH   1  12
HETATM   12  N2  UNL     1      -1.390   2.467  -1.169  1.00  0.00    -0.068 N 
ATOM     13  H23 UNL     1      -1.954   2.679  -1.992  1.00  0.00     0.275 HD
ATOM     14  H22 UNL     1      -2.014   2.856  -0.462  1.00  0.00     0.275 HD
ATOM     15  H21 UNL     1      -0.485   2.937  -1.188  1.00  0.00     0.275 HD
ENDBRANCH   1  12
BRANCH   1  16
HETATM   16  C7  UNL     1      -0.379   0.785   0.224  1.00  0.00     0.078 C 
BRANCH  16  17
HETATM   17  C8  UNL     1       0.939   1.514   0.175  1.00  0.00     0.158 C 
BRANCH  17  18
HETATM   18  O2  UNL     1       0.695   2.925   0.094  1.00  0.00    -0.390 OA
ATOM     19  H2  UNL     1       1.526   3.385   0.063  1.00  0.00     0.210 HD
ENDBRANCH  17  18
BRANCH  17  20
HETATM   20  C9  UNL     1       1.642   1.187  -1.109  1.00  0.00     0.092 C 
BRANCH  20  21
HETATM   21  N3  UNL     1       1.975  -0.132  -1.317  1.00  0.00    -0.374 N 
ATOM     22  H3  UNL     1       1.403  -0.646  -1.987  1.00  0.00     0.164 HD
BRANCH  21  23
HETATM   23  C10 UNL     1       3.007  -0.838  -0.711  1.00  0.00    -0.014 C 
HETATM   24  C11 UNL     1       3.053  -1.077   0.742  1.00  0.00     0.052 C 
HETATM   25  C12 UNL     1       4.110  -0.329   1.519  1.00  0.00     0.006 C 
HETATM   26  C13 UNL     1       5.472  -0.388   0.875  1.00  0.00     0.001 C 
HETATM   27  C14 UNL     1       5.419  -1.143  -0.444  1.00  0.00     0.006 C 
HETATM   28  C15 UNL     1       4.385  -0.422  -1.271  1.00  0.00     0.052 C 
ENDBRANCH  21  23
ENDBRANCH  20  21
ENDBRANCH  17  20
ENDBRANCH  16  17
ENDBRANCH   1  16
TORSDOF 10
