REMARK  9 active torsions:
REMARK  status: ('A' for Active; 'I' for Inactive)
REMARK    1  A    between atoms: C2_2  and  C3_3 
REMARK    2  A    between atoms: C3_3  and  C4_4 
REMARK    3  A    between atoms: C3_3  and  N1_7 
REMARK    4  A    between atoms: C4_4  and  O1_5 
REMARK    5  A    between atoms: N1_7  and  C5_9 
REMARK    6  A    between atoms: C5_9  and  C6_10 
REMARK    7  A    between atoms: C8_13  and  C9_14 
REMARK    8  A    between atoms: C10_19  and  C11_20 
REMARK    9  A    between atoms: C11_20  and  C13_22 
ROOT
HETATM    1  C6  UNL     1      -1.819   0.077  -0.376  1.00  0.00     0.051 A 
HETATM    2  C7  UNL     1      -1.488  -0.403   0.873  1.00  0.00     0.171 A 
HETATM    3  O2  UNL     1      -0.185  -0.538   0.918  1.00  0.00    -0.301 OA
HETATM    4  C8  UNL     1       0.355  -0.179  -0.215  1.00  0.00     0.194 A 
HETATM    5  N5  UNL     1      -0.644   0.206  -1.029  1.00  0.00    -0.334 N 
ATOM      6  H5  UNL     1      -0.532   0.541  -1.986  1.00  0.00     0.168 HD
ENDROOT
BRANCH   4   7
HETATM    7  C9  UNL     1       1.790  -0.215  -0.477  1.00  0.00     0.174 A 
HETATM    8  N2  UNL     1       2.417   0.137  -1.609  1.00  0.00    -0.281 N 
HETATM    9  N3  UNL     1       3.739  -0.043  -1.457  1.00  0.00    -0.287 N 
ATOM     10  H2  UNL     1       1.962   0.486  -2.452  1.00  0.00     0.188 HD
HETATM   11  C10 UNL     1       3.972  -0.517  -0.215  1.00  0.00     0.101 A 
ATOM     12  H3  UNL     1       4.450   0.147  -2.164  1.00  0.00     0.188 HD
HETATM   13  N4  UNL     1       2.769  -0.610   0.355  1.00  0.00    -0.326 N 
ATOM     14  H4  UNL     1       2.611  -0.941   1.307  1.00  0.00     0.169 HD
BRANCH  11  15
HETATM   15  C11 UNL     1       5.281  -0.869   0.430  1.00  0.00     0.055 C 
HETATM   16  C12 UNL     1       6.091  -1.743  -0.479  1.00  0.00     0.018 C 
BRANCH  15  17
HETATM   17  C13 UNL     1       6.014   0.360   0.884  1.00  0.00    -0.003 A 
HETATM   18  C14 UNL     1       6.418   1.410  -0.074  1.00  0.00     0.006 A 
HETATM   19  C15 UNL     1       7.459   0.517   0.536  1.00  0.00     0.006 A 
ENDBRANCH  15  17
ENDBRANCH  11  15
ENDBRANCH   4   7
BRANCH   1  20
HETATM   20  C5  UNL     1      -3.193   0.382  -0.861  1.00  0.00     0.173 C 
BRANCH  20  21
HETATM   21  N1  UNL     1      -4.110   0.642   0.181  1.00  0.00    -0.410 N 
ATOM     22  H1  UNL     1      -3.813   0.627   1.157  1.00  0.00     0.154 HD
BRANCH  21  23
HETATM   23  C3  UNL     1      -5.453   0.924  -0.168  1.00  0.00     0.100 C 
BRANCH  23  24
HETATM   24  C2  UNL     1      -6.055  -0.293  -0.850  1.00  0.00     0.022 C 
HETATM   25  C1  UNL     1      -5.929  -1.496   0.070  1.00  0.00     0.007 C 
ENDBRANCH  23  24
BRANCH  23  26
HETATM   26  C4  UNL     1      -6.255   1.140   1.126  1.00  0.00     0.188 C 
BRANCH  26  27
HETATM   27  O1  UNL     1      -5.657   2.225   1.786  1.00  0.00    -0.399 OA
ATOM     28  H1  UNL     1      -6.153   2.358   2.585  1.00  0.00     0.209 HD
ENDBRANCH  26  27
ENDBRANCH  23  26
ENDBRANCH  21  23
ENDBRANCH  20  21
ENDBRANCH   1  20
TORSDOF 9
