REMARK  10 active torsions:
REMARK  status: ('A' for Active; 'I' for Inactive)
REMARK    1  A    between atoms: C3_3  and  C4_4 
REMARK    2  A    between atoms: C3_3  and  N1_9 
REMARK    3  A    between atoms: C4_4  and  S1_5 
REMARK    4  A    between atoms: S1_5  and  C5_6 
REMARK    5  A    between atoms: C5_6  and  C6_7 
REMARK    6  A    between atoms: N1_9  and  C8_11 
REMARK    7  A    between atoms: C8_11  and  C9_12 
REMARK    8  A    between atoms: C8_11  and  C10_17 
REMARK    9  A    between atoms: C9_12  and  O1_13 
REMARK   10  A    between atoms: C9_12  and  O2_15 
ROOT
HETATM    1  C1  UNL     1       1.615   0.357   2.844  1.00  0.00     0.014 C 
HETATM    2  C2  UNL     1       1.215   0.472   1.712  1.00  0.00    -0.091 C 
HETATM    3  C3  UNL     1       0.718   0.638   0.417  1.00  0.00     0.165 C 
ENDROOT
BRANCH   3   4
HETATM    4  C4  UNL     1       1.721   0.364  -0.684  1.00  0.00     0.111 C 
BRANCH   4   5
HETATM    5  S1  UNL     1       3.175   1.352  -0.754  1.00  0.00    -0.162 SA
BRANCH   5   6
HETATM    6  C5  UNL     1       4.522   0.938   0.342  1.00  0.00     0.100 C 
BRANCH   6   7
HETATM    7  C6  UNL     1       5.192  -0.347  -0.083  1.00  0.00    -0.027 C 
HETATM    8  C7  UNL     1       4.761  -0.970  -1.146  1.00  0.00     0.007 C 
ENDBRANCH   6   7
ENDBRANCH   5   6
ENDBRANCH   4   5
ENDBRANCH   3   4
BRANCH   3   9
HETATM    9  N1  UNL     1      -0.496   0.042  -0.008  1.00  0.00    -0.397 N 
ATOM     10  H1  UNL     1      -0.450  -0.638  -0.767  1.00  0.00     0.155 HD
BRANCH   9  11
HETATM   11  C8  UNL     1      -1.744   0.319   0.537  1.00  0.00     0.147 C 
BRANCH  11  12
HETATM   12  C9  UNL     1      -2.220  -0.729   1.486  1.00  0.00     0.277 C 
BRANCH  12  13
HETATM   13  O1  UNL     1      -1.431  -0.989   2.575  1.00  0.00    -0.369 OA
ATOM     14  H1  UNL     1      -1.734  -1.656   3.179  1.00  0.00     0.212 HD
ENDBRANCH  12  13
BRANCH  12  15
HETATM   15  O2  UNL     1      -3.494  -0.385   2.001  1.00  0.00    -0.369 OA
ATOM     16  H2  UNL     1      -3.797  -1.052   2.605  1.00  0.00     0.212 HD
ENDBRANCH  12  15
ENDBRANCH  11  12
BRANCH  11  17
HETATM   17  C10 UNL     1      -2.756   0.593  -0.549  1.00  0.00     0.086 C 
HETATM   18  C11 UNL     1      -2.961  -0.571  -1.463  1.00  0.00     0.029 C 
HETATM   19  C12 UNL     1      -3.831  -0.089  -2.621  1.00  0.00     0.087 C 
HETATM   20  S2  UNL     1      -5.410   0.233  -1.720  1.00  0.00    -0.097 SA
HETATM   21  S3  UNL     1      -4.404   0.917   0.086  1.00  0.00    -0.090 SA
ENDBRANCH  11  17
ENDBRANCH   9  11
ENDBRANCH   3   9
TORSDOF 10
