REMARK  10 active torsions:
REMARK  status: ('A' for Active; 'I' for Inactive)
REMARK    1  A    between atoms: C2_2  and  C3_3 
REMARK    2  A    between atoms: C4_4  and  O1_5 
REMARK    3  A    between atoms: O1_5  and  N1_6 
REMARK    4  A    between atoms: N1_6  and  C5_8 
REMARK    5  A    between atoms: C5_8  and  C6_9 
REMARK    6  A    between atoms: C6_9  and  N2_10 
REMARK    7  A    between atoms: N2_10  and  C7_12 
REMARK    8  A    between atoms: C7_12  and  C8_13 
REMARK    9  A    between atoms: C7_12  and  N3_15 
REMARK   10  A    between atoms: C10_22  and  C11_23 
ROOT
HETATM    1  C7  UNL     1      -0.578  -2.096  -0.543  1.00  0.00     0.243 C 
ENDROOT
BRANCH   1   2
HETATM    2  N2  UNL     1       0.806  -2.279  -0.733  1.00  0.00    -0.395 N 
ATOM      3  H2  UNL     1       1.124  -2.727  -1.592  1.00  0.00     0.155 HD
BRANCH   2   4
HETATM    4  C6  UNL     1       1.736  -1.886   0.176  1.00  0.00     0.137 C 
BRANCH   4   5
HETATM    5  C5  UNL     1       2.187  -0.423  -0.014  1.00  0.00     0.166 C 
BRANCH   5   6
HETATM    6  N1  UNL     1       3.084  -0.152   1.067  1.00  0.00    -0.296 N 
ATOM      7  H1  UNL     1       2.751   0.173   1.975  1.00  0.00     0.188 HD
BRANCH   6   8
HETATM    8  O1  UNL     1       4.316  -0.338   0.833  1.00  0.00    -0.255 OA
BRANCH   8   9
HETATM    9  C4  UNL     1       5.434  -0.077   0.216  1.00  0.00     0.163 C 
HETATM   10  C3  UNL     1       5.776   1.095  -0.256  1.00  0.00    -0.001 C 
BRANCH  10  11
HETATM   11  C2  UNL     1       7.095   1.230  -0.939  1.00  0.00     0.024 C 
HETATM   12  C1  UNL     1       7.934   2.157  -0.037  1.00  0.00     0.009 C 
ENDBRANCH  10  11
ENDBRANCH   8   9
ENDBRANCH   6   8
ENDBRANCH   5   6
ENDBRANCH   4   5
ENDBRANCH   2   4
ENDBRANCH   1   2
BRANCH   1  13
HETATM   13  C8  UNL     1      -1.008  -3.042   0.576  1.00  0.00     0.277 C 
HETATM   14  O2  UNL     1      -0.458  -3.139   1.625  1.00  0.00    -0.303 OA
ENDBRANCH   1  13
BRANCH   1  15
HETATM   15  N3  UNL     1      -0.869  -0.810  -0.012  1.00  0.00    -0.328 N 
HETATM   16  C9  UNL     1      -1.980  -0.193   0.109  1.00  0.00     0.242 A 
HETATM   17  N4  UNL     1      -1.989   1.070   0.658  1.00  0.00    -0.263 N 
HETATM   18  O3  UNL     1      -3.219  -0.493  -0.187  1.00  0.00    -0.263 OA
HETATM   19  N5  UNL     1      -3.242   1.432   0.649  1.00  0.00    -0.279 N 
ATOM     20  H4  UNL     1      -1.190   1.606   0.998  1.00  0.00     0.190 HD
HETATM   21  C10 UNL     1      -4.040   0.482   0.126  1.00  0.00     0.149 A 
ATOM     22  H5  UNL     1      -3.578   2.330   0.997  1.00  0.00     0.189 HD
ATOM     23  H3  UNL     1      -0.057  -0.296   0.328  1.00  0.00     0.165 HD
BRANCH  21  24
HETATM   24  C11 UNL     1      -5.509   0.605  -0.017  1.00  0.00     0.016 C 
HETATM   25  C12 UNL     1      -6.225  -0.495   0.639  1.00  0.00     0.023 C 
HETATM   26  C13 UNL     1      -5.872   0.669  -1.496  1.00  0.00     0.023 C 
HETATM   27  C14 UNL     1      -5.982   1.918   0.621  1.00  0.00     0.023 C 
ENDBRANCH  21  24
ENDBRANCH   1  15
TORSDOF 10
