REMARK  3 active torsions:
REMARK  status: ('A' for Active; 'I' for Inactive)
REMARK    1  A    between atoms: O1_2  and  C2_3 
REMARK    2  A    between atoms: C2_3  and  C3_4 
REMARK    3  A    between atoms: C3_4  and  C4_5 
ROOT
HETATM    1  C3  UNL     1       0.276   0.170  -0.494  1.00  0.00     0.022 C 
HETATM    2  C5  UNL     1      -0.533   0.163  -1.736  1.00  0.00     0.019 C 
HETATM    3  C6  UNL     1      -1.972   0.454  -1.418  1.00  0.00     0.021 C 
HETATM    4  C7  UNL     1      -2.502  -0.623  -0.495  1.00  0.00     0.121 C 
HETATM    5  N1  UNL     1      -1.723  -0.688   0.696  1.00  0.00    -0.397 N 
HETATM    6  C8  UNL     1      -2.250  -0.095   1.851  1.00  0.00     0.148 C 
HETATM    7  C9  UNL     1      -0.330  -0.743   0.538  1.00  0.00     0.070 C 
ENDROOT
BRANCH   1   8
HETATM    8  C2  UNL     1       1.670  -0.453  -0.733  1.00  0.00     0.182 C 
BRANCH   8   9
HETATM    9  O1  UNL     1       2.273  -0.439   0.516  1.00  0.00    -0.395 OA
HETATM   10  C1  UNL     1       3.553  -0.967   0.511  1.00  0.00     0.201 C 
ENDBRANCH   8   9
ENDBRANCH   1   8
BRANCH   1  11
HETATM   11  C4  UNL     1       0.449   1.564   0.024  1.00  0.00     0.103 C 
HETATM   12  S1  UNL     1       1.347   1.662   1.578  1.00  0.00    -0.096 SA
ENDBRANCH   1  11
TORSDOF 3
