REMARK  4 active torsions:
REMARK  status: ('A' for Active; 'I' for Inactive)
REMARK    1  A    between atoms: N1_1  and  C1_5 
REMARK    2  A    between atoms: C4_8  and  C5_9 
REMARK    3  A    between atoms: C5_9  and  O1_10 
REMARK    4  A    between atoms: O1_10  and  C6_11 
ROOT
HETATM    1  C1  UNL     1      -3.413  -0.117   0.502  1.00  0.00     0.318 C 
HETATM    2  C2  UNL     1      -3.013  -1.210  -0.478  1.00  0.00     0.064 C 
HETATM    3  C3  UNL     1      -1.578  -0.861  -0.894  1.00  0.00     0.038 C 
HETATM    4  C4  UNL     1      -1.272   0.292   0.003  1.00  0.00     0.148 C 
HETATM    5  O2  UNL     1      -2.516   0.911   0.272  1.00  0.00    -0.352 OA
ENDROOT
BRANCH   4   6
HETATM    6  C5  UNL     1      -0.418   1.345  -0.638  1.00  0.00     0.200 C 
BRANCH   6   7
HETATM    7  O1  UNL     1       0.844   0.964  -0.984  1.00  0.00    -0.383 OA
BRANCH   7   8
HETATM    8  C6  UNL     1       1.646   0.531   0.033  1.00  0.00     0.121 C 
HETATM    9  C7  UNL     1       2.951   1.277   0.140  1.00  0.00     0.032 C 
HETATM   10  C8  UNL     1       3.848   0.209   0.780  1.00  0.00     0.002 C 
HETATM   11  C9  UNL     1       3.540  -0.979  -0.109  1.00  0.00     0.002 C 
HETATM   12  C10 UNL     1       2.053  -0.900  -0.245  1.00  0.00     0.032 C 
ENDBRANCH   7   8
ENDBRANCH   6   7
ENDBRANCH   4   6
BRANCH   1  13
HETATM   13  N1  UNL     1      -4.738   0.335   0.209  1.00  0.00    -0.053 N 
ATOM     14  H13 UNL     1      -4.835   0.635  -0.761  1.00  0.00     0.277 HD
ATOM     15  H12 UNL     1      -5.410  -0.432   0.194  1.00  0.00     0.277 HD
ATOM     16  H11 UNL     1      -5.006   1.068   0.866  1.00  0.00     0.277 HD
ENDBRANCH   1  13
TORSDOF 4
