REMARK  4 active torsions:
REMARK  status: ('A' for Active; 'I' for Inactive)
REMARK    1  A    between atoms: C3_4  and  C4_5 
REMARK    2  A    between atoms: C4_5  and  C5_6 
REMARK    3  A    between atoms: C5_6  and  C6_7 
REMARK    4  A    between atoms: C6_7  and  N1_8 
ROOT
HETATM    1  C1  UNL     1      -3.335   1.575   0.023  1.00  0.00     0.071 C 
HETATM    2  C2  UNL     1      -1.846   1.405   0.302  1.00  0.00     0.257 C 
HETATM    3  O1  UNL     1      -1.132   1.192  -0.872  1.00  0.00    -0.353 OA
HETATM    4  C3  UNL     1      -0.103   0.276  -0.505  1.00  0.00     0.158 C 
HETATM    5  C7  UNL     1      -0.926  -0.592   0.366  1.00  0.00     0.083 C 
HETATM    6  C8  UNL     1      -0.255  -1.675   1.091  1.00  0.00     0.048 C 
HETATM    7  C9  UNL     1      -1.999  -1.236  -0.533  1.00  0.00     0.048 C 
HETATM    8  O2  UNL     1      -1.599   0.334   1.142  1.00  0.00    -0.349 OA
ENDROOT
BRANCH   4   9
HETATM    9  C4  UNL     1       0.942   1.108   0.086  1.00  0.00     0.036 C 
BRANCH   9  10
HETATM   10  C5  UNL     1       2.185   0.466   0.587  1.00  0.00     0.030 C 
BRANCH  10  11
HETATM   11  C6  UNL     1       2.909  -0.271  -0.548  1.00  0.00     0.230 C 
BRANCH  11  12
HETATM   12  N1  UNL     1       4.118  -0.880  -0.000  1.00  0.00    -0.079 N 
ATOM     13  H13 UNL     1       4.717  -0.205   0.475  1.00  0.00     0.274 HD
ATOM     14  H12 UNL     1       3.926  -1.483   0.800  1.00  0.00     0.274 HD
ATOM     15  H11 UNL     1       4.599  -1.370  -0.754  1.00  0.00     0.274 HD
ENDBRANCH  11  12
ENDBRANCH  10  11
ENDBRANCH   9  10
ENDBRANCH   4   9
TORSDOF 4
