REMARK  4 active torsions:
REMARK  status: ('A' for Active; 'I' for Inactive)
REMARK    1  A    between atoms: N1_1  and  C1_5 
REMARK    2  A    between atoms: C1_5  and  C2_6 
REMARK    3  A    between atoms: C3_7  and  C4_8 
REMARK    4  A    between atoms: C4_8  and  C5_9 
ROOT
HETATM    1  C2  UNL     1      -2.144   0.472   0.378  1.00  0.00    -0.004 C 
HETATM    2  C3  UNL     1      -1.426  -0.190  -0.497  1.00  0.00    -0.028 C 
ENDROOT
BRANCH   2   3
HETATM    3  C4  UNL     1      -0.184   0.431  -1.024  1.00  0.00     0.044 C 
BRANCH   3   4
HETATM    4  C5  UNL     1       0.969  -0.488  -0.661  1.00  0.00     0.074 C 
HETATM    5  C6  UNL     1       1.014  -0.609   0.829  1.00  0.00     0.183 C 
HETATM    6  O1  UNL     1       2.232  -1.032   1.326  1.00  0.00    -0.389 OA
HETATM    7  C7  UNL     1       3.228  -0.087   1.224  1.00  0.00     0.177 C 
HETATM    8  C8  UNL     1       3.842  -0.247  -0.171  1.00  0.00     0.100 C 
HETATM    9  S1  UNL     1       2.506   0.255  -1.323  1.00  0.00    -0.160 SA
ENDBRANCH   3   4
ENDBRANCH   2   3
BRANCH   1  10
HETATM   10  C1  UNL     1      -3.408  -0.138   0.926  1.00  0.00     0.256 C 
BRANCH  10  11
HETATM   11  N1  UNL     1      -4.485   0.764   0.568  1.00  0.00    -0.076 N 
ATOM     12  H13 UNL     1      -4.330   1.723   0.879  1.00  0.00     0.274 HD
ATOM     13  H12 UNL     1      -4.532   0.962  -0.431  1.00  0.00     0.274 HD
ATOM     14  H11 UNL     1      -5.341   0.351   0.939  1.00  0.00     0.274 HD
ENDBRANCH  10  11
ENDBRANCH   1  10
TORSDOF 4
