REMARK  4 active torsions:
REMARK  status: ('A' for Active; 'I' for Inactive)
REMARK    1  A    between atoms: C2_2  and  C3_3 
REMARK    2  A    between atoms: C3_3  and  N1_4 
REMARK    3  A    between atoms: C4_5  and  C5_6 
REMARK    4  A    between atoms: C9_11  and  N2_12 
ROOT
HETATM    1  N1  UNL     1       0.124  -0.253   0.746  1.00  0.00     0.133 N 
HETATM    2  C4  UNL     1      -1.169  -0.704   0.224  1.00  0.00     0.231 C 
HETATM    3  C7  UNL     1      -1.396   0.670  -0.310  1.00  0.00     0.112 C 
HETATM    4  C8  UNL     1      -0.394   1.067   0.748  1.00  0.00     0.317 A 
HETATM    5  O1  UNL     1       0.355   2.208   0.650  1.00  0.00    -0.311 OA
HETATM    6  C9  UNL     1      -0.648   1.985   1.719  1.00  0.00     0.388 A 
ENDROOT
BRANCH   1   7
HETATM    7  C3  UNL     1       1.204  -0.391  -0.213  1.00  0.00     0.277 C 
BRANCH   7   8
HETATM    8  C2  UNL     1       2.516  -0.234   0.503  1.00  0.00     0.026 C 
HETATM    9  C1  UNL     1       3.710  -0.364  -0.392  1.00  0.00     0.007 C 
ENDBRANCH   7   8
ENDBRANCH   1   7
BRANCH   6  10
HETATM   10  N2  UNL     1      -1.721   2.950   1.577  1.00  0.00    -0.048 N 
ATOM     11  H23 UNL     1      -1.582   3.450   0.699  1.00  0.00     0.277 HD
ATOM     12  H22 UNL     1      -2.584   2.438   1.393  1.00  0.00     0.277 HD
ATOM     13  H21 UNL     1      -1.911   3.638   2.305  1.00  0.00     0.277 HD
ENDBRANCH   6  10
BRANCH   2  14
HETATM   14  C5  UNL     1      -1.037  -1.696  -0.894  1.00  0.00     0.031 C 
HETATM   15  C6  UNL     1      -2.424  -2.112  -1.325  1.00  0.00     0.007 C 
ENDBRANCH   2  14
TORSDOF 4
