REMARK  2 active torsions:
REMARK  status: ('A' for Active; 'I' for Inactive)
REMARK    1  A    between atoms: C2_2  and  N1_3 
REMARK    2  A    between atoms: N1_3  and  C3_5 
ROOT
HETATM    1  C3  UNL     1      -0.791   0.181  -0.152  1.00  0.00     0.103 C 
HETATM    2  C4  UNL     1      -0.605  -1.233   0.329  1.00  0.00     0.054 C 
HETATM    3  C5  UNL     1       0.720  -1.814  -0.135  1.00  0.00     0.237 C 
HETATM    4  N2  UNL     1       1.541  -0.854  -0.802  1.00  0.00    -0.041 N 
ATOM      5  H21 UNL     1       1.013  -0.388  -1.540  1.00  0.00     0.280 HD
ATOM      6  H22 UNL     1       2.251  -1.324  -1.364  1.00  0.00     0.280 HD
HETATM    7  C6  UNL     1       2.150   0.114   0.063  1.00  0.00     0.279 C 
HETATM    8  C7  UNL     1       2.641   1.255  -0.796  1.00  0.00     0.078 C 
HETATM    9  C8  UNL     1       3.364  -0.489   0.748  1.00  0.00     0.078 C 
HETATM   10  N3  UNL     1       1.280   0.562   1.126  1.00  0.00    -0.039 N 
ATOM     11  H31 UNL     1       1.777   1.197   1.750  1.00  0.00     0.280 HD
ATOM     12  H32 UNL     1       1.086  -0.202   1.774  1.00  0.00     0.280 HD
HETATM   13  C9  UNL     1       0.062   1.157   0.675  1.00  0.00     0.260 C 
ENDROOT
BRANCH   1  14
HETATM   14  N1  UNL     1      -2.147   0.571   0.061  1.00  0.00    -0.416 N 
ATOM     15  H1  UNL     1      -2.387   1.341   0.685  1.00  0.00     0.153 HD
BRANCH  14  16
HETATM   16  C2  UNL     1      -3.149  -0.160  -0.635  1.00  0.00     0.110 C 
HETATM   17  C1  UNL     1      -4.485   0.537  -0.329  1.00  0.00     0.026 C 
ENDBRANCH  14  16
ENDBRANCH   1  14
TORSDOF 2
