REMARK  3 active torsions:
REMARK  status: ('A' for Active; 'I' for Inactive)
REMARK    1  A    between atoms: C2_2  and  C4_4 
REMARK    2  A    between atoms: C4_4  and  N1_5 
REMARK    3  A    between atoms: C4_4  and  C5_9 
ROOT
HETATM    1  C5  UNL     1       0.284  -0.680  -0.259  1.00  0.00     0.104 C 
HETATM    2  C6  UNL     1      -0.236  -2.070  -0.237  1.00  0.00     0.139 C 
HETATM    3  N2  UNL     1       0.545  -2.949   0.585  1.00  0.00    -0.370 N 
ATOM      4  H2  UNL     1       0.145  -3.753   1.069  1.00  0.00     0.161 HD
HETATM    5  C7  UNL     1       1.876  -2.619   0.667  1.00  0.00     0.134 C 
HETATM    6  N3  UNL     1       2.945  -3.228   0.654  1.00  0.00    -0.380 N 
ATOM      7  H31 UNL     1       3.933  -2.983   0.715  1.00  0.00     0.158 HD
ATOM      8  H32 UNL     1       2.989  -4.246   0.613  1.00  0.00     0.158 HD
HETATM    9  S1  UNL     1       1.797  -0.789   0.741  1.00  0.00    -0.086 SA
ENDROOT
BRANCH   1  10
HETATM   10  C4  UNL     1      -0.655   0.331   0.338  1.00  0.00     0.202 C 
BRANCH  10  11
HETATM   11  C2  UNL     1       0.028   1.700   0.214  1.00  0.00     0.009 C 
HETATM   12  C1  UNL     1       0.266   1.908  -1.260  1.00  0.00     0.011 C 
HETATM   13  C3  UNL     1      -0.935   2.750   0.747  1.00  0.00     0.011 C 
ENDBRANCH  10  11
BRANCH  10  14
HETATM   14  N1  UNL     1      -1.866   0.426  -0.412  1.00  0.00    -0.073 N 
ATOM     15  H13 UNL     1      -2.461   1.205  -0.128  1.00  0.00     0.274 HD
ATOM     16  H12 UNL     1      -1.725   0.724  -1.377  1.00  0.00     0.274 HD
ATOM     17  H11 UNL     1      -2.320  -0.484  -0.330  1.00  0.00     0.274 HD
ENDBRANCH  10  14
ENDBRANCH   1  10
TORSDOF 3
