REMARK  2 active torsions:
REMARK  status: ('A' for Active; 'I' for Inactive)
REMARK    1  A    between atoms: N1_2  and  C2_4 
REMARK    2  A    between atoms: C5_7  and  O1_8 
ROOT
HETATM    1  C2  UNL     1      -1.288   0.380  -0.082  1.00  0.00     0.076 C 
HETATM    2  C3  UNL     1      -0.168   1.401  -0.102  1.00  0.00     0.027 C 
HETATM    3  C4  UNL     1       0.972   0.743  -0.902  1.00  0.00     0.034 C 
HETATM    4  C5  UNL     1       1.544  -0.282   0.093  1.00  0.00     0.120 C 
HETATM    5  C7  UNL     1       0.518  -1.362   0.228  1.00  0.00     0.034 C 
HETATM    6  C8  UNL     1      -0.865  -0.921   0.530  1.00  0.00     0.027 C 
ENDROOT
BRANCH   1   7
HETATM    7  N1  UNL     1      -2.417   0.972   0.548  1.00  0.00    -0.421 N 
HETATM    8  C1  UNL     1      -3.686   0.445   0.180  1.00  0.00     0.140 C 
ATOM      9  H1  UNL     1      -2.322   1.730   1.224  1.00  0.00     0.153 HD
ENDBRANCH   1   7
BRANCH   4  10
HETATM   10  O1  UNL     1       2.711  -0.834  -0.380  1.00  0.00    -0.391 OA
HETATM   11  C6  UNL     1       3.818  -0.573   0.434  1.00  0.00     0.202 C 
ENDBRANCH   4  10
TORSDOF 2
