REMARK  12 active torsions:
REMARK  status: ('A' for Active; 'I' for Inactive)
REMARK    1  A    between atoms: C2_2  and  C3_3 
REMARK    2  A    between atoms: C3_3  and  S1_4 
REMARK    3  A    between atoms: S1_4  and  C4_6 
REMARK    4  A    between atoms: C4_6  and  C5_7 
REMARK    5  A    between atoms: C5_7  and  C6_8 
REMARK    6  A    between atoms: C5_7  and  N2_18 
REMARK       I    between atoms: C6_8  and  N1_10 
REMARK    7  A    between atoms: N1_10  and  C7_12 
REMARK    8  A    between atoms: C14_21  and  S2_22 
REMARK    9  A    between atoms: S2_22  and  C15_23 
REMARK   10  A    between atoms: C15_23  and  N3_25 
REMARK   11  A    between atoms: N3_25  and  C17_27 
REMARK   12  A    between atoms: C24_34  and  C26_36 
ROOT
HETATM    1  N2  UNL     1      -0.507  -0.240  -0.501  1.00  0.00    -0.318 N 
HETATM    2  C13 UNL     1       0.286  -0.890   0.503  1.00  0.00     0.236 C 
HETATM    3  O3  UNL     1      -0.090  -1.438   1.536  1.00  0.00    -0.272 OA
HETATM    4  C14 UNL     1       1.751  -0.804   0.088  1.00  0.00     0.149 C 
HETATM    5  C23 UNL     1       1.504  -1.015  -1.411  1.00  0.00     0.067 C 
HETATM    6  C24 UNL     1       0.331  -0.109  -1.665  1.00  0.00     0.122 C 
HETATM    7  C25 UNL     1       0.798   1.331  -1.884  1.00  0.00     0.050 C 
ENDROOT
BRANCH   1   8
HETATM    8  C5  UNL     1      -1.884   0.212  -0.345  1.00  0.00     0.192 C 
BRANCH   8   9
HETATM    9  C4  UNL     1      -2.030   1.393   0.576  1.00  0.00     0.143 C 
BRANCH   9  10
HETATM   10  S1  UNL     1      -1.828   1.047   2.283  1.00  0.00     0.017 S 
HETATM   11  O1  UNL     1      -2.895  -0.135   2.823  1.00  0.00    -0.258 OA
BRANCH  10  12
HETATM   12  C3  UNL     1      -2.015   2.530   3.263  1.00  0.00     0.108 C 
BRANCH  12  13
HETATM   13  C2  UNL     1      -3.440   3.039   3.132  1.00  0.00     0.008 C 
HETATM   14  C1  UNL     1      -3.618   4.285   3.947  1.00  0.00     0.006 C 
ENDBRANCH  12  13
ENDBRANCH  10  12
ENDBRANCH   9  10
ENDBRANCH   8   9
BRANCH   8  15
HETATM   15  C6  UNL     1      -2.848  -0.854  -0.070  1.00  0.00     0.241 C 
HETATM   16  O2  UNL     1      -2.548  -2.073   0.172  1.00  0.00    -0.271 OA
HETATM   17  N1  UNL     1      -4.238  -0.574  -0.058  1.00  0.00    -0.355 N 
ATOM     18  H1  UNL     1      -4.533   0.385  -0.241  1.00  0.00     0.162 HD
BRANCH  17  19
HETATM   19  C7  UNL     1      -5.266  -1.563   0.197  1.00  0.00     0.084 C 
HETATM   20  C8  UNL     1      -6.094  -1.176   1.386  1.00  0.00     0.025 C 
HETATM   21  C9  UNL     1      -7.241  -2.163   1.538  1.00  0.00     0.002 C 
HETATM   22  C10 UNL     1      -8.147  -2.104   0.352  1.00  0.00     0.000 C 
HETATM   23  C11 UNL     1      -7.324  -2.523  -0.865  1.00  0.00     0.002 C 
HETATM   24  C12 UNL     1      -6.168  -1.596  -1.044  1.00  0.00     0.025 C 
ENDBRANCH  17  19
ENDBRANCH   8  15
ENDBRANCH   1   8
BRANCH   6  25
HETATM   25  C26 UNL     1      -0.326  -0.592  -2.919  1.00  0.00     0.202 C 
HETATM   26  O4  UNL     1       0.317  -0.480  -3.992  1.00  0.00    -0.646 OA
HETATM   27  O5  UNL     1      -1.579  -1.130  -2.876  1.00  0.00    -0.646 OA
ENDBRANCH   6  25
BRANCH   4  28
HETATM   28  S2  UNL     1       2.412   0.777   0.464  1.00  0.00    -0.086 SA
BRANCH  28  29
HETATM   29  C15 UNL     1       4.124   1.011   0.213  1.00  0.00     0.137 C 
HETATM   30  S3  UNL     1       4.692   2.608   0.146  1.00  0.00    -0.053 SA
BRANCH  29  31
HETATM   31  N3  UNL     1       5.157   0.054   0.079  1.00  0.00    -0.366 N 
HETATM   32  C16 UNL     1       4.946  -1.378   0.173  1.00  0.00     0.151 C 
BRANCH  31  33
HETATM   33  C17 UNL     1       6.504   0.548  -0.214  1.00  0.00     0.085 C 
HETATM   34  C18 UNL     1       7.596  -0.434   0.040  1.00  0.00     0.025 C 
HETATM   35  C19 UNL     1       8.112  -1.137  -1.185  1.00  0.00     0.002 C 
HETATM   36  C20 UNL     1       8.789  -0.108  -2.092  1.00  0.00     0.000 C 
HETATM   37  C21 UNL     1       8.002   1.196  -2.026  1.00  0.00     0.002 C 
HETATM   38  C22 UNL     1       6.552   0.826  -1.724  1.00  0.00     0.025 C 
ENDBRANCH  31  33
ENDBRANCH  29  31
ENDBRANCH  28  29
ENDBRANCH   4  28
TORSDOF 12
