REMARK  12 active torsions:
REMARK  status: ('A' for Active; 'I' for Inactive)
REMARK    1  A    between atoms: C2_2  and  C3_3 
REMARK    2  A    between atoms: C3_3  and  C4_4 
REMARK    3  A    between atoms: C3_3  and  C26_37 
REMARK    4  A    between atoms: C4_4  and  N1_5 
REMARK    5  A    between atoms: N1_5  and  C5_6 
REMARK    6  A    between atoms: N1_5  and  C23_34 
REMARK    7  A    between atoms: C5_6  and  O1_7 
REMARK       I    between atoms: N2_16  and  C13_17 
REMARK    8  A    between atoms: C13_17  and  C14_19 
REMARK    9  A    between atoms: C14_19  and  N3_20 
REMARK   10  A    between atoms: C14_19  and  C19_30 
REMARK       I    between atoms: N3_20  and  C15_22 
REMARK   11  A    between atoms: C15_22  and  C16_24 
REMARK   12  A    between atoms: C16_24  and  N4_26 
ROOT
HETATM    1  C5  UNL     1       0.436   0.523   0.430  1.00  0.00     0.162 C 
HETATM    2  C6  UNL     1      -0.777   0.785   1.086  1.00  0.00     0.070 C 
HETATM    3  C7  UNL     1      -0.705   1.079   2.585  1.00  0.00     0.046 C 
HETATM    4  C8  UNL     1       0.547   0.842   3.283  1.00  0.00     0.011 C 
HETATM    5  C9  UNL     1       0.473  -0.434   4.102  1.00  0.00     0.001 C 
HETATM    6  C10 UNL     1      -0.960  -0.812   4.112  1.00  0.00     0.007 C 
HETATM    7  C11 UNL     1      -1.686   0.146   3.243  1.00  0.00     0.014 C 
HETATM    8  C12 UNL     1      -2.360  -0.624   2.139  1.00  0.00     0.137 C 
HETATM    9  N2  UNL     1      -2.036   0.127   0.912  1.00  0.00    -0.315 N 
HETATM   10  C13 UNL     1      -2.973   0.173  -0.157  1.00  0.00     0.247 C 
HETATM   11  O2  UNL     1      -2.628   0.884  -1.181  1.00  0.00    -0.271 OA
ENDROOT
BRANCH   1  12
HETATM   12  N1  UNL     1       1.223  -0.388  -0.259  1.00  0.00    -0.356 N 
BRANCH  12  13
HETATM   13  C4  UNL     1       2.540   0.025  -0.756  1.00  0.00     0.136 C 
BRANCH  13  14
HETATM   14  C3  UNL     1       3.679  -0.111   0.164  1.00  0.00     0.061 C 
BRANCH  14  15
HETATM   15  C2  UNL     1       4.020  -1.458   0.687  1.00  0.00     0.008 C 
HETATM   16  C1  UNL     1       5.260  -1.252   1.590  1.00  0.00     0.006 C 
ENDBRANCH  14  15
BRANCH  14  17
HETATM   17  C26 UNL     1       4.910   0.562  -0.402  1.00  0.00     0.059 A 
HETATM   18  C27 UNL     1       5.609   0.132  -1.529  1.00  0.00     0.043 A 
HETATM   19  C28 UNL     1       6.659   0.995  -1.728  1.00  0.00    -0.021 A 
HETATM   20  C29 UNL     1       6.558   1.920  -0.708  1.00  0.00     0.083 A 
HETATM   21  C33 UNL     1       7.783   1.166  -2.679  1.00  0.00     0.073 C 
HETATM   22  O4  UNL     1       5.522   1.616   0.030  1.00  0.00    -0.316 OA
HETATM   23  C30 UNL     1       7.545   2.998  -0.630  1.00  0.00     0.233 C 
HETATM   24  O5  UNL     1       8.714   2.812  -1.298  1.00  0.00    -0.380 OA
HETATM   25  C31 UNL     1       8.977   1.572  -1.801  1.00  0.00     0.122 C 
HETATM   26  C32 UNL     1      10.264   1.549  -2.555  1.00  0.00     0.040 C 
ENDBRANCH  14  17
ENDBRANCH  13  14
ENDBRANCH  12  13
BRANCH  12  27
HETATM   27  C23 UNL     1       0.889  -1.736  -0.613  1.00  0.00     0.078 C 
HETATM   28  C24 UNL     1       0.499  -2.677   0.442  1.00  0.00     0.032 C 
HETATM   29  C25 UNL     1      -0.072  -1.754  -1.825  1.00  0.00     0.032 C 
ENDBRANCH  12  27
ENDBRANCH   1  12
BRANCH   1  30
HETATM   30  O1  UNL     1       1.219   1.662   0.479  1.00  0.00    -0.345 OA
ATOM     31  H1  UNL     1       0.680   2.286   0.951  1.00  0.00     0.219 HD
ENDBRANCH   1  30
BRANCH  10  32
HETATM   32  C14 UNL     1      -4.277  -0.450  -0.277  1.00  0.00     0.184 C 
BRANCH  32  33
HETATM   33  N3  UNL     1      -5.127   0.449  -1.074  1.00  0.00    -0.345 N 
HETATM   34  C15 UNL     1      -6.240   1.042  -0.470  1.00  0.00     0.248 C 
HETATM   35  O3  UNL     1      -6.529   0.823   0.751  1.00  0.00    -0.271 OA
ATOM     36  H3  UNL     1      -4.908   0.637  -2.052  1.00  0.00     0.163 HD
BRANCH  34  37
HETATM   37  C16 UNL     1      -7.107   1.946  -1.257  1.00  0.00     0.272 C 
HETATM   38  C17 UNL     1      -6.310   3.107  -1.830  1.00  0.00     0.050 C 
BRANCH  37  39
HETATM   39  N4  UNL     1      -8.166   2.427  -0.391  1.00  0.00    -0.067 N 
HETATM   40  C18 UNL     1      -9.010   1.377   0.090  1.00  0.00     0.267 C 
ATOM     41  H42 UNL     1      -7.786   2.973   0.382  1.00  0.00     0.277 HD
ATOM     42  H41 UNL     1      -8.714   3.153  -0.853  1.00  0.00     0.277 HD
ENDBRANCH  37  39
ENDBRANCH  34  37
ENDBRANCH  32  33
BRANCH  32  43
HETATM   43  C19 UNL     1      -4.365  -1.809  -0.898  1.00  0.00    -0.022 C 
HETATM   44  C20 UNL     1      -3.648  -2.908  -0.211  1.00  0.00     0.017 C 
HETATM   45  C21 UNL     1      -3.954  -1.751  -2.383  1.00  0.00     0.017 C 
HETATM   46  C22 UNL     1      -5.848  -2.233  -0.957  1.00  0.00     0.017 C 
ENDBRANCH  32  43
ENDBRANCH  10  32
TORSDOF 12
