REMARK  11 active torsions:
REMARK  status: ('A' for Active; 'I' for Inactive)
REMARK    1  A    between atoms: C2_2  and  N1_3 
REMARK    2  A    between atoms: N1_3  and  C3_4 
REMARK       I    between atoms: N1_3  and  C28_36 
REMARK    3  A    between atoms: C3_4  and  C4_5 
REMARK    4  A    between atoms: C4_5  and  O1_6 
REMARK    5  A    between atoms: C4_5  and  C5_8 
REMARK    6  A    between atoms: C5_8  and  N2_9 
REMARK       I    between atoms: N2_9  and  C6_11 
REMARK    7  A    between atoms: C6_11  and  C7_13 
REMARK    8  A    between atoms: C7_13  and  C8_14 
REMARK    9  A    between atoms: C8_14  and  C9_15 
REMARK   10  A    between atoms: C15_21  and  C16_22 
REMARK   11  A    between atoms: C28_36  and  C29_38 
ROOT
HETATM    1  C9  UNL     1      -1.944  -0.990  -0.002  1.00  0.00     0.006 C 
HETATM    2  C10 UNL     1      -1.833  -2.386  -0.639  1.00  0.00    -0.006 C 
HETATM    3  C11 UNL     1      -0.434  -2.655  -1.178  1.00  0.00     0.011 C 
HETATM    4  C12 UNL     1      -2.693  -2.200  -1.894  1.00  0.00     0.026 C 
HETATM    5  C13 UNL     1      -3.817  -3.215  -1.687  1.00  0.00     0.012 C 
HETATM    6  C14 UNL     1      -4.691  -2.909  -0.543  1.00  0.00     0.039 C 
HETATM    7  C15 UNL     1      -4.215  -1.713   0.307  1.00  0.00    -0.022 C 
HETATM    8  C18 UNL     1      -3.434  -0.701  -0.349  1.00  0.00     0.029 C 
HETATM    9  C19 UNL     1      -3.793   0.733  -0.401  1.00  0.00     0.036 C 
HETATM   10  C20 UNL     1      -5.145   1.017  -0.986  1.00  0.00     0.009 C 
HETATM   11  C21 UNL     1      -5.528   0.205  -2.189  1.00  0.00     0.008 C 
HETATM   12  C22 UNL     1      -4.472  -0.695  -2.691  1.00  0.00     0.018 C 
HETATM   13  C23 UNL     1      -4.110  -0.558  -4.166  1.00  0.00     0.013 C 
HETATM   14  C24 UNL     1      -3.254  -0.825  -1.873  1.00  0.00     0.082 C 
HETATM   15  O4  UNL     1      -2.357   0.226  -2.049  1.00  0.00    -0.368 OA
HETATM   16  C25 UNL     1      -2.799   1.347  -1.390  1.00  0.00     0.059 C 
HETATM   17  C26 UNL     1      -1.704   2.137  -0.660  1.00  0.00     0.046 C 
HETATM   18  C27 UNL     1      -3.322   2.423  -2.269  1.00  0.00     0.046 C 
ENDROOT
BRANCH   1  19
HETATM   19  C8  UNL     1      -1.600  -0.930   1.405  1.00  0.00     0.015 C 
BRANCH  19  20
HETATM   20  C7  UNL     1      -0.317  -1.326   1.973  1.00  0.00     0.103 C 
BRANCH  20  21
HETATM   21  C6  UNL     1       0.911  -0.660   1.549  1.00  0.00     0.217 C 
HETATM   22  N2  UNL     1       2.122  -0.942   2.260  1.00  0.00    -0.359 N 
ATOM     23  H2  UNL     1       2.068  -1.594   3.042  1.00  0.00     0.162 HD
HETATM   24  O2  UNL     1       0.960   0.135   0.609  1.00  0.00    -0.274 OA
BRANCH  22  25
HETATM   25  C5  UNL     1       3.404  -0.377   1.955  1.00  0.00     0.155 C 
BRANCH  25  26
HETATM   26  C4  UNL     1       3.890  -0.752   0.579  1.00  0.00     0.153 C 
BRANCH  26  27
HETATM   27  C3  UNL     1       5.235  -0.192   0.286  1.00  0.00     0.159 C 
BRANCH  27  28
HETATM   28  N1  UNL     1       5.339   1.228   0.185  1.00  0.00    -0.350 N 
HETATM   29  C28 UNL     1       5.704   2.170   1.160  1.00  0.00     0.224 C 
HETATM   30  O5  UNL     1       5.654   3.401   0.769  1.00  0.00    -0.273 OA
BRANCH  28  31
HETATM   31  C2  UNL     1       4.990   1.792  -1.159  1.00  0.00     0.121 C 
HETATM   32  C1  UNL     1       6.278   1.827  -1.962  1.00  0.00     0.026 C 
ENDBRANCH  28  31
BRANCH  29  33
HETATM   33  C29 UNL     1       6.130   1.962   2.540  1.00  0.00     0.078 C 
HETATM   34  C30 UNL     1       6.669   3.277   3.141  1.00  0.00     0.014 C 
HETATM   35  C31 UNL     1       8.046   2.819   2.794  1.00  0.00     0.002 C 
HETATM   36  C32 UNL     1       7.511   1.394   2.763  1.00  0.00     0.014 C 
ENDBRANCH  29  33
ENDBRANCH  27  28
ENDBRANCH  26  27
BRANCH  26  37
HETATM   37  O1  UNL     1       3.950  -2.171   0.596  1.00  0.00    -0.392 OA
ATOM     38  H1  UNL     1       3.090  -2.529   0.783  1.00  0.00     0.210 HD
ENDBRANCH  26  37
ENDBRANCH  25  26
ENDBRANCH  22  25
ENDBRANCH  20  21
ENDBRANCH  19  20
ENDBRANCH   1  19
BRANCH   7  39
HETATM   39  C16 UNL     1      -5.329  -1.398   1.222  1.00  0.00     0.148 C 
HETATM   40  C17 UNL     1      -5.346  -0.389   2.314  1.00  0.00     0.096 C 
HETATM   41  O3  UNL     1      -6.429  -1.992   1.152  1.00  0.00    -0.293 OA
ENDBRANCH   7  39
TORSDOF 11
