REMARK  12 active torsions:
REMARK  status: ('A' for Active; 'I' for Inactive)
REMARK    1  A    between atoms: C2_2  and  C3_3 
REMARK    2  A    between atoms: C3_3  and  S1_4 
REMARK    3  A    between atoms: S1_4  and  C4_5 
REMARK    4  A    between atoms: C4_5  and  C5_6 
REMARK       I    between atoms: C5_6  and  N1_8 
REMARK    5  A    between atoms: N1_8  and  C7_10 
REMARK    6  A    between atoms: C7_10  and  C8_11 
REMARK    7  A    between atoms: C7_10  and  C23_35 
REMARK       I    between atoms: C8_11  and  N2_13 
REMARK    8  A    between atoms: N2_13  and  C9_15 
REMARK    9  A    between atoms: C9_15  and  C10_16 
REMARK   10  A    between atoms: C9_15  and  C19_31 
REMARK       I    between atoms: C10_16  and  N3_18 
REMARK   11  A    between atoms: N3_18  and  C11_20 
REMARK   12  A    between atoms: C19_31  and  C21_33 
ROOT
HETATM    1  C8  UNL     1       0.814  -0.729  -0.623  1.00  0.00     0.265 C 
HETATM    2  O2  UNL     1       0.745   0.263   0.193  1.00  0.00    -0.266 OA
HETATM    3  N2  UNL     1      -0.426  -1.346  -0.945  1.00  0.00    -0.342 N 
ATOM      4  H2  UNL     1      -0.420  -2.147  -1.576  1.00  0.00     0.163 HD
ENDROOT
BRANCH   3   5
HETATM    5  C9  UNL     1      -1.690  -0.894  -0.423  1.00  0.00     0.181 C 
BRANCH   5   6
HETATM    6  C10 UNL     1      -1.762   0.591  -0.371  1.00  0.00     0.246 C 
HETATM    7  O3  UNL     1      -1.274   1.299  -1.319  1.00  0.00    -0.271 OA
HETATM    8  N3  UNL     1      -2.346   1.319   0.679  1.00  0.00    -0.305 N 
ATOM      9  H3  UNL     1      -1.735   1.673   1.415  1.00  0.00     0.171 HD
BRANCH   8  10
HETATM   10  C11 UNL     1      -3.635   1.571   0.769  1.00  0.00     0.152 A 
HETATM   11  N4  UNL     1      -4.599   1.204  -0.073  1.00  0.00    -0.335 N 
HETATM   12  C12 UNL     1      -5.840   1.557   0.203  1.00  0.00     0.051 A 
ATOM     13  H4  UNL     1      -4.383   0.663  -0.911  1.00  0.00     0.168 HD
HETATM   14  C13 UNL     1      -6.979   1.257  -0.573  1.00  0.00     0.037 A 
HETATM   15  C18 UNL     1      -6.053   2.280   1.342  1.00  0.00     0.035 A 
HETATM   16  C14 UNL     1      -8.208   1.675  -0.187  1.00  0.00    -0.060 A 
HETATM   17  C15 UNL     1      -9.396   1.332  -1.049  1.00  0.00     0.048 C 
HETATM   18  C16 UNL     1      -8.449   2.405   0.955  1.00  0.00     0.008 A 
HETATM   19  C17 UNL     1      -7.341   2.702   1.717  1.00  0.00     0.022 A 
HETATM   20  S2  UNL     1      -4.478   2.430   1.976  1.00  0.00    -0.052 SA
ENDBRANCH   8  10
ENDBRANCH   5   6
BRANCH   5  21
HETATM   21  C19 UNL     1      -2.150  -1.545   0.817  1.00  0.00     0.013 C 
HETATM   22  C20 UNL     1      -2.291  -3.053   0.532  1.00  0.00     0.012 C 
BRANCH  21  23
HETATM   23  C21 UNL     1      -1.310  -1.336   2.037  1.00  0.00     0.002 C 
HETATM   24  C22 UNL     1      -1.949  -2.090   3.218  1.00  0.00     0.005 C 
ENDBRANCH  21  23
ENDBRANCH   5  21
ENDBRANCH   3   5
BRANCH   1  25
HETATM   25  C7  UNL     1       2.132  -1.102  -1.106  1.00  0.00     0.086 C 
BRANCH  25  26
HETATM   26  N1  UNL     1       3.233  -0.760  -0.237  1.00  0.00    -0.320 N 
HETATM   27  C5  UNL     1       3.644   0.490   0.228  1.00  0.00     0.233 C 
HETATM   28  O1  UNL     1       3.081   1.561  -0.020  1.00  0.00    -0.272 OA
HETATM   29  C6  UNL     1       4.112  -1.884   0.250  1.00  0.00     0.159 C 
BRANCH  27  30
HETATM   30  C4  UNL     1       4.865   0.596   1.108  1.00  0.00     0.177 C 
BRANCH  30  31
HETATM   31  S1  UNL     1       4.312   0.447   2.840  1.00  0.00    -0.160 SA
BRANCH  31  32
HETATM   32  C3  UNL     1       5.691   0.572   3.983  1.00  0.00     0.074 C 
BRANCH  32  33
HETATM   33  C2  UNL     1       6.283   1.976   3.939  1.00  0.00     0.006 C 
HETATM   34  C1  UNL     1       7.438   2.057   4.901  1.00  0.00     0.006 C 
ENDBRANCH  32  33
ENDBRANCH  31  32
ENDBRANCH  30  31
ENDBRANCH  27  30
ENDBRANCH  25  26
BRANCH  25  35
HETATM   35  C23 UNL     1       2.410  -0.845  -2.586  1.00  0.00     0.041 C 
HETATM   36  C24 UNL     1       1.249  -1.216  -3.438  1.00  0.00     0.011 C 
HETATM   37  C25 UNL     1       1.606  -1.153  -4.918  1.00  0.00     0.001 C 
HETATM   38  C26 UNL     1       2.130   0.230  -5.255  1.00  0.00     0.000 C 
HETATM   39  C27 UNL     1       3.301   0.573  -4.395  1.00  0.00     0.001 C 
HETATM   40  C28 UNL     1       2.948   0.501  -2.901  1.00  0.00     0.011 C 
ENDBRANCH  25  35
ENDBRANCH   1  25
TORSDOF 12
