REMARK  11 active torsions:
REMARK  status: ('A' for Active; 'I' for Inactive)
REMARK    1  A    between atoms: C2_2  and  C25_34 
REMARK    2  A    between atoms: C3_3  and  C4_4 
REMARK    3  A    between atoms: C4_4  and  C5_5 
REMARK       I    between atoms: C5_5  and  N1_7 
REMARK    4  A    between atoms: N1_7  and  C6_9 
REMARK    5  A    between atoms: C6_9  and  C7_10 
REMARK    6  A    between atoms: C6_9  and  C13_20 
REMARK    7  A    between atoms: C7_10  and  N2_11 
REMARK    8  A    between atoms: N2_11  and  S1_13 
REMARK    9  A    between atoms: S1_13  and  C9_16 
REMARK   10  A    between atoms: C13_20  and  N3_22 
REMARK   11  A    between atoms: N3_22  and  C15_24 
ROOT
HETATM    1  C6  UNL     1      -1.172   0.516   0.138  1.00  0.00     0.124 C 
ENDROOT
BRANCH   1   2
HETATM    2  N1  UNL     1      -0.076  -0.280   0.560  1.00  0.00    -0.353 N 
HETATM    3  C5  UNL     1       1.025  -0.674  -0.256  1.00  0.00     0.221 C 
HETATM    4  O1  UNL     1       1.070  -0.301  -1.441  1.00  0.00    -0.273 OA
ATOM      5  H1  UNL     1      -0.076  -0.597   1.529  1.00  0.00     0.163 HD
BRANCH   3   6
HETATM    6  C4  UNL     1       2.141  -1.514   0.245  1.00  0.00     0.130 C 
BRANCH   6   7
HETATM    7  C3  UNL     1       3.372  -1.319  -0.551  1.00  0.00    -0.009 C 
HETATM    8  C2  UNL     1       4.510  -1.113   0.135  1.00  0.00    -0.039 C 
HETATM    9  C1  UNL     1       4.469  -1.101   1.632  1.00  0.00     0.050 C 
BRANCH   8  10
HETATM   10  C25 UNL     1       5.789  -0.866  -0.502  1.00  0.00     0.038 A 
HETATM   11  C26 UNL     1       5.930  -0.793  -1.858  1.00  0.00     0.030 A 
HETATM   12  C27 UNL     1       7.183  -0.544  -2.449  1.00  0.00     0.004 A 
HETATM   13  C28 UNL     1       8.284  -0.373  -1.625  1.00  0.00     0.024 A 
HETATM   14  C29 UNL     1       8.092  -0.458  -0.247  1.00  0.00     0.005 A 
HETATM   15  C30 UNL     1       9.268  -0.276   0.633  1.00  0.00     0.068 C 
HETATM   16  N4  UNL     1       6.876  -0.698   0.268  1.00  0.00    -0.360 N 
ATOM     17  H4  UNL     1       6.774  -0.755   1.281  1.00  0.00     0.166 HD
ENDBRANCH   8  10
ENDBRANCH   6   7
ENDBRANCH   3   6
ENDBRANCH   1   2
BRANCH   1  18
HETATM   18  C7  UNL     1      -0.964   2.033   0.375  1.00  0.00     0.161 C 
BRANCH  18  19
HETATM   19  N2  UNL     1       0.133   2.584  -0.291  1.00  0.00    -0.312 N 
HETATM   20  C8  UNL     1      -0.140   3.131  -1.599  1.00  0.00     0.162 C 
BRANCH  19  21
HETATM   21  S1  UNL     1       1.437   3.238   0.508  1.00  0.00     0.235 S 
HETATM   22  O2  UNL     1       2.109   2.226   1.390  1.00  0.00    -0.205 OA
HETATM   23  O3  UNL     1       2.489   3.687  -0.480  1.00  0.00    -0.205 OA
BRANCH  21  24
HETATM   24  C9  UNL     1       1.115   4.647   1.541  1.00  0.00     0.072 C 
HETATM   25  C10 UNL     1       0.154   4.378   2.651  1.00  0.00     0.033 C 
HETATM   26  C11 UNL     1       2.462   5.016   2.169  1.00  0.00     0.033 C 
HETATM   27  C12 UNL     1       0.649   5.835   0.749  1.00  0.00     0.033 C 
ENDBRANCH  21  24
ENDBRANCH  19  21
ENDBRANCH  18  19
ENDBRANCH   1  18
BRANCH   1  28
HETATM   28  C13 UNL     1      -2.505   0.203   0.704  1.00  0.00     0.097 C 
HETATM   29  C14 UNL     1      -2.407   0.382   2.231  1.00  0.00     0.034 C 
BRANCH  28  30
HETATM   30  N3  UNL     1      -3.054  -1.061   0.510  1.00  0.00    -0.411 N 
ATOM     31  H3  UNL     1      -3.236  -1.636   1.332  1.00  0.00     0.154 HD
BRANCH  30  32
HETATM   32  C15 UNL     1      -3.370  -1.588  -0.741  1.00  0.00     0.081 C 
HETATM   33  C16 UNL     1      -3.067  -3.063  -0.687  1.00  0.00     0.029 C 
HETATM   34  C17 UNL     1      -3.916  -3.934  -1.536  1.00  0.00    -0.013 C 
HETATM   35  C18 UNL     1      -4.968  -4.708  -0.771  1.00  0.00     0.005 C 
HETATM   36  C24 UNL     1      -4.463  -3.284  -2.773  1.00  0.00     0.005 C 
HETATM   37  C19 UNL     1      -5.724  -3.889   0.211  1.00  0.00     0.000 C 
HETATM   38  C20 UNL     1      -6.573  -2.808  -0.372  1.00  0.00     0.000 C 
HETATM   39  C21 UNL     1      -5.859  -1.500  -0.293  1.00  0.00     0.007 C 
HETATM   40  C22 UNL     1      -4.754  -1.278  -1.255  1.00  0.00     0.008 C 
HETATM   41  C23 UNL     1      -4.900  -1.875  -2.606  1.00  0.00     0.007 C 
ENDBRANCH  30  32
ENDBRANCH  28  30
ENDBRANCH   1  28
TORSDOF 11
