REMARK  12 active torsions:
REMARK  status: ('A' for Active; 'I' for Inactive)
REMARK    1  A    between atoms: C1_2  and  C2_3 
REMARK       I    between atoms: C1_2  and  N1_10 
REMARK    2  A    between atoms: C2_3  and  C3_4 
REMARK    3  A    between atoms: N1_10  and  C9_12 
REMARK    4  A    between atoms: C9_12  and  C10_13 
REMARK    5  A    between atoms: C10_13  and  S1_14 
REMARK    6  A    between atoms: S1_14  and  N2_17 
REMARK    7  A    between atoms: C13_20  and  C14_21 
REMARK    8  A    between atoms: C14_21  and  C15_22 
REMARK    9  A    between atoms: C15_22  and  C16_23 
REMARK   10  A    between atoms: C16_23  and  C17_25 
REMARK   11  A    between atoms: C19_29  and  N4_30 
REMARK   12  A    between atoms: N4_30  and  C20_32 
ROOT
HETATM    1  N2  UNL     1      -0.239  -2.245  -0.819  1.00  0.00    -0.211 NA
HETATM    2  C11 UNL     1       1.032  -2.948  -0.827  1.00  0.00     0.107 C 
HETATM    3  C12 UNL     1       2.155  -1.984  -1.212  1.00  0.00     0.020 C 
HETATM    4  C13 UNL     1       1.833  -0.592  -0.712  1.00  0.00    -0.012 C 
HETATM    5  C23 UNL     1       0.608  -0.103  -1.450  1.00  0.00     0.020 C 
HETATM    6  C24 UNL     1      -0.217  -1.276  -1.863  1.00  0.00     0.107 C 
ENDROOT
BRANCH   1   7
HETATM    7  S1  UNL     1      -1.557  -3.307  -0.801  1.00  0.00     0.213 S 
HETATM    8  O2  UNL     1      -2.466  -3.069  -1.987  1.00  0.00    -0.211 OA
HETATM    9  O3  UNL     1      -0.993  -4.709  -1.046  1.00  0.00    -0.211 OA
BRANCH   7  10
HETATM   10  C10 UNL     1      -2.434  -3.378   0.729  1.00  0.00     0.188 C 
BRANCH  10  11
HETATM   11  C9  UNL     1      -3.017  -2.050   1.160  1.00  0.00     0.047 A 
HETATM   12  C25 UNL     1      -3.479  -2.142   2.601  1.00  0.00     0.032 A 
HETATM   13  C26 UNL     1      -2.346  -1.281   3.092  1.00  0.00     0.005 A 
HETATM   14  C27 UNL     1      -1.954  -1.090   1.622  1.00  0.00     0.032 A 
BRANCH  11  15
HETATM   15  N1  UNL     1      -3.941  -1.465   0.256  1.00  0.00    -0.351 N 
HETATM   16  C1  UNL     1      -4.616  -0.234   0.439  1.00  0.00     0.218 C 
HETATM   17  O1  UNL     1      -4.385   0.401   1.497  1.00  0.00    -0.274 OA
ATOM     18  H1  UNL     1      -4.137  -1.978  -0.604  1.00  0.00     0.163 HD
BRANCH  16  19
HETATM   19  C2  UNL     1      -5.564   0.300  -0.572  1.00  0.00     0.107 C 
BRANCH  19  20
HETATM   20  C3  UNL     1      -6.219   1.578  -0.235  1.00  0.00    -0.006 C 
HETATM   21  C4  UNL     1      -7.071   1.613   0.980  1.00  0.00     0.005 C 
HETATM   22  C5  UNL     1      -8.427   0.966   0.759  1.00  0.00     0.000 C 
HETATM   23  C6  UNL     1      -9.194   1.763  -0.262  1.00  0.00     0.000 C 
HETATM   24  C7  UNL     1      -8.303   2.712  -1.044  1.00  0.00     0.000 C 
HETATM   25  C8  UNL     1      -7.056   1.985  -1.458  1.00  0.00     0.005 C 
ENDBRANCH  19  20
ENDBRANCH  16  19
ENDBRANCH  11  15
ENDBRANCH  10  11
ENDBRANCH   7  10
ENDBRANCH   1   7
BRANCH   4  26
HETATM   26  C14 UNL     1       2.963   0.358  -1.013  1.00  0.00     0.012 C 
BRANCH  26  27
HETATM   27  C15 UNL     1       4.269  -0.026  -0.383  1.00  0.00     0.085 C 
BRANCH  27  28
HETATM   28  C16 UNL     1       5.281   0.987  -0.745  1.00  0.00     0.167 C 
HETATM   29  O4  UNL     1       4.983   1.945  -1.460  1.00  0.00    -0.292 OA
BRANCH  28  30
HETATM   30  C17 UNL     1       6.643   0.816  -0.228  1.00  0.00     0.069 A 
HETATM   31  C18 UNL     1       7.156  -0.171   0.567  1.00  0.00     0.113 A 
HETATM   32  N3  UNL     1       8.411  -0.101   0.897  1.00  0.00    -0.345 N 
HETATM   33  C19 UNL     1       9.137   0.923   0.447  1.00  0.00     0.145 A 
ATOM     34  H3  UNL     1       8.833  -0.816   1.489  1.00  0.00     0.167 HD
HETATM   35  S2  UNL     1       8.007   1.816  -0.471  1.00  0.00    -0.049 SA
BRANCH  33  36
HETATM   36  N4  UNL     1      10.413   1.167   0.669  1.00  0.00    -0.366 N 
ATOM     37  H4  UNL     1      10.998   0.558   1.240  1.00  0.00     0.162 HD
BRANCH  36  38
HETATM   38  C20 UNL     1      10.923   2.378   0.033  1.00  0.00     0.083 A 
HETATM   39  C21 UNL     1      11.564   3.336   1.008  1.00  0.00     0.027 A 
HETATM   40  C22 UNL     1      12.369   2.612  -0.057  1.00  0.00     0.027 A 
ENDBRANCH  36  38
ENDBRANCH  33  36
ENDBRANCH  28  30
ENDBRANCH  27  28
ENDBRANCH  26  27
ENDBRANCH   4  26
TORSDOF 12
