REMARK  9 active torsions:
REMARK  status: ('A' for Active; 'I' for Inactive)
REMARK    1  A    between atoms: C2_2  and  N1_3 
REMARK    2  A    between atoms: N1_3  and  C3_6 
REMARK    3  A    between atoms: C3_6  and  C4_7 
REMARK    4  A    between atoms: C4_7  and  C5_9 
REMARK    5  A    between atoms: C5_9  and  N2_10 
REMARK    6  A    between atoms: C5_9  and  N4_16 
REMARK    7  A    between atoms: N2_10  and  O2_12 
REMARK    8  A    between atoms: O2_12  and  C6_13 
REMARK       I    between atoms: N4_16  and  C7_18 
REMARK    9  A    between atoms: C7_18  and  C8_20 
ROOT
HETATM    1  N4  UNL     1       2.242  -0.741   0.012  1.00  0.00    -0.307 N 
ATOM      2  H4  UNL     1       1.758  -1.627  -0.133  1.00  0.00     0.170 HD
HETATM    3  C7  UNL     1       1.285   0.187   0.368  1.00  0.00     0.245 C 
HETATM    4  O4  UNL     1       1.489   1.347   0.746  1.00  0.00    -0.271 OA
ENDROOT
BRANCH   3   5
HETATM    5  C8  UNL     1      -0.209  -0.197   0.298  1.00  0.00     0.169 C 
HETATM    6  C9  UNL     1      -0.454  -0.354  -1.157  1.00  0.00     0.034 C 
HETATM    7  C10 UNL     1      -0.778   1.061  -1.733  1.00  0.00     0.002 C 
HETATM    8  C11 UNL     1      -2.237   1.322  -1.752  1.00  0.00     0.002 C 
HETATM    9  C12 UNL     1      -2.652   2.693  -1.319  1.00  0.00     0.026 C 
HETATM   10  C13 UNL     1      -3.219   2.691   0.109  1.00  0.00     0.167 C 
HETATM   11  O5  UNL     1      -4.232   1.730   0.211  1.00  0.00    -0.391 OA
HETATM   12  C14 UNL     1      -5.486   2.268  -0.003  1.00  0.00     0.169 C 
HETATM   13  C15 UNL     1      -6.536   1.210   0.170  1.00  0.00     0.052 C 
HETATM   14  C16 UNL     1      -6.037  -0.066   0.781  1.00  0.00     0.169 C 
HETATM   15  O6  UNL     1      -5.909  -1.099  -0.131  1.00  0.00    -0.389 OA
HETATM   16  C17 UNL     1      -5.604  -2.280   0.548  1.00  0.00     0.193 C 
HETATM   17  C18 UNL     1      -4.584  -3.119  -0.146  1.00  0.00     0.193 C 
HETATM   18  O7  UNL     1      -3.408  -3.316   0.615  1.00  0.00    -0.387 OA
HETATM   19  C19 UNL     1      -2.707  -2.086   0.669  1.00  0.00     0.186 C 
HETATM   20  C20 UNL     1      -1.247  -2.300   0.769  1.00  0.00     0.141 C 
HETATM   21  N5  UNL     1      -0.549  -1.116   1.249  1.00  0.00    -0.407 N 
ATOM     22  H5  UNL     1      -0.327  -0.981   2.235  1.00  0.00     0.154 HD
ENDBRANCH   3   5
BRANCH   1  23
HETATM   23  C5  UNL     1       3.577  -0.968  -0.229  1.00  0.00     0.176 C 
BRANCH  23  24
HETATM   24  C4  UNL     1       4.682  -0.204   0.363  1.00  0.00     0.220 C 
HETATM   25  O1  UNL     1       5.758  -0.868   0.508  1.00  0.00    -0.287 OA
BRANCH  24  26
HETATM   26  C3  UNL     1       4.790   1.174   0.802  1.00  0.00     0.319 C 
BRANCH  26  27
HETATM   27  N1  UNL     1       5.979   1.788   0.120  1.00  0.00    -0.069 N 
ATOM     28  H12 UNL     1       5.966   1.657  -0.891  1.00  0.00     0.277 HD
ATOM     29  H11 UNL     1       6.847   1.287   0.311  1.00  0.00     0.277 HD
BRANCH  27  30
HETATM   30  C2  UNL     1       6.039   3.161   0.498  1.00  0.00     0.228 C 
HETATM   31  C1  UNL     1       6.975   3.929  -0.396  1.00  0.00     0.034 C 
ENDBRANCH  27  30
ENDBRANCH  26  27
ENDBRANCH  24  26
ENDBRANCH  23  24
BRANCH  23  32
HETATM   32  N2  UNL     1       3.838  -2.380  -0.233  1.00  0.00    -0.237 N 
ATOM     33  H2  UNL     1       3.155  -3.021   0.172  1.00  0.00     0.197 HD
BRANCH  32  34
HETATM   34  O2  UNL     1       4.949  -2.856  -0.754  1.00  0.00    -0.182 OA
BRANCH  34  35
HETATM   35  C6  UNL     1       5.605  -3.888  -0.023  1.00  0.00     0.394 C 
HETATM   36  N3  UNL     1       6.798  -4.472  -0.522  1.00  0.00    -0.031 NA
HETATM   37  O3  UNL     1       5.120  -4.273   1.071  1.00  0.00    -0.240 OA
ENDBRANCH  34  35
ENDBRANCH  32  34
ENDBRANCH  23  32
ENDBRANCH   1  23
TORSDOF 9
