REMARK  13 active torsions:
REMARK  status: ('A' for Active; 'I' for Inactive)
REMARK    1  A    between atoms: C2_2  and  C3_3 
REMARK    2  A    between atoms: C3_3  and  O1_4 
REMARK    3  A    between atoms: O1_4  and  C4_5 
REMARK    4  A    between atoms: C5_6  and  O2_7 
REMARK    5  A    between atoms: C6_9  and  O3_10 
REMARK    6  A    between atoms: C7_12  and  O4_13 
REMARK    7  A    between atoms: C8_15  and  O5_16 
REMARK    8  A    between atoms: O5_16  and  C9_17 
REMARK    9  A    between atoms: C16_24  and  O6_25 
REMARK   10  A    between atoms: C17_27  and  O7_28 
REMARK   11  A    between atoms: O7_28  and  C18_29 
REMARK   12  A    between atoms: C21_33  and  O9_34 
REMARK   13  A    between atoms: C22_36  and  O10_37 
ROOT
HETATM    1  C4  UNL     1       0.388   1.283   0.695  1.00  0.00     0.126 C 
HETATM    2  C5  UNL     1       0.021   1.524   2.135  1.00  0.00     0.187 C 
HETATM    3  C6  UNL     1      -1.264   2.324   2.139  1.00  0.00     0.181 C 
HETATM    4  C7  UNL     1      -2.331   1.309   1.732  1.00  0.00     0.179 C 
HETATM    5  C8  UNL     1      -2.050   0.593   0.472  1.00  0.00     0.163 C 
HETATM    6  C15 UNL     1      -0.679   0.467  -0.010  1.00  0.00     0.088 C 
HETATM    7  C16 UNL     1       0.060  -0.806   0.264  1.00  0.00     0.160 C 
HETATM    8  C17 UNL     1       1.280   0.072   0.606  1.00  0.00     0.192 C 
ENDROOT
BRANCH   8   9
HETATM    9  O7  UNL     1       2.148  -0.009  -0.465  1.00  0.00    -0.348 OA
BRANCH   9  10
HETATM   10  C18 UNL     1       3.336  -0.589  -0.024  1.00  0.00     0.292 C 
HETATM   11  O8  UNL     1       3.539  -1.817  -0.636  1.00  0.00    -0.351 OA
HETATM   12  C19 UNL     1       4.757  -1.824  -1.251  1.00  0.00     0.152 C 
HETATM   13  C20 UNL     1       5.411  -3.172  -1.256  1.00  0.00     0.042 C 
HETATM   14  C21 UNL     1       5.602  -0.755  -0.593  1.00  0.00     0.180 C 
HETATM   15  C22 UNL     1       4.548   0.268  -0.233  1.00  0.00     0.204 C 
BRANCH  14  16
HETATM   16  O9  UNL     1       6.146  -1.216   0.613  1.00  0.00    -0.390 OA
ATOM     17  H9  UNL     1       6.677  -0.545   1.026  1.00  0.00     0.210 HD
ENDBRANCH  14  16
BRANCH  15  18
HETATM   18  O10 UNL     1       4.890   0.968   0.924  1.00  0.00    -0.388 OA
ATOM     19  H10 UNL     1       5.658   1.511   0.792  1.00  0.00     0.210 HD
ENDBRANCH  15  18
ENDBRANCH   9  10
ENDBRANCH   8   9
BRANCH   1  20
HETATM   20  O1  UNL     1       0.697   2.393   0.008  1.00  0.00    -0.370 OA
BRANCH  20  21
HETATM   21  C3  UNL     1       1.705   3.215   0.325  1.00  0.00     0.195 C 
BRANCH  21  22
HETATM   22  C2  UNL     1       1.827   4.360  -0.680  1.00  0.00    -0.011 C 
HETATM   23  C1  UNL     1       0.991   4.427  -1.691  1.00  0.00     0.009 C 
ENDBRANCH  21  22
ENDBRANCH  20  21
ENDBRANCH   1  20
BRANCH   7  24
HETATM   24  O6  UNL     1      -0.353  -1.577   1.320  1.00  0.00    -0.392 OA
ATOM     25  H6  UNL     1       0.116  -2.385   1.494  1.00  0.00     0.210 HD
ENDBRANCH   7  24
BRANCH   2  26
HETATM   26  O2  UNL     1       0.986   2.147   2.851  1.00  0.00    -0.390 OA
ATOM     27  H2  UNL     1       0.754   2.299   3.760  1.00  0.00     0.210 HD
ENDBRANCH   2  26
BRANCH   3  28
HETATM   28  O3  UNL     1      -1.234   3.355   1.211  1.00  0.00    -0.390 OA
ATOM     29  H3  UNL     1      -2.040   3.857   1.214  1.00  0.00     0.210 HD
ENDBRANCH   3  28
BRANCH   5  30
HETATM   30  O5  UNL     1      -2.580  -0.713   0.619  1.00  0.00    -0.377 OA
BRANCH  30  31
HETATM   31  C9  UNL     1      -3.656  -0.950  -0.209  1.00  0.00     0.122 C 
HETATM   32  C10 UNL     1      -4.904  -1.333   0.541  1.00  0.00     0.032 C 
HETATM   33  C11 UNL     1      -5.490  -2.641   0.094  1.00  0.00     0.002 C 
HETATM   34  C12 UNL     1      -5.726  -2.692  -1.394  1.00  0.00     0.000 C 
HETATM   35  C13 UNL     1      -4.546  -2.122  -2.163  1.00  0.00     0.002 C 
HETATM   36  C14 UNL     1      -3.373  -2.067  -1.206  1.00  0.00     0.032 C 
ENDBRANCH  30  31
ENDBRANCH   5  30
BRANCH   4  37
HETATM   37  O4  UNL     1      -2.379   0.380   2.795  1.00  0.00    -0.390 OA
ATOM     38  H4  UNL     1      -3.042  -0.251   2.542  1.00  0.00     0.210 HD
ENDBRANCH   4  37
TORSDOF 13
