REMARK  11 active torsions:
REMARK  status: ('A' for Active; 'I' for Inactive)
REMARK    1  A    between atoms: C1_2  and  C2_3 
REMARK    2  A    between atoms: C1_2  and  C12_14 
REMARK    3  A    between atoms: C2_3  and  C3_4 
REMARK    4  A    between atoms: C3_4  and  C4_5 
REMARK    5  A    between atoms: C4_5  and  C5_6 
REMARK    6  A    between atoms: C5_6  and  C6_7 
REMARK    7  A    between atoms: C6_7  and  N1_8 
REMARK       I    between atoms: N3_22  and  C17_23 
REMARK    8  A    between atoms: C17_23  and  C18_25 
REMARK    9  A    between atoms: C18_25  and  O3_26 
REMARK   10  A    between atoms: C20_32  and  O4_33 
REMARK   11  A    between atoms: C21_35  and  O5_36 
ROOT
HETATM    1  C12 UNL     1      -0.547  -0.865  -1.535  1.00  0.00     0.195 C 
HETATM    2  C13 UNL     1      -0.995   0.043  -2.675  1.00  0.00     0.077 C 
HETATM    3  C14 UNL     1      -2.383   0.393  -2.251  1.00  0.00     0.237 C 
HETATM    4  N2  UNL     1      -2.774   1.747  -2.462  1.00  0.00    -0.065 N 
ATOM      5  H21 UNL     1      -2.684   2.039  -3.435  1.00  0.00     0.277 HD
ATOM      6  H22 UNL     1      -2.118   2.417  -2.060  1.00  0.00     0.277 HD
HETATM    7  C15 UNL     1      -4.135   1.901  -1.944  1.00  0.00     0.253 C 
HETATM    8  C16 UNL     1      -4.148   1.603  -0.442  1.00  0.00     0.156 C 
HETATM    9  N3  UNL     1      -3.576   0.286  -0.216  1.00  0.00    -0.318 N 
HETATM   10  C17 UNL     1      -4.225  -0.791   0.408  1.00  0.00     0.288 C 
HETATM   11  O2  UNL     1      -3.526  -1.860   0.517  1.00  0.00    -0.268 OA
HETATM   12  C22 UNL     1      -2.219   0.217  -0.729  1.00  0.00     0.257 C 
HETATM   13  O6  UNL     1      -1.629  -1.002  -0.672  1.00  0.00    -0.352 OA
ENDROOT
BRANCH  10  14
HETATM   14  C18 UNL     1      -5.581  -0.830   0.935  1.00  0.00     0.334 C 
HETATM   15  N4  UNL     1      -5.850   0.199   1.916  1.00  0.00    -0.028 N 
HETATM   16  C19 UNL     1      -7.252   0.473   1.875  1.00  0.00     0.271 C 
ATOM     17  H42 UNL     1      -5.519  -0.045   2.850  1.00  0.00     0.281 HD
ATOM     18  H41 UNL     1      -5.277   1.033   1.786  1.00  0.00     0.281 HD
HETATM   19  C20 UNL     1      -7.866  -0.245   0.724  1.00  0.00     0.178 C 
HETATM   20  C21 UNL     1      -6.677  -0.696  -0.103  1.00  0.00     0.221 C 
BRANCH  14  21
HETATM   21  O3  UNL     1      -5.840  -2.059   1.574  1.00  0.00    -0.356 OA
ATOM     22  H3  UNL     1      -6.725  -2.084   1.918  1.00  0.00     0.213 HD
ENDBRANCH  14  21
BRANCH  19  23
HETATM   23  O4  UNL     1      -8.725   0.565  -0.016  1.00  0.00    -0.391 OA
ATOM     24  H4  UNL     1      -9.117   0.107  -0.750  1.00  0.00     0.210 HD
ENDBRANCH  19  23
BRANCH  20  25
HETATM   25  O5  UNL     1      -7.041  -1.954  -0.643  1.00  0.00    -0.387 OA
ATOM     26  H5  UNL     1      -7.728  -1.870  -1.294  1.00  0.00     0.210 HD
ENDBRANCH  20  25
ENDBRANCH  10  14
BRANCH   1  27
HETATM   27  C1  UNL     1       0.593  -0.303  -0.788  1.00  0.00     0.155 C 
HETATM   28  O1  UNL     1       0.425  -0.041   0.390  1.00  0.00    -0.295 OA
BRANCH  27  29
HETATM   29  C2  UNL     1       1.924  -0.050  -1.418  1.00  0.00     0.081 C 
BRANCH  29  30
HETATM   30  C3  UNL     1       2.936  -1.106  -1.109  1.00  0.00     0.007 C 
BRANCH  30  31
HETATM   31  C4  UNL     1       3.225  -1.226   0.342  1.00  0.00     0.002 C 
BRANCH  31  32
HETATM   32  C5  UNL     1       3.798   0.026   0.948  1.00  0.00     0.030 C 
BRANCH  32  33
HETATM   33  C6  UNL     1       5.104   0.420   0.306  1.00  0.00     0.272 C 
BRANCH  33  34
HETATM   34  N1  UNL     1       6.143  -0.546   0.387  1.00  0.00     0.088 N 
HETATM   35  C7  UNL     1       7.308  -0.013  -0.300  1.00  0.00     0.272 C 
HETATM   36  C8  UNL     1       7.930   1.110   0.457  1.00  0.00     0.030 C 
HETATM   37  C9  UNL     1       8.203   0.825   1.898  1.00  0.00     0.003 C 
HETATM   38  C10 UNL     1       6.980   0.216   2.558  1.00  0.00     0.030 C 
HETATM   39  C11 UNL     1       6.438  -0.932   1.730  1.00  0.00     0.272 C 
ENDBRANCH  33  34
ENDBRANCH  32  33
ENDBRANCH  31  32
ENDBRANCH  30  31
ENDBRANCH  29  30
ENDBRANCH  27  29
ENDBRANCH   1  27
TORSDOF 11
