REMARK  8 active torsions:
REMARK  status: ('A' for Active; 'I' for Inactive)
REMARK    1  A    between atoms: C4_4  and  C5_5 
REMARK    2  A    between atoms: C5_5  and  N1_6 
REMARK    3  A    between atoms: N1_6  and  C6_9 
REMARK    4  A    between atoms: C6_9  and  C7_10 
REMARK    5  A    between atoms: C7_10  and  C8_11 
REMARK    6  A    between atoms: C8_11  and  N2_12 
REMARK    7  A    between atoms: N2_12  and  C9_15 
REMARK    8  A    between atoms: C9_15  and  C10_16 
ROOT
HETATM    1  C6  UNL     1      -0.303   0.163  -0.469  1.00  0.00     0.234 C 
ENDROOT
BRANCH   1   2
HETATM    2  N1  UNL     1      -1.665   0.626  -0.336  1.00  0.00    -0.071 N 
ATOM      3  H12 UNL     1      -1.933   1.316  -1.038  1.00  0.00     0.277 HD
ATOM      4  H11 UNL     1      -1.818   1.218   0.480  1.00  0.00     0.277 HD
BRANCH   2   5
HETATM    5  C5  UNL     1      -2.498  -0.586  -0.351  1.00  0.00     0.270 C 
BRANCH   5   6
HETATM    6  C4  UNL     1      -3.925  -0.310  -0.144  1.00  0.00    -0.033 A 
HETATM    7  C3  UNL     1      -4.753  -1.385   0.079  1.00  0.00     0.009 A 
HETATM    8  C2  UNL     1      -6.115  -1.224   0.319  1.00  0.00     0.001 A 
HETATM    9  C1  UNL     1      -6.655   0.049   0.334  1.00  0.00     0.000 A 
HETATM   10  C15 UNL     1      -5.829   1.124   0.109  1.00  0.00     0.001 A 
HETATM   11  C14 UNL     1      -4.472   0.953  -0.130  1.00  0.00     0.009 A 
ENDBRANCH   5   6
ENDBRANCH   2   5
ENDBRANCH   1   2
BRANCH   1  12
HETATM   12  C7  UNL     1       0.689   1.302  -0.495  1.00  0.00     0.055 C 
BRANCH  12  13
HETATM   13  C8  UNL     1       2.057   0.722  -0.612  1.00  0.00     0.234 C 
BRANCH  13  14
HETATM   14  N2  UNL     1       2.412  -0.009   0.564  1.00  0.00    -0.069 N 
ATOM     15  H22 UNL     1       2.631   0.623   1.334  1.00  0.00     0.277 HD
ATOM     16  H21 UNL     1       1.598  -0.479   0.960  1.00  0.00     0.277 HD
BRANCH  14  17
HETATM   17  C9  UNL     1       3.486  -0.940   0.343  1.00  0.00     0.296 C 
BRANCH  17  18
HETATM   18  C10 UNL     1       4.748  -0.127   0.417  1.00  0.00     0.078 A 
HETATM   19  C11 UNL     1       5.729  -0.023   1.343  1.00  0.00     0.036 A 
HETATM   20  C12 UNL     1       6.671   0.897   0.880  1.00  0.00     0.027 A 
HETATM   21  C13 UNL     1       6.196   1.316  -0.335  1.00  0.00     0.142 A 
HETATM   22  O1  UNL     1       5.078   0.705  -0.578  1.00  0.00    -0.325 OA
ENDBRANCH  17  18
ENDBRANCH  14  17
ENDBRANCH  13  14
ENDBRANCH  12  13
ENDBRANCH   1  12
TORSDOF 8
