REMARK  11 active torsions:
REMARK  status: ('A' for Active; 'I' for Inactive)
REMARK    1  A    between atoms: C2_2  and  C3_3 
REMARK    2  A    between atoms: C3_3  and  C4_4 
REMARK    3  A    between atoms: C4_4  and  C5_5 
REMARK    4  A    between atoms: C5_5  and  C6_6 
REMARK    5  A    between atoms: C7_7  and  C8_8 
REMARK    6  A    between atoms: C8_8  and  C9_9 
REMARK    7  A    between atoms: C10_11  and  C11_12 
REMARK    8  A    between atoms: C11_12  and  O2_13 
REMARK    9  A    between atoms: C11_12  and  C12_15 
REMARK   10  A    between atoms: C12_15  and  O3_16 
REMARK   11  A    between atoms: C12_15  and  C13_18 
ROOT
HETATM    1  C9  UNL     1      -0.322  -0.466  -0.705  1.00  0.00     0.157 A 
HETATM    2  O1  UNL     1      -1.170   0.700  -0.860  1.00  0.00    -0.372 OA
HETATM    3  C10 UNL     1      -1.771  -0.562  -0.693  1.00  0.00     0.182 A 
ENDROOT
BRANCH   3   4
HETATM    4  C11 UNL     1      -2.545  -0.889   0.534  1.00  0.00     0.178 C 
BRANCH   4   5
HETATM    5  O2  UNL     1      -3.062  -2.194   0.468  1.00  0.00    -0.390 OA
ATOM      6  H2  UNL     1      -3.556  -2.403   1.252  1.00  0.00     0.210 HD
ENDBRANCH   4   5
BRANCH   4   7
HETATM    7  C12 UNL     1      -3.634   0.116   0.835  1.00  0.00     0.152 C 
BRANCH   7   8
HETATM    8  O3  UNL     1      -3.024   1.370   0.879  1.00  0.00    -0.393 OA
ATOM      9  H3  UNL     1      -3.708   2.001   1.068  1.00  0.00     0.210 HD
ENDBRANCH   7   8
BRANCH   7  10
HETATM   10  C13 UNL     1      -4.697   0.165  -0.225  1.00  0.00     0.009 C 
HETATM   11  C14 UNL     1      -5.409  -1.130  -0.433  1.00  0.00     0.012 C 
HETATM   12  C15 UNL     1      -5.721   1.195   0.208  1.00  0.00     0.012 C 
ENDBRANCH   7  10
ENDBRANCH   4   7
ENDBRANCH   3   4
BRANCH   1  13
HETATM   13  C8  UNL     1       0.541  -0.314   0.514  1.00  0.00     0.061 C 
BRANCH  13  14
HETATM   14  C7  UNL     1       1.416   0.869   0.409  1.00  0.00    -0.028 C 
HETATM   15  C6  UNL     1       2.718   0.828   0.425  1.00  0.00    -0.031 C 
BRANCH  15  16
HETATM   16  C5  UNL     1       3.492  -0.420   0.550  1.00  0.00     0.027 C 
BRANCH  16  17
HETATM   17  C4  UNL     1       4.367  -0.570  -0.675  1.00  0.00     0.007 C 
BRANCH  17  18
HETATM   18  C3  UNL     1       5.301   0.597  -0.783  1.00  0.00     0.026 C 
BRANCH  18  19
HETATM   19  C2  UNL     1       6.152   0.663   0.421  1.00  0.00    -0.037 C 
HETATM   20  C1  UNL     1       7.463   0.547   0.304  1.00  0.00     0.007 C 
ENDBRANCH  18  19
ENDBRANCH  17  18
ENDBRANCH  16  17
ENDBRANCH  15  16
ENDBRANCH  13  14
ENDBRANCH   1  13
TORSDOF 11
