REMARK  10 active torsions:
REMARK  status: ('A' for Active; 'I' for Inactive)
REMARK    1  A    between atoms: O1_2  and  C2_3 
REMARK    2  A    between atoms: C2_3  and  C3_4 
REMARK    3  A    between atoms: C2_3  and  C5_10 
REMARK    4  A    between atoms: C3_4  and  C4_5 
REMARK    5  A    between atoms: C4_5  and  N1_6 
REMARK    6  A    between atoms: C5_10  and  C6_11 
REMARK    7  A    between atoms: C6_11  and  C7_12 
REMARK    8  A    between atoms: C6_11  and  C9_15 
REMARK    9  A    between atoms: C7_12  and  C8_13 
REMARK   10  A    between atoms: C9_15  and  C10_16 
ROOT
HETATM    1  C5  UNL     1      -0.729   0.254   0.083  1.00  0.00     0.036 C 
ENDROOT
BRANCH   1   2
HETATM    2  C2  UNL     1      -2.047   0.169  -0.568  1.00  0.00     0.122 C 
BRANCH   2   3
HETATM    3  O1  UNL     1      -2.500   1.406  -1.022  1.00  0.00    -0.391 OA
HETATM    4  C1  UNL     1      -2.993   1.305  -2.333  1.00  0.00     0.202 C 
ENDBRANCH   2   3
BRANCH   2   5
HETATM    5  C3  UNL     1      -3.054  -0.298   0.526  1.00  0.00     0.059 C 
BRANCH   5   6
HETATM    6  C4  UNL     1      -2.713  -1.631   1.109  1.00  0.00     0.232 C 
BRANCH   6   7
HETATM    7  N1  UNL     1      -3.804  -1.900   2.086  1.00  0.00    -0.079 N 
ATOM      8  H13 UNL     1      -3.933  -1.163   2.779  1.00  0.00     0.274 HD
ATOM      9  H12 UNL     1      -4.742  -1.847   1.688  1.00  0.00     0.274 HD
ATOM     10  H11 UNL     1      -3.571  -2.810   2.484  1.00  0.00     0.274 HD
ENDBRANCH   6   7
ENDBRANCH   5   6
ENDBRANCH   2   5
ENDBRANCH   1   2
BRANCH   1  11
HETATM   11  C6  UNL     1       0.444   0.766  -0.648  1.00  0.00    -0.011 C 
BRANCH  11  12
HETATM   12  C7  UNL     1       0.412   2.178  -1.139  1.00  0.00     0.015 C 
BRANCH  12  13
HETATM   13  C8  UNL     1       0.236   3.181   0.008  1.00  0.00     0.086 C 
HETATM   14  S1  UNL     1       0.202   4.832  -0.754  1.00  0.00    -0.098 SA
ENDBRANCH  12  13
ENDBRANCH  11  12
BRANCH  11  15
HETATM   15  C9  UNL     1       1.692   0.651   0.239  1.00  0.00     0.009 C 
BRANCH  15  16
HETATM   16  C10 UNL     1       2.003  -0.751   0.643  1.00  0.00    -0.014 C 
HETATM   17  C11 UNL     1       2.254  -1.658  -0.544  1.00  0.00     0.005 C 
HETATM   18  C12 UNL     1       3.099  -2.748   0.058  1.00  0.00     0.000 C 
HETATM   19  C13 UNL     1       3.854  -2.133   1.209  1.00  0.00     0.000 C 
HETATM   20  C14 UNL     1       3.425  -0.702   1.234  1.00  0.00     0.005 C 
ENDBRANCH  15  16
ENDBRANCH  11  15
ENDBRANCH   1  11
TORSDOF 10
