REMARK  4 active torsions:
REMARK  status: ('A' for Active; 'I' for Inactive)
REMARK    1  A    between atoms: C4_4  and  C5_5 
REMARK    2  A    between atoms: C5_5  and  C6_6 
REMARK    3  A    between atoms: C6_6  and  N1_7 
REMARK    4  A    between atoms: N1_7  and  C7_9 
ROOT
HETATM    1  N1  UNL     1       1.202   0.061  -1.195  1.00  0.00    -0.396 N 
ATOM      2  H1  UNL     1       1.513  -0.254  -2.114  1.00  0.00     0.155 HD
ENDROOT
BRANCH   1   3
HETATM    3  C6  UNL     1      -0.177   0.242  -0.893  1.00  0.00     0.116 C 
BRANCH   3   4
HETATM    4  C5  UNL     1      -0.664  -0.713   0.134  1.00  0.00     0.024 C 
BRANCH   4   5
HETATM    5  C4  UNL     1      -2.145  -0.667   0.373  1.00  0.00    -0.013 C 
HETATM    6  C3  UNL     1      -2.703   0.655   0.770  1.00  0.00     0.005 C 
HETATM    7  C2  UNL     1      -3.795   0.930  -0.299  1.00  0.00     0.000 C 
HETATM    8  C1  UNL     1      -4.290  -0.498  -0.522  1.00  0.00     0.000 C 
HETATM    9  C11 UNL     1      -2.936  -1.188  -0.792  1.00  0.00     0.005 C 
ENDBRANCH   4   5
ENDBRANCH   3   4
ENDBRANCH   1   3
BRANCH   1  10
HETATM   10  C7  UNL     1       2.113   0.340  -0.160  1.00  0.00     0.279 C 
HETATM   11  C8  UNL     1       3.067  -0.832   0.084  1.00  0.00     0.055 C 
HETATM   12  C9  UNL     1       4.423  -0.201   0.123  1.00  0.00     0.031 C 
HETATM   13  C10 UNL     1       4.210   1.303   0.158  1.00  0.00     0.235 C 
HETATM   14  N2  UNL     1       2.908   1.496  -0.413  1.00  0.00    -0.055 N 
ATOM     15  H22 UNL     1       2.950   1.729  -1.405  1.00  0.00     0.279 HD
ATOM     16  H21 UNL     1       2.463   2.353  -0.084  1.00  0.00     0.279 HD
ENDBRANCH   1  10
TORSDOF 4
