REMARK  3 active torsions:
REMARK  status: ('A' for Active; 'I' for Inactive)
REMARK    1  A    between atoms: N1_2  and  C2_5 
REMARK    2  A    between atoms: C2_5  and  C3_6 
REMARK    3  A    between atoms: C3_6  and  C4_7 
ROOT
HETATM    1  C4  UNL     1       0.184  -0.436  -0.593  1.00  0.00     0.018 C 
HETATM    2  C5  UNL     1      -0.233  -1.776   0.014  1.00  0.00     0.009 C 
HETATM    3  C6  UNL     1      -1.762  -1.760  -0.023  1.00  0.00     0.033 C 
HETATM    4  C7  UNL     1      -2.259  -0.674   0.878  1.00  0.00     0.186 C 
HETATM    5  C8  UNL     1      -3.335   0.133   0.191  1.00  0.00     0.033 C 
HETATM    6  C9  UNL     1      -2.789   1.556   0.031  1.00  0.00     0.004 C 
HETATM    7  C10 UNL     1      -1.431   1.480  -0.611  1.00  0.00     0.033 C 
HETATM    8  C11 UNL     1      -0.438   0.685   0.184  1.00  0.00     0.190 C 
HETATM    9  N2  UNL     1      -1.155   0.136   1.339  1.00  0.00    -0.066 N 
ATOM     10  H21 UNL     1      -0.537  -0.376   1.969  1.00  0.00     0.278 HD
ATOM     11  H22 UNL     1      -1.455   0.863   1.988  1.00  0.00     0.278 HD
ENDROOT
BRANCH   1  12
HETATM   12  C3  UNL     1       1.677  -0.329  -0.746  1.00  0.00     0.034 C 
BRANCH  12  13
HETATM   13  C2  UNL     1       2.416  -0.446   0.548  1.00  0.00     0.232 C 
BRANCH  13  14
HETATM   14  N1  UNL     1       3.840  -0.340   0.323  1.00  0.00    -0.079 N 
HETATM   15  C1  UNL     1       4.280   0.956  -0.103  1.00  0.00     0.266 C 
ATOM     16  H12 UNL     1       4.149  -1.054  -0.336  1.00  0.00     0.276 HD
ATOM     17  H11 UNL     1       4.354  -0.634   1.154  1.00  0.00     0.276 HD
ENDBRANCH  13  14
ENDBRANCH  12  13
ENDBRANCH   1  12
TORSDOF 3
