REMARK  3 active torsions:
REMARK  status: ('A' for Active; 'I' for Inactive)
REMARK    1  A    between atoms: C4_7  and  C5_8 
REMARK    2  A    between atoms: C5_8  and  N2_9 
REMARK    3  A    between atoms: N2_9  and  C6_12 
ROOT
HETATM    1  C5  UNL     1      -0.211  -0.532   0.198  1.00  0.00     0.239 C 
ENDROOT
BRANCH   1   2
HETATM    2  C4  UNL     1      -1.528  -0.293  -0.479  1.00  0.00     0.037 C 
HETATM    3  C3  UNL     1      -2.173   1.009  -0.143  1.00  0.00     0.238 C 
HETATM    4  N1  UNL     1      -3.301   0.832   0.766  1.00  0.00    -0.075 N 
HETATM    5  C2  UNL     1      -4.352   0.258  -0.071  1.00  0.00     0.232 C 
ATOM      6  H12 UNL     1      -3.577   1.681   1.259  1.00  0.00     0.277 HD
ATOM      7  H11 UNL     1      -3.084   0.284   1.599  1.00  0.00     0.277 HD
HETATM    8  C1  UNL     1      -3.905  -1.132  -0.424  1.00  0.00     0.028 C 
HETATM    9  C11 UNL     1      -2.467  -1.406  -0.091  1.00  0.00     0.009 C 
ENDBRANCH   1   2
BRANCH   1  10
HETATM   10  N2  UNL     1       0.750   0.519  -0.088  1.00  0.00    -0.070 N 
ATOM     11  H22 UNL     1       0.753   0.767  -1.077  1.00  0.00     0.277 HD
ATOM     12  H21 UNL     1       0.452   1.416   0.295  1.00  0.00     0.277 HD
BRANCH  10  13
HETATM   13  C6  UNL     1       2.065   0.155   0.373  1.00  0.00     0.185 C 
HETATM   14  C7  UNL     1       2.854   1.458   0.455  1.00  0.00     0.033 C 
HETATM   15  C8  UNL     1       4.278   0.981   0.522  1.00  0.00     0.002 C 
HETATM   16  C9  UNL     1       4.290  -0.371  -0.164  1.00  0.00     0.002 C 
HETATM   17  C10 UNL     1       2.865  -0.608  -0.650  1.00  0.00     0.033 C 
ENDBRANCH  10  13
ENDBRANCH   1  10
TORSDOF 3
