REMARK  3 active torsions:
REMARK  status: ('A' for Active; 'I' for Inactive)
REMARK    1  A    between atoms: C2_2  and  N1_3 
REMARK    2  A    between atoms: N1_3  and  C3_5 
REMARK    3  A    between atoms: C3_5  and  C4_6 
ROOT
HETATM    1  C4  UNL     1      -0.073   0.063   0.438  1.00  0.00     0.009 C 
HETATM    2  C5  UNL     1      -0.356   1.131  -0.580  1.00  0.00     0.009 C 
HETATM    3  C6  UNL     1      -1.374   0.645  -1.607  1.00  0.00     0.033 C 
HETATM    4  C7  UNL     1      -2.600   0.109  -0.935  1.00  0.00     0.186 C 
HETATM    5  C8  UNL     1      -2.199  -1.136  -0.170  1.00  0.00     0.039 C 
HETATM    6  C9  UNL     1      -1.356  -0.516   0.941  1.00  0.00     0.019 C 
HETATM    7  C10 UNL     1      -2.268   0.645   1.315  1.00  0.00     0.237 C 
HETATM    8  N2  UNL     1      -3.029   0.990   0.139  1.00  0.00    -0.070 N 
ATOM      9  H21 UNL     1      -4.037   0.964   0.296  1.00  0.00     0.277 HD
ATOM     10  H22 UNL     1      -2.957   1.978  -0.105  1.00  0.00     0.277 HD
ENDROOT
BRANCH   1  11
HETATM   11  C3  UNL     1       0.803  -1.027  -0.061  1.00  0.00     0.118 C 
BRANCH  11  12
HETATM   12  N1  UNL     1       2.101  -0.664  -0.504  1.00  0.00    -0.421 N 
ATOM     13  H1  UNL     1       2.367  -0.725  -1.487  1.00  0.00     0.153 HD
BRANCH  12  14
HETATM   14  C2  UNL     1       3.015  -0.210   0.491  1.00  0.00     0.109 C 
HETATM   15  C1  UNL     1       4.343   0.046  -0.229  1.00  0.00     0.026 C 
ENDBRANCH  12  14
ENDBRANCH  11  12
ENDBRANCH   1  11
TORSDOF 3
