REMARK  5 active torsions:
REMARK  status: ('A' for Active; 'I' for Inactive)
REMARK    1  A    between atoms: N1_1  and  C1_4 
REMARK    2  A    between atoms: N3_8  and  C3_9 
REMARK    3  A    between atoms: C3_9  and  C4_10 
REMARK    4  A    between atoms: C4_10  and  C5_11 
REMARK    5  A    between atoms: C5_11  and  N4_12 
ROOT
HETATM    1  C1  UNL     1       3.161   0.011  -0.076  1.00  0.00     0.691 A 
HETATM    2  N2  UNL     1       3.071  -0.916   0.892  1.00  0.00    -0.185 N 
ATOM      3  H2  UNL     1       3.837  -1.484   1.254  1.00  0.00     0.185 HD
HETATM    4  C2  UNL     1       1.793  -0.960   1.297  1.00  0.00     0.218 A 
HETATM    5  N3  UNL     1       1.064  -0.069   0.596  1.00  0.00    -0.273 N 
HETATM    6  N5  UNL     1       1.922   0.507  -0.231  1.00  0.00    -0.129 N 
ATOM      7  H5  UNL     1       1.674   1.235  -0.901  1.00  0.00     0.206 HD
ENDROOT
BRANCH   5   8
HETATM    8  C3  UNL     1      -0.346   0.164   0.756  1.00  0.00     0.152 C 
BRANCH   8   9
HETATM    9  C4  UNL     1      -1.187  -0.714  -0.137  1.00  0.00     0.049 C 
BRANCH   9  10
HETATM   10  C5  UNL     1      -2.649  -0.349   0.149  1.00  0.00     0.231 C 
BRANCH  10  11
HETATM   11  N4  UNL     1      -2.805   1.055  -0.167  1.00  0.00    -0.079 N 
ATOM     12  H43 UNL     1      -2.140   1.652   0.324  1.00  0.00     0.274 HD
ATOM     13  H42 UNL     1      -2.513   1.287  -1.116  1.00  0.00     0.274 HD
ATOM     14  H41 UNL     1      -3.777   1.298   0.023  1.00  0.00     0.274 HD
ENDBRANCH  10  11
ENDBRANCH   9  10
ENDBRANCH   8   9
ENDBRANCH   5   8
BRANCH   1  15
HETATM   15  N1  UNL     1       4.243   0.356  -0.731  1.00  0.00    -0.233 N 
ATOM     16  H12 UNL     1       5.184  -0.021  -0.613  1.00  0.00     0.174 HD
ATOM     17  H11 UNL     1       4.311   1.060  -1.466  1.00  0.00     0.174 HD
ENDBRANCH   1  15
TORSDOF 5
