REMARK  5 active torsions:
REMARK  status: ('A' for Active; 'I' for Inactive)
REMARK    1  A    between atoms: N1_1  and  N2_4 
REMARK    2  A    between atoms: C1_6  and  N3_7 
REMARK    3  A    between atoms: N3_7  and  N4_9 
REMARK    4  A    between atoms: N4_9  and  C2_11 
REMARK    5  A    between atoms: N6_16  and  N7_18 
ROOT
HETATM    1  C2  UNL     1      -0.098  -0.820   0.253  1.00  0.00     0.124 C 
HETATM    2  C3  UNL     1      -0.839  -1.811  -0.613  1.00  0.00     0.148 C 
HETATM    3  N5  UNL     1      -1.747  -0.948  -1.364  1.00  0.00    -0.377 N 
ATOM      4  H5  UNL     1      -2.009  -1.027  -2.347  1.00  0.00     0.160 HD
HETATM    5  C4  UNL     1      -2.186   0.025  -0.426  1.00  0.00     0.093 C 
HETATM    6  N6  UNL     1      -3.296   0.701  -0.517  1.00  0.00    -0.296 N 
ATOM      7  H6  UNL     1      -3.917   0.541  -1.310  1.00  0.00     0.187 HD
HETATM    8  C5  UNL     1      -1.179   0.147   0.673  1.00  0.00     0.105 C 
ENDROOT
BRANCH   1   9
HETATM    9  N4  UNL     1       0.927  -0.214  -0.499  1.00  0.00    -0.329 N 
ATOM     10  H4  UNL     1       1.076  -0.466  -1.476  1.00  0.00     0.180 HD
BRANCH   9  11
HETATM   11  N3  UNL     1       1.707   0.708   0.104  1.00  0.00    -0.299 N 
ATOM     12  H3  UNL     1       1.345   1.638   0.316  1.00  0.00     0.187 HD
BRANCH  11  13
HETATM   13  C1  UNL     1       3.056   0.352   0.440  1.00  0.00     0.212 C 
HETATM   14  N2  UNL     1       4.045   0.984  -0.047  1.00  0.00    -0.301 N 
ATOM     15  H2  UNL     1       3.875   1.758  -0.689  1.00  0.00     0.187 HD
BRANCH  14  16
HETATM   16  N1  UNL     1       5.346   0.645   0.274  1.00  0.00    -0.344 N 
ATOM     17  H12 UNL     1       5.498  -0.132   0.917  1.00  0.00     0.176 HD
ATOM     18  H11 UNL     1       6.140   1.152  -0.117  1.00  0.00     0.176 HD
ENDBRANCH  14  16
ENDBRANCH  11  13
ENDBRANCH   9  11
ENDBRANCH   1   9
BRANCH   6  19
HETATM   19  N7  UNL     1      -3.647   1.634   0.447  1.00  0.00    -0.344 N 
ATOM     20  H72 UNL     1      -3.015   1.781   1.234  1.00  0.00     0.176 HD
ATOM     21  H71 UNL     1      -4.516   2.163   0.376  1.00  0.00     0.176 HD
ENDBRANCH   6  19
TORSDOF 5
