REMARK  9 active torsions:
REMARK  status: ('A' for Active; 'I' for Inactive)
REMARK    1  A    between atoms: C4_8  and  N3_9 
REMARK    2  A    between atoms: C7_19  and  N6_20 
REMARK    3  A    between atoms: N6_20  and  N7_22 
REMARK    4  A    between atoms: C8_25  and  N8_26 
REMARK    5  A    between atoms: C9_31  and  N11_32 
REMARK       I    between atoms: N11_32  and  C10_34 
REMARK    6  A    between atoms: C10_34  and  C11_36 
REMARK    7  A    between atoms: C11_36  and  C13_38 
REMARK    8  A    between atoms: C13_38  and  N12_39 
REMARK    9  A    between atoms: C14_47  and  O2_48 
ROOT
HETATM    1  C1  UNL     1      -1.906  -2.603   1.602  1.00  0.00     0.070 C 
HETATM    2  C2  UNL     1      -2.669  -1.399   1.136  1.00  0.00     0.038 A 
HETATM    3  N1  UNL     1      -4.019  -1.414   1.057  1.00  0.00    -0.343 N 
ATOM      4  H1  UNL     1      -4.517  -2.264   1.321  1.00  0.00     0.167 HD
HETATM    5  C3  UNL     1      -4.736  -0.342   0.640  1.00  0.00     0.137 A 
HETATM    6  N2  UNL     1      -6.088  -0.407   0.582  1.00  0.00    -0.176 N 
ATOM      7  H2  UNL     1      -6.563  -1.269   0.851  1.00  0.00     0.186 HD
HETATM    8  C4  UNL     1      -6.812   0.652   0.174  1.00  0.00     0.679 A 
HETATM    9  N4  UNL     1      -6.170   1.763  -0.170  1.00  0.00    -0.176 N 
ATOM     10  H4  UNL     1      -6.723   2.563  -0.478  1.00  0.00     0.186 HD
HETATM   11  C5  UNL     1      -4.791   1.895  -0.133  1.00  0.00     0.131 A 
HETATM   12  N5  UNL     1      -4.265   2.946  -0.448  1.00  0.00    -0.384 N 
ATOM     13  H51 UNL     1      -3.250   3.043  -0.421  1.00  0.00     0.157 HD
ATOM     14  H52 UNL     1      -4.809   3.751  -0.757  1.00  0.00     0.157 HD
HETATM   15  C6  UNL     1      -4.046   0.793   0.290  1.00  0.00     0.083 A 
HETATM   16  C7  UNL     1      -2.665   0.822   0.365  1.00  0.00     0.096 A 
HETATM   17  C8  UNL     1      -1.937  -0.283   0.795  1.00  0.00     0.112 A 
ENDROOT
BRANCH  17  18
HETATM   18  N8  UNL     1      -0.523  -0.308   0.895  1.00  0.00    -0.212 N 
HETATM   19  N9  UNL     1       0.210   0.110   1.940  1.00  0.00    -0.232 N 
HETATM   20  N10 UNL     1       1.482  -0.049   1.723  1.00  0.00    -0.267 N 
ATOM     21  H9  UNL     1      -0.182   0.503   2.796  1.00  0.00     0.209 HD
HETATM   22  C9  UNL     1       1.637  -0.589   0.503  1.00  0.00     0.177 A 
ATOM     23  H10 UNL     1       2.233   0.195   2.368  1.00  0.00     0.190 HD
HETATM   24  C14 UNL     1       0.368  -0.747  -0.007  1.00  0.00     0.210 A 
BRANCH  22  25
HETATM   25  N11 UNL     1       2.870  -0.926  -0.139  1.00  0.00    -0.308 N 
HETATM   26  C10 UNL     1       4.115  -0.726   0.486  1.00  0.00     0.228 C 
HETATM   27  O1  UNL     1       4.138  -0.244   1.645  1.00  0.00    -0.273 OA
ATOM     28  H11 UNL     1       2.846  -1.323  -1.078  1.00  0.00     0.170 HD
BRANCH  26  29
HETATM   29  C11 UNL     1       5.411  -1.055  -0.153  1.00  0.00     0.095 C 
HETATM   30  C12 UNL     1       5.381  -2.513  -0.547  1.00  0.00     0.021 C 
BRANCH  29  31
HETATM   31  C13 UNL     1       5.676  -0.154  -1.341  1.00  0.00     0.182 C 
BRANCH  31  32
HETATM   32  N12 UNL     1       5.719   1.246  -0.925  1.00  0.00    -0.200 N 
HETATM   33  N13 UNL     1       6.766   1.954  -0.524  1.00  0.00     0.014 NA
HETATM   34  N14 UNL     1       6.371   3.189  -0.235  1.00  0.00    -0.209 N 
HETATM   35  N15 UNL     1       5.077   3.272  -0.450  1.00  0.00    -0.214 N 
ATOM     36  H14 UNL     1       6.970   3.945   0.097  1.00  0.00     0.207 HD
HETATM   37  N16 UNL     1       4.697   2.091  -0.866  1.00  0.00    -0.212 N 
ATOM     38  H15 UNL     1       4.487   4.093  -0.319  1.00  0.00     0.211 HD
ATOM     39  H16 UNL     1       3.737   1.850  -1.114  1.00  0.00     0.211 HD
ENDBRANCH  31  32
ENDBRANCH  29  31
ENDBRANCH  26  29
ENDBRANCH  22  25
BRANCH  24  40
HETATM   40  O2  UNL     1       0.104  -1.281  -1.259  1.00  0.00    -0.342 OA
ATOM     41  H2  UNL     1       0.735  -1.592  -1.898  1.00  0.00     0.219 HD
ENDBRANCH  24  40
ENDBRANCH  17  18
BRANCH  16  42
HETATM   42  N6  UNL     1      -1.920   1.955  -0.013  1.00  0.00    -0.304 N 
ATOM     43  H6  UNL     1      -1.825   2.750   0.618  1.00  0.00     0.186 HD
BRANCH  42  44
HETATM   44  N7  UNL     1      -1.307   1.967  -1.284  1.00  0.00    -0.345 N 
ATOM     45  H72 UNL     1      -1.411   1.164  -1.904  1.00  0.00     0.176 HD
ATOM     46  H71 UNL     1      -0.767   2.788  -1.558  1.00  0.00     0.176 HD
ENDBRANCH  42  44
ENDBRANCH  16  42
BRANCH   8  47
HETATM   47  N3  UNL     1      -8.110   0.582   0.121  1.00  0.00    -0.234 N 
ATOM     48  H32 UNL     1      -8.603  -0.271   0.385  1.00  0.00     0.174 HD
ATOM     49  H31 UNL     1      -8.659   1.384  -0.188  1.00  0.00     0.174 HD
ENDBRANCH   8  47
TORSDOF 9
