REMARK  9 active torsions:
REMARK  status: ('A' for Active; 'I' for Inactive)
REMARK    1  A    between atoms: C2_3  and  S1_4 
REMARK    2  A    between atoms: S1_4  and  C3_5 
REMARK    3  A    between atoms: C3_5  and  C4_6 
REMARK    4  A    between atoms: C4_6  and  N2_7 
REMARK    5  A    between atoms: N2_7  and  C5_10 
REMARK    6  A    between atoms: C5_10  and  C6_11 
REMARK    7  A    between atoms: C6_11  and  C7_12 
REMARK    8  A    between atoms: C7_12  and  N3_13 
REMARK       I    between atoms: N3_13  and  C8_15 
REMARK    9  A    between atoms: C8_15  and  C9_17 
ROOT
HETATM    1  N1  UNL     1       7.217  -0.568   2.479  1.00  0.00    -0.197 NA
HETATM    2  C1  UNL     1       7.751  -0.259   1.490  1.00  0.00     0.069 C 
HETATM    3  C2  UNL     1       8.420   0.115   0.256  1.00  0.00     0.197 C 
ENDROOT
BRANCH   3   4
HETATM    4  S1  UNL     1       7.521  -0.321  -1.226  1.00  0.00    -0.153 SA
BRANCH   4   5
HETATM    5  C3  UNL     1       6.019   0.601  -1.508  1.00  0.00     0.102 C 
BRANCH   5   6
HETATM    6  C4  UNL     1       4.918   0.369  -0.522  1.00  0.00     0.242 C 
BRANCH   6   7
HETATM    7  N2  UNL     1       4.487  -0.991  -0.427  1.00  0.00    -0.074 N 
ATOM      8  H22 UNL     1       4.324  -1.392  -1.351  1.00  0.00     0.277 HD
ATOM      9  H21 UNL     1       5.246  -1.598  -0.118  1.00  0.00     0.277 HD
BRANCH   7  10
HETATM   10  C5  UNL     1       3.339  -1.134   0.408  1.00  0.00     0.234 C 
BRANCH  10  11
HETATM   11  C6  UNL     1       2.063  -0.585  -0.167  1.00  0.00     0.047 C 
BRANCH  11  12
HETATM   12  C7  UNL     1       0.955  -0.816   0.850  1.00  0.00     0.124 C 
BRANCH  12  13
HETATM   13  N3  UNL     1      -0.306  -0.412   0.295  1.00  0.00    -0.360 N 
HETATM   14  C8  UNL     1      -1.510  -0.455   1.018  1.00  0.00     0.226 C 
HETATM   15  O1  UNL     1      -1.499  -0.836   2.225  1.00  0.00    -0.273 OA
ATOM     16  H3  UNL     1      -0.329  -0.078  -0.669  1.00  0.00     0.162 HD
BRANCH  14  17
HETATM   17  C9  UNL     1      -2.811  -0.079   0.430  1.00  0.00     0.042 C 
HETATM   18  C10 UNL     1      -3.553  -1.338  -0.045  1.00  0.00     0.024 C 
HETATM   19  C11 UNL     1      -4.849  -0.924  -0.661  1.00  0.00    -0.013 C 
HETATM   20  C12 UNL     1      -5.713  -0.170   0.306  1.00  0.00     0.009 C 
HETATM   21  C16 UNL     1      -4.619  -0.055  -1.888  1.00  0.00     0.009 C 
HETATM   22  C13 UNL     1      -4.983   1.067   0.773  1.00  0.00    -0.013 C 
HETATM   23  C14 UNL     1      -4.605   1.952  -0.386  1.00  0.00     0.009 C 
HETATM   24  C18 UNL     1      -3.689   0.589   1.432  1.00  0.00     0.024 C 
HETATM   25  C15 UNL     1      -3.893   1.180  -1.447  1.00  0.00    -0.013 C 
HETATM   26  C17 UNL     1      -2.562   0.739  -0.825  1.00  0.00     0.024 C 
ENDBRANCH  14  17
ENDBRANCH  12  13
ENDBRANCH  11  12
ENDBRANCH  10  11
ENDBRANCH   7  10
ENDBRANCH   6   7
ENDBRANCH   5   6
ENDBRANCH   4   5
ENDBRANCH   3   4
TORSDOF 9
