REMARK  11 active torsions:
REMARK  status: ('A' for Active; 'I' for Inactive)
REMARK    1  A    between atoms: C2_2  and  C3_3 
REMARK    2  A    between atoms: C3_3  and  C4_4 
REMARK    3  A    between atoms: C4_4  and  N1_5 
REMARK    4  A    between atoms: N1_5  and  C5_8 
REMARK    5  A    between atoms: C5_8  and  C6_9 
REMARK    6  A    between atoms: C6_9  and  C7_10 
REMARK    7  A    between atoms: C7_10  and  N2_11 
REMARK    8  A    between atoms: N2_11  and  C8_13 
REMARK    9  A    between atoms: C8_13  and  N3_15 
REMARK   10  A    between atoms: N3_15  and  N4_17 
REMARK   11  A    between atoms: C9_19  and  C11_22 
ROOT
HETATM    1  N4  UNL     1      -2.511  -0.673  -0.560  1.00  0.00    -0.292 N 
ATOM      2  H4  UNL     1      -2.905  -0.246  -1.398  1.00  0.00     0.187 HD
HETATM    3  C9  UNL     1      -3.296  -0.841   0.447  1.00  0.00     0.110 C 
HETATM    4  C10 UNL     1      -2.772  -1.438   1.638  1.00  0.00     0.115 C 
HETATM    5  N5  UNL     1      -2.340  -1.906   2.597  1.00  0.00    -0.190 NA
ENDROOT
BRANCH   3   6
HETATM    6  C11 UNL     1      -4.697  -0.447   0.409  1.00  0.00     0.052 C 
HETATM    7  C12 UNL     1      -5.080   0.594   1.464  1.00  0.00     0.016 C 
HETATM    8  C13 UNL     1      -6.131   1.373   0.679  1.00  0.00    -0.013 C 
HETATM    9  C14 UNL     1      -7.185   0.415   0.249  1.00  0.00     0.005 C 
HETATM   10  C17 UNL     1      -5.340   1.559  -0.629  1.00  0.00     0.010 C 
HETATM   11  C15 UNL     1      -6.666  -0.302  -1.008  1.00  0.00     0.006 C 
HETATM   12  C16 UNL     1      -5.184   0.051  -0.905  1.00  0.00    -0.003 C 
ENDBRANCH   3   6
BRANCH   1  13
HETATM   13  N3  UNL     1      -1.168  -1.029  -0.592  1.00  0.00    -0.276 N 
ATOM     14  H3  UNL     1      -0.909  -2.015  -0.552  1.00  0.00     0.189 HD
BRANCH  13  15
HETATM   15  C8  UNL     1      -0.150  -0.040  -0.679  1.00  0.00     0.186 C 
HETATM   16  S1  UNL     1      -0.515   1.544  -0.743  1.00  0.00    -0.040 SA
BRANCH  15  17
HETATM   17  N2  UNL     1       1.235  -0.409  -0.715  1.00  0.00    -0.366 N 
ATOM     18  H2  UNL     1       1.943   0.323  -0.775  1.00  0.00     0.161 HD
BRANCH  17  19
HETATM   19  C7  UNL     1       1.654  -1.789  -0.668  1.00  0.00     0.123 C 
BRANCH  19  20
HETATM   20  C6  UNL     1       3.154  -1.877  -0.714  1.00  0.00     0.047 C 
BRANCH  20  21
HETATM   21  C5  UNL     1       3.822  -1.174   0.443  1.00  0.00     0.234 C 
BRANCH  21  22
HETATM   22  N1  UNL     1       5.248  -1.308   0.345  1.00  0.00    -0.075 N 
ATOM     23  H12 UNL     1       5.511  -2.292   0.295  1.00  0.00     0.277 HD
ATOM     24  H11 UNL     1       5.691  -1.054   1.228  1.00  0.00     0.277 HD
BRANCH  22  25
HETATM   25  C4  UNL     1       5.834  -0.580  -0.734  1.00  0.00     0.232 C 
BRANCH  25  26
HETATM   26  C3  UNL     1       5.751   0.931  -0.519  1.00  0.00     0.027 C 
BRANCH  26  27
HETATM   27  C2  UNL     1       6.484   1.314   0.756  1.00  0.00    -0.003 C 
HETATM   28  C1  UNL     1       6.386   2.805   0.937  1.00  0.00     0.005 C 
ENDBRANCH  26  27
ENDBRANCH  25  26
ENDBRANCH  22  25
ENDBRANCH  21  22
ENDBRANCH  20  21
ENDBRANCH  19  20
ENDBRANCH  17  19
ENDBRANCH  15  17
ENDBRANCH  13  15
ENDBRANCH   1  13
TORSDOF 11
