REMARK  8 active torsions:
REMARK  status: ('A' for Active; 'I' for Inactive)
REMARK    1  A    between atoms: C2_2  and  C3_3 
REMARK    2  A    between atoms: C3_3  and  C4_4 
REMARK    3  A    between atoms: C4_4  and  C5_5 
REMARK    4  A    between atoms: C5_5  and  C6_6 
REMARK    5  A    between atoms: C6_6  and  C7_7 
REMARK    6  A    between atoms: C7_7  and  C8_8 
REMARK    7  A    between atoms: C8_8  and  C9_9 
REMARK    8  A    between atoms: C9_9  and  C10_10 
ROOT
HETATM    1  C8  UNL     1      -0.658  -0.183   0.859  1.00  0.00     0.058 C 
HETATM    2  N1  UNL     1      -1.216   0.550   1.918  1.00  0.00    -0.409 N 
ATOM      3  H1  UNL     1      -1.479   0.041   2.762  1.00  0.00     0.154 HD
HETATM    4  C12 UNL     1      -1.434   1.919   1.895  1.00  0.00     0.142 C 
HETATM    5  C13 UNL     1      -2.920   2.318   1.818  1.00  0.00     0.254 C 
HETATM    6  N2  UNL     1      -3.217   2.663   0.416  1.00  0.00    -0.042 N 
ATOM      7  H21 UNL     1      -2.605   3.395   0.054  1.00  0.00     0.279 HD
ATOM      8  H22 UNL     1      -4.103   3.159   0.314  1.00  0.00     0.279 HD
HETATM    9  C14 UNL     1      -3.163   1.449  -0.377  1.00  0.00     0.421 C 
HETATM   10  C15 UNL     1      -4.164   1.390  -1.487  1.00  0.00     0.096 C 
HETATM   11  C16 UNL     1      -4.192  -0.039  -1.987  1.00  0.00     0.276 C 
HETATM   12  N3  UNL     1      -2.889  -0.593  -2.183  1.00  0.00     0.092 N 
HETATM   13  C17 UNL     1      -2.076   0.256  -2.994  1.00  0.00     0.302 C 
HETATM   14  C18 UNL     1      -1.641   1.486  -2.246  1.00  0.00     0.306 C 
HETATM   15  N4  UNL     1      -1.801   1.284  -0.804  1.00  0.00     0.130 N 
HETATM   16  C19 UNL     1      -1.245   0.007  -0.506  1.00  0.00     0.281 C 
HETATM   17  C20 UNL     1      -2.253  -1.009  -0.943  1.00  0.00     0.310 C 
ENDROOT
BRANCH   1  18
HETATM   18  C7  UNL     1       0.868  -0.173   0.826  1.00  0.00     0.033 C 
BRANCH  18  19
HETATM   19  C6  UNL     1       1.516   1.109   0.481  1.00  0.00     0.002 C 
BRANCH  19  20
HETATM   20  C5  UNL     1       3.018   0.947   0.486  1.00  0.00     0.000 C 
BRANCH  20  21
HETATM   21  C4  UNL     1       3.529  -0.068  -0.499  1.00  0.00     0.000 C 
BRANCH  21  22
HETATM   22  C3  UNL     1       5.048  -0.075  -0.363  1.00  0.00    -0.000 C 
BRANCH  22  23
HETATM   23  C2  UNL     1       5.667  -1.076  -1.323  1.00  0.00    -0.005 C 
HETATM   24  C1  UNL     1       7.175  -0.998  -1.101  1.00  0.00     0.005 C 
ENDBRANCH  22  23
ENDBRANCH  21  22
ENDBRANCH  20  21
ENDBRANCH  19  20
ENDBRANCH  18  19
ENDBRANCH   1  18
BRANCH   1  25
HETATM   25  C9  UNL     1      -0.982  -1.643   1.221  1.00  0.00     0.032 C 
BRANCH  25  26
HETATM   26  C10 UNL     1      -0.401  -2.079   2.542  1.00  0.00    -0.002 C 
HETATM   27  C11 UNL     1      -0.888  -3.544   2.700  1.00  0.00     0.005 C 
ENDBRANCH  25  26
ENDBRANCH   1  25
TORSDOF 8
