REMARK  11 active torsions:
REMARK  status: ('A' for Active; 'I' for Inactive)
REMARK    1  A    between atoms: C3_3  and  C12_13 
REMARK    2  A    between atoms: C4_4  and  C5_5 
REMARK    3  A    between atoms: C6_6  and  C7_7 
REMARK    4  A    between atoms: C7_7  and  C8_8 
REMARK    5  A    between atoms: C8_8  and  C9_9 
REMARK    6  A    between atoms: C9_9  and  N1_10 
REMARK    7  A    between atoms: C12_13  and  O1_14 
REMARK    8  A    between atoms: C12_13  and  C13_16 
REMARK    9  A    between atoms: C12_13  and  C14_23 
REMARK   10  A    between atoms: C13_16  and  O2_17 
REMARK   11  A    between atoms: N2_19  and  O3_21 
ROOT
HETATM    1  C1  UNL     1      -0.508   2.563  -2.309  1.00  0.00     0.017 C 
HETATM    2  C2  UNL     1      -0.696   1.958  -1.269  1.00  0.00    -0.079 C 
HETATM    3  C3  UNL     1      -0.920   1.232  -0.043  1.00  0.00     0.037 C 
HETATM    4  C4  UNL     1       0.089   0.573   0.481  1.00  0.00     0.019 C 
ENDROOT
BRANCH   3   5
HETATM    5  C12 UNL     1      -2.265   1.254   0.586  1.00  0.00     0.162 C 
BRANCH   5   6
HETATM    6  O1  UNL     1      -2.503   2.617   0.897  1.00  0.00    -0.375 OA
ATOM      7  H1  UNL     1      -3.363   2.631   1.299  1.00  0.00     0.211 HD
ENDBRANCH   5   6
BRANCH   5   8
HETATM    8  C13 UNL     1      -2.390   0.471   1.806  1.00  0.00     0.176 C 
HETATM    9  N2  UNL     1      -2.667   1.044   2.946  1.00  0.00    -0.248 N 
ATOM     10  H2  UNL     1      -2.792   2.056   2.948  1.00  0.00     0.196 HD
BRANCH   8  11
HETATM   11  O2  UNL     1      -2.234  -0.912   1.882  1.00  0.00    -0.346 OA
ATOM     12  H2  UNL     1      -2.316  -1.423   2.679  1.00  0.00     0.219 HD
ENDBRANCH   8  11
BRANCH   9  13
HETATM   13  O3  UNL     1      -2.801   0.392   4.127  1.00  0.00    -0.288 OA
ATOM     14  H3  UNL     1      -3.003   0.809   4.956  1.00  0.00     0.244 HD
ENDBRANCH   9  13
ENDBRANCH   5   8
BRANCH   5  15
HETATM   15  C14 UNL     1      -3.345   0.926  -0.462  1.00  0.00     0.034 C 
HETATM   16  C15 UNL     1      -3.180  -0.393  -1.081  1.00  0.00     0.008 C 
HETATM   17  C16 UNL     1      -4.337  -1.311  -1.099  1.00  0.00     0.001 C 
HETATM   18  C17 UNL     1      -5.422  -1.036  -0.118  1.00  0.00     0.000 C 
HETATM   19  C18 UNL     1      -5.811   0.431  -0.344  1.00  0.00     0.001 C 
HETATM   20  C19 UNL     1      -4.653   1.245   0.158  1.00  0.00     0.008 C 
ENDBRANCH   5  15
ENDBRANCH   3   5
BRANCH   4  21
HETATM   21  C5  UNL     1       1.382   0.583  -0.166  1.00  0.00    -0.003 C 
HETATM   22  C6  UNL     1       2.390  -0.074   0.355  1.00  0.00    -0.027 C 
BRANCH  22  23
HETATM   23  C7  UNL     1       3.708  -0.050  -0.324  1.00  0.00     0.029 C 
BRANCH  23  24
HETATM   24  C8  UNL     1       4.160  -1.454  -0.721  1.00  0.00     0.034 C 
BRANCH  24  25
HETATM   25  C9  UNL     1       5.513  -1.284  -1.403  1.00  0.00     0.272 C 
BRANCH  25  26
HETATM   26  N1  UNL     1       6.403  -0.680  -0.453  1.00  0.00     0.091 N 
HETATM   27  C10 UNL     1       7.773  -0.407  -0.860  1.00  0.00     0.302 A 
HETATM   28  C11 UNL     1       7.428  -1.426   0.200  1.00  0.00     0.302 A 
ENDBRANCH  25  26
ENDBRANCH  24  25
ENDBRANCH  23  24
ENDBRANCH  22  23
ENDBRANCH   4  21
TORSDOF 11
