REMARK  12 active torsions:
REMARK  status: ('A' for Active; 'I' for Inactive)
REMARK    1  A    between atoms: O1_2  and  N1_3 
REMARK    2  A    between atoms: C2_5  and  C3_6 
REMARK    3  A    between atoms: C3_6  and  N2_7 
REMARK    4  A    between atoms: N2_7  and  C4_9 
REMARK    5  A    between atoms: C5_12  and  S1_13 
REMARK    6  A    between atoms: S1_13  and  C6_14 
REMARK    7  A    between atoms: C8_20  and  N6_21 
REMARK    8  A    between atoms: C9_26  and  N8_27 
REMARK    9  A    between atoms: C11_34  and  N10_35 
REMARK   10  A    between atoms: N10_35  and  N11_37 
REMARK   11  A    between atoms: N12_40  and  N13_41 
REMARK   12  A    between atoms: N14_43  and  N15_45 
ROOT
HETATM    1  C4  UNL     1      -2.057  -0.723   0.635  1.00  0.00     0.718 A 
HETATM    2  N3  UNL     1      -1.191  -0.369  -0.331  1.00  0.00    -0.167 N 
ATOM      3  H3  UNL     1      -1.145   0.602  -0.641  1.00  0.00     0.186 HD
HETATM    4  C5  UNL     1      -0.385  -1.291  -0.890  1.00  0.00     0.182 A 
HETATM    5  N9  UNL     1      -0.410  -2.601  -0.510  1.00  0.00    -0.166 N 
ATOM      6  H9  UNL     1       0.205  -3.291  -0.941  1.00  0.00     0.186 HD
HETATM    7  C11 UNL     1      -1.276  -2.942   0.452  1.00  0.00     0.736 A 
HETATM    8  N12 UNL     1      -2.073  -2.009   0.999  1.00  0.00     0.107 N 
ENDROOT
BRANCH   4   9
HETATM    9  S1  UNL     1       0.733  -0.773  -2.153  1.00  0.00    -0.009 SA
BRANCH   9  10
HETATM   10  C6  UNL     1       2.323  -0.262  -1.467  1.00  0.00     0.197 A 
HETATM   11  N4  UNL     1       3.386  -1.055  -1.253  1.00  0.00    -0.314 N 
HETATM   12  C7  UNL     1       4.398  -0.334  -0.731  1.00  0.00     0.161 A 
ATOM     13  H4  UNL     1       3.422  -2.054  -1.455  1.00  0.00     0.170 HD
HETATM   14  N5  UNL     1       5.649  -0.613  -0.338  1.00  0.00    -0.174 N 
HETATM   15  C10 UNL     1       3.905   0.974  -0.629  1.00  0.00     0.167 A 
HETATM   16  C8  UNL     1       6.433   0.355   0.154  1.00  0.00     0.679 A 
ATOM     17  H5  UNL     1       6.005  -1.566  -0.414  1.00  0.00     0.186 HD
HETATM   18  N7  UNL     1       5.964   1.625   0.256  1.00  0.00    -0.174 N 
HETATM   19  C9  UNL     1       4.727   1.953  -0.122  1.00  0.00     0.152 A 
ATOM     20  H7  UNL     1       6.575   2.350   0.633  1.00  0.00     0.186 HD
HETATM   21  O2  UNL     1       2.674   0.937  -1.083  1.00  0.00    -0.280 OA
BRANCH  16  22
HETATM   22  N6  UNL     1       7.639   0.122   0.541  1.00  0.00    -0.234 N 
ATOM     23  H62 UNL     1       7.991  -0.832   0.464  1.00  0.00     0.174 HD
ATOM     24  H61 UNL     1       8.236   0.859   0.916  1.00  0.00     0.174 HD
ENDBRANCH  16  22
BRANCH  19  25
HETATM   25  N8  UNL     1       4.317   3.158  -0.012  1.00  0.00    -0.383 N 
ATOM     26  H82 UNL     1       4.927   3.884   0.364  1.00  0.00     0.157 HD
ATOM     27  H81 UNL     1       3.371   3.409  -0.301  1.00  0.00     0.157 HD
ENDBRANCH  19  25
ENDBRANCH   9  10
ENDBRANCH   4   9
BRANCH   1  28
HETATM   28  N2  UNL     1      -2.840   0.150   1.184  1.00  0.00    -0.219 N 
ATOM     29  H2  UNL     1      -3.490  -0.141   1.915  1.00  0.00     0.178 HD
BRANCH  28  30
HETATM   30  C3  UNL     1      -2.800   1.529   0.770  1.00  0.00     0.184 C 
BRANCH  30  31
HETATM   31  C2  UNL     1      -3.590   1.769  -0.456  1.00  0.00     0.107 C 
HETATM   32  N1  UNL     1      -4.085   2.950  -0.655  1.00  0.00    -0.281 N 
ATOM     33  H1  UNL     1      -4.632   3.124  -1.498  1.00  0.00     0.193 HD
BRANCH  32  34
HETATM   34  O1  UNL     1      -3.891   3.974   0.242  1.00  0.00    -0.286 OA
HETATM   35  C1  UNL     1      -4.835   4.988   0.493  1.00  0.00     0.237 C 
ENDBRANCH  32  34
ENDBRANCH  30  31
ENDBRANCH  28  30
ENDBRANCH   1  28
BRANCH   7  36
HETATM   36  N10 UNL     1      -1.332  -4.181   0.844  1.00  0.00    -0.136 N 
ATOM     37  H10 UNL     1      -1.994  -4.434   1.577  1.00  0.00     0.205 HD
BRANCH  36  38
HETATM   38  N11 UNL     1      -0.526  -5.169   0.303  1.00  0.00    -0.331 N 
ATOM     39 2H11 UNL     1       0.130  -4.898  -0.429  1.00  0.00     0.177 HD
ATOM     40 1H11 UNL     1      -0.570  -6.141   0.610  1.00  0.00     0.177 HD
ENDBRANCH  36  38
ENDBRANCH   7  36
BRANCH   8  41
HETATM   41  N13 UNL     1      -2.953  -2.421   1.995  1.00  0.00    -0.192 N 
HETATM   42  N14 UNL     1      -4.105  -2.804   1.628  1.00  0.00    -0.233 N 
ATOM     43  H14 UNL     1      -4.757  -3.108   2.352  1.00  0.00     0.209 HD
ATOM     44  H13 UNL     1      -2.683  -2.415   2.979  1.00  0.00     0.211 HD
BRANCH  42  45
HETATM   45  N15 UNL     1      -4.539  -2.839   0.319  1.00  0.00    -0.330 N 
ATOM     46 2H15 UNL     1      -3.874  -2.532  -0.391  1.00  0.00     0.178 HD
ATOM     47 1H15 UNL     1      -5.465  -3.147   0.024  1.00  0.00     0.178 HD
ENDBRANCH  42  45
ENDBRANCH   8  41
TORSDOF 12
