REMARK  10 active torsions:
REMARK  status: ('A' for Active; 'I' for Inactive)
REMARK    1  A    between atoms: C2_3  and  C10_28 
REMARK    2  A    between atoms: N2_4  and  N3_6 
REMARK       I    between atoms: N3_6  and  C3_8 
REMARK    3  A    between atoms: C3_8  and  O2_10 
REMARK    4  A    between atoms: O2_10  and  C4_11 
REMARK    5  A    between atoms: C4_11  and  C5_12 
REMARK    6  A    between atoms: N4_17  and  C8_18 
REMARK    7  A    between atoms: C9_24  and  N7_25 
REMARK    8  A    between atoms: N9_31  and  N10_32 
REMARK    9  A    between atoms: C12_35  and  N11_36 
REMARK   10  A    between atoms: C13_41  and  N13_42 
ROOT
HETATM    1  N1  UNL     1       0.890   3.559   0.619  1.00  0.00    -0.190 NA
HETATM    2  C1  UNL     1       1.361   2.545   0.239  1.00  0.00     0.120 C 
HETATM    3  C2  UNL     1       1.899   1.315  -0.235  1.00  0.00     0.146 C 
HETATM    4  N2  UNL     1       1.181   0.534  -0.971  1.00  0.00    -0.285 N 
ATOM      5  H2  UNL     1       1.590  -0.342  -1.297  1.00  0.00     0.188 HD
ENDROOT
BRANCH   3   6
HETATM    6  C10 UNL     1       3.253   0.905   0.089  1.00  0.00     0.090 A 
HETATM    7  C11 UNL     1       3.752  -0.315  -0.395  1.00  0.00     0.172 A 
HETATM    8  N8  UNL     1       2.931  -1.134  -1.195  1.00  0.00    -0.079 NA
HETATM    9  N9  UNL     1       5.000  -0.711  -0.106  1.00  0.00    -0.078 N 
HETATM   10  C12 UNL     1       5.823   0.019   0.645  1.00  0.00     0.699 A 
HETATM   11  N12 UNL     1       5.395   1.193   1.133  1.00  0.00    -0.175 N 
HETATM   12  C13 UNL     1       4.138   1.623   0.859  1.00  0.00     0.131 A 
ATOM     13  H12 UNL     1       6.015   1.762   1.710  1.00  0.00     0.186 HD
BRANCH   9  14
HETATM   14  N10 UNL     1       5.445  -1.947  -0.622  1.00  0.00    -0.323 N 
ATOM     15 2H10 UNL     1       4.815  -2.506  -1.197  1.00  0.00     0.178 HD
ATOM     16 1H10 UNL     1       6.394  -2.248  -0.402  1.00  0.00     0.178 HD
ENDBRANCH   9  14
BRANCH  10  17
HETATM   17  N11 UNL     1       7.019  -0.391   0.904  1.00  0.00    -0.233 N 
ATOM     18 2H11 UNL     1       7.344  -1.284   0.533  1.00  0.00     0.174 HD
ATOM     19 1H11 UNL     1       7.649   0.168   1.479  1.00  0.00     0.174 HD
ENDBRANCH  10  17
BRANCH  12  20
HETATM   20  N13 UNL     1       3.771   2.758   1.350  1.00  0.00    -0.384 N 
ATOM     21 2H13 UNL     1       2.826   3.081   1.144  1.00  0.00     0.157 HD
ATOM     22 1H13 UNL     1       4.427   3.290   1.921  1.00  0.00     0.157 HD
ENDBRANCH  12  20
ENDBRANCH   3   6
BRANCH   4  23
HETATM   23  N3  UNL     1      -0.131   0.836  -1.340  1.00  0.00    -0.244 N 
HETATM   24  C3  UNL     1      -1.101  -0.216  -1.379  1.00  0.00     0.379 C 
HETATM   25  O1  UNL     1      -0.765  -1.383  -1.085  1.00  0.00    -0.237 OA
ATOM     26  H3  UNL     1      -0.395   1.792  -1.578  1.00  0.00     0.192 HD
BRANCH  24  27
HETATM   27  O2  UNL     1      -2.419   0.003  -1.733  1.00  0.00    -0.297 OA
BRANCH  27  28
HETATM   28  C4  UNL     1      -3.433  -0.942  -1.800  1.00  0.00     0.240 C 
BRANCH  28  29
HETATM   29  C5  UNL     1      -3.753  -1.646  -0.558  1.00  0.00     0.070 A 
HETATM   30  C6  UNL     1      -3.292  -2.906  -0.221  1.00  0.00     0.175 A 
HETATM   31  O3  UNL     1      -3.800  -3.175   0.957  1.00  0.00    -0.271 OA
HETATM   32  C7  UNL     1      -4.536  -2.179   1.370  1.00  0.00     0.378 A 
HETATM   33  O4  UNL     1      -5.155  -2.142   2.464  1.00  0.00    -0.237 OA
HETATM   34  N4  UNL     1      -4.543  -1.193   0.459  1.00  0.00    -0.238 N 
BRANCH  34  35
HETATM   35  C8  UNL     1      -5.188   0.055   0.469  1.00  0.00     0.184 A 
HETATM   36  N5  UNL     1      -6.085   0.578  -0.383  1.00  0.00    -0.221 N 
HETATM   37  O5  UNL     1      -6.422   1.760  -0.001  1.00  0.00    -0.153 OA
ATOM     38  H5  UNL     1      -6.447   0.107  -1.212  1.00  0.00     0.198 HD
HETATM   39  N6  UNL     1      -5.792   2.056   1.073  1.00  0.00    -0.222 N 
HETATM   40  C9  UNL     1      -4.991   1.040   1.441  1.00  0.00     0.168 A 
ATOM     41  H6  UNL     1      -5.884   2.937   1.578  1.00  0.00     0.198 HD
BRANCH  40  42
HETATM   42  N7  UNL     1      -4.229   1.007   2.459  1.00  0.00    -0.381 N 
ATOM     43  H72 UNL     1      -3.622   0.237   2.738  1.00  0.00     0.157 HD
ATOM     44  H71 UNL     1      -4.085   1.726   3.168  1.00  0.00     0.157 HD
ENDBRANCH  40  42
ENDBRANCH  34  35
ENDBRANCH  28  29
ENDBRANCH  27  28
ENDBRANCH  24  27
ENDBRANCH   4  23
TORSDOF 10
