REMARK  6 active torsions:
REMARK  status: ('A' for Active; 'I' for Inactive)
REMARK    1  A    between atoms: C2_7  and  N3_8 
REMARK    2  A    between atoms: N3_8  and  C3_10 
REMARK    3  A    between atoms: C4_15  and  S1_16 
REMARK    4  A    between atoms: S1_16  and  N8_19 
REMARK    5  A    between atoms: C8_27  and  C9_28 
REMARK       I    between atoms: C9_28  and  N11_30 
REMARK    6  A    between atoms: N11_30  and  N12_32 
ROOT
HETATM    1  N1  UNL     1       2.077   2.699   0.295  1.00  0.00    -0.383 N 
ATOM      2  H11 UNL     1       3.081   2.571   0.423  1.00  0.00     0.157 HD
ATOM      3  H12 UNL     1       1.660   3.617   0.452  1.00  0.00     0.157 HD
HETATM    4  C1  UNL     1       1.296   1.738  -0.065  1.00  0.00     0.133 A 
HETATM    5  N2  UNL     1      -0.049   1.910  -0.237  1.00  0.00    -0.325 N 
ATOM      6  H2  UNL     1      -0.462   2.829  -0.078  1.00  0.00     0.169 HD
HETATM    7  C2  UNL     1      -0.840   0.883  -0.614  1.00  0.00     0.146 A 
HETATM    8  C4  UNL     1      -0.297  -0.366  -0.834  1.00  0.00     0.195 A 
HETATM    9  N10 UNL     1       1.038  -0.485  -0.649  1.00  0.00    -0.335 N 
ATOM     10  H10 UNL     1       1.453  -1.403  -0.807  1.00  0.00     0.167 HD
HETATM   11  C8  UNL     1       1.857   0.502  -0.277  1.00  0.00     0.147 A 
ENDROOT
BRANCH  11  12
HETATM   12  C9  UNL     1       3.311   0.274  -0.100  1.00  0.00     0.290 C 
HETATM   13  O3  UNL     1       4.017   1.223   0.244  1.00  0.00    -0.264 OA
HETATM   14  N11 UNL     1       3.831  -1.012  -0.331  1.00  0.00    -0.256 N 
ATOM     15  H11 UNL     1       3.181  -1.745  -0.614  1.00  0.00     0.191 HD
BRANCH  14  16
HETATM   16  N12 UNL     1       5.163  -1.348  -0.200  1.00  0.00    -0.242 N 
HETATM   17  C10 UNL     1       6.227  -0.637   0.143  1.00  0.00     0.224 A 
HETATM   18  N13 UNL     1       7.353  -1.411   0.134  1.00  0.00    -0.293 N 
HETATM   19  N14 UNL     1       6.972  -2.620  -0.222  1.00  0.00    -0.293 N 
ATOM     20  H13 UNL     1       8.302  -1.111   0.359  1.00  0.00     0.187 HD
HETATM   21  C11 UNL     1       5.652  -2.604  -0.429  1.00  0.00     0.224 A 
ATOM     22  H14 UNL     1       7.581  -3.432  -0.323  1.00  0.00     0.187 HD
ENDBRANCH  14  16
ENDBRANCH  11  12
BRANCH   8  23
HETATM   23  S1  UNL     1      -1.202  -1.762  -1.348  1.00  0.00     0.288 S 
HETATM   24  O1  UNL     1      -2.208  -1.499  -2.403  1.00  0.00    -0.198 OA
HETATM   25  O2  UNL     1      -0.189  -2.721  -1.997  1.00  0.00    -0.198 OA
BRANCH  23  26
HETATM   26  N8  UNL     1      -1.909  -2.606  -0.006  1.00  0.00    -0.240 N 
HETATM   27  C5  UNL     1      -1.339  -3.592   0.682  1.00  0.00     0.127 A 
HETATM   28  C6  UNL     1      -2.195  -4.034   1.690  1.00  0.00     0.107 A 
HETATM   29  N9  UNL     1      -3.284  -3.283   1.580  1.00  0.00    -0.360 N 
HETATM   30  C7  UNL     1      -3.119  -2.411   0.549  1.00  0.00     0.199 A 
ATOM     31  H9  UNL     1      -4.111  -3.349   2.173  1.00  0.00     0.166 HD
ENDBRANCH  23  26
ENDBRANCH   8  23
BRANCH   7  32
HETATM   32  N3  UNL     1      -2.218   1.094  -0.764  1.00  0.00    -0.340 N 
ATOM     33  H3  UNL     1      -2.807   0.309  -1.041  1.00  0.00     0.164 HD
BRANCH  32  34
HETATM   34  C3  UNL     1      -2.829   2.366  -0.544  1.00  0.00     0.308 C 
HETATM   35  N4  UNL     1      -2.751   2.852   0.817  1.00  0.00    -0.085 NA
HETATM   36  N5  UNL     1      -3.729   3.874   0.791  1.00  0.00    -0.018 NA
HETATM   37  N6  UNL     1      -4.685   3.494  -0.126  1.00  0.00    -0.018 NA
HETATM   38  N7  UNL     1      -4.288   2.310  -0.722  1.00  0.00    -0.085 NA
ENDBRANCH  32  34
ENDBRANCH   7  32
TORSDOF 6
