REMARK  2 active torsions:
REMARK  status: ('A' for Active; 'I' for Inactive)
REMARK    1  A    between atoms: C1_4  and  C2_5 
REMARK    2  A    between atoms: C4_7  and  C5_8 
ROOT
HETATM    1  C2  UNL     1       0.573   0.110   0.593  1.00  0.00     0.037 A 
HETATM    2  C3  UNL     1      -0.156  -1.158   0.672  1.00  0.00     0.025 A 
HETATM    3  C4  UNL     1      -0.238  -0.413  -0.606  1.00  0.00     0.084 A 
ENDROOT
BRANCH   1   4
HETATM    4  C1  UNL     1       2.019   0.205   0.400  1.00  0.00     0.058 C 
HETATM    5  N1  UNL     1       2.520  -0.119  -0.728  1.00  0.00    -0.411 N 
ATOM      6  H12 UNL     1       1.905  -0.439  -1.476  1.00  0.00     0.155 HD
ATOM      7  H11 UNL     1       3.529  -0.053  -0.863  1.00  0.00     0.155 HD
ENDBRANCH   1   4
BRANCH   3   8
HETATM    8  C5  UNL     1      -1.447   0.369  -0.957  1.00  0.00     0.236 C 
HETATM    9  N2  UNL     1      -2.284   0.894   0.077  1.00  0.00    -0.062 NA
HETATM   10  O1  UNL     1      -1.733   0.567  -2.161  1.00  0.00    -0.276 OA
ENDBRANCH   3   8
TORSDOF 2
