REMARK  2 active torsions:
REMARK  status: ('A' for Active; 'I' for Inactive)
REMARK    1  A    between atoms: C1_2  and  C2_4 
REMARK    2  A    between atoms: C4_6  and  N2_7 
ROOT
HETATM    1  C2  UNL     1       0.383  -0.720  -0.605  1.00  0.00     0.079 C 
HETATM    2  C3  UNL     1      -0.471   0.538  -0.818  1.00  0.00     0.046 C 
HETATM    3  C4  UNL     1      -1.482  -0.217   0.058  1.00  0.00     0.185 C 
HETATM    4  C5  UNL     1      -0.278  -0.738   0.782  1.00  0.00     0.046 C 
ENDROOT
BRANCH   3   5
HETATM    5  N2  UNL     1      -2.355   0.659   0.781  1.00  0.00    -0.075 N 
ATOM      6  H23 UNL     1      -1.822   1.330   1.334  1.00  0.00     0.274 HD
ATOM      7  H22 UNL     1      -2.830   1.304   0.149  1.00  0.00     0.274 HD
ATOM      8  H21 UNL     1      -3.026   0.158   1.363  1.00  0.00     0.274 HD
ENDBRANCH   3   5
BRANCH   1   9
HETATM    9  C1  UNL     1       1.820  -0.496  -0.602  1.00  0.00     0.235 C 
HETATM   10  N1  UNL     1       2.411   0.372   0.355  1.00  0.00    -0.062 NA
HETATM   11  O1  UNL     1       2.546  -1.073  -1.451  1.00  0.00    -0.277 OA
ENDBRANCH   1   9
TORSDOF 2
