REMARK  4 active torsions:
REMARK  status: ('A' for Active; 'I' for Inactive)
REMARK    1  A    between atoms: N1_1  and  C1_4 
REMARK    2  A    between atoms: C3_8  and  C4_9 
REMARK    3  A    between atoms: N4_11  and  N5_13 
REMARK    4  A    between atoms: C5_15  and  N6_16 
ROOT
HETATM    1  C1  UNL     1      -3.568  -1.015   0.218  1.00  0.00     0.678 A 
HETATM    2  N2  UNL     1      -2.574  -1.869  -0.082  1.00  0.00    -0.201 N 
ATOM      3  H2  UNL     1      -2.758  -2.867  -0.186  1.00  0.00     0.183 HD
HETATM    4  C2  UNL     1      -1.332  -1.378  -0.242  1.00  0.00     0.126 A 
HETATM    5  C3  UNL     1      -1.018  -0.040  -0.114  1.00  0.00     0.091 A 
HETATM    6  C6  UNL     1      -2.085   0.804   0.198  1.00  0.00     0.274 A 
HETATM    7  O3  UNL     1      -1.857   2.049   0.329  1.00  0.00    -0.267 OA
HETATM    8  N7  UNL     1      -3.321   0.299   0.355  1.00  0.00    -0.156 N 
ATOM      9  H7  UNL     1      -4.090   0.929   0.584  1.00  0.00     0.187 HD
ENDROOT
BRANCH   5  10
HETATM   10  C4  UNL     1       0.330   0.470  -0.290  1.00  0.00     0.148 C 
HETATM   11  N3  UNL     1       0.600   1.851  -0.149  1.00  0.00    -0.080 NA
HETATM   12  N4  UNL     1       1.293  -0.325  -0.577  1.00  0.00    -0.286 N 
ATOM     13  H4  UNL     1       1.069  -1.315  -0.673  1.00  0.00     0.188 HD
BRANCH  12  14
HETATM   14  N5  UNL     1       2.603   0.046  -0.766  1.00  0.00    -0.289 N 
HETATM   15  C5  UNL     1       3.428   0.124   0.212  1.00  0.00     0.274 C 
ATOM     16  H5  UNL     1       2.927   0.265  -1.708  1.00  0.00     0.188 HD
BRANCH  15  17
HETATM   17  N6  UNL     1       4.766   0.507  -0.008  1.00  0.00    -0.110 N 
HETATM   18  O1  UNL     1       5.196   1.741   0.371  1.00  0.00    -0.531 OA
HETATM   19  O2  UNL     1       5.609  -0.354  -0.593  1.00  0.00    -0.531 OA
ENDBRANCH  15  17
ENDBRANCH  12  14
ENDBRANCH   5  10
BRANCH   1  20
HETATM   20  N1  UNL     1      -4.766  -1.452   0.378  1.00  0.00    -0.234 N 
ATOM     21  H12 UNL     1      -4.953  -2.449   0.274  1.00  0.00     0.174 HD
ATOM     22  H11 UNL     1      -5.520  -0.804   0.606  1.00  0.00     0.174 HD
ENDBRANCH   1  20
TORSDOF 4
