REMARK  3 active torsions:
REMARK  status: ('A' for Active; 'I' for Inactive)
REMARK    1  A    between atoms: N4_13  and  C4_14 
REMARK    2  A    between atoms: C4_14  and  C5_15 
REMARK    3  A    between atoms: C5_15  and  O3_16 
ROOT
HETATM    1  N1  UNL     1       2.015   1.161  -1.704  1.00  0.00    -0.234 N 
ATOM      2  H11 UNL     1       1.100   1.027  -2.134  1.00  0.00     0.174 HD
ATOM      3  H12 UNL     1       2.678   1.835  -2.086  1.00  0.00     0.174 HD
HETATM    4  C1  UNL     1       2.206   0.427  -0.671  1.00  0.00     0.686 A 
HETATM    5  N2  UNL     1       3.438   0.608  -0.092  1.00  0.00    -0.141 N 
ATOM      6  H2  UNL     1       4.092   1.285  -0.485  1.00  0.00     0.189 HD
HETATM    7  C2  UNL     1       3.778  -0.098   0.978  1.00  0.00     0.342 A 
HETATM    8  O1  UNL     1       4.904   0.035   1.546  1.00  0.00    -0.246 OA
HETATM    9  N3  UNL     1       2.899  -0.984   1.474  1.00  0.00    -0.259 N 
ATOM     10  H3  UNL     1       3.157  -1.530   2.296  1.00  0.00     0.175 HD
HETATM   11  C3  UNL     1       1.680  -1.173   0.914  1.00  0.00     0.344 A 
HETATM   12  O2  UNL     1       0.961  -2.030   1.477  1.00  0.00    -0.246 OA
HETATM   13  N4  UNL     1       1.333  -0.460  -0.168  1.00  0.00    -0.130 N 
ENDROOT
BRANCH  13  14
HETATM   14  C4  UNL     1       0.065  -0.619  -0.776  1.00  0.00     0.192 C 
BRANCH  14  15
HETATM   15  C5  UNL     1      -1.058   0.220  -0.294  1.00  0.00     0.100 C 
HETATM   16  C6  UNL     1      -2.327  -0.041  -1.157  1.00  0.00     0.068 C 
HETATM   17  C7  UNL     1      -3.472   0.299  -0.219  1.00  0.00     0.235 C 
HETATM   18  N5  UNL     1      -2.916   0.415   1.119  1.00  0.00    -0.072 N 
HETATM   19  C8  UNL     1      -1.610  -0.246   1.017  1.00  0.00     0.271 C 
ATOM     20  H52 UNL     1      -2.877   1.370   1.476  1.00  0.00     0.277 HD
ATOM     21  H51 UNL     1      -3.517   0.047   1.857  1.00  0.00     0.277 HD
BRANCH  15  22
HETATM   22  O3  UNL     1      -0.894   1.580  -0.382  1.00  0.00    -0.386 OA
ATOM     23  H3  UNL     1      -1.614   2.118  -0.073  1.00  0.00     0.210 HD
ENDBRANCH  15  22
ENDBRANCH  14  15
ENDBRANCH  13  14
TORSDOF 3
