REMARK  4 active torsions:
REMARK  status: ('A' for Active; 'I' for Inactive)
REMARK    1  A    between atoms: N1_1  and  S1_4 
REMARK    2  A    between atoms: S1_4  and  N2_7 
REMARK    3  A    between atoms: N2_7  and  C1_9 
REMARK    4  A    between atoms: C4_18  and  O5_19 
ROOT
HETATM    1  C1  UNL     1      -0.260   0.180   0.321  1.00  0.00     0.171 A 
HETATM    2  N3  UNL     1      -0.731  -1.023   0.680  1.00  0.00    -0.301 N 
ATOM      3  H3  UNL     1      -0.137  -1.656   1.216  1.00  0.00     0.171 HD
HETATM    4  C2  UNL     1      -1.978  -1.409   0.344  1.00  0.00     0.315 A 
HETATM    5  O3  UNL     1      -2.404  -2.538   0.687  1.00  0.00    -0.262 OA
HETATM    6  C3  UNL     1      -2.790  -0.560  -0.380  1.00  0.00     0.315 A 
HETATM    7  O4  UNL     1      -3.968  -0.877  -0.719  1.00  0.00    -0.262 OA
HETATM    8  N4  UNL     1      -2.331   0.657  -0.750  1.00  0.00    -0.296 N 
ATOM      9  H4  UNL     1      -2.923   1.292  -1.285  1.00  0.00     0.171 HD
HETATM   10  C4  UNL     1      -1.083   1.019  -0.403  1.00  0.00     0.189 A 
ENDROOT
BRANCH   1  11
HETATM   11  N2  UNL     1       1.057   0.578   0.680  1.00  0.00    -0.249 N 
ATOM     12  H2  UNL     1       1.185   1.064   1.568  1.00  0.00     0.182 HD
BRANCH  11  13
HETATM   13  S1  UNL     1       2.440   0.292  -0.285  1.00  0.00     0.318 S 
HETATM   14  O1  UNL     1       2.086   0.285  -1.743  1.00  0.00    -0.183 OA
HETATM   15  O2  UNL     1       3.457   1.387  -0.030  1.00  0.00    -0.183 OA
BRANCH  13  16
HETATM   16  N1  UNL     1       3.190  -1.213   0.077  1.00  0.00    -0.311 N 
ATOM     17  H12 UNL     1       3.357  -1.966  -0.591  1.00  0.00     0.170 HD
ATOM     18  H11 UNL     1       3.431  -1.208   1.068  1.00  0.00     0.170 HD
ENDBRANCH  13  16
ENDBRANCH  11  13
ENDBRANCH   1  11
BRANCH  10  19
HETATM   19  O5  UNL     1      -0.658   2.296  -0.814  1.00  0.00    -0.343 OA
ATOM     20  H5  UNL     1      -1.224   2.873  -1.312  1.00  0.00     0.219 HD
ENDBRANCH  10  19
TORSDOF 4
