REMARK  6 active torsions:
REMARK  status: ('A' for Active; 'I' for Inactive)
REMARK    1  A    between atoms: N1_1  and  N2_4 
REMARK    2  A    between atoms: N2_4  and  N3_5 
REMARK    3  A    between atoms: N3_5  and  C1_7 
REMARK    4  A    between atoms: C2_8  and  C3_9 
REMARK    5  A    between atoms: C3_9  and  O1_10 
REMARK    6  A    between atoms: C7_18  and  O5_19 
ROOT
HETATM    1  C1  UNL     1       1.332  -0.714   0.023  1.00  0.00     0.182 C 
HETATM    2  C2  UNL     1       0.900   0.522   0.780  1.00  0.00     0.179 C 
HETATM    3  O2  UNL     1      -0.477   0.578   0.678  1.00  0.00    -0.321 OA
HETATM    4  C4  UNL     1      -0.892  -0.286  -0.294  1.00  0.00     0.312 C 
HETATM    5  O3  UNL     1      -1.436  -1.416   0.297  1.00  0.00    -0.329 OA
HETATM    6  C5  UNL     1      -2.714  -1.000   0.662  1.00  0.00     0.200 C 
HETATM    7  C6  UNL     1      -2.971   0.254  -0.154  1.00  0.00     0.200 C 
HETATM    8  O4  UNL     1      -1.924   0.182  -1.085  1.00  0.00    -0.329 OA
HETATM    9  C7  UNL     1       0.336  -0.658  -1.116  1.00  0.00     0.239 C 
ENDROOT
BRANCH   1  10
HETATM   10  N3  UNL     1       2.693  -0.664  -0.410  1.00  0.00    -0.242 N 
ATOM     11  H3  UNL     1       2.954  -0.220  -1.291  1.00  0.00     0.197 HD
BRANCH  10  12
HETATM   12  N2  UNL     1       3.548  -1.185   0.333  1.00  0.00    -0.248 NA
BRANCH  12  13
HETATM   13  N1  UNL     1       4.355  -1.766   1.058  1.00  0.00    -0.261 N 
ATOM     14  H12 UNL     1       3.680  -2.474   0.769  1.00  0.00     0.193 HD
ATOM     15  H11 UNL     1       5.054  -2.192   1.666  1.00  0.00     0.193 HD
ENDBRANCH  12  13
ENDBRANCH  10  12
ENDBRANCH   1  10
BRANCH   2  16
HETATM   16  C3  UNL     1       1.457   1.786   0.122  1.00  0.00     0.198 C 
BRANCH  16  17
HETATM   17  O1  UNL     1       0.941   2.897   0.814  1.00  0.00    -0.398 OA
ATOM     18  H1  UNL     1       1.287   3.682   0.405  1.00  0.00     0.209 HD
ENDBRANCH  16  17
ENDBRANCH   2  16
BRANCH   9  19
HETATM   19  O5  UNL     1       0.167  -1.894  -1.727  1.00  0.00    -0.385 OA
ATOM     20  H5  UNL     1      -0.458  -1.859  -2.442  1.00  0.00     0.210 HD
ENDBRANCH   9  19
TORSDOF 6
