REMARK  4 active torsions:
REMARK  status: ('A' for Active; 'I' for Inactive)
REMARK    1  A    between atoms: C2_3  and  C3_4 
REMARK    2  A    between atoms: C5_6  and  O1_7 
REMARK    3  A    between atoms: C6_9  and  O2_10 
REMARK    4  A    between atoms: C7_12  and  N2_13 
ROOT
HETATM    1  N1  UNL     1      -1.645   3.957  -0.638  1.00  0.00    -0.197 NA
HETATM    2  C1  UNL     1      -1.842   2.971  -0.063  1.00  0.00     0.061 C 
HETATM    3  C2  UNL     1      -2.092   1.733   0.669  1.00  0.00     0.156 C 
ENDROOT
BRANCH   3   4
HETATM    4  C3  UNL     1      -1.786   0.565  -0.242  1.00  0.00     0.140 C 
HETATM    5  C4  UNL     1      -2.014  -0.758   0.427  1.00  0.00     0.067 C 
HETATM    6  C5  UNL     1      -1.221  -1.795  -0.343  1.00  0.00     0.153 C 
HETATM    7  C6  UNL     1       0.275  -1.497  -0.184  1.00  0.00     0.197 C 
HETATM    8  C7  UNL     1       0.411  -0.035   0.136  1.00  0.00     0.274 C 
HETATM    9  O3  UNL     1      -0.458   0.666  -0.694  1.00  0.00    -0.356 OA
BRANCH   6  10
HETATM   10  O1  UNL     1      -1.476  -3.070   0.114  1.00  0.00    -0.393 OA
ATOM     11  H1  UNL     1      -0.979  -3.720  -0.369  1.00  0.00     0.210 HD
ENDBRANCH   6  10
BRANCH   7  12
HETATM   12  O2  UNL     1       0.804  -2.325   0.794  1.00  0.00    -0.389 OA
ATOM     13  H2  UNL     1       1.731  -2.140   0.892  1.00  0.00     0.210 HD
ENDBRANCH   7  12
BRANCH   8  14
HETATM   14  N2  UNL     1       1.748   0.455  -0.046  1.00  0.00    -0.272 N 
HETATM   15  C8  UNL     1       2.640  -0.026  -0.922  1.00  0.00     0.114 A 
HETATM   16  C9  UNL     1       3.782   0.730  -0.761  1.00  0.00     0.037 A 
HETATM   17  C10 UNL     1       3.561   1.671   0.223  1.00  0.00     0.108 A 
HETATM   18  N3  UNL     1       2.295   1.448   0.620  1.00  0.00    -0.308 N 
ATOM     19  H3  UNL     1       1.819   1.982   1.347  1.00  0.00     0.186 HD
ENDBRANCH   8  14
ENDBRANCH   3   4
TORSDOF 4
