REMARK  4 active torsions:
REMARK  status: ('A' for Active; 'I' for Inactive)
REMARK    1  A    between atoms: C2_2  and  C3_3 
REMARK    2  A    between atoms: C5_6  and  O2_7 
REMARK    3  A    between atoms: C9_13  and  C10_14 
REMARK    4  A    between atoms: C10_14  and  O4_15 
ROOT
HETATM    1  C3  UNL     1      -1.465  -0.151  -0.243  1.00  0.00     0.182 C 
HETATM    2  C4  UNL     1      -1.944  -1.326  -1.080  1.00  0.00     0.084 C 
HETATM    3  O1  UNL     1      -1.458   1.010  -1.001  1.00  0.00    -0.320 OA
HETATM    4  C5  UNL     1      -0.532   1.934  -0.604  1.00  0.00     0.289 C 
HETATM    5  C6  UNL     1       0.907   1.517  -0.859  1.00  0.00     0.179 C 
HETATM    6  C7  UNL     1       0.792   0.238  -1.703  1.00  0.00     0.071 C 
HETATM    7  C8  UNL     1       0.763  -0.745  -0.521  1.00  0.00     0.159 C 
HETATM    8  O3  UNL     1      -0.278  -0.475   0.331  1.00  0.00    -0.344 OA
HETATM    9  C9  UNL     1       2.006  -0.160   0.154  1.00  0.00     0.174 C 
HETATM   10  O5  UNL     1       1.557   1.151   0.309  1.00  0.00    -0.371 OA
ENDROOT
BRANCH   1  11
HETATM   11  C2  UNL     1      -2.475   0.041   0.833  1.00  0.00     0.030 C 
HETATM   12  C1  UNL     1      -2.299  -0.332   2.088  1.00  0.00     0.012 C 
ENDBRANCH   1  11
BRANCH   4  13
HETATM   13  O2  UNL     1      -0.722   2.341   0.714  1.00  0.00    -0.368 OA
ATOM     14  H2  UNL     1      -0.079   2.983   0.990  1.00  0.00     0.212 HD
ENDBRANCH   4  13
BRANCH   9  15
HETATM   15  C10 UNL     1       2.306  -0.841   1.446  1.00  0.00     0.198 C 
BRANCH  15  16
HETATM   16  O4  UNL     1       2.746  -2.139   1.128  1.00  0.00    -0.398 OA
ATOM     17  H4  UNL     1       2.937  -2.573   1.951  1.00  0.00     0.209 HD
ENDBRANCH  15  16
ENDBRANCH   9  15
TORSDOF 4
