REMARK  3 active torsions:
REMARK  status: ('A' for Active; 'I' for Inactive)
REMARK    1  A    between atoms: O1_2  and  C2_3 
REMARK    2  A    between atoms: C8_12  and  O5_13 
REMARK    3  A    between atoms: C9_15  and  O6_16 
ROOT
HETATM    1  C2  UNL     1      -1.827  -0.448  -0.998  1.00  0.00     0.293 C 
HETATM    2  O2  UNL     1      -0.550  -0.463  -1.608  1.00  0.00    -0.326 OA
HETATM    3  C3  UNL     1       0.319   0.079  -0.707  1.00  0.00     0.298 C 
HETATM    4  O3  UNL     1       1.620   0.206  -1.108  1.00  0.00    -0.323 OA
HETATM    5  C4  UNL     1       2.354   0.229   0.099  1.00  0.00     0.160 C 
HETATM    6  C5  UNL     1       2.586   1.688   0.422  1.00  0.00     0.078 C 
HETATM    7  C6  UNL     1       3.623  -0.543  -0.070  1.00  0.00     0.078 C 
HETATM    8  O4  UNL     1       1.579  -0.407   1.055  1.00  0.00    -0.343 OA
HETATM    9  C7  UNL     1       0.498  -0.960   0.415  1.00  0.00     0.211 C 
HETATM   10  C8  UNL     1      -0.778  -0.967   1.183  1.00  0.00     0.185 C 
HETATM   11  C9  UNL     1      -1.871  -1.397   0.193  1.00  0.00     0.204 C 
ENDROOT
BRANCH   1  12
HETATM   12  O1  UNL     1      -2.008   0.831  -0.495  1.00  0.00    -0.363 OA
HETATM   13  C1  UNL     1      -3.069   1.495  -1.077  1.00  0.00     0.204 C 
ENDBRANCH   1  12
BRANCH  11  14
HETATM   14  O6  UNL     1      -3.127  -1.316   0.741  1.00  0.00    -0.388 OA
ATOM     15  H6  UNL     1      -3.154  -1.908   1.484  1.00  0.00     0.210 HD
ENDBRANCH  11  14
BRANCH  10  16
HETATM   16  O5  UNL     1      -1.020   0.295   1.684  1.00  0.00    -0.390 OA
ATOM     17  H5  UNL     1      -1.834   0.291   2.174  1.00  0.00     0.210 HD
ENDBRANCH  10  16
TORSDOF 3
