REMARK  3 active torsions:
REMARK  status: ('A' for Active; 'I' for Inactive)
REMARK    1  A    between atoms: O1_2  and  C2_3 
REMARK    2  A    between atoms: C8_12  and  O4_13 
REMARK    3  A    between atoms: C9_15  and  O5_17 
ROOT
HETATM    1  C2  UNL     1      -1.099  -0.343   0.414  1.00  0.00     0.161 C 
HETATM    2  C3  UNL     1      -0.114  -1.264   1.078  1.00  0.00     0.057 C 
HETATM    3  C4  UNL     1       1.082  -1.440   0.153  1.00  0.00     0.129 C 
HETATM    4  C5  UNL     1       1.558  -2.820   0.240  1.00  0.00     0.067 C 
HETATM    5  N1  UNL     1       1.914  -3.898   0.320  1.00  0.00    -0.197 NA
HETATM    6  C6  UNL     1       2.173  -0.448   0.452  1.00  0.00     0.197 C 
HETATM    7  O2  UNL     1       1.558   0.572   1.216  1.00  0.00    -0.346 OA
HETATM    8  C7  UNL     1       0.819   1.274   0.298  1.00  0.00     0.300 C 
HETATM    9  O3  UNL     1       1.219   0.953  -0.965  1.00  0.00    -0.326 OA
HETATM   10  C8  UNL     1       2.494   0.407  -0.784  1.00  0.00     0.290 C 
HETATM   11  C9  UNL     1      -0.646   1.069   0.566  1.00  0.00     0.130 C 
HETATM   12  C10 UNL     1      -1.458   2.015  -0.317  1.00  0.00     0.054 C 
ENDROOT
BRANCH   1  13
HETATM   13  O1  UNL     1      -2.382  -0.474   0.817  1.00  0.00    -0.387 OA
HETATM   14  C1  UNL     1      -3.294  -0.858  -0.136  1.00  0.00     0.202 C 
ENDBRANCH   1  13
BRANCH  10  15
HETATM   15  O4  UNL     1       2.933  -0.332  -1.838  1.00  0.00    -0.368 OA
ATOM     16  H4  UNL     1       3.131   0.197  -2.602  1.00  0.00     0.212 HD
ENDBRANCH  10  15
BRANCH  11  17
HETATM   17  O5  UNL     1      -0.872   1.474   1.887  1.00  0.00    -0.383 OA
ATOM     18  H5  UNL     1      -0.583   2.374   1.984  1.00  0.00     0.210 HD
ENDBRANCH  11  17
TORSDOF 3
