REMARK  5 active torsions:
REMARK  status: ('A' for Active; 'I' for Inactive)
REMARK    1  A    between atoms: O1_2  and  C2_3 
REMARK    2  A    between atoms: C4_6  and  O3_8 
REMARK    3  A    between atoms: C6_10  and  O4_11 
REMARK    4  A    between atoms: C7_13  and  N1_14 
REMARK    5  A    between atoms: N1_14  and  N2_16 
ROOT
HETATM    1  C2  UNL     1       1.680   0.072  -0.776  1.00  0.00     0.285 C 
HETATM    2  C3  UNL     1       0.876  -1.168  -1.168  1.00  0.00     0.232 C 
HETATM    3  O2  UNL     1      -0.022  -1.405  -0.141  1.00  0.00    -0.348 OA
HETATM    4  C4  UNL     1      -1.267  -0.888  -0.342  1.00  0.00     0.188 C 
HETATM    5  C5  UNL     1      -2.252  -1.752   0.460  1.00  0.00     0.082 C 
HETATM    6  C6  UNL     1      -1.402   0.569   0.046  1.00  0.00     0.229 C 
HETATM    7  C7  UNL     1      -0.023   1.120   0.359  1.00  0.00     0.274 C 
HETATM    8  O5  UNL     1       0.761   1.127  -0.769  1.00  0.00    -0.331 OA
ENDROOT
BRANCH   7   9
HETATM    9  N1  UNL     1      -0.089   2.458   0.880  1.00  0.00    -0.291 N 
ATOM     10  H1  UNL     1       0.781   2.941   1.105  1.00  0.00     0.184 HD
BRANCH   9  11
HETATM   11  N2  UNL     1      -1.163   3.045   1.066  1.00  0.00    -0.251 N 
HETATM   12  N3  UNL     1      -2.167   3.695   0.789  1.00  0.00    -0.331 N 
ATOM     13  H32 UNL     1      -1.990   3.816  -0.208  1.00  0.00     0.178 HD
ATOM     14  H31 UNL     1      -3.052   4.179   0.942  1.00  0.00     0.178 HD
ATOM     15  H2  UNL     1      -1.295   2.898   2.067  1.00  0.00     0.207 HD
ENDBRANCH   9  11
ENDBRANCH   7   9
BRANCH   6  16
HETATM   16  O4  UNL     1      -2.248   0.699   1.140  1.00  0.00    -0.386 OA
ATOM     17  H4  UNL     1      -2.333   1.613   1.383  1.00  0.00     0.210 HD
ENDBRANCH   6  16
BRANCH   4  18
HETATM   18  O3  UNL     1      -1.698  -1.007  -1.684  1.00  0.00    -0.363 OA
ATOM     19  H3  UNL     1      -2.566  -0.647  -1.824  1.00  0.00     0.213 HD
ENDBRANCH   4  18
BRANCH   1  20
HETATM   20  O1  UNL     1       2.226  -0.043   0.483  1.00  0.00    -0.364 OA
HETATM   21  C1  UNL     1       3.598   0.060   0.512  1.00  0.00     0.204 C 
ENDBRANCH   1  20
TORSDOF 5
