REMARK  17 active torsions:
REMARK  status: ('A' for Active; 'I' for Inactive)
REMARK    1  A    between atoms: N1_1  and  C1_4 
REMARK    2  A    between atoms: C2_7  and  O1_8 
REMARK    3  A    between atoms: C3_10  and  N3_11 
REMARK    4  A    between atoms: N3_11  and  C4_13 
REMARK    5  A    between atoms: C4_13  and  C5_14 
REMARK    6  A    between atoms: C4_13  and  C11_34 
REMARK    7  A    between atoms: N6_19  and  C6_20 
REMARK    8  A    between atoms: C8_22  and  O2_23 
REMARK    9  A    between atoms: C8_22  and  O3_25 
REMARK   10  A    between atoms: C9_27  and  C10_28 
REMARK   11  A    between atoms: C10_28  and  O4_29 
REMARK   12  A    between atoms: C11_34  and  N8_35 
REMARK   13  A    between atoms: C11_34  and  C12_38 
REMARK   14  A    between atoms: C11_34  and  C13_41 
REMARK   15  A    between atoms: N8_35  and  O6_36 
REMARK   16  A    between atoms: C13_41  and  O9_42 
REMARK   17  A    between atoms: N9_44  and  O10_46 
ROOT
HETATM    1  C4  UNL     1      -1.883  -0.379   0.461  1.00  0.00     0.199 C 
ENDROOT
BRANCH   1   2
HETATM    2  N3  UNL     1      -2.976   0.574   0.482  1.00  0.00    -0.367 N 
ATOM      3  H3  UNL     1      -3.652   0.479   1.240  1.00  0.00     0.161 HD
BRANCH   2   4
HETATM    4  C3  UNL     1      -3.199   1.612  -0.433  1.00  0.00     0.150 A 
HETATM    5  C2  UNL     1      -3.813   1.326  -1.648  1.00  0.00     0.187 A 
HETATM    6  N2  UNL     1      -4.061   2.310  -2.530  1.00  0.00    -0.168 N 
HETATM    7  C1  UNL     1      -3.732   3.589  -2.279  1.00  0.00     0.680 A 
ATOM      8  H2  UNL     1      -4.512   2.079  -3.415  1.00  0.00     0.186 HD
HETATM    9  N10 UNL     1      -3.137   3.900  -1.112  1.00  0.00    -0.154 N 
HETATM   10  C14 UNL     1      -2.871   2.921  -0.192  1.00  0.00     0.290 A 
ATOM     11  H10 UNL     1      -2.884   4.868  -0.912  1.00  0.00     0.187 HD
HETATM   12  O11 UNL     1      -2.321   3.321   0.857  1.00  0.00    -0.265 OA
BRANCH   5  13
HETATM   13  O1  UNL     1      -4.198   0.044  -2.018  1.00  0.00    -0.344 OA
ATOM     14  H1  UNL     1      -4.023  -0.651  -1.395  1.00  0.00     0.219 HD
ENDBRANCH   5  13
BRANCH   7  15
HETATM   15  N1  UNL     1      -3.969   4.533  -3.123  1.00  0.00    -0.234 N 
ATOM     16  H12 UNL     1      -4.420   4.297  -4.007  1.00  0.00     0.174 HD
ATOM     17  H11 UNL     1      -3.719   5.503  -2.933  1.00  0.00     0.174 HD
ENDBRANCH   7  15
ENDBRANCH   2   4
ENDBRANCH   1   2
BRANCH   1  18
HETATM   18  C5  UNL     1      -0.543   0.172   0.611  1.00  0.00     0.139 A 
HETATM   19  N4  UNL     1      -0.027   0.906   1.598  1.00  0.00    -0.270 N 
HETATM   20  N5  UNL     1       1.219   1.218   1.319  1.00  0.00    -0.222 N 
ATOM     21  H4  UNL     1      -0.525   1.184   2.444  1.00  0.00     0.190 HD
HETATM   22  N6  UNL     1       1.557   0.702   0.146  1.00  0.00    -0.188 N 
ATOM     23  H5  UNL     1       1.833   1.773   1.915  1.00  0.00     0.210 HD
HETATM   24  N7  UNL     1       0.509   0.077  -0.280  1.00  0.00    -0.266 N 
ATOM     25  H7  UNL     1       0.464  -0.426  -1.166  1.00  0.00     0.190 HD
BRANCH  22  26
HETATM   26  C6  UNL     1       2.858   0.857  -0.458  1.00  0.00     0.270 C 
HETATM   27  C7  UNL     1       3.903   1.204   0.580  1.00  0.00     0.128 C 
HETATM   28  C8  UNL     1       5.164   0.563   0.068  1.00  0.00     0.192 C 
HETATM   29  C9  UNL     1       4.684  -0.172  -1.155  1.00  0.00     0.209 C 
HETATM   30  O5  UNL     1       3.323  -0.322  -0.986  1.00  0.00    -0.350 OA
BRANCH  28  31
HETATM   31  O2  UNL     1       5.759  -0.283   1.001  1.00  0.00    -0.363 OA
ATOM     32  H2  UNL     1       6.555  -0.688   0.678  1.00  0.00     0.213 HD
ENDBRANCH  28  31
BRANCH  28  33
HETATM   33  O3  UNL     1       6.129   1.510  -0.285  1.00  0.00    -0.363 OA
ATOM     34  H3  UNL     1       6.925   1.105  -0.608  1.00  0.00     0.213 HD
ENDBRANCH  28  33
BRANCH  29  35
HETATM   35  C10 UNL     1       5.405  -1.500  -1.223  1.00  0.00     0.201 C 
BRANCH  35  36
HETATM   36  O4  UNL     1       4.911  -2.228  -2.295  1.00  0.00    -0.398 OA
ATOM     37  H4  UNL     1       5.364  -3.062  -2.338  1.00  0.00     0.209 HD
ENDBRANCH  35  36
ENDBRANCH  29  35
ENDBRANCH  22  26
ENDBRANCH   1  18
BRANCH   1  38
HETATM   38  C11 UNL     1      -2.251  -1.484   1.427  1.00  0.00     0.236 C 
BRANCH  38  39
HETATM   39  N8  UNL     1      -3.509  -2.119   0.951  1.00  0.00    -0.070 NA
BRANCH  39  40
HETATM   40  O6  UNL     1      -3.305  -2.675  -0.245  1.00  0.00    -0.294 OA
ATOM     41  H6  UNL     1      -4.108  -3.081  -0.549  1.00  0.00     0.238 HD
ENDBRANCH  39  40
ENDBRANCH  38  39
BRANCH  38  42
HETATM   42  C12 UNL     1      -2.568  -0.944   2.772  1.00  0.00     0.212 C 
HETATM   43  O7  UNL     1      -3.764  -1.046   3.241  1.00  0.00    -0.646 OA
HETATM   44  O8  UNL     1      -1.695  -0.317   3.625  1.00  0.00    -0.646 OA
ENDBRANCH  38  42
BRANCH  38  45
HETATM   45  C13 UNL     1      -1.293  -2.583   1.529  1.00  0.00     0.176 C 
HETATM   46  N9  UNL     1      -0.262  -2.659   0.791  1.00  0.00    -0.249 N 
ATOM     47  H9  UNL     1      -0.120  -1.913   0.110  1.00  0.00     0.196 HD
BRANCH  45  48
HETATM   48  O9  UNL     1      -1.526  -3.575   2.467  1.00  0.00    -0.346 OA
ATOM     49  H9  UNL     1      -0.903  -4.289   2.533  1.00  0.00     0.219 HD
ENDBRANCH  45  48
BRANCH  46  50
HETATM   50  O10 UNL     1       0.668  -3.649   0.831  1.00  0.00    -0.288 OA
ATOM     51  H10 UNL     1       1.439  -3.706   0.279  1.00  0.00     0.244 HD
ENDBRANCH  46  50
ENDBRANCH  38  45
ENDBRANCH   1  38
TORSDOF 17
