REMARK  19 active torsions:
REMARK  status: ('A' for Active; 'I' for Inactive)
REMARK    1  A    between atoms: C2_3  and  O1_4 
REMARK    2  A    between atoms: C3_8  and  O2_9 
REMARK    3  A    between atoms: O2_9  and  C4_10 
REMARK    4  A    between atoms: C5_11  and  C6_12 
REMARK    5  A    between atoms: C6_12  and  O3_13 
REMARK    6  A    between atoms: C8_17  and  O5_18 
REMARK    7  A    between atoms: C8_17  and  C9_20 
REMARK    8  A    between atoms: C9_20  and  O6_21 
REMARK    9  A    between atoms: C9_20  and  C10_23 
REMARK   10  A    between atoms: C11_24  and  O7_25 
REMARK   11  A    between atoms: C12_27  and  O8_28 
REMARK   12  A    between atoms: C13_30  and  O9_31 
REMARK   13  A    between atoms: C14_33  and  O10_34 
REMARK   14  A    between atoms: C15_38  and  O11_39 
REMARK   15  A    between atoms: C16_41  and  C17_42 
REMARK   16  A    between atoms: C17_42  and  N4_43 
REMARK   17  A    between atoms: N4_43  and  O12_44 
REMARK   18  A    between atoms: N4_43  and  C18_46 
REMARK   19  A    between atoms: C18_46  and  O13_47 
ROOT
HETATM    1  C4  UNL     1      -0.249  -0.987  -0.609  1.00  0.00     0.161 C 
HETATM    2  C5  UNL     1      -0.502  -2.287  -0.642  1.00  0.00     0.067 C 
HETATM    3  C7  UNL     1      -1.912  -2.505  -0.264  1.00  0.00     0.219 C 
HETATM    4  O4  UNL     1      -2.458  -3.548   0.152  1.00  0.00    -0.287 OA
HETATM    5  C8  UNL     1      -2.567  -1.168  -0.494  1.00  0.00     0.227 C 
HETATM    6  N3  UNL     1      -1.450  -0.295  -0.216  1.00  0.00    -0.330 N 
ATOM      7  H3  UNL     1      -1.502   0.641   0.186  1.00  0.00     0.165 HD
ENDROOT
BRANCH   1   8
HETATM    8  O2  UNL     1       0.938  -0.337  -0.891  1.00  0.00    -0.274 OA
BRANCH   8   9
HETATM    9  C3  UNL     1       2.082  -0.487  -0.111  1.00  0.00     0.186 A 
HETATM   10  N2  UNL     1       2.179  -1.233   0.946  1.00  0.00    -0.313 N 
HETATM   11  C2  UNL     1       3.308  -1.336   1.653  1.00  0.00     0.167 A 
ATOM     12  H2  UNL     1       1.361  -1.762   1.249  1.00  0.00     0.170 HD
HETATM   13  C1  UNL     1       4.417  -0.635   1.263  1.00  0.00     0.111 A 
HETATM   14  N1  UNL     1       5.631  -0.728   1.994  1.00  0.00    -0.097 NA
HETATM   15  C16 UNL     1       4.399   0.206   0.116  1.00  0.00     0.043 A 
HETATM   16  C15 UNL     1       3.209   0.266  -0.559  1.00  0.00     0.131 A 
BRANCH  11  17
HETATM   17  O1  UNL     1       3.382  -2.155   2.799  1.00  0.00    -0.345 OA
ATOM     18  H1  UNL     1       2.612  -2.642   3.070  1.00  0.00     0.219 HD
ENDBRANCH  11  17
BRANCH  15  19
HETATM   19  C17 UNL     1       5.655   0.916  -0.159  1.00  0.00     0.108 C 
BRANCH  19  20
HETATM   20  N4  UNL     1       5.814   1.677  -1.321  1.00  0.00    -0.151 NA
BRANCH  20  21
HETATM   21  O12 UNL     1       5.972   0.869  -2.428  1.00  0.00    -0.307 OA
ATOM     22  H12 UNL     1       6.080   1.386  -3.218  1.00  0.00     0.237 HD
ENDBRANCH  20  21
BRANCH  20  23
HETATM   23  C18 UNL     1       6.992   2.516  -1.257  1.00  0.00     0.289 C 
BRANCH  23  24
HETATM   24  O13 UNL     1       6.932   3.407  -0.191  1.00  0.00    -0.384 OA
ATOM     25  H13 UNL     1       7.705   3.958  -0.149  1.00  0.00     0.211 HD
ENDBRANCH  23  24
ENDBRANCH  20  23
ENDBRANCH  19  20
ENDBRANCH  15  19
BRANCH  16  26
HETATM   26  O11 UNL     1       3.034   1.030  -1.659  1.00  0.00    -0.356 OA
ATOM     27  H11 UNL     1       3.784   1.531  -1.957  1.00  0.00     0.218 HD
ENDBRANCH  16  26
ENDBRANCH   8   9
ENDBRANCH   1   8
BRANCH   2  28
HETATM   28  C6  UNL     1       0.431  -3.393  -0.993  1.00  0.00     0.211 C 
BRANCH  28  29
HETATM   29  O3  UNL     1       0.584  -4.299   0.072  1.00  0.00    -0.396 OA
ATOM     30  H3  UNL     1       1.179  -5.005  -0.152  1.00  0.00     0.209 HD
ENDBRANCH  28  29
ENDBRANCH   2  28
BRANCH   5  31
HETATM   31  O5  UNL     1      -2.849  -1.099  -1.844  1.00  0.00    -0.362 OA
ATOM     32  H5  UNL     1      -3.262  -0.256  -1.989  1.00  0.00     0.213 HD
ENDBRANCH   5  31
BRANCH   5  33
HETATM   33  C9  UNL     1      -3.745  -0.947   0.388  1.00  0.00     0.191 C 
BRANCH  33  34
HETATM   34  O6  UNL     1      -3.348  -1.166   1.704  1.00  0.00    -0.390 OA
ATOM     35  H6  UNL     1      -4.100  -1.025   2.267  1.00  0.00     0.210 HD
ENDBRANCH  33  34
BRANCH  33  36
HETATM   36  C10 UNL     1      -4.203   0.471   0.254  1.00  0.00     0.082 C 
HETATM   37  C11 UNL     1      -5.414   0.701   1.156  1.00  0.00     0.158 C 
HETATM   38  C12 UNL     1      -5.881   2.056   0.663  1.00  0.00     0.178 C 
HETATM   39  C13 UNL     1      -5.532   2.102  -0.797  1.00  0.00     0.178 C 
HETATM   40  C14 UNL     1      -4.744   0.819  -1.091  1.00  0.00     0.158 C 
BRANCH  37  41
HETATM   41  O7  UNL     1      -5.030   0.787   2.492  1.00  0.00    -0.392 OA
ATOM     42  H7  UNL     1      -5.783   0.930   3.053  1.00  0.00     0.210 HD
ENDBRANCH  37  41
BRANCH  38  43
HETATM   43  O8  UNL     1      -7.272   2.195   0.758  1.00  0.00    -0.390 OA
ATOM     44  H8  UNL     1      -7.565   3.044   0.449  1.00  0.00     0.210 HD
ENDBRANCH  38  43
BRANCH  39  45
HETATM   45  O9  UNL     1      -4.734   3.214  -1.062  1.00  0.00    -0.390 OA
ATOM     46  H9  UNL     1      -4.513   3.243  -1.986  1.00  0.00     0.210 HD
ENDBRANCH  39  45
BRANCH  40  47
HETATM   47  O10 UNL     1      -5.578  -0.183  -1.545  1.00  0.00    -0.392 OA
ATOM     48  H10 UNL     1      -5.923   0.039  -2.402  1.00  0.00     0.210 HD
ENDBRANCH  40  47
ENDBRANCH  33  36
ENDBRANCH   5  33
TORSDOF 19
