REMARK  16 active torsions:
REMARK  status: ('A' for Active; 'I' for Inactive)
REMARK    1  A    between atoms: N1_1  and  C1_5 
REMARK    2  A    between atoms: C1_5  and  C2_6 
REMARK    3  A    between atoms: C3_10  and  C4_11 
REMARK    4  A    between atoms: C6_16  and  N4_17 
REMARK    5  A    between atoms: N4_17  and  C7_19 
REMARK    6  A    between atoms: C8_22  and  N7_23 
REMARK    7  A    between atoms: C9_30  and  C10_31 
REMARK    8  A    between atoms: C10_31  and  O3_32 
REMARK    9  A    between atoms: C10_31  and  C11_34 
REMARK   10  A    between atoms: C11_34  and  O4_35 
REMARK   11  A    between atoms: C11_34  and  C12_37 
REMARK   12  A    between atoms: C12_37  and  O5_38 
REMARK   13  A    between atoms: C12_37  and  C13_40 
REMARK   14  A    between atoms: C13_40  and  O6_41 
REMARK   15  A    between atoms: N11_49  and  O7_51 
REMARK   16  A    between atoms: N12_54  and  O8_56 
ROOT
HETATM    1  C4  UNL     1       1.894   1.107  -1.047  1.00  0.00     0.155 A 
HETATM    2  O1  UNL     1       1.833   2.415  -1.243  1.00  0.00    -0.235 OA
HETATM    3  N3  UNL     1       0.621   2.844  -1.263  1.00  0.00    -0.255 N 
ATOM      4  H3  UNL     1       0.333   3.813  -1.399  1.00  0.00     0.195 HD
HETATM    5  C5  UNL     1      -0.195   1.806  -1.075  1.00  0.00     0.128 A 
HETATM    6  C6  UNL     1      -1.567   1.684  -1.006  1.00  0.00     0.137 A 
HETATM    7  N8  UNL     1      -2.072   0.455  -0.802  1.00  0.00    -0.328 N 
ATOM      8  H8  UNL     1      -3.084   0.339  -0.747  1.00  0.00     0.169 HD
HETATM    9  C9  UNL     1      -1.281  -0.632  -0.667  1.00  0.00     0.115 A 
HETATM   10  N9  UNL     1       0.056  -0.524  -0.732  1.00  0.00    -0.340 N 
ATOM     11  H9  UNL     1       0.647  -1.349  -0.629  1.00  0.00     0.167 HD
HETATM   12  C14 UNL     1       0.598   0.671  -0.932  1.00  0.00     0.102 A 
ENDROOT
BRANCH   1  13
HETATM   13  C3  UNL     1       3.179   0.409  -0.989  1.00  0.00     0.349 C 
HETATM   14  N2  UNL     1       4.087   1.185  -0.164  1.00  0.00    -0.036 N 
HETATM   15  C2  UNL     1       5.365   0.590   0.032  1.00  0.00     0.269 C 
ATOM     16  H22 UNL     1       3.654   1.399   0.734  1.00  0.00     0.281 HD
ATOM     17  H21 UNL     1       4.189   2.128  -0.539  1.00  0.00     0.281 HD
HETATM   18  C16 UNL     1       5.566  -0.727  -0.581  1.00  0.00     0.109 C 
HETATM   19  C15 UNL     1       4.412  -1.635  -0.637  1.00  0.00     0.149 C 
HETATM   20  N12 UNL     1       6.718  -1.108  -1.068  1.00  0.00    -0.267 N 
HETATM   21  N10 UNL     1       3.129  -0.966  -0.602  1.00  0.00    -0.340 N 
HETATM   22  N11 UNL     1       4.547  -2.898  -0.710  1.00  0.00    -0.251 N 
ATOM     23  H10 UNL     1       2.266  -1.434  -0.326  1.00  0.00     0.163 HD
ATOM     24  H11 UNL     1       3.731  -3.509  -0.748  1.00  0.00     0.196 HD
ATOM     25  H12 UNL     1       6.842  -2.028  -1.491  1.00  0.00     0.194 HD
BRANCH  15  26
HETATM   26  C1  UNL     1       5.560   0.440   1.542  1.00  0.00     0.269 C 
BRANCH  26  27
HETATM   27  N1  UNL     1       6.817  -0.151   1.883  1.00  0.00    -0.077 N 
ATOM     28  H13 UNL     1       6.941  -1.045   1.408  1.00  0.00     0.274 HD
ATOM     29  H12 UNL     1       7.590   0.367   1.465  1.00  0.00     0.274 HD
ATOM     30  H11 UNL     1       6.947  -0.251   2.890  1.00  0.00     0.274 HD
ENDBRANCH  26  27
ENDBRANCH  15  26
BRANCH  22  31
HETATM   31  O7  UNL     1       5.814  -3.418  -0.736  1.00  0.00    -0.288 OA
ATOM     32  H7  UNL     1       5.915  -4.361  -0.791  1.00  0.00     0.244 HD
ENDBRANCH  22  31
BRANCH  20  33
HETATM   33  O8  UNL     1       7.751  -0.210  -0.982  1.00  0.00    -0.290 OA
ATOM     34  H8  UNL     1       8.588  -0.487  -1.336  1.00  0.00     0.244 HD
ENDBRANCH  20  33
ENDBRANCH   1  13
BRANCH   6  35
HETATM   35  N4  UNL     1      -2.431   2.830  -1.147  1.00  0.00    -0.334 N 
ATOM     36  H4  UNL     1      -2.013   3.748  -1.301  1.00  0.00     0.165 HD
BRANCH  35  37
HETATM   37  C7  UNL     1      -3.856   2.721  -1.078  1.00  0.00     0.341 C 
HETATM   38  N5  UNL     1      -4.441   4.022  -1.253  1.00  0.00    -0.091 NA
HETATM   39  N6  UNL     1      -4.529   4.602  -0.002  1.00  0.00    -0.084 NA
HETATM   40  C8  UNL     1      -4.436   3.513   0.922  1.00  0.00     0.434 C 
HETATM   41  O2  UNL     1      -4.304   2.340   0.185  1.00  0.00    -0.305 OA
BRANCH  40  42
HETATM   42  N7  UNL     1      -5.645   3.425   1.710  1.00  0.00    -0.037 N 
ATOM     43  H73 UNL     1      -5.860   4.305   2.178  1.00  0.00     0.279 HD
ATOM     44  H72 UNL     1      -6.478   3.359   1.125  1.00  0.00     0.279 HD
ATOM     45  H71 UNL     1      -5.579   2.649   2.369  1.00  0.00     0.279 HD
ENDBRANCH  40  42
ENDBRANCH  35  37
ENDBRANCH   6  35
BRANCH   9  46
HETATM   46  C10 UNL     1      -1.853  -1.995  -0.440  1.00  0.00     0.217 C 
BRANCH  46  47
HETATM   47  O3  UNL     1      -1.173  -2.669   0.558  1.00  0.00    -0.385 OA
ATOM     48  H3  UNL     1      -1.536  -3.535   0.702  1.00  0.00     0.210 HD
ENDBRANCH  46  47
BRANCH  46  49
HETATM   49  C11 UNL     1      -3.285  -1.820  -0.056  1.00  0.00     0.185 C 
BRANCH  49  50
HETATM   50  O4  UNL     1      -3.402  -1.090   1.128  1.00  0.00    -0.390 OA
ATOM     51  H4  UNL     1      -4.313  -0.979   1.372  1.00  0.00     0.210 HD
ENDBRANCH  49  50
BRANCH  49  52
HETATM   52  C12 UNL     1      -4.067  -3.084   0.087  1.00  0.00     0.173 C 
BRANCH  52  53
HETATM   53  O5  UNL     1      -4.038  -3.907  -1.014  1.00  0.00    -0.391 OA
ATOM     54  H5  UNL     1      -4.536  -4.711  -0.923  1.00  0.00     0.210 HD
ENDBRANCH  52  53
BRANCH  52  55
HETATM   55  C13 UNL     1      -3.764  -3.835   1.377  1.00  0.00     0.198 C 
BRANCH  55  56
HETATM   56  O6  UNL     1      -4.740  -4.840   1.537  1.00  0.00    -0.398 OA
ATOM     57  H6  UNL     1      -4.551  -5.308   2.342  1.00  0.00     0.209 HD
ENDBRANCH  55  56
ENDBRANCH  52  55
ENDBRANCH  49  52
ENDBRANCH  46  49
ENDBRANCH   9  46
TORSDOF 16
