REMARK  13 active torsions:
REMARK  status: ('A' for Active; 'I' for Inactive)
REMARK       I    between atoms: C2_2  and  N1_4 
REMARK    1  A    between atoms: N1_4  and  C3_6 
REMARK    2  A    between atoms: C3_6  and  C4_7 
REMARK    3  A    between atoms: C4_7  and  N2_8 
REMARK    4  A    between atoms: C4_7  and  C14_28 
REMARK       I    between atoms: N2_8  and  C5_10 
REMARK    5  A    between atoms: C5_10  and  C6_12 
REMARK    6  A    between atoms: N3_16  and  S1_17 
REMARK    7  A    between atoms: S1_17  and  N4_20 
REMARK    8  A    between atoms: N4_20  and  C10_22 
REMARK    9  A    between atoms: C10_22  and  C13_25 
REMARK       I    between atoms: C14_28  and  N5_30 
REMARK   10  A    between atoms: N5_30  and  C15_32 
REMARK   11  A    between atoms: C15_32  and  C16_33 
REMARK       I    between atoms: C16_33  and  N6_35 
REMARK   12  A    between atoms: N6_35  and  C17_37 
REMARK   13  A    between atoms: C17_37  and  C18_38 
ROOT
HETATM    1  C4  UNL     1       1.214   0.469   0.159  1.00  0.00     0.194 C 
ENDROOT
BRANCH   1   2
HETATM    2  C3  UNL     1       1.114   0.425  -1.364  1.00  0.00     0.157 C 
BRANCH   2   3
HETATM    3  N1  UNL     1       1.241   1.734  -1.938  1.00  0.00    -0.359 N 
HETATM    4  C2  UNL     1       1.170   1.913  -3.332  1.00  0.00     0.213 C 
HETATM    5  C1  UNL     1       1.300   3.260  -3.962  1.00  0.00     0.117 C 
HETATM    6  O1  UNL     1       0.993   0.916  -4.075  1.00  0.00    -0.274 OA
ATOM      7  H1  UNL     1       1.384   2.541  -1.331  1.00  0.00     0.162 HD
ENDBRANCH   2   3
ENDBRANCH   1   2
BRANCH   1   8
HETATM    8  N2  UNL     1       2.498   1.016   0.516  1.00  0.00    -0.342 N 
HETATM    9  C5  UNL     1       3.460   0.310   1.292  1.00  0.00     0.260 C 
HETATM   10  O2  UNL     1       3.137  -0.837   1.654  1.00  0.00    -0.267 OA
ATOM     11  H2  UNL     1       2.729   1.957   0.197  1.00  0.00     0.163 HD
BRANCH   9  12
HETATM   12  C6  UNL     1       4.730   0.901   1.632  1.00  0.00     0.072 C 
HETATM   13  C7  UNL     1       5.394   1.726   0.549  1.00  0.00     0.059 C 
HETATM   14  C8  UNL     1       6.755   1.997   1.154  1.00  0.00     0.022 C 
HETATM   15  C9  UNL     1       6.788   1.159   2.419  1.00  0.00     0.115 C 
HETATM   16  N3  UNL     1       5.743   0.175   2.251  1.00  0.00    -0.158 NA
BRANCH  16  17
HETATM   17  S1  UNL     1       6.317  -1.282   1.714  1.00  0.00     0.304 S 
HETATM   18  O3  UNL     1       5.363  -2.448   1.917  1.00  0.00    -0.188 OA
HETATM   19  O4  UNL     1       7.477  -1.663   2.679  1.00  0.00    -0.188 OA
BRANCH  17  20
HETATM   20  N4  UNL     1       7.026  -1.327   0.166  1.00  0.00    -0.287 N 
ATOM     21  H4  UNL     1       6.517  -1.023  -0.664  1.00  0.00     0.174 HD
BRANCH  20  22
HETATM   22  C10 UNL     1       8.354  -1.806   0.087  1.00  0.00     0.122 C 
HETATM   23  C11 UNL     1       9.419  -0.999   0.782  1.00  0.00     0.050 C 
HETATM   24  C12 UNL     1       8.730  -1.701  -1.422  1.00  0.00     0.050 C 
BRANCH  22  25
HETATM   25  C13 UNL     1       8.488  -3.251   0.394  1.00  0.00     0.202 C 
HETATM   26  O5  UNL     1       7.488  -3.922   0.681  1.00  0.00    -0.646 OA
HETATM   27  O6  UNL     1       9.733  -3.835   0.358  1.00  0.00    -0.646 OA
ENDBRANCH  22  25
ENDBRANCH  20  22
ENDBRANCH  17  20
ENDBRANCH  16  17
ENDBRANCH   9  12
ENDBRANCH   1   8
BRANCH   1  28
HETATM   28  C14 UNL     1       0.128   1.376   0.643  1.00  0.00     0.243 C 
HETATM   29  O7  UNL     1       0.476   2.418   1.215  1.00  0.00    -0.271 OA
HETATM   30  N5  UNL     1      -1.238   1.060   0.458  1.00  0.00    -0.341 N 
ATOM     31  H5  UNL     1      -1.460   0.186  -0.018  1.00  0.00     0.163 HD
BRANCH  30  32
HETATM   32  C15 UNL     1      -2.327   1.873   0.888  1.00  0.00     0.114 A 
HETATM   33  C31 UNL     1      -2.159   2.849   2.007  1.00  0.00     0.044 A 
HETATM   34  C32 UNL     1      -2.122   3.365   0.629  1.00  0.00     0.044 A 
BRANCH  32  35
HETATM   35  C16 UNL     1      -3.750   1.452   0.663  1.00  0.00     0.246 C 
HETATM   36  O8  UNL     1      -4.588   2.308   1.086  1.00  0.00    -0.271 OA
HETATM   37  N6  UNL     1      -4.044   0.252   0.060  1.00  0.00    -0.348 N 
ATOM     38  H6  UNL     1      -3.223  -0.298  -0.194  1.00  0.00     0.163 HD
BRANCH  37  39
HETATM   39  C17 UNL     1      -5.318  -0.384  -0.286  1.00  0.00     0.047 C 
HETATM   40  C22 UNL     1      -5.037  -1.830  -0.491  1.00  0.00     0.015 C 
HETATM   41  C23 UNL     1      -6.226  -2.743  -0.502  1.00  0.00     0.012 C 
HETATM   42  C27 UNL     1      -4.207  -2.346   0.692  1.00  0.00     0.012 C 
HETATM   43  C24 UNL     1      -7.095  -2.615   0.702  1.00  0.00    -0.013 C 
HETATM   44  C25 UNL     1      -6.270  -3.105   1.892  1.00  0.00     0.009 C 
HETATM   45  C30 UNL     1      -7.431  -1.150   0.919  1.00  0.00     0.012 C 
HETATM   46  C26 UNL     1      -5.033  -2.267   1.948  1.00  0.00    -0.013 C 
HETATM   47  C28 UNL     1      -5.464  -0.831   2.157  1.00  0.00     0.012 C 
HETATM   48  C29 UNL     1      -6.219  -0.290   0.935  1.00  0.00     0.015 C 
BRANCH  39  49
HETATM   49  C18 UNL     1      -5.806   0.299  -1.484  1.00  0.00    -0.025 C 
HETATM   50  C19 UNL     1      -6.129   1.760  -1.435  1.00  0.00     0.017 C 
HETATM   51  C20 UNL     1      -4.576   0.338  -2.487  1.00  0.00     0.017 C 
HETATM   52  C21 UNL     1      -6.850  -0.323  -2.340  1.00  0.00     0.017 C 
ENDBRANCH  39  49
ENDBRANCH  37  39
ENDBRANCH  32  35
ENDBRANCH  30  32
ENDBRANCH   1  28
TORSDOF 13
