REMARK  13 active torsions:
REMARK  status: ('A' for Active; 'I' for Inactive)
REMARK    1  A    between atoms: C10_10  and  N1_11 
REMARK       I    between atoms: N1_11  and  C11_13 
REMARK       I    between atoms: C11_13  and  N2_15 
REMARK       I    between atoms: N3_18  and  C14_19 
REMARK       I    between atoms: C14_19  and  N4_21 
REMARK    2  A    between atoms: N4_21  and  C15_23 
REMARK    3  A    between atoms: C15_23  and  C16_24 
REMARK    4  A    between atoms: C15_23  and  C29_49 
REMARK       I    between atoms: C16_24  and  N5_26 
REMARK    5  A    between atoms: C20_30  and  C21_31 
REMARK       I    between atoms: C21_31  and  N6_33 
REMARK    6  A    between atoms: N6_33  and  C22_35 
REMARK    7  A    between atoms: C22_35  and  C23_36 
REMARK    8  A    between atoms: C22_35  and  C27_44 
REMARK    9  A    between atoms: C23_36  and  C24_37 
REMARK   10  A    between atoms: C24_37  and  C25_38 
REMARK   11  A    between atoms: C25_38  and  C26_39 
REMARK   12  A    between atoms: C26_39  and  N7_40 
REMARK   13  A    between atoms: C27_44  and  C28_46 
ROOT
HETATM    1  C15 UNL     1       1.111  -1.923  -2.290  1.00  0.00     0.185 C 
ENDROOT
BRANCH   1   2
HETATM    2  N4  UNL     1      -0.088  -1.142  -2.583  1.00  0.00    -0.329 N 
HETATM    3  C14 UNL     1      -1.398  -1.603  -2.497  1.00  0.00     0.320 C 
HETATM    4  N3  UNL     1      -2.531  -0.823  -2.774  1.00  0.00    -0.315 N 
HETATM    5  O2  UNL     1      -1.576  -2.800  -2.148  1.00  0.00    -0.247 OA
HETATM    6  C13 UNL     1      -3.846  -1.405  -2.699  1.00  0.00     0.151 C 
HETATM    7  C33 UNL     1      -2.485   0.592  -3.124  1.00  0.00     0.268 C 
HETATM    8  C12 UNL     1      -4.694  -0.666  -1.744  1.00  0.00     0.173 C 
HETATM    9  N2  UNL     1      -4.281   0.691  -1.551  1.00  0.00    -0.244 N 
HETATM   10  C11 UNL     1      -4.948   1.427  -0.530  1.00  0.00     0.337 C 
HETATM   11  N9  UNL     1      -3.312   1.373  -2.267  1.00  0.00    -0.312 N 
HETATM   12  N1  UNL     1      -5.980   0.834   0.209  1.00  0.00    -0.336 N 
HETATM   13  O1  UNL     1      -4.609   2.602  -0.300  1.00  0.00    -0.245 OA
ATOM     14  H1  UNL     1      -6.254  -0.128   0.011  1.00  0.00     0.164 HD
ATOM     15  H9  UNL     1      -3.196   2.383  -2.185  1.00  0.00     0.182 HD
ATOM     16  H4  UNL     1       0.047  -0.174  -2.876  1.00  0.00     0.165 HD
BRANCH  12  17
HETATM   17  C10 UNL     1      -6.658   1.568   1.244  1.00  0.00     0.099 C 
HETATM   18  C2  UNL     1      -6.733   0.806   2.530  1.00  0.00     0.006 C 
HETATM   19  C1  UNL     1      -6.327   1.635   3.735  1.00  0.00     0.012 C 
HETATM   20  C3  UNL     1      -8.147   0.283   2.682  1.00  0.00     0.016 C 
HETATM   21  C4  UNL     1      -8.963   0.840   1.548  1.00  0.00    -0.034 C 
HETATM   22  C5  UNL     1      -9.754  -0.160   0.745  1.00  0.00     0.016 C 
HETATM   23  C6  UNL     1      -9.795   2.045   1.974  1.00  0.00     0.011 C 
HETATM   24  C8  UNL     1      -8.085   1.760   0.771  1.00  0.00    -0.016 C 
HETATM   25  C7  UNL     1      -8.752   2.957   1.408  1.00  0.00     0.012 C 
HETATM   26  C9  UNL     1      -8.228   1.760  -0.729  1.00  0.00     0.018 C 
ENDBRANCH  12  17
ENDBRANCH   1   2
BRANCH   1  27
HETATM   27  C16 UNL     1       2.014  -1.170  -1.400  1.00  0.00     0.244 C 
HETATM   28  O3  UNL     1       2.096   0.084  -1.659  1.00  0.00    -0.271 OA
HETATM   29  N5  UNL     1       2.766  -1.702  -0.321  1.00  0.00    -0.337 N 
HETATM   30  C17 UNL     1       2.825  -3.053   0.169  1.00  0.00     0.127 C 
HETATM   31  C20 UNL     1       3.626  -0.893   0.506  1.00  0.00     0.179 C 
HETATM   32  C18 UNL     1       2.967  -2.881   1.663  1.00  0.00     0.022 C 
HETATM   33  C19 UNL     1       3.196  -1.398   1.895  1.00  0.00     0.037 C 
BRANCH  31  34
HETATM   34  C21 UNL     1       5.071  -1.119   0.316  1.00  0.00     0.241 C 
HETATM   35  O4  UNL     1       5.538  -2.051  -0.366  1.00  0.00    -0.271 OA
HETATM   36  N6  UNL     1       5.960  -0.189   0.970  1.00  0.00    -0.347 N 
ATOM     37  H6  UNL     1       5.606   0.589   1.527  1.00  0.00     0.163 HD
BRANCH  36  38
HETATM   38  C22 UNL     1       7.399  -0.418   0.794  1.00  0.00     0.164 C 
BRANCH  38  39
HETATM   39  C23 UNL     1       8.124  -0.061   2.047  1.00  0.00     0.033 C 
BRANCH  39  40
HETATM   40  C24 UNL     1       7.944   1.393   2.425  1.00  0.00     0.004 C 
BRANCH  40  41
HETATM   41  C25 UNL     1       8.730   1.668   3.692  1.00  0.00     0.027 C 
BRANCH  41  42
HETATM   42  C26 UNL     1       8.582   3.119   4.109  1.00  0.00     0.229 C 
BRANCH  42  43
HETATM   43  N7  UNL     1       7.195   3.414   4.357  1.00  0.00    -0.079 N 
ATOM     44  H73 UNL     1       6.604   3.182   3.559  1.00  0.00     0.274 HD
ATOM     45  H72 UNL     1       6.782   2.775   5.036  1.00  0.00     0.274 HD
ATOM     46  H71 UNL     1       7.095   4.390   4.637  1.00  0.00     0.274 HD
ENDBRANCH  42  43
ENDBRANCH  41  42
ENDBRANCH  40  41
ENDBRANCH  39  40
ENDBRANCH  38  39
BRANCH  38  47
HETATM   47  C27 UNL     1       7.850   0.376  -0.396  1.00  0.00     0.236 C 
HETATM   48  O5  UNL     1       7.018   1.099  -0.983  1.00  0.00    -0.285 OA
BRANCH  47  49
HETATM   49  C28 UNL     1       9.241   0.288  -0.842  1.00  0.00     0.302 C 
HETATM   50  N8  UNL     1       9.598   1.073  -1.991  1.00  0.00    -0.054 NA
HETATM   51  O6  UNL     1      10.076  -0.427  -0.266  1.00  0.00    -0.268 OA
ENDBRANCH  47  49
ENDBRANCH  38  47
ENDBRANCH  36  38
ENDBRANCH  31  34
ENDBRANCH   1  27
BRANCH   1  52
HETATM   52  C29 UNL     1       1.819  -2.285  -3.580  1.00  0.00    -0.022 C 
HETATM   53  C30 UNL     1       3.043  -3.095  -3.252  1.00  0.00     0.017 C 
HETATM   54  C31 UNL     1       2.299  -1.066  -4.323  1.00  0.00     0.017 C 
HETATM   55  C32 UNL     1       0.924  -3.155  -4.445  1.00  0.00     0.017 C 
ENDBRANCH   1  52
TORSDOF 13
