REMARK  14 active torsions:
REMARK  status: ('A' for Active; 'I' for Inactive)
REMARK    1  A    between atoms: C2_2  and  N1_3 
REMARK    2  A    between atoms: C2_2  and  C16_30 
REMARK    3  A    between atoms: N1_3  and  S1_5 
REMARK    4  A    between atoms: S1_5  and  N2_8 
REMARK    5  A    between atoms: C5_11  and  C6_12 
REMARK    6  A    between atoms: C6_12  and  N3_13 
REMARK       I    between atoms: N3_13  and  C7_15 
REMARK    7  A    between atoms: C7_15  and  C8_17 
REMARK       I    between atoms: N4_22  and  C13_23 
REMARK       I    between atoms: C16_30  and  N7_32 
REMARK    8  A    between atoms: N7_32  and  C17_34 
REMARK    9  A    between atoms: C17_34  and  C18_35 
REMARK   10  A    between atoms: C17_34  and  C25_42 
REMARK   11  A    between atoms: C18_35  and  C19_36 
REMARK       I    between atoms: C25_42  and  N8_44 
REMARK   12  A    between atoms: C29_48  and  C30_49 
REMARK   13  A    between atoms: C30_49  and  O6_50 
REMARK   14  A    between atoms: N9_52  and  O7_54 
ROOT
HETATM    1  C1  UNL     1      -0.980  -0.950   1.573  1.00  0.00     0.043 C 
HETATM    2  C2  UNL     1      -1.088   0.368   0.845  1.00  0.00     0.181 C 
ENDROOT
BRANCH   2   3
HETATM    3  N1  UNL     1       0.053   0.487  -0.043  1.00  0.00    -0.293 N 
ATOM      4  H1  UNL     1       0.217  -0.114  -0.851  1.00  0.00     0.174 HD
BRANCH   3   5
HETATM    5  S1  UNL     1       1.098   1.772   0.438  1.00  0.00     0.299 S 
HETATM    6  O1  UNL     1       1.775   2.407  -0.747  1.00  0.00    -0.188 OA
HETATM    7  O2  UNL     1       0.387   2.840   1.190  1.00  0.00    -0.188 OA
BRANCH   5   8
HETATM    8  N2  UNL     1       2.353   1.084   1.421  1.00  0.00    -0.193 NA
HETATM    9  C3  UNL     1       3.132   0.132   0.699  1.00  0.00     0.109 C 
HETATM   10  C4  UNL     1       4.542  -0.039   1.194  1.00  0.00     0.022 C 
HETATM   11  C5  UNL     1       5.312   1.228   1.355  1.00  0.00     0.006 C 
HETATM   12  C14 UNL     1       4.358   2.407   1.287  1.00  0.00     0.022 C 
HETATM   13  C15 UNL     1       3.089   2.131   2.056  1.00  0.00     0.109 C 
BRANCH  11  14
HETATM   14  C6  UNL     1       6.436   1.389   0.387  1.00  0.00     0.127 C 
BRANCH  14  15
HETATM   15  N3  UNL     1       7.382   0.308   0.538  1.00  0.00    -0.359 N 
HETATM   16  C7  UNL     1       8.562   0.195  -0.244  1.00  0.00     0.246 C 
HETATM   17  O3  UNL     1       8.691   1.155  -1.090  1.00  0.00    -0.271 OA
ATOM     18  H3  UNL     1       7.194  -0.408   1.240  1.00  0.00     0.162 HD
BRANCH  16  19
HETATM   19  C8  UNL     1       9.562  -0.900  -0.125  1.00  0.00     0.120 A 
HETATM   20  C9  UNL     1       9.144  -2.045   0.604  1.00  0.00     0.049 A 
HETATM   21  C10 UNL     1       9.179  -2.297  -0.774  1.00  0.00     0.028 A 
HETATM   22  C11 UNL     1       8.738  -1.625  -2.020  1.00  0.00     0.027 C 
HETATM   23  C12 UNL     1      10.063  -0.888  -2.329  1.00  0.00     0.127 C 
HETATM   24  N4  UNL     1      10.641  -0.690  -1.014  1.00  0.00    -0.337 N 
HETATM   25  C13 UNL     1      11.971  -0.363  -0.699  1.00  0.00     0.185 C 
HETATM   26  N5  UNL     1      12.973  -1.143  -0.873  1.00  0.00    -0.374 N 
HETATM   27  N6  UNL     1      12.273   0.927  -0.139  1.00  0.00    -0.064 NA
ATOM     28  H52 UNL     1      12.759  -2.058  -1.270  1.00  0.00     0.158 HD
ATOM     29  H51 UNL     1      13.938  -0.906  -0.644  1.00  0.00     0.158 HD
ENDBRANCH  16  19
ENDBRANCH  14  15
ENDBRANCH  11  14
ENDBRANCH   5   8
ENDBRANCH   3   5
ENDBRANCH   2   3
BRANCH   2  30
HETATM   30  C16 UNL     1      -2.354   0.443   0.098  1.00  0.00     0.241 C 
HETATM   31  O4  UNL     1      -2.332   0.571  -1.142  1.00  0.00    -0.271 OA
HETATM   32  N7  UNL     1      -3.586   0.372   0.766  1.00  0.00    -0.346 N 
ATOM     33  H7  UNL     1      -3.602   0.267   1.780  1.00  0.00     0.163 HD
BRANCH  32  34
HETATM   34  C17 UNL     1      -4.869   0.447   0.017  1.00  0.00     0.177 C 
BRANCH  34  35
HETATM   35  C18 UNL     1      -5.541   1.679   0.512  1.00  0.00     0.039 C 
BRANCH  35  36
HETATM   36  C19 UNL     1      -6.834   2.098  -0.026  1.00  0.00    -0.012 C 
HETATM   37  C20 UNL     1      -6.891   2.395  -1.507  1.00  0.00     0.005 C 
HETATM   38  C21 UNL     1      -8.024   3.428  -1.677  1.00  0.00     0.000 C 
HETATM   39  C22 UNL     1      -9.316   2.756  -1.246  1.00  0.00     0.000 C 
HETATM   40  C23 UNL     1      -9.235   2.266   0.191  1.00  0.00     0.000 C 
HETATM   41  C24 UNL     1      -8.041   1.290   0.312  1.00  0.00     0.005 C 
ENDBRANCH  35  36
ENDBRANCH  34  35
BRANCH  34  42
HETATM   42  C25 UNL     1      -5.556  -0.821   0.419  1.00  0.00     0.243 C 
HETATM   43  O5  UNL     1      -5.495  -1.108   1.637  1.00  0.00    -0.271 OA
HETATM   44  N8  UNL     1      -6.205  -1.611  -0.517  1.00  0.00    -0.338 N 
HETATM   45  C26 UNL     1      -6.319  -1.429  -1.975  1.00  0.00     0.127 C 
HETATM   46  C29 UNL     1      -6.948  -2.834  -0.312  1.00  0.00     0.163 C 
HETATM   47  C27 UNL     1      -5.780  -2.776  -2.444  1.00  0.00     0.022 C 
HETATM   48  C28 UNL     1      -6.395  -3.730  -1.413  1.00  0.00     0.035 C 
BRANCH  46  49
HETATM   49  C30 UNL     1      -6.934  -3.416   1.008  1.00  0.00     0.159 C 
HETATM   50  N9  UNL     1      -6.261  -4.502   1.233  1.00  0.00    -0.249 N 
ATOM     51  H9  UNL     1      -5.748  -4.928   0.461  1.00  0.00     0.196 HD
BRANCH  49  52
HETATM   52  O6  UNL     1      -7.617  -2.860   2.065  1.00  0.00    -0.347 OA
ATOM     53  H6  UNL     1      -7.608  -3.243   2.934  1.00  0.00     0.219 HD
ENDBRANCH  49  52
BRANCH  50  54
HETATM   54  O7  UNL     1      -6.211  -5.099   2.464  1.00  0.00    -0.288 OA
ATOM     55  H7  UNL     1      -5.718  -5.894   2.629  1.00  0.00     0.244 HD
ENDBRANCH  50  54
ENDBRANCH  46  49
ENDBRANCH  34  42
ENDBRANCH  32  34
ENDBRANCH   2  30
TORSDOF 14
