REMARK  15 active torsions:
REMARK  status: ('A' for Active; 'I' for Inactive)
REMARK    1  A    between atoms: C2_2  and  C3_3 
REMARK    2  A    between atoms: C3_3  and  C4_4 
REMARK    3  A    between atoms: C4_4  and  C5_5 
REMARK    4  A    between atoms: C5_5  and  O1_6 
REMARK    5  A    between atoms: O1_6  and  C6_7 
REMARK       I    between atoms: C6_7  and  N1_9 
REMARK       I    between atoms: N2_12  and  C9_13 
REMARK    6  A    between atoms: C9_13  and  C10_15 
REMARK    7  A    between atoms: C10_15  and  C11_16 
REMARK    8  A    between atoms: C10_15  and  N6_24 
REMARK    9  A    between atoms: C11_16  and  C12_17 
REMARK   10  A    between atoms: C12_17  and  C13_18 
REMARK   11  A    between atoms: C13_18  and  N3_19 
REMARK       I    between atoms: N6_24  and  C15_26 
REMARK       I    between atoms: C15_26  and  N7_28 
REMARK   12  A    between atoms: C20_33  and  C21_34 
REMARK   13  A    between atoms: C21_34  and  O5_35 
REMARK   14  A    between atoms: C21_34  and  N8_37 
REMARK   15  A    between atoms: N8_37  and  C22_39 
REMARK       I    between atoms: N9_46  and  C29_47 
ROOT
HETATM    1  N6  UNL     1      -0.409  -2.023  -0.099  1.00  0.00    -0.330 N 
ATOM      2  H6  UNL     1      -0.952  -2.274  -0.925  1.00  0.00     0.165 HD
HETATM    3  C15 UNL     1      -1.046  -1.636   1.071  1.00  0.00     0.319 C 
HETATM    4  O4  UNL     1      -0.294  -1.315   2.065  1.00  0.00    -0.247 OA
HETATM    5  N7  UNL     1      -2.457  -1.560   1.283  1.00  0.00    -0.322 N 
HETATM    6  C16 UNL     1      -2.950  -1.109   2.532  1.00  0.00     0.128 C 
HETATM    7  C17 UNL     1      -4.364  -1.356   2.858  1.00  0.00     0.020 C 
HETATM    8  C18 UNL     1      -5.085  -2.349   2.042  1.00  0.00     0.004 C 
HETATM    9  C19 UNL     1      -4.364  -2.913   0.882  1.00  0.00     0.034 C 
HETATM   10  C20 UNL     1      -3.344  -1.979   0.251  1.00  0.00     0.163 C 
ENDROOT
BRANCH   1  11
HETATM   11  C10 UNL     1       1.076  -2.067  -0.131  1.00  0.00     0.178 C 
BRANCH  11  12
HETATM   12  C9  UNL     1       1.529  -0.987  -1.033  1.00  0.00     0.242 C 
HETATM   13  N2  UNL     1       2.755  -0.277  -0.945  1.00  0.00    -0.347 N 
HETATM   14  C8  UNL     1       2.971   0.728  -1.976  1.00  0.00     0.146 C 
HETATM   15  C32 UNL     1       3.676  -0.556   0.117  1.00  0.00     0.146 C 
HETATM   16  C7  UNL     1       4.165   1.587  -1.794  1.00  0.00     0.148 C 
HETATM   17  N1  UNL     1       5.016   1.179  -0.709  1.00  0.00    -0.325 N 
HETATM   18  C6  UNL     1       6.417   1.170  -0.838  1.00  0.00     0.362 C 
HETATM   19  C33 UNL     1       4.345   0.776   0.506  1.00  0.00     0.148 C 
HETATM   20  O2  UNL     1       7.000   1.532  -1.915  1.00  0.00    -0.238 OA
HETATM   21  O3  UNL     1       0.706  -0.678  -1.981  1.00  0.00    -0.271 OA
BRANCH  18  22
HETATM   22  O1  UNL     1       7.272   0.768   0.189  1.00  0.00    -0.304 OA
BRANCH  22  23
HETATM   23  C5  UNL     1       8.678   0.744   0.089  1.00  0.00     0.180 C 
BRANCH  23  24
HETATM   24  C4  UNL     1       9.318   2.060  -0.178  1.00  0.00     0.027 C 
BRANCH  24  25
HETATM   25  C3  UNL     1       9.015   3.073   0.915  1.00  0.00     0.002 C 
BRANCH  25  26
HETATM   26  C2  UNL     1       9.741   4.352   0.498  1.00  0.00    -0.004 C 
HETATM   27  C1  UNL     1       9.240   4.840  -0.845  1.00  0.00     0.005 C 
ENDBRANCH  25  26
ENDBRANCH  24  25
ENDBRANCH  23  24
ENDBRANCH  22  23
ENDBRANCH  18  22
ENDBRANCH  11  12
BRANCH  11  28
HETATM   28  C11 UNL     1       1.417  -3.451  -0.573  1.00  0.00     0.037 C 
BRANCH  28  29
HETATM   29  C12 UNL     1       2.850  -3.791  -0.721  1.00  0.00     0.022 C 
BRANCH  29  30
HETATM   30  C13 UNL     1       3.047  -5.235  -1.186  1.00  0.00     0.122 C 
BRANCH  30  31
HETATM   31  N3  UNL     1       2.441  -6.074  -0.184  1.00  0.00    -0.367 N 
HETATM   32  C14 UNL     1       2.932  -7.214   0.086  1.00  0.00     0.196 C 
HETATM   33  N4  UNL     1       4.079  -7.683  -0.587  1.00  0.00    -0.067 NA
HETATM   34  N5  UNL     1       2.317  -8.023   1.070  1.00  0.00    -0.067 NA
ATOM     35  H3  UNL     1       1.611  -5.750   0.313  1.00  0.00     0.161 HD
ENDBRANCH  30  31
ENDBRANCH  29  30
ENDBRANCH  28  29
ENDBRANCH  11  28
ENDBRANCH   1  11
BRANCH  10  36
HETATM   36  C21 UNL     1      -3.947  -0.866  -0.453  1.00  0.00     0.135 C 
BRANCH  36  37
HETATM   37  O5  UNL     1      -4.679  -1.229  -1.473  1.00  0.00    -0.348 OA
ATOM     38  H5  UNL     1      -5.074  -0.499  -1.935  1.00  0.00     0.219 HD
ENDBRANCH  36  37
BRANCH  36  39
HETATM   39  N8  UNL     1      -3.893   0.508  -0.249  1.00  0.00    -0.368 N 
ATOM     40  H8  UNL     1      -3.344   0.859   0.536  1.00  0.00     0.161 HD
BRANCH  39  41
HETATM   41  C22 UNL     1      -4.585   1.480  -1.104  1.00  0.00     0.089 C 
HETATM   42  C23 UNL     1      -3.627   2.407  -1.772  1.00  0.00     0.026 C 
HETATM   43  C24 UNL     1      -3.421   3.722  -1.076  1.00  0.00     0.002 C 
HETATM   44  C25 UNL     1      -4.755   4.398  -0.795  1.00  0.00     0.005 C 
HETATM   45  C26 UNL     1      -5.491   3.476   0.156  1.00  0.00    -0.005 C 
HETATM   46  C27 UNL     1      -6.852   4.121   0.408  1.00  0.00     0.025 C 
HETATM   47  C31 UNL     1      -5.761   2.126  -0.458  1.00  0.00     0.030 C 
HETATM   48  C28 UNL     1      -7.779   3.252   1.202  1.00  0.00     0.126 C 
HETATM   49  N9  UNL     1      -7.697   1.846   0.881  1.00  0.00    -0.355 N 
HETATM   50  C29 UNL     1      -8.863   1.049   0.848  1.00  0.00     0.183 C 
HETATM   51  C30 UNL     1      -6.393   1.281   0.598  1.00  0.00     0.132 C 
HETATM   52  N10 UNL     1      -8.769  -0.247   0.951  1.00  0.00    -0.374 N 
HETATM   53  N11 UNL     1     -10.171   1.583   0.707  1.00  0.00    -0.064 NA
ATOM     54 2H10 UNL     1      -7.829  -0.631   1.052  1.00  0.00     0.158 HD
ATOM     55 1H10 UNL     1      -9.611  -0.822   0.927  1.00  0.00     0.158 HD
ENDBRANCH  39  41
ENDBRANCH  36  39
ENDBRANCH  10  36
TORSDOF 15
