REMARK  13 active torsions:
REMARK  status: ('A' for Active; 'I' for Inactive)
REMARK    1  A    between atoms: C3_3  and  S1_6 
REMARK    2  A    between atoms: S1_6  and  N1_8 
REMARK    3  A    between atoms: S1_6  and  C29_50 
REMARK    4  A    between atoms: N1_8  and  C6_10 
REMARK    5  A    between atoms: C6_10  and  C9_13 
REMARK       I    between atoms: C9_13  and  N2_15 
REMARK    6  A    between atoms: N2_15  and  C10_17 
REMARK    7  A    between atoms: C10_17  and  N3_18 
REMARK    8  A    between atoms: C10_17  and  C18_28 
REMARK       I    between atoms: N3_18  and  C11_20 
REMARK    9  A    between atoms: C11_20  and  C12_22 
REMARK       I    between atoms: C18_28  and  N4_30 
REMARK   10  A    between atoms: C20_33  and  C21_34 
REMARK   11  A    between atoms: C21_34  and  C22_35 
REMARK   12  A    between atoms: C22_35  and  C23_36 
REMARK   13  A    between atoms: C23_36  and  N5_37 
REMARK       I    between atoms: N5_37  and  C24_39 
ROOT
HETATM    1  C1  UNL     1      -5.211  -5.895  -0.039  1.00  0.00     0.014 C 
HETATM    2  C2  UNL     1      -5.366  -4.854  -0.613  1.00  0.00    -0.094 C 
HETATM    3  C3  UNL     1      -5.541  -3.598  -1.262  1.00  0.00     0.100 C 
HETATM    4  C4  UNL     1      -4.543  -3.576  -2.432  1.00  0.00     0.044 C 
HETATM    5  C5  UNL     1      -6.910  -3.628  -1.929  1.00  0.00     0.044 C 
ENDROOT
BRANCH   3   6
HETATM    6  S1  UNL     1      -5.368  -1.926  -0.275  1.00  0.00     0.049 S 
HETATM    7  O1  UNL     1      -5.631  -1.047  -1.467  1.00  0.00    -0.247 OA
BRANCH   6   8
HETATM    8  N1  UNL     1      -3.650  -1.235  -0.016  1.00  0.00    -0.331 N 
ATOM      9  H1  UNL     1      -3.012  -1.774   0.570  1.00  0.00     0.170 HD
BRANCH   8  10
HETATM   10  C6  UNL     1      -3.169  -0.044  -0.557  1.00  0.00     0.111 C 
HETATM   11  C7  UNL     1      -3.991   1.191  -0.266  1.00  0.00     0.049 C 
HETATM   12  C8  UNL     1      -2.843  -0.056  -2.023  1.00  0.00     0.049 C 
BRANCH  10  13
HETATM   13  C9  UNL     1      -1.857   0.230   0.137  1.00  0.00     0.247 C 
HETATM   14  O2  UNL     1      -1.640  -0.337   1.232  1.00  0.00    -0.271 OA
HETATM   15  N2  UNL     1      -0.894   1.082  -0.402  1.00  0.00    -0.330 N 
ATOM     16  H2  UNL     1      -1.078   1.529  -1.300  1.00  0.00     0.165 HD
BRANCH  15  17
HETATM   17  C10 UNL     1       0.383   1.359   0.285  1.00  0.00     0.281 C 
BRANCH  17  18
HETATM   18  N3  UNL     1       0.646   2.743   0.010  1.00  0.00    -0.332 N 
HETATM   19  C11 UNL     1       0.525   3.744   0.984  1.00  0.00     0.223 C 
HETATM   20  O3  UNL     1       0.166   3.489   2.181  1.00  0.00    -0.273 OA
ATOM     21  H3  UNL     1       0.932   3.009  -0.932  1.00  0.00     0.165 HD
BRANCH  19  22
HETATM   22  C12 UNL     1       0.812   5.143   0.659  1.00  0.00     0.078 C 
HETATM   23  C13 UNL     1       1.165   5.274  -0.801  1.00  0.00     0.014 C 
HETATM   24  C14 UNL     1       1.684   6.708  -0.989  1.00  0.00     0.001 C 
HETATM   25  C15 UNL     1       0.711   7.734  -0.521  1.00  0.00     0.000 C 
HETATM   26  C16 UNL     1       0.093   7.464   0.816  1.00  0.00     0.001 C 
HETATM   27  C17 UNL     1      -0.397   6.039   0.883  1.00  0.00     0.014 C 
ENDBRANCH  19  22
ENDBRANCH  17  18
BRANCH  17  28
HETATM   28  C18 UNL     1       1.465   0.513  -0.287  1.00  0.00     0.270 C 
HETATM   29  O4  UNL     1       1.117  -0.195  -1.293  1.00  0.00    -0.269 OA
HETATM   30  N4  UNL     1       2.798   0.446   0.200  1.00  0.00    -0.270 N 
HETATM   31  C19 UNL     1       3.713  -0.416  -0.457  1.00  0.00     0.250 C 
HETATM   32  C27 UNL     1       3.293   1.210   1.332  1.00  0.00     0.184 C 
HETATM   33  O5  UNL     1       3.761  -0.504  -1.696  1.00  0.00    -0.271 OA
HETATM   34  C20 UNL     1       4.670  -1.267   0.356  1.00  0.00     0.179 C 
HETATM   35  N8  UNL     1       5.087  -0.543   1.530  1.00  0.00    -0.341 N 
HETATM   36  C25 UNL     1       6.384  -0.698   2.153  1.00  0.00     0.153 C 
HETATM   37  C26 UNL     1       4.201   0.373   2.150  1.00  0.00     0.243 C 
HETATM   38  O6  UNL     1       4.152   0.508   3.407  1.00  0.00    -0.271 OA
HETATM   39  C28 UNL     1       4.138   2.387   0.871  1.00  0.00     0.043 C 
BRANCH  34  40
HETATM   40  C21 UNL     1       5.707  -1.694  -0.599  1.00  0.00     0.037 C 
BRANCH  40  41
HETATM   41  C22 UNL     1       6.794  -2.595  -0.202  1.00  0.00     0.022 C 
BRANCH  41  42
HETATM   42  C23 UNL     1       6.322  -3.948   0.300  1.00  0.00     0.122 C 
BRANCH  42  43
HETATM   43  N5  UNL     1       7.496  -4.703   0.677  1.00  0.00    -0.365 N 
HETATM   44  C24 UNL     1       8.396  -5.130  -0.311  1.00  0.00     0.181 C 
HETATM   45  N6  UNL     1       9.528  -4.504  -0.472  1.00  0.00    -0.374 N 
HETATM   46  N7  UNL     1       8.125  -6.233  -1.158  1.00  0.00    -0.064 NA
ATOM     47  H62 UNL     1       9.723  -3.710   0.138  1.00  0.00     0.158 HD
ATOM     48  H61 UNL     1      10.182  -4.814  -1.190  1.00  0.00     0.158 HD
ATOM     49  H5  UNL     1       7.669  -4.924   1.657  1.00  0.00     0.162 HD
ENDBRANCH  42  43
ENDBRANCH  41  42
ENDBRANCH  40  41
ENDBRANCH  34  40
ENDBRANCH  17  28
ENDBRANCH  15  17
ENDBRANCH  10  13
ENDBRANCH   8  10
ENDBRANCH   6   8
BRANCH   6  50
HETATM   50  C29 UNL     1      -6.870  -1.386   0.759  1.00  0.00     0.035 C 
HETATM   51  C30 UNL     1      -6.549  -0.714   2.097  1.00  0.00     0.030 C 
HETATM   52  C31 UNL     1      -7.915  -0.468   0.129  1.00  0.00     0.030 C 
HETATM   53  C32 UNL     1      -7.754  -2.598   1.126  1.00  0.00     0.030 C 
ENDBRANCH   6  50
ENDBRANCH   3   6
TORSDOF 13
