REMARK  11 active torsions:
REMARK  status: ('A' for Active; 'I' for Inactive)
REMARK    1  A    between atoms: C3_4  and  C4_5 
REMARK    2  A    between atoms: C5_6  and  C6_7 
REMARK    3  A    between atoms: C12_13  and  C13_14 
REMARK    4  A    between atoms: C16_19  and  C17_20 
REMARK       I    between atoms: C17_20  and  N2_22 
REMARK    5  A    between atoms: N2_22  and  C18_24 
REMARK    6  A    between atoms: C18_24  and  C19_25 
REMARK    7  A    between atoms: C18_24  and  C22_30 
REMARK    8  A    between atoms: C19_25  and  C20_26 
REMARK    9  A    between atoms: C20_26  and  C21_27 
REMARK   10  A    between atoms: C22_30  and  O6_31 
REMARK   11  A    between atoms: C22_30  and  N3_33 
REMARK       I    between atoms: N4_36  and  C25_37 
ROOT
HETATM    1  N1  UNL     1      -6.892   6.453   4.479  1.00  0.00    -0.182 NA
HETATM    2  C1  UNL     1      -6.216   5.743   3.835  1.00  0.00     0.153 C 
HETATM    3  C2  UNL     1      -5.395   4.905   3.050  1.00  0.00     0.027 C 
HETATM    4  C3  UNL     1      -4.698   4.163   2.374  1.00  0.00     0.001 C 
ENDROOT
BRANCH   4   5
HETATM    5  C4  UNL     1      -3.898   3.291   1.602  1.00  0.00    -0.009 C 
HETATM    6  C5  UNL     1      -3.201   2.523   0.951  1.00  0.00    -0.064 C 
BRANCH   6   7
HETATM    7  C6  UNL     1      -2.397   1.621   0.190  1.00  0.00     0.070 C 
HETATM    8  C7  UNL     1      -2.878   0.543  -0.386  1.00  0.00    -0.050 C 
HETATM    9  C8  UNL     1      -4.355   0.309  -0.197  1.00  0.00     0.018 C 
HETATM   10  C16 UNL     1      -2.167  -0.437  -1.185  1.00  0.00     0.067 C 
HETATM   11  C9  UNL     1      -4.578  -1.043   0.382  1.00  0.00     0.014 C 
HETATM   12  C14 UNL     1      -4.937   0.359  -1.599  1.00  0.00     0.029 C 
HETATM   13  C10 UNL     1      -3.928  -2.075  -0.517  1.00  0.00    -0.011 C 
HETATM   14  C11 UNL     1      -4.482  -2.013  -1.923  1.00  0.00     0.025 C 
HETATM   15  C28 UNL     1      -2.458  -1.833  -0.602  1.00  0.00     0.028 C 
HETATM   16  C12 UNL     1      -4.241  -0.625  -2.492  1.00  0.00     0.051 C 
HETATM   17  C15 UNL     1      -2.766  -0.374  -2.599  1.00  0.00     0.044 C 
BRANCH  16  18
HETATM   18  C13 UNL     1      -4.890  -0.600  -3.819  1.00  0.00     0.181 C 
HETATM   19  O1  UNL     1      -5.794   0.240  -4.052  1.00  0.00    -0.647 OA
HETATM   20  O2  UNL     1      -4.488  -1.509  -4.790  1.00  0.00    -0.647 OA
ENDBRANCH  16  18
BRANCH  10  21
HETATM   21  C17 UNL     1      -0.706  -0.339  -1.237  1.00  0.00     0.231 C 
HETATM   22  O3  UNL     1      -0.090  -0.045  -2.324  1.00  0.00    -0.272 OA
HETATM   23  N2  UNL     1       0.136  -0.560  -0.117  1.00  0.00    -0.348 N 
ATOM     24  H2  UNL     1      -0.287  -0.785   0.783  1.00  0.00     0.163 HD
BRANCH  23  25
HETATM   25  C18 UNL     1       1.618  -0.474  -0.216  1.00  0.00     0.159 C 
BRANCH  25  26
HETATM   26  C19 UNL     1       2.219  -1.823  -0.135  1.00  0.00     0.044 C 
BRANCH  26  27
HETATM   27  C20 UNL     1       1.679  -2.735  -1.256  1.00  0.00     0.116 C 
BRANCH  27  28
HETATM   28  C21 UNL     1       2.305  -4.075  -1.116  1.00  0.00     0.172 C 
HETATM   29  O4  UNL     1       3.092  -4.386  -0.208  1.00  0.00    -0.648 OA
HETATM   30  O5  UNL     1       1.979  -5.043  -2.078  1.00  0.00    -0.648 OA
ENDBRANCH  27  28
ENDBRANCH  26  27
ENDBRANCH  25  26
BRANCH  25  31
HETATM   31  C22 UNL     1       2.138   0.544   0.688  1.00  0.00     0.137 C 
BRANCH  31  32
HETATM   32  O6  UNL     1       1.357   1.630   0.794  1.00  0.00    -0.348 OA
ATOM     33  H6  UNL     1       1.696   2.294   1.383  1.00  0.00     0.219 HD
ENDBRANCH  31  32
BRANCH  31  34
HETATM   34  N3  UNL     1       3.269   0.661   1.479  1.00  0.00    -0.361 N 
HETATM   35  C23 UNL     1       4.286  -0.329   1.693  1.00  0.00     0.144 C 
HETATM   36  C24 UNL     1       5.503   0.193   0.908  1.00  0.00     0.145 C 
HETATM   37  N4  UNL     1       5.869   1.428   1.565  1.00  0.00    -0.353 N 
HETATM   38  C25 UNL     1       7.220   1.590   1.977  1.00  0.00     0.184 C 
HETATM   39  C26 UNL     1       4.899   2.453   1.789  1.00  0.00     0.145 C 
HETATM   40  N5  UNL     1       8.174   1.190   1.213  1.00  0.00    -0.374 N 
HETATM   41  N6  UNL     1       7.556   2.186   3.218  1.00  0.00    -0.064 NA
ATOM     42  H52 UNL     1       7.932   0.761   0.320  1.00  0.00     0.158 HD
ATOM     43  H51 UNL     1       9.143   1.306   1.509  1.00  0.00     0.158 HD
HETATM   44  C27 UNL     1       3.517   1.977   2.152  1.00  0.00     0.144 C 
ENDBRANCH  31  34
ENDBRANCH  25  31
ENDBRANCH  23  25
ENDBRANCH  10  21
ENDBRANCH   6   7
ENDBRANCH   4   5
TORSDOF 11
