REMARK  7 active torsions:
REMARK  status: ('A' for Active; 'I' for Inactive)
REMARK    1  A    between atoms: C2_2  and  C3_3 
REMARK    2  A    between atoms: C6_8  and  C7_9 
REMARK    3  A    between atoms: C7_9  and  C8_10 
REMARK    4  A    between atoms: C10_15  and  C11_16 
REMARK    5  A    between atoms: C11_16  and  C13_18 
REMARK    6  A    between atoms: C16_24  and  C17_25 
REMARK    7  A    between atoms: C17_25  and  O3_27 
ROOT
HETATM    1  C8  UNL     1       0.785   0.951   0.267  1.00  0.00     0.044 C 
HETATM    2  C9  UNL     1       0.567   0.203   1.537  1.00  0.00     0.251 C 
HETATM    3  O1  UNL     1       1.340   0.519   2.517  1.00  0.00    -0.268 OA
HETATM    4  N2  UNL     1      -0.419  -0.798   1.698  1.00  0.00    -0.344 N 
ATOM      5  H2  UNL     1      -0.377  -1.319   2.574  1.00  0.00     0.163 HD
HETATM    6  C10 UNL     1      -1.461  -1.180   0.808  1.00  0.00     0.180 C 
HETATM    7  C15 UNL     1      -2.763  -1.018   1.543  1.00  0.00     0.241 C 
HETATM    8  O2  UNL     1      -2.714  -1.306   2.789  1.00  0.00    -0.271 OA
HETATM    9  N3  UNL     1      -3.957  -0.584   0.931  1.00  0.00    -0.344 N 
ATOM     10  H3  UNL     1      -4.822  -1.031   1.235  1.00  0.00     0.163 HD
HETATM   11  C16 UNL     1      -4.069   0.438  -0.089  1.00  0.00     0.205 C 
HETATM   12  C19 UNL     1      -3.884   1.771   0.526  1.00  0.00     0.243 C 
HETATM   13  O4  UNL     1      -4.881   2.151   1.250  1.00  0.00    -0.271 OA
HETATM   14  N4  UNL     1      -2.776   2.607   0.397  1.00  0.00    -0.346 N 
ATOM     15  H4  UNL     1      -2.407   3.046   1.240  1.00  0.00     0.163 HD
HETATM   16  C20 UNL     1      -2.127   2.886  -0.843  1.00  0.00     0.172 C 
HETATM   17  C21 UNL     1      -3.125   3.644  -1.730  1.00  0.00     0.042 C 
HETATM   18  C22 UNL     1      -0.909   3.714  -0.685  1.00  0.00     0.244 C 
HETATM   19  O5  UNL     1      -1.124   4.986  -0.773  1.00  0.00    -0.271 OA
HETATM   20  N5  UNL     1       0.404   3.302  -0.460  1.00  0.00    -0.316 N 
HETATM   21  C23 UNL     1       1.619   3.726  -1.211  1.00  0.00     0.253 C 
HETATM   22  N6  UNL     1       2.558   3.869  -0.152  1.00  0.00    -0.343 N 
ATOM     23  H6  UNL     1       3.322   4.544  -0.123  1.00  0.00     0.164 HD
HETATM   24  C24 UNL     1       2.258   2.918   0.858  1.00  0.00     0.246 C 
HETATM   25  O6  UNL     1       3.053   2.657   1.778  1.00  0.00    -0.271 OA
HETATM   26  C25 UNL     1       0.932   2.410   0.546  1.00  0.00     0.219 C 
ENDROOT
BRANCH   1  27
HETATM   27  C7  UNL     1       1.626   0.273  -0.697  1.00  0.00     0.045 C 
BRANCH  27  28
HETATM   28  C6  UNL     1       3.002  -0.106  -0.462  1.00  0.00     0.039 A 
HETATM   29  N1  UNL     1       4.038   0.618  -0.925  1.00  0.00    -0.359 N 
HETATM   30  C4  UNL     1       5.219   0.095  -0.588  1.00  0.00     0.012 A 
ATOM     31  H1  UNL     1       3.932   1.472  -1.473  1.00  0.00     0.166 HD
HETATM   32  C3  UNL     1       4.946  -1.033   0.134  1.00  0.00    -0.028 A 
HETATM   33  C5  UNL     1       6.588   0.631  -0.930  1.00  0.00     0.068 C 
HETATM   34  C26 UNL     1       3.565  -1.153   0.208  1.00  0.00    -0.027 A 
HETATM   35  C27 UNL     1       2.901  -2.285   0.905  1.00  0.00     0.051 C 
BRANCH  32  36
HETATM   36  C2  UNL     1       5.984  -1.928   0.710  1.00  0.00     0.036 C 
HETATM   37  C1  UNL     1       6.602  -2.788  -0.375  1.00  0.00     0.010 C 
ENDBRANCH  32  36
ENDBRANCH  27  28
ENDBRANCH   1  27
BRANCH   6  38
HETATM   38  C11 UNL     1      -1.317  -2.613   0.317  1.00  0.00     0.013 C 
HETATM   39  C12 UNL     1      -1.348  -3.613   1.451  1.00  0.00     0.012 C 
BRANCH  38  40
HETATM   40  C13 UNL     1      -2.436  -2.976  -0.638  1.00  0.00     0.002 C 
HETATM   41  C14 UNL     1      -2.291  -4.399  -1.132  1.00  0.00     0.005 C 
ENDBRANCH  38  40
ENDBRANCH   6  38
BRANCH  11  42
HETATM   42  C17 UNL     1      -5.430   0.255  -0.732  1.00  0.00     0.146 C 
HETATM   43  C18 UNL     1      -6.576   0.369   0.231  1.00  0.00     0.042 C 
BRANCH  42  44
HETATM   44  O3  UNL     1      -5.661   1.156  -1.762  1.00  0.00    -0.393 OA
ATOM     45  H3  UNL     1      -6.514   1.041  -2.165  1.00  0.00     0.210 HD
ENDBRANCH  42  44
ENDBRANCH  11  42
TORSDOF 7
