REMARK  5 active torsions:
REMARK  status: ('A' for Active; 'I' for Inactive)
REMARK    1  A    between atoms: C2_2  and  N1_3 
REMARK    2  A    between atoms: N1_3  and  C3_5 
REMARK    3  A    between atoms: C3_5  and  C4_6 
REMARK    4  A    between atoms: C4_6  and  N2_7 
REMARK    5  A    between atoms: N2_7  and  C5_9 
ROOT
HETATM    1  N2  UNL     1       1.688  -1.381   0.067  1.00  0.00    -0.224 N 
ATOM      2  H2  UNL     1       1.742  -2.287  -0.398  1.00  0.00     0.177 HD
ENDROOT
BRANCH   1   3
HETATM    3  C4  UNL     1       0.395  -0.878   0.359  1.00  0.00     0.157 C 
BRANCH   3   4
HETATM    4  C3  UNL     1       0.013   0.329  -0.446  1.00  0.00     0.134 C 
BRANCH   4   5
HETATM    5  N1  UNL     1      -1.275   0.843  -0.167  1.00  0.00    -0.420 N 
ATOM      6  H1  UNL     1      -1.396   1.750   0.284  1.00  0.00     0.153 HD
BRANCH   5   7
HETATM    7  C2  UNL     1      -2.390   0.051  -0.537  1.00  0.00     0.109 C 
HETATM    8  C1  UNL     1      -3.661   0.820  -0.147  1.00  0.00     0.026 C 
ENDBRANCH   5   7
ENDBRANCH   4   5
ENDBRANCH   3   4
ENDBRANCH   1   3
BRANCH   1   9
HETATM    9  C5  UNL     1       2.918  -0.729   0.367  1.00  0.00     0.679 A 
HETATM   10  N3  UNL     1       4.069  -1.143   0.752  1.00  0.00    -0.187 N 
HETATM   11  C6  UNL     1       4.598   0.168   0.775  1.00  0.00     0.215 A 
ATOM     12  H3  UNL     1       4.455  -2.064   0.961  1.00  0.00     0.185 HD
HETATM   13  N4  UNL     1       3.449   0.589   0.390  1.00  0.00    -0.187 N 
ATOM     14  H4  UNL     1       3.066   1.511   0.182  1.00  0.00     0.185 HD
ENDBRANCH   1   9
TORSDOF 5
