REMARK  4 active torsions:
REMARK  status: ('A' for Active; 'I' for Inactive)
REMARK    1  A    between atoms: N2_4  and  N3_6 
REMARK    2  A    between atoms: C1_8  and  N4_9 
REMARK    3  A    between atoms: N4_9  and  C2_11 
REMARK    4  A    between atoms: C2_11  and  C3_12 
ROOT
HETATM    1  N4  UNL     1       1.089  -0.016  -0.567  1.00  0.00    -0.381 N 
ATOM      2  H4  UNL     1       1.104   0.840  -1.121  1.00  0.00     0.160 HD
ENDROOT
BRANCH   1   3
HETATM    3  C1  UNL     1       2.119  -0.999  -0.672  1.00  0.00     0.194 C 
HETATM    4  N3  UNL     1       3.264  -0.899  -0.113  1.00  0.00    -0.283 N 
ATOM      5  H3  UNL     1       3.934  -1.656  -0.247  1.00  0.00     0.189 HD
BRANCH   4   6
HETATM    6  N2  UNL     1       3.644   0.181   0.665  1.00  0.00    -0.248 N 
HETATM    7  N1  UNL     1       3.014   1.263   0.602  1.00  0.00    -0.331 N 
ATOM      8  H12 UNL     1       2.218   1.331  -0.032  1.00  0.00     0.178 HD
ATOM      9  H11 UNL     1       3.294   2.059   1.175  1.00  0.00     0.178 HD
ATOM     10  H2  UNL     1       4.442   0.096   1.294  1.00  0.00     0.207 HD
ENDBRANCH   4   6
ENDBRANCH   1   3
BRANCH   1  11
HETATM   11  C2  UNL     1       0.019  -0.303   0.373  1.00  0.00     0.176 C 
BRANCH  11  12
HETATM   12  C3  UNL     1      -1.010   0.802   0.400  1.00  0.00     0.318 C 
HETATM   13  N5  UNL     1      -1.607   0.986  -0.887  1.00  0.00    -0.307 N 
HETATM   14  N6  UNL     1      -2.681   0.404  -1.001  1.00  0.00    -0.313 N 
ATOM     15  H5  UNL     1      -1.185   1.542  -1.631  1.00  0.00     0.182 HD
HETATM   16  C4  UNL     1      -3.015  -0.284   0.187  1.00  0.00     0.373 C 
ATOM     17  H6  UNL     1      -3.257   0.415  -1.843  1.00  0.00     0.181 HD
HETATM   18  N7  UNL     1      -2.146   0.281   1.181  1.00  0.00    -0.035 N 
ATOM     19  H72 UNL     1      -1.883  -0.364   1.926  1.00  0.00     0.281 HD
ATOM     20  H71 UNL     1      -2.592   0.970   1.786  1.00  0.00     0.281 HD
ENDBRANCH  11  12
ENDBRANCH   1  11
TORSDOF 4
