REMARK  7 active torsions:
REMARK  status: ('A' for Active; 'I' for Inactive)
REMARK    1  A    between atoms: C2_2  and  N1_4 
REMARK       I    between atoms: N1_4  and  C4_5 
REMARK    2  A    between atoms: C4_5  and  O2_7 
REMARK    3  A    between atoms: O2_7  and  N2_8 
REMARK       I    between atoms: C5_10  and  N4_12 
REMARK    4  A    between atoms: N4_12  and  N5_14 
REMARK    5  A    between atoms: C6_16  and  N6_17 
REMARK    6  A    between atoms: C6_16  and  C8_22 
REMARK       I    between atoms: C8_22  and  N9_24 
REMARK    7  A    between atoms: N9_24  and  N10_26 
ROOT
HETATM    1  N5  UNL     1      -2.213   1.012   0.039  1.00  0.00    -0.278 N 
ATOM      2  H5  UNL     1      -1.917   1.973  -0.132  1.00  0.00     0.189 HD
HETATM    3  C6  UNL     1      -3.086   0.756   0.940  1.00  0.00     0.193 C 
ENDROOT
BRANCH   1   4
HETATM    4  N4  UNL     1      -1.675  -0.026  -0.700  1.00  0.00    -0.270 N 
HETATM    5  C5  UNL     1      -0.328  -0.442  -0.619  1.00  0.00     0.227 C 
HETATM    6  N2  UNL     1       0.585   0.292  -0.096  1.00  0.00    -0.226 N 
HETATM    7  N3  UNL     1       0.031  -1.708  -1.139  1.00  0.00    -0.060 NA
ATOM      8  H2  UNL     1       0.326   1.205   0.278  1.00  0.00     0.198 HD
ATOM      9  H4  UNL     1      -2.290  -0.523  -1.344  1.00  0.00     0.189 HD
BRANCH   6  10
HETATM   10  O2  UNL     1       1.900  -0.106  -0.021  1.00  0.00    -0.167 OA
BRANCH  10  11
HETATM   11  C4  UNL     1       2.764   0.088  -1.143  1.00  0.00     0.457 C 
HETATM   12  N1  UNL     1       4.069  -0.312  -1.069  1.00  0.00    -0.384 NA
HETATM   13  O1  UNL     1       2.158   0.635  -2.100  1.00  0.00    -0.219 OA
BRANCH  12  14
HETATM   14  C2  UNL     1       5.369  -0.711  -0.996  1.00  0.00     0.161 C 
HETATM   15  C1  UNL     1       6.080   0.281  -0.008  1.00  0.00     0.047 C 
HETATM   16  C3  UNL     1       5.577  -2.063  -0.288  1.00  0.00     0.047 C 
ENDBRANCH  12  14
ENDBRANCH  10  11
ENDBRANCH   6  10
ENDBRANCH   1   4
BRANCH   3  17
HETATM   17  N6  UNL     1      -3.492  -0.596   1.163  1.00  0.00    -0.313 N 
HETATM   18  C7  UNL     1      -4.512  -1.092   0.537  1.00  0.00     0.202 C 
HETATM   19  N7  UNL     1      -4.867  -2.438   0.797  1.00  0.00    -0.066 NA
HETATM   20  N8  UNL     1      -5.263  -0.327  -0.388  1.00  0.00    -0.066 NA
ATOM     21  H6  UNL     1      -2.973  -1.177   1.822  1.00  0.00     0.170 HD
ENDBRANCH   3  17
BRANCH   3  22
HETATM   22  C8  UNL     1      -3.635   1.861   1.712  1.00  0.00     0.304 C 
HETATM   23  O3  UNL     1      -4.492   1.624   2.598  1.00  0.00    -0.263 OA
HETATM   24  N9  UNL     1      -3.224   3.193   1.485  1.00  0.00    -0.270 N 
ATOM     25  H9  UNL     1      -2.530   3.406   0.768  1.00  0.00     0.189 HD
BRANCH  24  26
HETATM   26  N10 UNL     1      -3.778   4.208   2.252  1.00  0.00    -0.342 N 
ATOM     27 2H10 UNL     1      -4.470   3.979   2.965  1.00  0.00     0.176 HD
ATOM     28 1H10 UNL     1      -3.481   5.170   2.088  1.00  0.00     0.176 HD
ENDBRANCH  24  26
ENDBRANCH   3  22
TORSDOF 7
