REMARK  7 active torsions:
REMARK  status: ('A' for Active; 'I' for Inactive)
REMARK    1  A    between atoms: C1_2  and  C2_4 
REMARK       I    between atoms: C2_4  and  N2_6 
REMARK    2  A    between atoms: N2_6  and  N3_8 
REMARK    3  A    between atoms: N3_8  and  C3_10 
REMARK    4  A    between atoms: C3_10  and  N4_12 
REMARK    5  A    between atoms: N4_12  and  N5_14 
REMARK       I    between atoms: N5_14  and  C4_16 
REMARK    6  A    between atoms: C4_16  and  C5_18 
REMARK    7  A    between atoms: C5_18  and  N6_19 
ROOT
HETATM    1  N4  UNL     1      -0.553   0.946   2.177  1.00  0.00    -0.272 N 
ATOM      2  H4  UNL     1      -0.775   1.072   3.165  1.00  0.00     0.189 HD
ENDROOT
BRANCH   1   3
HETATM    3  C3  UNL     1       0.807   0.764   1.865  1.00  0.00     0.205 C 
HETATM    4  S1  UNL     1       1.891   0.747   3.134  1.00  0.00    -0.038 SA
BRANCH   3   5
HETATM    5  N3  UNL     1       1.355   0.595   0.571  1.00  0.00    -0.272 N 
ATOM      6  H3  UNL     1       0.757   0.612  -0.255  1.00  0.00     0.189 HD
BRANCH   5   7
HETATM    7  N2  UNL     1       2.745   0.403   0.450  1.00  0.00    -0.260 N 
HETATM    8  C2  UNL     1       3.356  -0.130  -0.705  1.00  0.00     0.325 C 
HETATM    9  O2  UNL     1       2.653  -0.453  -1.686  1.00  0.00    -0.261 OA
ATOM     10  H2  UNL     1       3.340   0.662   1.237  1.00  0.00     0.190 HD
BRANCH   8  11
HETATM   11  C1  UNL     1       4.789  -0.304  -0.754  1.00  0.00     0.324 C 
HETATM   12  N1  UNL     1       5.497  -0.809  -1.861  1.00  0.00    -0.053 NA
HETATM   13  O1  UNL     1       5.454   0.029   0.286  1.00  0.00    -0.266 OA
ENDBRANCH   8  11
ENDBRANCH   5   7
ENDBRANCH   3   5
ENDBRANCH   1   3
BRANCH   1  14
HETATM   14  N5  UNL     1      -1.625   0.974   1.303  1.00  0.00    -0.266 N 
HETATM   15  C4  UNL     1      -1.935  -0.096   0.472  1.00  0.00     0.272 C 
HETATM   16  O3  UNL     1      -1.242  -1.142   0.465  1.00  0.00    -0.269 OA
ATOM     17  H5  UNL     1      -2.209   1.810   1.267  1.00  0.00     0.190 HD
BRANCH  15  18
HETATM   18  C5  UNL     1      -3.108  -0.091  -0.472  1.00  0.00     0.205 A 
HETATM   19  C6  UNL     1      -3.157  -0.919  -1.667  1.00  0.00     0.052 A 
HETATM   20  C7  UNL     1      -3.849  -1.430  -0.436  1.00  0.00     0.052 A 
BRANCH  18  21
HETATM   21  N6  UNL     1      -3.915   1.114  -0.370  1.00  0.00    -0.061 N 
ATOM     22  H63 UNL     1      -4.221   1.267   0.591  1.00  0.00     0.275 HD
ATOM     23  H62 UNL     1      -3.342   1.948  -0.498  1.00  0.00     0.275 HD
ATOM     24  H61 UNL     1      -4.710   1.117  -1.009  1.00  0.00     0.275 HD
ENDBRANCH  18  21
ENDBRANCH  15  18
ENDBRANCH   1  14
TORSDOF 7
