REMARK  6 active torsions:
REMARK  status: ('A' for Active; 'I' for Inactive)
REMARK       I    between atoms: C2_2  and  N1_4 
REMARK    1  A    between atoms: N1_4  and  N2_6 
REMARK       I    between atoms: N2_6  and  C3_8 
REMARK       I    between atoms: C3_8  and  N3_10 
REMARK    2  A    between atoms: N3_10  and  N4_12 
REMARK    3  A    between atoms: N4_12  and  C4_14 
REMARK    4  A    between atoms: C4_14  and  N5_16 
REMARK    5  A    between atoms: N5_16  and  N6_18 
REMARK       I    between atoms: N6_18  and  C5_20 
REMARK    6  A    between atoms: C5_20  and  C6_22 
ROOT
HETATM    1  N4  UNL     1       0.613  -0.558  -0.768  1.00  0.00    -0.271 N 
ATOM      2  H4  UNL     1       1.356   0.086  -1.041  1.00  0.00     0.189 HD
ENDROOT
BRANCH   1   3
HETATM    3  N3  UNL     1      -0.622  -0.049  -0.986  1.00  0.00    -0.248 N 
HETATM    4  C3  UNL     1      -1.925  -0.474  -0.730  1.00  0.00     0.353 C 
HETATM    5  N2  UNL     1      -3.022   0.373  -1.123  1.00  0.00    -0.248 N 
HETATM    6  O2  UNL     1      -2.255  -1.535  -0.184  1.00  0.00    -0.244 OA
ATOM      7  H2  UNL     1      -2.816   1.264  -1.575  1.00  0.00     0.192 HD
ATOM      8  H3  UNL     1      -0.593   0.861  -1.446  1.00  0.00     0.192 HD
BRANCH   5   9
HETATM    9  N1  UNL     1      -4.342   0.026  -0.911  1.00  0.00    -0.266 N 
HETATM   10  C2  UNL     1      -5.035   0.570   0.200  1.00  0.00     0.232 C 
HETATM   11  C1  UNL     1      -6.448   0.211   0.436  1.00  0.00     0.119 C 
HETATM   12  O1  UNL     1      -4.425   1.354   0.962  1.00  0.00    -0.272 OA
ATOM     13  H1  UNL     1      -4.814  -0.616  -1.548  1.00  0.00     0.190 HD
ENDBRANCH   5   9
ENDBRANCH   1   3
BRANCH   1  14
HETATM   14  C4  UNL     1       1.106  -1.758  -0.257  1.00  0.00     0.205 C 
HETATM   15  S1  UNL     1       0.164  -2.977   0.252  1.00  0.00    -0.038 SA
BRANCH  14  16
HETATM   16  N5  UNL     1       2.537  -1.977  -0.159  1.00  0.00    -0.272 N 
ATOM     17  H5  UNL     1       2.906  -2.850   0.217  1.00  0.00     0.189 HD
BRANCH  16  18
HETATM   18  N6  UNL     1       3.398  -0.966  -0.591  1.00  0.00    -0.261 N 
HETATM   19  C5  UNL     1       4.073  -0.146   0.358  1.00  0.00     0.305 C 
HETATM   20  O3  UNL     1       3.937  -0.285   1.587  1.00  0.00    -0.263 OA
ATOM     21  H6  UNL     1       3.544  -0.814  -1.589  1.00  0.00     0.190 HD
BRANCH  19  22
HETATM   22  C6  UNL     1       4.958   0.897  -0.134  1.00  0.00     0.214 C 
HETATM   23  C7  UNL     1       5.690   1.795   0.775  1.00  0.00     0.102 C 
HETATM   24  O4  UNL     1       5.112   1.049  -1.392  1.00  0.00    -0.288 OA
ENDBRANCH  19  22
ENDBRANCH  16  18
ENDBRANCH  14  16
ENDBRANCH   1  14
TORSDOF 6
