REMARK  6 active torsions:
REMARK  status: ('A' for Active; 'I' for Inactive)
REMARK    1  A    between atoms: C2_2  and  O1_3 
REMARK    2  A    between atoms: O1_3  and  C3_4 
REMARK    3  A    between atoms: C3_4  and  C4_5 
REMARK       I    between atoms: C4_5  and  N1_7 
REMARK    4  A    between atoms: N1_7  and  C5_9 
REMARK    5  A    between atoms: C12_17  and  C13_18 
REMARK       I    between atoms: C13_18  and  N2_20 
REMARK    6  A    between atoms: N2_20  and  C14_22 
ROOT
HETATM    1  C5  UNL     1       1.008  -0.856  -0.105  1.00  0.00     0.129 C 
HETATM    2  C6  UNL     1       1.348  -2.287  -0.499  1.00  0.00     0.149 C 
HETATM    3  O3  UNL     1       0.037  -2.828  -0.464  1.00  0.00    -0.377 OA
HETATM    4  C7  UNL     1      -0.218  -2.577   0.907  1.00  0.00     0.141 C 
HETATM    5  C8  UNL     1       0.888  -3.439   1.496  1.00  0.00     0.018 C 
HETATM    6  C9  UNL     1       0.543  -4.868   1.225  1.00  0.00     0.013 C 
HETATM    7  C10 UNL     1       2.053  -2.971   0.619  1.00  0.00     0.019 C 
HETATM    8  C11 UNL     1       2.876  -4.155   0.175  1.00  0.00     0.013 C 
HETATM    9  C12 UNL     1       0.150  -1.151   1.133  1.00  0.00     0.132 C 
ENDROOT
BRANCH   9  10
HETATM   10  C13 UNL     1      -1.042  -0.240   1.170  1.00  0.00     0.231 C 
HETATM   11  O4  UNL     1      -1.113   0.494   2.184  1.00  0.00    -0.273 OA
HETATM   12  N2  UNL     1      -1.943  -0.278   0.117  1.00  0.00    -0.326 N 
ATOM     13  H2  UNL     1      -1.741  -0.935  -0.636  1.00  0.00     0.169 HD
BRANCH  12  14
HETATM   14  C14 UNL     1      -3.113   0.502  -0.017  1.00  0.00     0.041 A 
HETATM   15  C15 UNL     1      -3.536   1.428   0.895  1.00  0.00     0.037 A 
HETATM   16  C16 UNL     1      -4.700   2.167   0.708  1.00  0.00    -0.060 A 
HETATM   17  C17 UNL     1      -5.121   3.165   1.727  1.00  0.00     0.048 C 
HETATM   18  C18 UNL     1      -5.472   1.990  -0.412  1.00  0.00     0.007 A 
HETATM   19  C19 UNL     1      -5.028   1.051  -1.318  1.00  0.00     0.009 A 
HETATM   20  C20 UNL     1      -3.891   0.314  -1.158  1.00  0.00    -0.035 A 
HETATM   21  C21 UNL     1      -3.506  -0.678  -2.209  1.00  0.00     0.050 C 
ENDBRANCH  12  14
ENDBRANCH   9  10
BRANCH   1  22
HETATM   22  N1  UNL     1       2.134  -0.050   0.178  1.00  0.00    -0.351 N 
HETATM   23  C4  UNL     1       2.343   1.170  -0.512  1.00  0.00     0.241 C 
HETATM   24  O2  UNL     1       1.505   1.514  -1.378  1.00  0.00    -0.271 OA
ATOM     25  H1  UNL     1       2.804  -0.350   0.887  1.00  0.00     0.163 HD
BRANCH  23  26
HETATM   26  C3  UNL     1       3.505   2.052  -0.255  1.00  0.00     0.270 C 
BRANCH  26  27
HETATM   27  O1  UNL     1       3.410   3.157  -1.092  1.00  0.00    -0.382 OA
BRANCH  27  28
HETATM   28  C2  UNL     1       4.515   3.965  -0.825  1.00  0.00     0.163 C 
HETATM   29  C1  UNL     1       4.535   5.213  -1.676  1.00  0.00     0.033 C 
ENDBRANCH  27  28
ENDBRANCH  26  27
ENDBRANCH  23  26
ENDBRANCH   1  22
TORSDOF 6
