REMARK  8 active torsions:
REMARK  status: ('A' for Active; 'I' for Inactive)
REMARK    1  A    between atoms: C1_2  and  N1_3 
REMARK    2  A    between atoms: C1_2  and  C11_21 
REMARK    3  A    between atoms: N1_3  and  C2_5 
REMARK    4  A    between atoms: C2_5  and  C3_6 
REMARK    5  A    between atoms: C3_6  and  C4_7 
REMARK    6  A    between atoms: C4_7  and  C5_8 
REMARK    7  A    between atoms: C5_8  and  N2_9 
REMARK    8  A    between atoms: N2_9  and  C6_11 
ROOT
HETATM    1  C2  UNL     1       0.417  -0.465  -0.024  1.00  0.00     0.120 C 
ENDROOT
BRANCH   1   2
HETATM    2  N1  UNL     1      -0.987  -0.059  -0.182  1.00  0.00    -0.384 N 
ATOM      3  H1  UNL     1      -1.244   0.625  -0.894  1.00  0.00     0.160 HD
BRANCH   2   4
HETATM    4  C1  UNL     1      -1.977  -0.615   0.650  1.00  0.00     0.082 C 
HETATM    5  S1  UNL     1      -1.590  -1.659   1.829  1.00  0.00    -0.065 SA
BRANCH   4   6
HETATM    6  C11 UNL     1      -3.423  -0.241   0.500  1.00  0.00     0.014 C 
HETATM    7  C12 UNL     1      -3.473   1.270   0.612  1.00  0.00     0.021 C 
HETATM    8  C13 UNL     1      -4.923   1.708   0.523  1.00  0.00    -0.013 C 
HETATM    9  C14 UNL     1      -5.437   1.300  -0.826  1.00  0.00     0.009 C 
HETATM   10  C18 UNL     1      -5.660   1.048   1.656  1.00  0.00     0.009 C 
HETATM   11  C15 UNL     1      -5.393  -0.208  -0.923  1.00  0.00    -0.013 C 
HETATM   12  C16 UNL     1      -6.212  -0.839   0.160  1.00  0.00     0.009 C 
HETATM   13  C20 UNL     1      -3.953  -0.637  -0.849  1.00  0.00     0.021 C 
HETATM   14  C17 UNL     1      -5.656  -0.452   1.506  1.00  0.00    -0.013 C 
HETATM   15  C19 UNL     1      -4.217  -0.921   1.559  1.00  0.00     0.021 C 
ENDBRANCH   4   6
ENDBRANCH   2   4
ENDBRANCH   1   2
BRANCH   1  16
HETATM   16  C3  UNL     1       0.629  -1.849  -0.533  1.00  0.00     0.021 C 
BRANCH  16  17
HETATM   17  C4  UNL     1       2.008  -2.373  -0.354  1.00  0.00     0.022 C 
BRANCH  17  18
HETATM   18  C5  UNL     1       3.081  -1.623  -1.031  1.00  0.00     0.138 C 
BRANCH  18  19
HETATM   19  N2  UNL     1       3.319  -0.272  -0.614  1.00  0.00    -0.225 N 
ATOM     20  H2  UNL     1       2.524   0.363  -0.541  1.00  0.00     0.177 HD
BRANCH  19  21
HETATM   21  C6  UNL     1       4.501   0.178  -0.325  1.00  0.00     0.694 A 
HETATM   22  N3  UNL     1       5.609  -0.577  -0.390  1.00  0.00    -0.178 N 
HETATM   23  C7  UNL     1       6.673   0.160  -0.031  1.00  0.00     0.114 A 
ATOM     24  H3  UNL     1       5.638  -1.558  -0.669  1.00  0.00     0.185 HD
HETATM   25  N4  UNL     1       6.236   1.391   0.263  1.00  0.00    -0.266 N 
HETATM   26  C10 UNL     1       8.146   0.064   0.143  1.00  0.00     0.080 C 
HETATM   27  N5  UNL     1       4.920   1.377   0.077  1.00  0.00    -0.129 N 
HETATM   28  C8  UNL     1       7.372   2.225   0.664  1.00  0.00     0.151 C 
ATOM     29  H5  UNL     1       4.309   2.181   0.223  1.00  0.00     0.206 HD
HETATM   30  C9  UNL     1       8.559   1.516   0.053  1.00  0.00     0.029 C 
ENDBRANCH  19  21
ENDBRANCH  18  19
ENDBRANCH  17  18
ENDBRANCH  16  17
ENDBRANCH   1  16
TORSDOF 8
