REMARK  7 active torsions:
REMARK  status: ('A' for Active; 'I' for Inactive)
REMARK    1  A    between atoms: C2_2  and  C3_3 
REMARK       I    between atoms: C3_3  and  N1_5 
REMARK    2  A    between atoms: N1_5  and  C4_7 
REMARK    3  A    between atoms: C4_7  and  C5_8 
REMARK    4  A    between atoms: C12_15  and  N2_16 
REMARK       I    between atoms: N2_16  and  C13_18 
REMARK    5  A    between atoms: C13_18  and  C14_20 
REMARK    6  A    between atoms: C14_20  and  N3_21 
REMARK    7  A    between atoms: C14_20  and  C15_25 
ROOT
HETATM    1  C5  UNL     1      -2.878  -0.716  -0.315  1.00  0.00    -0.021 C 
HETATM    2  C6  UNL     1      -2.984  -0.778   1.185  1.00  0.00     0.016 C 
HETATM    3  C7  UNL     1      -1.969  -1.782   1.705  1.00  0.00    -0.011 C 
HETATM    4  C8  UNL     1      -2.334  -3.133   1.181  1.00  0.00     0.009 C 
HETATM    5  C9  UNL     1      -2.242  -3.100  -0.319  1.00  0.00    -0.011 C 
HETATM    6  C10 UNL     1      -3.167  -2.094  -0.927  1.00  0.00     0.016 C 
HETATM    7  C11 UNL     1      -0.819  -2.721  -0.717  1.00  0.00     0.035 C 
HETATM    8  C12 UNL     1      -0.488  -1.344  -0.219  1.00  0.00     0.034 C 
HETATM    9  C21 UNL     1      -0.613  -1.305   1.294  1.00  0.00     0.035 C 
HETATM   10  C22 UNL     1      -1.488  -0.315  -0.738  1.00  0.00     0.042 C 
ENDROOT
BRANCH   8  11
HETATM   11  N2  UNL     1       0.811  -0.965  -0.674  1.00  0.00    -0.350 N 
HETATM   12  C13 UNL     1       2.007  -1.635  -0.340  1.00  0.00     0.249 C 
HETATM   13  O2  UNL     1       1.990  -2.631   0.402  1.00  0.00    -0.271 OA
ATOM     14  H2  UNL     1       0.879  -0.151  -1.285  1.00  0.00     0.163 HD
BRANCH  12  15
HETATM   15  C14 UNL     1       3.339  -1.181  -0.859  1.00  0.00     0.278 C 
BRANCH  15  16
HETATM   16  N3  UNL     1       4.401  -2.017  -0.383  1.00  0.00    -0.066 N 
ATOM     17  H33 UNL     1       4.399  -2.080   0.635  1.00  0.00     0.275 HD
ATOM     18  H32 UNL     1       4.230  -2.998  -0.602  1.00  0.00     0.275 HD
ATOM     19  H31 UNL     1       5.307  -1.708  -0.736  1.00  0.00     0.275 HD
ENDBRANCH  15  16
BRANCH  15  20
HETATM   20  C15 UNL     1       3.536   0.283  -0.549  1.00  0.00     0.025 C 
HETATM   21  C16 UNL     1       3.496   0.561   0.936  1.00  0.00     0.007 C 
HETATM   22  C17 UNL     1       3.406   2.064   1.104  1.00  0.00     0.000 C 
HETATM   23  C18 UNL     1       4.582   2.765   0.467  1.00  0.00     0.000 C 
HETATM   24  C19 UNL     1       4.826   2.307  -0.947  1.00  0.00     0.000 C 
HETATM   25  C20 UNL     1       4.867   0.791  -1.056  1.00  0.00     0.007 C 
ENDBRANCH  15  20
ENDBRANCH  12  15
ENDBRANCH   8  11
BRANCH   1  26
HETATM   26  C4  UNL     1      -3.927   0.212  -0.880  1.00  0.00     0.132 C 
BRANCH  26  27
HETATM   27  N1  UNL     1      -3.792   1.556  -0.379  1.00  0.00    -0.357 N 
HETATM   28  C3  UNL     1      -4.703   2.542  -0.816  1.00  0.00     0.240 C 
HETATM   29  O1  UNL     1      -5.616   2.253  -1.630  1.00  0.00    -0.269 OA
ATOM     30  H1  UNL     1      -3.050   1.791   0.281  1.00  0.00     0.162 HD
BRANCH  28  31
HETATM   31  C2  UNL     1      -4.603   3.909  -0.337  1.00  0.00     0.064 C 
HETATM   32  C1  UNL     1      -3.692   4.340   0.516  1.00  0.00     0.017 C 
ENDBRANCH  28  31
ENDBRANCH  26  27
ENDBRANCH   1  26
TORSDOF 7
