REMARK  1 active torsions:
REMARK  status: ('A' for Active; 'I' for Inactive)
REMARK    1  A    between atoms: O1_1  and  N1_3 
ROOT
HETATM    1  N1  UNL     1      -1.250   0.307   0.118  1.00  0.00    -0.135 N 
HETATM    2  N2  UNL     1      -1.413  -0.606  -0.694  1.00  0.00    -0.249 N 
ATOM      3  H2  UNL     1      -1.892  -1.022  -1.492  1.00  0.00     0.188 HD
HETATM    4  C1  UNL     1      -0.385  -0.639   0.370  1.00  0.00     0.336 A 
HETATM    5  O2  UNL     1       0.555  -1.448  -0.076  1.00  0.00    -0.288 OA
HETATM    6  C2  UNL     1       1.048  -0.205  -0.015  1.00  0.00     0.297 A 
HETATM    7 CL1  UNL     1       1.993   0.356   1.394  1.00  0.00    -0.063 Cl
HETATM    8 CL2  UNL     1       1.227   0.670  -1.540  1.00  0.00    -0.063 Cl
ENDROOT
BRANCH   1   9
HETATM    9  O1  UNL     1      -1.776   1.566   0.443  1.00  0.00    -0.268 OA
ATOM     10  H1  UNL     1      -1.650   2.270   1.069  1.00  0.00     0.246 HD
ENDBRANCH   1   9
TORSDOF 1
