REMARK  2 active torsions:
REMARK  status: ('A' for Active; 'I' for Inactive)
REMARK    1  A    between atoms: N2_3  and  C2_5 
REMARK    2  A    between atoms: C2_5  and  O1_6 
ROOT
HETATM    1  N1  UNL     1       2.387  -0.070  -1.197  1.00  0.00    -0.172 NA
HETATM    2  C1  UNL     1       1.471  -0.247  -0.498  1.00  0.00     0.181 C 
HETATM    3  N2  UNL     1       0.381  -0.481   0.340  1.00  0.00    -0.269 N 
ATOM      4  H2  UNL     1       0.448  -1.203   1.057  1.00  0.00     0.177 HD
ENDROOT
BRANCH   3   5
HETATM    5  C2  UNL     1      -0.827   0.270   0.215  1.00  0.00     0.306 C 
HETATM    6 CL1  UNL     1      -1.527  -0.125  -1.395  1.00  0.00    -0.046 Cl
HETATM    7 CL2  UNL     1      -0.568   2.019   0.303  1.00  0.00    -0.046 Cl
BRANCH   5   8
HETATM    8  O1  UNL     1      -1.762  -0.147   1.159  1.00  0.00    -0.345 OA
ATOM      9  H1  UNL     1      -2.566   0.353   1.076  1.00  0.00     0.215 HD
ENDBRANCH   5   8
ENDBRANCH   3   5
TORSDOF 2
