REMARK  1 active torsions:
REMARK  status: ('A' for Active; 'I' for Inactive)
REMARK    1  A    between atoms: O1_1  and  C1_3 
ROOT
HETATM    1  C1  UNL     1       0.425  -0.262  -0.568  1.00  0.00     0.198 A 
HETATM    2  C2  UNL     1      -0.615  -0.566   0.476  1.00  0.00     0.173 A 
HETATM    3 CL1  UNL     1      -2.077  -1.347  -0.163  1.00  0.00    -0.117 Cl
HETATM    4  C3  UNL     1      -0.305   0.846   0.097  1.00  0.00     0.225 A 
HETATM    5  F1  UNL     1       0.266   1.601   1.083  1.00  0.00    -0.221 F 
HETATM    6 CL2  UNL     1      -1.430   1.745  -0.950  1.00  0.00    -0.078 Cl
ENDROOT
BRANCH   1   7
HETATM    7  O1  UNL     1       1.715  -0.603  -0.212  1.00  0.00    -0.389 OA
ATOM      8  H1  UNL     1       2.372  -0.411  -0.871  1.00  0.00     0.210 HD
ENDBRANCH   1   7
TORSDOF 1
