REMARK  0 active torsions:
REMARK  status: ('A' for Active; 'I' for Inactive)
ROOT
HETATM    1  O1  UNL     1      -0.117   1.990  -0.797  1.00  0.00    -0.291 OA
HETATM    2  C1  UNL     1      -0.028   0.826  -0.471  1.00  0.00     0.217 C 
HETATM    3  C2  UNL     1      -1.010  -0.203  -0.089  1.00  0.00     0.355 C 
HETATM    4 CL1  UNL     1      -2.297   0.286   0.992  1.00  0.00    -0.086 Cl
HETATM    5  N1  UNL     1       0.053  -0.887   0.631  1.00  0.00    -0.027 N 
ATOM      6  H11 UNL     1       0.054  -1.902   0.732  1.00  0.00     0.281 HD
ATOM      7  H12 UNL     1       0.138  -0.810   1.645  1.00  0.00     0.281 HD
HETATM    8  C3  UNL     1       1.001  -0.212  -0.265  1.00  0.00     0.355 C 
HETATM    9 CL2  UNL     1       2.485   0.308   0.514  1.00  0.00    -0.086 Cl
ENDROOT
TORSDOF 0
