REMARK  1 active torsions:
REMARK  status: ('A' for Active; 'I' for Inactive)
REMARK    1  A    between atoms: O1_1  and  N1_3 
ROOT
HETATM    1  N1  UNL     1       0.997  -0.747   0.100  1.00  0.00    -0.132 N 
HETATM    2  N2  UNL     1      -0.143  -1.413   0.054  1.00  0.00    -0.213 N 
ATOM      3  H2  UNL     1      -0.214  -2.430   0.036  1.00  0.00     0.211 HD
HETATM    4  N3  UNL     1      -1.176  -0.596   0.035  1.00  0.00    -0.257 N 
ATOM      5  H3  UNL     1      -2.156  -0.875  -0.000  1.00  0.00     0.191 HD
HETATM    6  C1  UNL     1      -0.718   0.673   0.070  1.00  0.00     0.247 A 
HETATM    7  F1  UNL     1      -1.480   1.787   0.064  1.00  0.00    -0.181 F 
HETATM    8  C2  UNL     1       0.652   0.552   0.110  1.00  0.00     0.209 A 
HETATM    9 CL1  UNL     1       1.771   1.868   0.166  1.00  0.00    -0.055 Cl
ENDROOT
BRANCH   1  10
HETATM   10  O1  UNL     1       2.292  -1.257   0.132  1.00  0.00    -0.266 OA
ATOM     11  H1  UNL     1       3.112  -0.778   0.165  1.00  0.00     0.247 HD
ENDBRANCH   1  10
TORSDOF 1
