REMARK  4 active torsions:
REMARK  status: ('A' for Active; 'I' for Inactive)
REMARK    1  A    between atoms: N1_1  and  C1_5 
REMARK    2  A    between atoms: C1_5  and  C2_6 
REMARK    3  A    between atoms: C3_7  and  C4_8 
REMARK    4  A    between atoms: C4_8  and  C5_9 
ROOT
HETATM    1  C2  UNL     1      -1.356   0.394   0.081  1.00  0.00     0.058 A 
HETATM    2  C3  UNL     1      -0.377  -0.427  -0.452  1.00  0.00     0.034 A 
HETATM    3  N6  UNL     1      -0.548  -1.765  -0.291  1.00  0.00    -0.311 N 
ATOM      4  H6  UNL     1       0.171  -2.380  -0.673  1.00  0.00     0.170 HD
HETATM    5  C6  UNL     1      -1.574  -2.333   0.322  1.00  0.00     0.327 A 
HETATM    6  O1  UNL     1      -1.713  -3.571   0.467  1.00  0.00    -0.247 OA
HETATM    7  N7  UNL     1      -2.540  -1.519   0.850  1.00  0.00    -0.275 N 
ATOM      8  H7  UNL     1      -3.351  -1.910   1.330  1.00  0.00     0.173 HD
HETATM    9  C7  UNL     1      -2.388  -0.183   0.716  1.00  0.00     0.259 A 
HETATM   10  O2  UNL     1      -3.349   0.478   1.283  1.00  0.00    -0.267 OA
ENDROOT
BRANCH   2  11
HETATM   11  C4  UNL     1       0.802   0.072  -1.118  1.00  0.00     0.137 C 
BRANCH  11  12
HETATM   12  C5  UNL     1       2.108  -0.148  -0.394  1.00  0.00     0.118 A 
HETATM   13  N2  UNL     1       2.302  -0.339   0.924  1.00  0.00    -0.272 N 
HETATM   14  N3  UNL     1       3.628  -0.517   1.079  1.00  0.00    -0.227 N 
ATOM     15  H2  UNL     1       1.591  -0.347   1.655  1.00  0.00     0.190 HD
HETATM   16  N4  UNL     1       4.199  -0.467  -0.074  1.00  0.00    -0.227 N 
ATOM     17  H3  UNL     1       4.104  -0.667   1.968  1.00  0.00     0.210 HD
HETATM   18  N5  UNL     1       3.302  -0.233  -0.951  1.00  0.00    -0.272 N 
ATOM     19  H4  UNL     1       5.195  -0.593  -0.255  1.00  0.00     0.210 HD
ATOM     20  H5  UNL     1       3.483  -0.126  -1.949  1.00  0.00     0.190 HD
ENDBRANCH  11  12
ENDBRANCH   2  11
BRANCH   1  21
HETATM   21  C1  UNL     1      -1.320   1.805  -0.345  1.00  0.00     0.275 C 
BRANCH  21  22
HETATM   22  N1  UNL     1      -0.923   2.797   0.596  1.00  0.00    -0.075 N 
ATOM     23  H13 UNL     1      -1.512   2.718   1.425  1.00  0.00     0.274 HD
ATOM     24  H12 UNL     1      -0.011   2.544   0.976  1.00  0.00     0.274 HD
ATOM     25  H11 UNL     1      -0.898   3.773   0.301  1.00  0.00     0.274 HD
ENDBRANCH  21  22
ENDBRANCH   1  21
TORSDOF 4
