REMARK  4 active torsions:
REMARK  status: ('A' for Active; 'I' for Inactive)
REMARK    1  A    between atoms: N1_1  and  C1_4 
REMARK    2  A    between atoms: N5_17  and  C6_18 
REMARK    3  A    between atoms: C6_18  and  O3_19 
REMARK    4  A    between atoms: O3_19  and  O4_20 
ROOT
HETATM    1  C1  UNL     1      -2.418  -0.696   0.034  1.00  0.00     0.133 A 
HETATM    2  N2  UNL     1      -1.741  -1.819  -0.267  1.00  0.00    -0.283 N 
ATOM      3  H2  UNL     1      -2.167  -2.736  -0.403  1.00  0.00     0.188 HD
HETATM    4  N3  UNL     1      -0.451  -1.569  -0.362  1.00  0.00    -0.283 N 
ATOM      5  H3  UNL     1       0.263  -2.264  -0.581  1.00  0.00     0.188 HD
HETATM    6  C2  UNL     1      -0.209  -0.264  -0.128  1.00  0.00     0.147 A 
HETATM    7  C3  UNL     1      -1.467   0.299   0.127  1.00  0.00     0.122 A 
HETATM    8  C4  UNL     1      -1.515   1.653   0.404  1.00  0.00     0.267 A 
HETATM    9  O1  UNL     1      -2.658   2.135   0.629  1.00  0.00    -0.267 OA
HETATM   10  N4  UNL     1      -0.397   2.395   0.427  1.00  0.00    -0.274 N 
ATOM     11  H4  UNL     1      -0.439   3.393   0.632  1.00  0.00     0.173 HD
HETATM   12  C5  UNL     1       0.783   1.793   0.173  1.00  0.00     0.332 A 
HETATM   13  O2  UNL     1       1.804   2.509   0.202  1.00  0.00    -0.246 OA
HETATM   14  N5  UNL     1       0.897   0.495  -0.100  1.00  0.00    -0.258 N 
ENDROOT
BRANCH  14  15
HETATM   15  C6  UNL     1       2.197  -0.062  -0.358  1.00  0.00     0.347 C 
BRANCH  15  16
HETATM   16  O3  UNL     1       2.797  -0.512   0.819  1.00  0.00    -0.223 OA
BRANCH  16  17
HETATM   17  O4  UNL     1       3.972  -1.006   0.516  1.00  0.00    -0.249 OA
ATOM     18  H4  UNL     1       4.380  -1.312   1.317  1.00  0.00     0.253 HD
ENDBRANCH  16  17
ENDBRANCH  15  16
ENDBRANCH  14  15
BRANCH   1  19
HETATM   19  N1  UNL     1      -3.686  -0.519   0.212  1.00  0.00    -0.384 N 
ATOM     20  H12 UNL     1      -4.389  -1.255   0.143  1.00  0.00     0.157 HD
ATOM     21  H11 UNL     1      -4.199   0.332   0.440  1.00  0.00     0.157 HD
ENDBRANCH   1  19
TORSDOF 4
