REMARK  2 active torsions:
REMARK  status: ('A' for Active; 'I' for Inactive)
REMARK    1  A    between atoms: C12_13  and  O1_14 
REMARK    2  A    between atoms: C12_13  and  O2_16 
ROOT
HETATM    1  C1  UNL     1       3.358   0.122   0.169  1.00  0.00     0.060 C 
HETATM    2  C2  UNL     1       2.192  -0.797   0.204  1.00  0.00     0.026 C 
HETATM    3  C3  UNL     1       2.415  -2.083   0.796  1.00  0.00     0.095 C 
HETATM    4  N1  UNL     1       2.621  -3.134   1.286  1.00  0.00    -0.192 NA
HETATM    5  C4  UNL     1       1.039  -0.419  -0.290  1.00  0.00    -0.002 C 
HETATM    6  C5  UNL     1       0.948   0.968  -0.885  1.00  0.00     0.045 C 
HETATM    7  C6  UNL     1      -0.196   1.623  -0.110  1.00  0.00    -0.014 C 
HETATM    8  C7  UNL     1      -0.264   3.099  -0.356  1.00  0.00     0.010 C 
HETATM    9  C8  UNL     1      -1.446   0.888  -0.464  1.00  0.00     0.019 C 
HETATM   10  C9  UNL     1      -1.388  -0.466   0.248  1.00  0.00     0.013 C 
HETATM   11  C10 UNL     1      -1.291  -0.272   1.727  1.00  0.00     0.021 C 
HETATM   12  C11 UNL     1      -2.633  -1.277  -0.048  1.00  0.00     0.021 C 
HETATM   13  C12 UNL     1      -0.201  -1.199  -0.334  1.00  0.00     0.193 C 
ENDROOT
BRANCH  13  14
HETATM   14  O1  UNL     1      -0.515  -1.385  -1.701  1.00  0.00    -0.361 OA
ATOM     15  H1  UNL     1      -1.319  -1.891  -1.730  1.00  0.00     0.213 HD
ENDBRANCH  13  14
BRANCH  13  16
HETATM   16  O2  UNL     1      -0.084  -2.462   0.211  1.00  0.00    -0.361 OA
ATOM     17  H2  UNL     1      -0.888  -2.968   0.182  1.00  0.00     0.213 HD
ENDBRANCH  13  16
TORSDOF 2
