REMARK  2 active torsions:
REMARK  status: ('A' for Active; 'I' for Inactive)
REMARK    1  A    between atoms: N1_8  and  O1_10 
REMARK    2  A    between atoms: C9_13  and  O2_15 
ROOT
HETATM    1  C1  UNL     1      -1.946  -1.219   1.373  1.00  0.00     0.010 C 
HETATM    2  C2  UNL     1      -1.489  -1.319  -0.068  1.00  0.00    -0.014 C 
HETATM    3  C3  UNL     1      -2.572  -0.613  -0.895  1.00  0.00     0.005 C 
HETATM    4  C4  UNL     1      -2.627   0.857  -0.667  1.00  0.00     0.001 C 
HETATM    5  C5  UNL     1      -1.284   1.539  -0.579  1.00  0.00     0.011 C 
HETATM    6  C6  UNL     1      -0.341   0.779   0.330  1.00  0.00     0.038 C 
HETATM    7  C7  UNL     1       0.934   1.468   0.473  1.00  0.00     0.017 C 
HETATM    8  N1  UNL     1       1.010   2.554   1.140  1.00  0.00    -0.277 N 
ATOM      9  H1  UNL     1       1.901   3.040   1.241  1.00  0.00     0.193 HD
HETATM   10  C8  UNL     1       2.142   0.919  -0.144  1.00  0.00     0.092 C 
HETATM   11  C9  UNL     1       2.297  -0.561   0.017  1.00  0.00     0.059 C 
HETATM   12  C10 UNL     1       3.066  -1.076  -1.189  1.00  0.00     0.046 C 
HETATM   13  C11 UNL     1       1.021  -1.320   0.137  1.00  0.00     0.043 C 
HETATM   14  C12 UNL     1      -0.197  -0.584  -0.310  1.00  0.00     0.002 C 
ENDROOT
BRANCH   8  15
HETATM   15  O1  UNL     1      -0.125   3.054   1.716  1.00  0.00    -0.290 OA
ATOM     16  H1  UNL     1      -0.068   3.862   2.212  1.00  0.00     0.244 HD
ENDBRANCH   8  15
BRANCH  11  17
HETATM   17  O2  UNL     1       3.095  -0.814   1.132  1.00  0.00    -0.390 OA
ATOM     18  H2  UNL     1       3.193  -1.753   1.234  1.00  0.00     0.210 HD
ENDBRANCH  11  17
TORSDOF 2
