REMARK  0 active torsions:
REMARK  status: ('A' for Active; 'I' for Inactive)
ROOT
HETATM    1  N1  UNL     1      -2.438  -1.052   1.857  1.00  0.00    -0.406 N 
ATOM      2  H11 UNL     1      -2.083  -1.641   2.611  1.00  0.00     0.155 HD
ATOM      3  H12 UNL     1      -3.096  -0.297   2.049  1.00  0.00     0.155 HD
HETATM    4  C1  UNL     1      -2.057  -1.257   0.658  1.00  0.00    -0.020 C 
HETATM    5  C2  UNL     1      -2.569  -0.407  -0.430  1.00  0.00     0.052 C 
HETATM    6  C3  UNL     1      -2.620   1.065  -0.082  1.00  0.00     0.011 C 
HETATM    7  C4  UNL     1      -1.618   1.758  -1.000  1.00  0.00     0.044 C 
HETATM    8  C5  UNL     1      -1.224   3.094  -0.528  1.00  0.00     0.055 C 
HETATM    9  N2  UNL     1      -0.228   3.272   0.241  1.00  0.00    -0.401 N 
ATOM     10  H2  UNL     1      -0.032   4.235   0.513  1.00  0.00     0.158 HD
HETATM   11  C6  UNL     1       0.640   2.281   0.762  1.00  0.00     0.146 C 
HETATM   12  C7  UNL     1       1.808   1.948  -0.161  1.00  0.00     0.251 C 
HETATM   13  N3  UNL     1       2.494   0.790   0.355  1.00  0.00    -0.074 N 
ATOM     14  H31 UNL     1       2.114   0.529   1.265  1.00  0.00     0.277 HD
ATOM     15  H32 UNL     1       3.447   1.034   0.626  1.00  0.00     0.277 HD
HETATM   16  C8  UNL     1       2.501  -0.345  -0.528  1.00  0.00     0.232 C 
HETATM   17  C9  UNL     1       2.529  -1.594   0.312  1.00  0.00     0.027 C 
HETATM   18  C10 UNL     1       1.400  -2.556  -0.012  1.00  0.00     0.002 C 
HETATM   19  C11 UNL     1       0.136  -1.832  -0.326  1.00  0.00     0.006 C 
HETATM   20  C12 UNL     1      -1.089  -2.367   0.376  1.00  0.00     0.052 C 
ENDROOT
TORSDOF 0
