REMARK  4 active torsions:
REMARK  status: ('A' for Active; 'I' for Inactive)
REMARK    1  A    between atoms: C2_2  and  O1_5 
REMARK    2  A    between atoms: O1_5  and  C5_6 
REMARK    3  A    between atoms: C5_6  and  N2_11 
REMARK    4  A    between atoms: N1_7  and  O2_9 
ROOT
HETATM    1  C5  UNL     1      -0.290   0.310  -0.571  1.00  0.00     0.245 C 
HETATM    2  N1  UNL     1      -0.714   1.513  -0.382  1.00  0.00    -0.232 N 
ATOM      3  H1  UNL     1      -1.577   1.700   0.128  1.00  0.00     0.198 HD
ENDROOT
BRANCH   1   4
HETATM    4  O1  UNL     1      -1.084  -0.692  -0.037  1.00  0.00    -0.310 OA
BRANCH   4   5
HETATM    5  C2  UNL     1      -2.449  -0.489   0.261  1.00  0.00     0.060 C 
HETATM    6  C1  UNL     1      -3.064  -1.767   0.834  1.00  0.00     0.046 C 
HETATM    7  C3  UNL     1      -2.714   0.653   1.179  1.00  0.00     0.046 C 
HETATM    8  C4  UNL     1      -3.147  -0.275  -1.083  1.00  0.00     0.046 C 
ENDBRANCH   4   5
ENDBRANCH   1   4
BRANCH   1   9
HETATM    9  N2  UNL     1       0.869  -0.065  -1.248  1.00  0.00    -0.319 N 
HETATM   10  C6  UNL     1       2.032  -0.222  -0.787  1.00  0.00     0.049 C 
HETATM   11  C7  UNL     1       2.618  -0.094   0.528  1.00  0.00     0.065 C 
HETATM   12  S1  UNL     1       3.397  -0.718  -1.875  1.00  0.00    -0.117 SA
HETATM   13  C8  UNL     1       4.062  -0.082   0.534  1.00  0.00     0.017 C 
HETATM   14  C9  UNL     1       4.689   0.015  -0.794  1.00  0.00     0.081 C 
ATOM     15  H2  UNL     1       0.762  -0.235  -2.248  1.00  0.00     0.169 HD
ENDBRANCH   1   9
BRANCH   2  16
HETATM   16  O2  UNL     1       0.051   2.532  -0.899  1.00  0.00    -0.287 OA
ATOM     17  H2  UNL     1      -0.261   3.418  -0.760  1.00  0.00     0.244 HD
ENDBRANCH   2  16
TORSDOF 4
