REMARK  15 active torsions:
REMARK  status: ('A' for Active; 'I' for Inactive)
REMARK    1  A    between atoms: C2_2  and  C3_3 
REMARK    2  A    between atoms: C3_3  and  C4_4 
REMARK    3  A    between atoms: C4_4  and  C5_5 
REMARK    4  A    between atoms: C5_5  and  C6_6 
REMARK    5  A    between atoms: C6_6  and  O1_7 
REMARK    6  A    between atoms: C6_6  and  C7_9 
REMARK    7  A    between atoms: C9_11  and  N1_12 
REMARK    8  A    between atoms: N1_12  and  C10_14 
REMARK    9  A    between atoms: C10_14  and  C11_15 
REMARK   10  A    between atoms: C11_15  and  C12_16 
REMARK   11  A    between atoms: C12_16  and  N2_17 
REMARK   12  A    between atoms: N2_17  and  C13_18 
REMARK   13  A    between atoms: N2_17  and  C15_20 
REMARK   14  A    between atoms: C26_31  and  O2_32 
REMARK   15  A    between atoms: C33_41  and  O4_42 
ROOT
HETATM    1  C7  UNL     1      -0.080   1.377  -0.883  1.00  0.00     0.007 C 
HETATM    2  C8  UNL     1      -0.021   2.027  -2.243  1.00  0.00     0.020 C 
HETATM    3  C9  UNL     1       1.142   0.471  -0.733  1.00  0.00     0.091 C 
HETATM    4  C17 UNL     1       0.972  -0.865  -1.363  1.00  0.00     0.027 C 
HETATM    5  C18 UNL     1      -0.328  -1.502  -0.843  1.00  0.00     0.016 C 
HETATM    6  C19 UNL     1      -1.491  -0.683  -1.294  1.00  0.00    -0.013 C 
HETATM    7  C20 UNL     1      -1.648  -0.568  -2.786  1.00  0.00     0.021 C 
HETATM    8  C21 UNL     1      -2.774  -1.262  -0.814  1.00  0.00    -0.034 C 
HETATM    9  C22 UNL     1      -3.677  -0.625  -0.083  1.00  0.00    -0.044 C 
HETATM   10  C23 UNL     1      -3.514   0.804   0.363  1.00  0.00     0.038 C 
HETATM   11  C24 UNL     1      -2.575   1.422  -0.691  1.00  0.00     0.011 C 
HETATM   12  C25 UNL     1      -1.316   0.641  -0.598  1.00  0.00     0.011 C 
HETATM   13  C26 UNL     1      -4.962  -1.260   0.375  1.00  0.00     0.160 C 
HETATM   14  C27 UNL     1      -4.804  -2.701   0.723  1.00  0.00     0.019 C 
HETATM   15  C28 UNL     1      -5.965  -3.542   0.190  1.00  0.00     0.023 C 
HETATM   16  C29 UNL     1      -4.669  -3.011   2.187  1.00  0.00     0.099 C 
HETATM   17  C30 UNL     1      -3.939  -4.331   2.103  1.00  0.00     0.150 C 
HETATM   18  O3  UNL     1      -4.002  -5.332   2.827  1.00  0.00    -0.293 OA
HETATM   19  C31 UNL     1      -3.078  -4.208   0.920  1.00  0.00     0.056 C 
HETATM   20  C32 UNL     1      -3.565  -3.283   0.134  1.00  0.00    -0.032 C 
HETATM   21  C33 UNL     1      -3.184  -2.669  -1.170  1.00  0.00     0.178 C 
ENDROOT
BRANCH   3  22
HETATM   22  N1  UNL     1       2.314   1.133  -1.070  1.00  0.00    -0.397 N 
ATOM     23  H1  UNL     1       2.250   2.123  -1.307  1.00  0.00     0.159 HD
BRANCH  22  24
HETATM   24  C10 UNL     1       3.563   0.541  -1.106  1.00  0.00     0.057 C 
BRANCH  24  25
HETATM   25  C11 UNL     1       3.969  -0.366  -2.226  1.00  0.00     0.074 C 
BRANCH  25  26
HETATM   26  C12 UNL     1       5.423  -0.818  -2.014  1.00  0.00     0.277 C 
BRANCH  26  27
HETATM   27  N2  UNL     1       5.566  -1.529  -0.781  1.00  0.00     0.088 N 
BRANCH  27  28
HETATM   28  C13 UNL     1       4.944  -2.810  -0.723  1.00  0.00     0.268 C 
HETATM   29  C14 UNL     1       5.200  -3.465   0.625  1.00  0.00     0.037 C 
ENDBRANCH  27  28
BRANCH  27  30
HETATM   30  C15 UNL     1       6.909  -1.456  -0.311  1.00  0.00     0.268 C 
HETATM   31  C16 UNL     1       7.176  -0.004   0.097  1.00  0.00     0.037 C 
ENDBRANCH  27  30
ENDBRANCH  26  27
ENDBRANCH  25  26
ENDBRANCH  24  25
ENDBRANCH  22  24
ENDBRANCH   3  22
BRANCH   1  32
HETATM   32  C6  UNL     1       0.067   2.516   0.101  1.00  0.00     0.128 C 
BRANCH  32  33
HETATM   33  C5  UNL     1       0.052   2.164   1.534  1.00  0.00     0.032 C 
BRANCH  33  34
HETATM   34  C4  UNL     1       0.165   3.454   2.350  1.00  0.00     0.002 C 
BRANCH  34  35
HETATM   35  C3  UNL     1      -0.944   4.415   2.110  1.00  0.00    -0.000 C 
BRANCH  35  36
HETATM   36  C2  UNL     1      -0.688   5.636   3.011  1.00  0.00    -0.005 C 
HETATM   37  C1  UNL     1      -1.786   6.658   2.809  1.00  0.00     0.005 C 
ENDBRANCH  35  36
ENDBRANCH  34  35
ENDBRANCH  33  34
ENDBRANCH  32  33
BRANCH  32  38
HETATM   38  O1  UNL     1       1.263   3.169  -0.188  1.00  0.00    -0.395 OA
ATOM     39  H1  UNL     1       1.273   3.396  -1.111  1.00  0.00     0.210 HD
ENDBRANCH  32  38
ENDBRANCH   1  32
BRANCH  21  40
HETATM   40  O4  UNL     1      -2.316  -3.366  -1.927  1.00  0.00    -0.387 OA
ATOM     41  H4  UNL     1      -2.574  -4.252  -2.151  1.00  0.00     0.210 HD
ENDBRANCH  21  40
BRANCH  13  42
HETATM   42  O2  UNL     1      -5.864  -1.106  -0.664  1.00  0.00    -0.390 OA
ATOM     43  H2  UNL     1      -6.675  -1.507  -0.375  1.00  0.00     0.210 HD
ENDBRANCH  13  42
TORSDOF 15
