REMARK  15 active torsions:
REMARK  status: ('A' for Active; 'I' for Inactive)
REMARK    1  A    between atoms: C2_2  and  C3_3 
REMARK    2  A    between atoms: C3_3  and  C4_4 
REMARK    3  A    between atoms: C4_4  and  N1_5 
REMARK    4  A    between atoms: C6_10  and  N3_11 
REMARK    5  A    between atoms: N3_11  and  C7_13 
REMARK    6  A    between atoms: C7_13  and  C8_14 
REMARK    7  A    between atoms: C11_17  and  C12_18 
REMARK    8  A    between atoms: C20_26  and  O1_27 
REMARK    9  A    between atoms: C22_31  and  N5_32 
REMARK   10  A    between atoms: N5_32  and  C23_34 
REMARK   11  A    between atoms: C28_39  and  C29_40 
REMARK   12  A    between atoms: C29_40  and  C30_41 
REMARK   13  A    between atoms: C30_41  and  C31_42 
REMARK   14  A    between atoms: C31_42  and  C32_43 
REMARK   15  A    between atoms: C32_43  and  O2_44 
ROOT
HETATM    1  N1  UNL     1      -0.619   4.081  -0.713  1.00  0.00    -0.204 N 
ATOM      2  H1  UNL     1       0.307   4.504  -0.771  1.00  0.00     0.183 HD
HETATM    3  C5  UNL     1      -0.664   2.848  -0.450  1.00  0.00     0.710 A 
HETATM    4  N2  UNL     1       0.547   2.229  -0.276  1.00  0.00    -0.021 N 
ATOM      5  H2  UNL     1       1.403   2.773  -0.386  1.00  0.00     0.203 HD
HETATM    6  C6  UNL     1       0.636   0.924   0.036  1.00  0.00     0.707 A 
HETATM    7  N4  UNL     1      -0.519   0.260   0.162  1.00  0.00    -0.021 N 
ATOM      8  H4  UNL     1      -0.482  -0.732   0.396  1.00  0.00     0.203 HD
HETATM    9  C22 UNL     1      -1.750   0.842  -0.007  1.00  0.00     0.707 A 
HETATM   10  N6  UNL     1      -1.792   2.153  -0.316  1.00  0.00    -0.021 N 
ATOM     11  H6  UNL     1      -2.692   2.615  -0.448  1.00  0.00     0.203 HD
ENDROOT
BRANCH   6  12
HETATM   12  N3  UNL     1       1.769   0.335   0.192  1.00  0.00    -0.221 N 
ATOM     13  H3  UNL     1       2.606   0.902   0.058  1.00  0.00     0.178 HD
BRANCH  12  14
HETATM   14  C7  UNL     1       1.964  -1.027   0.533  1.00  0.00     0.179 C 
BRANCH  14  15
HETATM   15  C8  UNL     1       3.375  -1.427   0.291  1.00  0.00    -0.007 A 
HETATM   16  C9  UNL     1       3.746  -2.529  -0.436  1.00  0.00     0.012 A 
HETATM   17  C10 UNL     1       5.083  -2.881  -0.542  1.00  0.00     0.013 A 
HETATM   18  C11 UNL     1       6.104  -2.145   0.074  1.00  0.00    -0.023 A 
HETATM   19  C19 UNL     1       5.711  -1.040   0.801  1.00  0.00     0.049 A 
HETATM   20  C20 UNL     1       4.374  -0.677   0.915  1.00  0.00     0.076 A 
BRANCH  18  21
HETATM   21  C12 UNL     1       7.512  -2.496  -0.041  1.00  0.00    -0.026 A 
HETATM   22  C13 UNL     1       7.979  -3.792  -0.161  1.00  0.00     0.013 A 
HETATM   23  C14 UNL     1       9.332  -4.083  -0.302  1.00  0.00     0.007 A 
HETATM   24  C15 UNL     1      10.262  -3.075  -0.330  1.00  0.00    -0.062 A 
HETATM   25  C16 UNL     1      11.712  -3.335  -0.492  1.00  0.00     0.048 C 
HETATM   26  C17 UNL     1       9.806  -1.775  -0.209  1.00  0.00     0.007 A 
HETATM   27  C18 UNL     1       8.473  -1.482  -0.068  1.00  0.00     0.013 A 
ENDBRANCH  18  21
BRANCH  20  28
HETATM   28  O1  UNL     1       3.952   0.427   1.632  1.00  0.00    -0.355 OA
HETATM   29  C21 UNL     1       4.902   1.246   2.273  1.00  0.00     0.210 C 
ENDBRANCH  20  28
ENDBRANCH  14  15
ENDBRANCH  12  14
ENDBRANCH   6  12
BRANCH   9  30
HETATM   30  N5  UNL     1      -2.709   0.104   0.134  1.00  0.00    -0.220 N 
ATOM     31  H5  UNL     1      -2.375  -0.833   0.359  1.00  0.00     0.178 HD
BRANCH  30  32
HETATM   32  C23 UNL     1      -4.120   0.090   0.095  1.00  0.00     0.103 C 
HETATM   33  C24 UNL     1      -4.713   1.242   0.804  1.00  0.00     0.026 C 
HETATM   34  C25 UNL     1      -6.110   0.898   1.294  1.00  0.00     0.002 C 
HETATM   35  C26 UNL     1      -5.948  -0.163   2.348  1.00  0.00     0.001 C 
HETATM   36  C27 UNL     1      -5.280  -1.396   1.813  1.00  0.00     0.007 C 
HETATM   37  C28 UNL     1      -4.665  -1.285   0.492  1.00  0.00     0.009 C 
BRANCH  37  38
HETATM   38  C29 UNL     1      -5.419  -1.830  -0.681  1.00  0.00     0.007 C 
BRANCH  38  39
HETATM   39  C30 UNL     1      -6.016  -3.180  -0.515  1.00  0.00     0.002 C 
BRANCH  39  40
HETATM   40  C31 UNL     1      -6.735  -3.516  -1.816  1.00  0.00     0.026 C 
BRANCH  40  41
HETATM   41  C32 UNL     1      -7.369  -4.884  -1.783  1.00  0.00     0.164 C 
BRANCH  41  42
HETATM   42  O2  UNL     1      -6.350  -5.812  -1.576  1.00  0.00    -0.401 OA
ATOM     43  H2  UNL     1      -6.749  -6.674  -1.555  1.00  0.00     0.209 HD
ENDBRANCH  41  42
ENDBRANCH  40  41
ENDBRANCH  39  40
ENDBRANCH  38  39
ENDBRANCH  37  38
ENDBRANCH  30  32
ENDBRANCH   9  30
BRANCH   1  44
HETATM   44  C4  UNL     1      -1.718   4.931  -0.934  1.00  0.00     0.079 C 
BRANCH  44  45
HETATM   45  C3  UNL     1      -1.390   6.380  -0.621  1.00  0.00     0.045 C 
BRANCH  45  46
HETATM   46  C2  UNL     1      -2.610   7.235  -0.927  1.00  0.00     0.001 C 
HETATM   47  C1  UNL     1      -2.319   8.718  -0.641  1.00  0.00     0.005 C 
ENDBRANCH  45  46
ENDBRANCH  44  45
ENDBRANCH   1  44
TORSDOF 15
