REMARK  5 active torsions:
REMARK  status: ('A' for Active; 'I' for Inactive)
REMARK    1  A    between atoms: C3_3  and  C4_4 
REMARK    2  A    between atoms: C5_5  and  C6_6 
REMARK    3  A    between atoms: C7_7  and  C8_8 
REMARK    4  A    between atoms: C8_8  and  C11_11 
REMARK    5  A    between atoms: C18_27  and  N5_28 
ROOT
HETATM    1  C1  UNL     1       1.320   3.833  -0.093  1.00  0.00     0.112 C 
HETATM    2  C2  UNL     1       1.907   2.493   0.042  1.00  0.00    -0.105 C 
HETATM    3  C3  UNL     1       2.398   1.397   0.164  1.00  0.00    -0.062 C 
ENDROOT
BRANCH   3   4
HETATM    4  C4  UNL     1       2.988   0.097   0.333  1.00  0.00     0.080 A 
HETATM    5  C5  UNL     1       2.197  -1.032   0.456  1.00  0.00     0.061 A 
HETATM    6  C16 UNL     1       2.714  -2.291   0.618  1.00  0.00     0.027 A 
HETATM    7  C17 UNL     1       1.822  -3.474   0.746  1.00  0.00     0.070 C 
HETATM    8  N4  UNL     1       4.047  -2.432   0.658  1.00  0.00    -0.343 N 
HETATM    9  C18 UNL     1       4.865  -1.375   0.544  1.00  0.00     0.140 A 
ATOM     10  H4  UNL     1       4.447  -3.363   0.778  1.00  0.00     0.167 HD
HETATM   11  C19 UNL     1       4.357  -0.098   0.380  1.00  0.00     0.179 A 
HETATM   12  F1  UNL     1       5.169   0.977   0.264  1.00  0.00    -0.201 F 
BRANCH   5  13
HETATM   13  C6  UNL     1       0.766  -0.815   0.405  1.00  0.00    -0.062 C 
HETATM   14  C7  UNL     1      -0.431  -0.651   0.348  1.00  0.00    -0.085 C 
BRANCH  14  15
HETATM   15  C8  UNL     1      -1.879  -0.478   0.280  1.00  0.00     0.061 C 
HETATM   16  C9  UNL     1      -2.605  -1.789   0.123  1.00  0.00     0.035 C 
HETATM   17  C10 UNL     1      -2.311   0.089   1.632  1.00  0.00     0.035 C 
BRANCH  15  18
HETATM   18  C11 UNL     1      -2.196   0.493  -0.763  1.00  0.00     0.060 A 
HETATM   19  N1  UNL     1      -1.227   0.963  -1.546  1.00  0.00    -0.352 N 
HETATM   20  C12 UNL     1      -1.352   1.845  -2.535  1.00  0.00     0.181 A 
ATOM     21  H1  UNL     1      -0.287   0.609  -1.369  1.00  0.00     0.166 HD
HETATM   22  N2  UNL     1      -2.607   2.307  -2.758  1.00  0.00    -0.345 N 
HETATM   23  C13 UNL     1      -3.659   1.873  -1.995  1.00  0.00     0.105 A 
ATOM     24  H2  UNL     1      -2.770   2.985  -3.502  1.00  0.00     0.167 HD
HETATM   25  S1  UNL     1      -5.343   2.179  -1.930  1.00  0.00    -0.065 SA
HETATM   26  C15 UNL     1      -3.511   0.965  -0.981  1.00  0.00     0.091 A 
HETATM   27  C14 UNL     1      -5.750   1.142  -0.630  1.00  0.00     0.140 A 
HETATM   28  N3  UNL     1      -4.574   0.622  -0.321  1.00  0.00    -0.356 N 
ATOM     29  H3  UNL     1      -4.502  -0.053   0.441  1.00  0.00     0.166 HD
ENDBRANCH  15  18
ENDBRANCH  14  15
ENDBRANCH   5  13
BRANCH   9  30
HETATM   30  N5  UNL     1       6.150  -1.479   0.579  1.00  0.00    -0.383 N 
ATOM     31  H52 UNL     1       6.524  -2.420   0.700  1.00  0.00     0.157 HD
ATOM     32  H51 UNL     1       6.772  -0.675   0.492  1.00  0.00     0.157 HD
ENDBRANCH   9  30
ENDBRANCH   3   4
TORSDOF 5
