REMARK  0 active torsions:
REMARK  status: ('A' for Active; 'I' for Inactive)
ROOT
HETATM    1  C1  UNL     1       1.771  -1.406  -2.201  1.00  0.00     0.022 C 
HETATM    2  C2  UNL     1       2.325  -1.359  -0.822  1.00  0.00     0.094 C 
HETATM    3  C3  UNL     1       1.406  -2.037   0.161  1.00  0.00     0.122 C 
HETATM    4  N1  UNL     1       1.632  -3.277   0.409  1.00  0.00    -0.383 N 
ATOM      5  H11 UNL     1       1.010  -3.736   1.074  1.00  0.00     0.158 HD
ATOM      6  H12 UNL     1       2.411  -3.732  -0.067  1.00  0.00     0.158 HD
HETATM    7  O1  UNL     1       0.345  -1.417   0.809  1.00  0.00    -0.296 OA
HETATM    8  C4  UNL     1      -0.401  -0.316   0.320  1.00  0.00     0.229 C 
HETATM    9  C5  UNL     1      -0.865   0.511   1.519  1.00  0.00     0.240 C 
HETATM   10  O2  UNL     1      -1.864   1.315   1.101  1.00  0.00    -0.377 OA
HETATM   11  C6  UNL     1      -3.145   0.982   1.354  1.00  0.00     0.159 C 
HETATM   12  C7  UNL     1      -3.989   2.041   0.623  1.00  0.00     0.199 C 
HETATM   13  F1  UNL     1      -5.244   2.143   1.120  1.00  0.00    -0.247 F 
HETATM   14  C8  UNL     1      -3.914   1.859  -0.871  1.00  0.00     0.044 C 
HETATM   15  C9  UNL     1      -3.661   0.389  -1.246  1.00  0.00    -0.011 C 
HETATM   16  C10 UNL     1      -4.453  -0.412  -0.242  1.00  0.00     0.012 C 
HETATM   17  C11 UNL     1      -3.605  -0.380   1.039  1.00  0.00     0.018 C 
HETATM   18  C12 UNL     1      -2.515  -1.376   0.723  1.00  0.00     0.017 C 
HETATM   19  C13 UNL     1      -1.640  -0.884  -0.392  1.00  0.00     0.054 C 
HETATM   20  C14 UNL     1      -2.239   0.045  -1.349  1.00  0.00     0.015 C 
HETATM   21  O3  UNL     1       0.388   0.423  -0.545  1.00  0.00    -0.197 OA
HETATM   22  O4  UNL     1       1.484   0.731   0.060  1.00  0.00    -0.226 OA
HETATM   23  C15 UNL     1       2.596   0.020  -0.304  1.00  0.00     0.110 C 
HETATM   24  C16 UNL     1       3.377   0.773  -1.354  1.00  0.00     0.069 C 
HETATM   25  C17 UNL     1       4.866   0.680  -1.000  1.00  0.00     0.235 C 
HETATM   26  N2  UNL     1       5.039   1.518   0.169  1.00  0.00    -0.075 N 
ATOM     27  H21 UNL     1       4.853   2.497  -0.047  1.00  0.00     0.277 HD
ATOM     28  H22 UNL     1       6.023   1.594   0.428  1.00  0.00     0.277 HD
HETATM   29  C18 UNL     1       4.237   1.065   1.283  1.00  0.00     0.235 C 
HETATM   30  C19 UNL     1       3.436  -0.169   0.964  1.00  0.00     0.069 C 
ENDROOT
TORSDOF 0
