REMARK  0 active torsions:
REMARK  status: ('A' for Active; 'I' for Inactive)
ROOT
HETATM    1  C1  UNL     1       3.063   1.130   0.993  1.00  0.00     0.011 A 
HETATM    2  C2  UNL     1       3.444  -0.145   0.488  1.00  0.00     0.037 A 
HETATM    3  C3  UNL     1       3.024  -0.610  -0.725  1.00  0.00     0.069 A 
HETATM    4  C4  UNL     1       2.211   0.225  -1.435  1.00  0.00     0.037 A 
HETATM    5  C5  UNL     1       1.815   1.507  -0.951  1.00  0.00     0.011 A 
HETATM    6  C6  UNL     1       2.244   1.963   0.269  1.00  0.00    -0.049 A 
HETATM    7  C7  UNL     1       1.815   3.309   0.755  1.00  0.00     0.112 C 
HETATM    8  S1  UNL     1       0.161   3.168   1.569  1.00  0.00    -0.164 SA
HETATM    9  C8  UNL     1      -0.941   4.387   0.821  1.00  0.00     0.084 C 
HETATM   10  C9  UNL     1      -2.276   3.728   0.571  1.00  0.00     0.085 C 
HETATM   11  S2  UNL     1      -2.136   2.794  -0.997  1.00  0.00    -0.141 SA
HETATM   12  C10 UNL     1      -3.353   1.460  -0.948  1.00  0.00     0.305 C 
HETATM   13  N1  UNL     1      -3.191   0.768   0.325  1.00  0.00    -0.065 N 
ATOM     14  H11 UNL     1      -3.947   0.989   0.973  1.00  0.00     0.278 HD
ATOM     15  H12 UNL     1      -2.411   1.146   0.863  1.00  0.00     0.278 HD
HETATM   16  C11 UNL     1      -3.059  -0.667   0.121  1.00  0.00     0.259 C 
HETATM   17  C12 UNL     1      -1.849  -1.124   0.902  1.00  0.00     0.195 C 
HETATM   18  O1  UNL     1      -1.723  -2.503   0.943  1.00  0.00    -0.388 OA
HETATM   19  C13 UNL     1      -1.506  -3.086  -0.281  1.00  0.00     0.187 C 
HETATM   20  C14 UNL     1      -0.038  -2.953  -0.720  1.00  0.00     0.145 C 
HETATM   21  N2  UNL     1       0.762  -2.972   0.440  1.00  0.00    -0.398 N 
ATOM     22  H2  UNL     1       0.359  -2.768   1.354  1.00  0.00     0.158 HD
HETATM   23  C15 UNL     1       2.130  -3.279   0.310  1.00  0.00     0.082 C 
HETATM   24  C16 UNL     1       2.746  -3.095  -1.027  1.00  0.00     0.219 C 
HETATM   25  O2  UNL     1       3.416  -1.871  -1.195  1.00  0.00    -0.346 OA
ENDROOT
TORSDOF 0
