REMARK  2 active torsions:
REMARK  status: ('A' for Active; 'I' for Inactive)
REMARK       I    between atoms: N3_16  and  C10_17 
REMARK    1  A    between atoms: C10_17  and  O2_19 
REMARK    2  A    between atoms: O2_19  and  C11_20 
ROOT
HETATM    1  C1  UNL     1      -3.328   3.574  -0.462  1.00  0.00     0.022 C 
HETATM    2  C2  UNL     1      -3.125   2.104  -0.127  1.00  0.00     0.056 C 
HETATM    3  C3  UNL     1      -4.423   1.401  -0.547  1.00  0.00     0.043 C 
HETATM    4  C4  UNL     1      -4.045  -0.062  -0.745  1.00  0.00     0.233 C 
HETATM    5  N1  UNL     1      -3.311  -0.451   0.436  1.00  0.00    -0.075 N 
ATOM      6  H11 UNL     1      -3.568   0.135   1.230  1.00  0.00     0.277 HD
ATOM      7  H12 UNL     1      -2.327  -0.197   0.349  1.00  0.00     0.277 HD
HETATM    8  C5  UNL     1      -3.450  -1.842   0.765  1.00  0.00     0.233 C 
HETATM    9  C6  UNL     1      -3.259  -2.755  -0.409  1.00  0.00     0.055 C 
HETATM   10  C7  UNL     1      -1.857  -2.745  -0.946  1.00  0.00     0.234 C 
HETATM   11  N2  UNL     1      -0.854  -3.025   0.034  1.00  0.00    -0.074 N 
ATOM     12  H21 UNL     1      -0.559  -4.000  -0.008  1.00  0.00     0.277 HD
ATOM     13  H22 UNL     1      -1.245  -3.015   0.976  1.00  0.00     0.277 HD
HETATM   14  C8  UNL     1       0.278  -2.130  -0.073  1.00  0.00     0.252 C 
HETATM   15  C9  UNL     1       0.498  -1.347   1.203  1.00  0.00     0.156 C 
HETATM   16  N3  UNL     1       1.238  -0.128   0.970  1.00  0.00    -0.317 N 
HETATM   17  C10 UNL     1       2.593  -0.222   0.567  1.00  0.00     0.364 C 
HETATM   18  O1  UNL     1       3.158  -1.338   0.410  1.00  0.00    -0.238 OA
HETATM   19  C15 UNL     1       0.583   1.127   1.153  1.00  0.00     0.214 C 
HETATM   20  S1  UNL     1       0.120   1.917  -0.406  1.00  0.00    -0.077 SA
HETATM   21  S2  UNL     1      -1.793   1.366  -1.073  1.00  0.00    -0.091 SA
ENDROOT
BRANCH  17  22
HETATM   22  O2  UNL     1       3.384   0.897   0.320  1.00  0.00    -0.294 OA
BRANCH  22  23
HETATM   23  C11 UNL     1       4.736   0.780  -0.082  1.00  0.00     0.061 C 
HETATM   24  C12 UNL     1       5.578   0.049   0.935  1.00  0.00     0.046 C 
HETATM   25  C13 UNL     1       5.304   2.204  -0.158  1.00  0.00     0.046 C 
HETATM   26  C14 UNL     1       4.901   0.177  -1.442  1.00  0.00     0.046 C 
ENDBRANCH  22  23
ENDBRANCH  17  22
TORSDOF 2
