REMARK  1 active torsions:
REMARK  status: ('A' for Active; 'I' for Inactive)
REMARK       I    between atoms: C1_2  and  N1_3 
REMARK    1  A    between atoms: C1_2  and  C6_14 
ROOT
HETATM    1  O1  UNL     1       2.328  -2.569  -0.580  1.00  0.00    -0.273 OA
HETATM    2  C1  UNL     1       1.430  -1.793  -0.153  1.00  0.00     0.227 C 
HETATM    3  N1  UNL     1       1.810  -0.624   0.516  1.00  0.00    -0.318 N 
ATOM      4  H1  UNL     1       1.187  -0.242   1.228  1.00  0.00     0.169 HD
HETATM    5  C2  UNL     1       2.930  -0.004   0.265  1.00  0.00     0.117 A 
HETATM    6  S1  UNL     1       4.077  -0.511  -0.890  1.00  0.00    -0.038 SA
HETATM    7  C3  UNL     1       5.439   0.528  -0.970  1.00  0.00     0.174 A 
HETATM    8  F1  UNL     1       6.493   0.346  -1.809  1.00  0.00    -0.197 F 
HETATM    9  C4  UNL     1       5.382   1.595  -0.094  1.00  0.00     0.139 A 
HETATM   10  N2  UNL     1       4.393   1.845   0.754  1.00  0.00    -0.351 N 
ATOM     11  H2  UNL     1       4.502   2.676   1.335  1.00  0.00     0.166 HD
HETATM   12  C5  UNL     1       3.280   1.148   0.940  1.00  0.00     0.135 A 
HETATM   13  S2  UNL     1       2.183   1.664   2.068  1.00  0.00    -0.057 SA
ENDROOT
BRANCH   2  14
HETATM   14  C6  UNL     1      -0.026  -2.063  -0.327  1.00  0.00     0.087 C 
HETATM   15  C7  UNL     1      -0.707  -0.981  -1.105  1.00  0.00     0.019 C 
HETATM   16  C8  UNL     1      -1.326   0.087  -0.227  1.00  0.00     0.063 C 
HETATM   17  C9  UNL     1      -2.682  -0.407   0.191  1.00  0.00     0.221 C 
HETATM   18  N3  UNL     1      -3.369   0.467   1.095  1.00  0.00    -0.047 N 
HETATM   19  S3  UNL     1      -3.819  -0.368  -1.252  1.00  0.00    -0.118 SA
HETATM   20  S4  UNL     1      -2.503  -2.074   0.840  1.00  0.00    -0.119 SA
HETATM   21  C10 UNL     1      -3.862   1.599   0.401  1.00  0.00     0.245 C 
ATOM     22  H32 UNL     1      -4.107  -0.017   1.607  1.00  0.00     0.280 HD
ATOM     23  H31 UNL     1      -2.784   0.731   1.888  1.00  0.00     0.280 HD
HETATM   24  C11 UNL     1      -4.748   1.136  -0.739  1.00  0.00     0.105 C 
HETATM   25  C12 UNL     1      -0.698  -2.378   0.985  1.00  0.00     0.091 C 
ENDBRANCH   2  14
TORSDOF 1
