REMARK  2 active torsions:
REMARK  status: ('A' for Active; 'I' for Inactive)
REMARK    1  A    between atoms: C2_2  and  C4_5 
REMARK       I    between atoms: C4_5  and  N1_7 
REMARK    2  A    between atoms: C10_14  and  N2_15 
ROOT
HETATM    1  C4  UNL     1      -3.354  -0.420   0.084  1.00  0.00     0.259 C 
HETATM    2  O1  UNL     1      -3.594  -1.576   0.575  1.00  0.00    -0.270 OA
HETATM    3  N1  UNL     1      -2.002  -0.013   0.027  1.00  0.00    -0.347 N 
HETATM    4  C5  UNL     1      -0.978  -0.953   0.536  1.00  0.00     0.126 C 
HETATM    5  C6  UNL     1      -0.998  -2.134  -0.364  1.00  0.00     0.020 C 
HETATM    6  C7  UNL     1       0.385  -2.771  -0.576  1.00  0.00     0.009 C 
HETATM    7  C8  UNL     1       1.046  -2.910   0.710  1.00  0.00     0.087 C 
HETATM    8  C9  UNL     1       2.510  -2.970   0.791  1.00  0.00     0.192 C 
HETATM    9  O2  UNL     1       2.853  -3.326   1.989  1.00  0.00    -0.289 OA
HETATM   10  C10 UNL     1       3.534  -2.710  -0.194  1.00  0.00     0.141 C 
HETATM   11  N3  UNL     1       3.697  -1.602  -1.058  1.00  0.00    -0.374 N 
ATOM     12  H3  UNL     1       4.214  -1.761  -1.923  1.00  0.00     0.161 HD
HETATM   13  C11 UNL     1       3.196  -0.259  -0.828  1.00  0.00     0.123 C 
HETATM   14  C12 UNL     1       4.295   0.711  -0.533  1.00  0.00     0.046 C 
HETATM   15  C13 UNL     1       3.847   2.134  -0.827  1.00  0.00     0.169 C 
HETATM   16  O3  UNL     1       3.164   2.710   0.227  1.00  0.00    -0.389 OA
HETATM   17  C14 UNL     1       1.826   2.376   0.278  1.00  0.00     0.193 C 
HETATM   18  C15 UNL     1       0.899   3.549   0.475  1.00  0.00     0.193 C 
HETATM   19  O4  UNL     1      -0.333   3.198  -0.104  1.00  0.00    -0.387 OA
HETATM   20  C16 UNL     1      -0.961   2.165   0.541  1.00  0.00     0.187 C 
HETATM   21  C17 UNL     1      -1.601   1.267  -0.501  1.00  0.00     0.152 C 
ENDROOT
BRANCH   1  22
HETATM   22  C2  UNL     1      -4.513   0.364  -0.371  1.00  0.00     0.176 C 
HETATM   23  C1  UNL     1      -5.786  -0.467  -0.177  1.00  0.00     0.062 C 
HETATM   24  C3  UNL     1      -4.712   1.616   0.473  1.00  0.00     0.062 C 
HETATM   25  F1  UNL     1      -4.462   0.666  -1.720  1.00  0.00    -0.233 F 
ENDBRANCH   1  22
BRANCH  10  26
HETATM   26  N2  UNL     1       4.448  -3.626  -0.307  1.00  0.00    -0.383 N 
ATOM     27  H22 UNL     1       4.330  -4.425   0.316  1.00  0.00     0.157 HD
ATOM     28  H21 UNL     1       5.171  -3.442  -1.003  1.00  0.00     0.157 HD
ENDBRANCH  10  26
TORSDOF 2
