REMARK  0 active torsions:
REMARK  status: ('A' for Active; 'I' for Inactive)
ROOT
HETATM    1  F1  UNL     1       3.367  -4.101   0.562  1.00  0.00    -0.203 F 
HETATM    2  C1  UNL     1       3.897  -2.865   0.301  1.00  0.00     0.152 A 
HETATM    3  C2  UNL     1       5.280  -2.923   0.085  1.00  0.00     0.045 A 
HETATM    4  C3  UNL     1       5.951  -1.767  -0.176  1.00  0.00     0.006 A 
HETATM    5  C4  UNL     1       5.227  -0.585  -0.215  1.00  0.00     0.040 A 
HETATM    6  C5  UNL     1       3.862  -0.498  -0.005  1.00  0.00     0.105 A 
HETATM    7  C6  UNL     1       3.177  -1.694   0.262  1.00  0.00     0.140 A 
HETATM    8  O1  UNL     1       1.820  -1.742   0.484  1.00  0.00    -0.344 OA
HETATM    9  C7  UNL     1       0.796  -1.243  -0.359  1.00  0.00     0.203 C 
HETATM   10  C8  UNL     1      -0.072  -2.437  -0.742  1.00  0.00     0.259 C 
HETATM   11  N1  UNL     1      -1.290  -2.480   0.035  1.00  0.00    -0.072 N 
ATOM     12  H11 UNL     1      -1.544  -1.556   0.385  1.00  0.00     0.277 HD
ATOM     13  H12 UNL     1      -1.148  -2.952   0.928  1.00  0.00     0.277 HD
HETATM   14  C9  UNL     1      -2.358  -3.072  -0.708  1.00  0.00     0.259 C 
HETATM   15  C10 UNL     1      -3.490  -2.056  -0.785  1.00  0.00     0.259 C 
HETATM   16  N2  UNL     1      -3.762  -1.459   0.500  1.00  0.00    -0.073 N 
ATOM     17  H21 UNL     1      -3.333  -2.003   1.248  1.00  0.00     0.277 HD
ATOM     18  H22 UNL     1      -4.745  -1.572   0.749  1.00  0.00     0.277 HD
HETATM   19  C11 UNL     1      -3.371  -0.079   0.588  1.00  0.00     0.242 C 
HETATM   20  C12 UNL     1      -3.801   0.739  -0.607  1.00  0.00     0.101 C 
HETATM   21  S1  UNL     1      -4.114   2.467  -0.185  1.00  0.00    -0.167 SA
HETATM   22  C13 UNL     1      -2.712   3.141   0.784  1.00  0.00     0.075 C 
HETATM   23  C14 UNL     1      -2.014   4.219   0.018  1.00  0.00     0.020 C 
HETATM   24  C15 UNL     1      -0.560   4.353   0.322  1.00  0.00     0.075 C 
HETATM   25  S2  UNL     1       0.154   2.860   1.040  1.00  0.00    -0.167 SA
HETATM   26  C16 UNL     1       1.686   2.476   0.194  1.00  0.00     0.100 C 
HETATM   27  C17 UNL     1       2.499   1.410   0.929  1.00  0.00     0.186 C 
HETATM   28  O2  UNL     1       3.212   0.710  -0.056  1.00  0.00    -0.347 OA
ENDROOT
TORSDOF 0
