REMARK  10 active torsions:
REMARK  status: ('A' for Active; 'I' for Inactive)
REMARK    1  A    between atoms: C3_3  and  C4_4 
REMARK    2  A    between atoms: C4_4  and  C5_5 
REMARK    3  A    between atoms: C5_5  and  N1_7 
REMARK    4  A    between atoms: N1_7  and  C7_10 
REMARK    5  A    between atoms: C7_10  and  C8_11 
REMARK    6  A    between atoms: C11_17  and  C12_18 
REMARK       I    between atoms: C12_18  and  N3_20 
REMARK    7  A    between atoms: N3_20  and  C13_22 
REMARK    8  A    between atoms: C13_22  and  C15_24 
REMARK       I    between atoms: C15_24  and  N4_26 
REMARK    9  A    between atoms: N4_26  and  C16_28 
REMARK   10  A    between atoms: C16_28  and  C17_29 
ROOT
HETATM    1  C1  UNL     1      -8.643   3.359  -0.788  1.00  0.00     0.027 C 
HETATM    2  C2  UNL     1      -8.287   2.212  -0.727  1.00  0.00    -0.026 C 
HETATM    3  C3  UNL     1      -7.842   0.854  -0.661  1.00  0.00    -0.014 C 
ENDROOT
BRANCH   3   4
HETATM    4  C4  UNL     1      -7.458  -0.299  -0.587  1.00  0.00    -0.060 C 
BRANCH   4   5
HETATM    5  C5  UNL     1      -6.948  -1.675  -0.475  1.00  0.00     0.261 C 
HETATM    6  C6  UNL     1      -7.424  -2.419  -1.710  1.00  0.00     0.054 C 
BRANCH   5   7
HETATM    7  N1  UNL     1      -5.481  -1.707  -0.366  1.00  0.00    -0.059 N 
ATOM      8  H12 UNL     1      -5.057  -2.360  -1.025  1.00  0.00     0.278 HD
ATOM      9  H11 UNL     1      -5.047  -0.851  -0.713  1.00  0.00     0.278 HD
BRANCH   7  10
HETATM   10  C7  UNL     1      -5.124  -1.987   0.974  1.00  0.00     0.266 C 
BRANCH  10  11
HETATM   11  C8  UNL     1      -3.953  -1.161   1.463  1.00  0.00     0.180 C 
HETATM   12  N2  UNL     1      -4.264   0.256   1.404  1.00  0.00    -0.348 N 
HETATM   13  C9  UNL     1      -3.229   1.174   1.729  1.00  0.00     0.219 C 
ATOM     14  H2  UNL     1      -5.193   0.581   1.138  1.00  0.00     0.163 HD
HETATM   15  O1  UNL     1      -3.425   2.295   2.241  1.00  0.00    -0.274 OA
HETATM   16  C10 UNL     1      -1.835   0.697   1.420  1.00  0.00     0.124 C 
HETATM   17  C11 UNL     1      -2.008  -0.158   0.166  1.00  0.00     0.158 C 
HETATM   18  C22 UNL     1      -2.713  -1.411   0.646  1.00  0.00     0.164 C 
HETATM   19  O6  UNL     1      -2.263  -2.464   0.355  1.00  0.00    -0.295 OA
BRANCH  17  20
HETATM   20  C12 UNL     1      -0.650  -0.459  -0.392  1.00  0.00     0.234 C 
HETATM   21  O2  UNL     1      -0.424  -1.619  -0.846  1.00  0.00    -0.272 OA
HETATM   22  N3  UNL     1       0.354   0.501  -0.423  1.00  0.00    -0.326 N 
ATOM     23  H3  UNL     1       0.050   1.384  -0.014  1.00  0.00     0.168 HD
BRANCH  22  24
HETATM   24  C13 UNL     1       1.664   0.560  -0.870  1.00  0.00     0.076 C 
HETATM   25  C14 UNL     1       2.313   1.927  -0.787  1.00  0.00     0.074 C 
BRANCH  24  26
HETATM   26  C15 UNL     1       2.661  -0.473  -0.574  1.00  0.00     0.264 C 
HETATM   27  O3  UNL     1       2.398  -1.680  -0.632  1.00  0.00    -0.266 OA
HETATM   28  N4  UNL     1       3.958  -0.023  -0.236  1.00  0.00    -0.351 N 
ATOM     29  H4  UNL     1       4.092   0.984  -0.141  1.00  0.00     0.163 HD
BRANCH  28  30
HETATM   30  C16 UNL     1       5.100  -0.860  -0.016  1.00  0.00     0.169 C 
BRANCH  30  31
HETATM   31  C17 UNL     1       6.281  -0.019   0.323  1.00  0.00     0.050 A 
HETATM   32  C18 UNL     1       7.272   0.153  -0.648  1.00  0.00     0.023 A 
HETATM   33  C19 UNL     1       6.841  -0.142  -2.059  1.00  0.00     0.069 C 
HETATM   34  N5  UNL     1       8.449   0.720  -0.408  1.00  0.00    -0.312 N 
HETATM   35  C20 UNL     1       8.682   1.145   0.843  1.00  0.00     0.327 A 
ATOM     36  H5  UNL     1       9.147   0.828  -1.144  1.00  0.00     0.170 HD
HETATM   37  O4  UNL     1       9.764   1.678   1.117  1.00  0.00    -0.247 OA
HETATM   38  N6  UNL     1       7.762   1.016   1.847  1.00  0.00    -0.275 N 
HETATM   39  C21 UNL     1       6.579   0.442   1.584  1.00  0.00     0.259 A 
ATOM     40  H6  UNL     1       7.974   1.353   2.786  1.00  0.00     0.173 HD
HETATM   41  O5  UNL     1       5.723   0.333   2.522  1.00  0.00    -0.267 OA
ENDBRANCH  30  31
ENDBRANCH  28  30
ENDBRANCH  24  26
ENDBRANCH  22  24
ENDBRANCH  17  20
ENDBRANCH  10  11
ENDBRANCH   7  10
ENDBRANCH   5   7
ENDBRANCH   4   5
ENDBRANCH   3   4
TORSDOF 10
