REMARK  12 active torsions:
REMARK  status: ('A' for Active; 'I' for Inactive)
REMARK    1  A    between atoms: C2_2  and  N1_3 
REMARK    2  A    between atoms: N1_3  and  C3_4 
REMARK    3  A    between atoms: C3_4  and  C4_5 
REMARK    4  A    between atoms: C4_5  and  N2_6 
REMARK    5  A    between atoms: N2_6  and  C5_8 
REMARK    6  A    between atoms: C5_8  and  O1_9 
REMARK    7  A    between atoms: C6_11  and  N3_12 
REMARK    8  A    between atoms: N4_15  and  C9_16 
REMARK    9  A    between atoms: C9_16  and  C10_17 
REMARK   10  A    between atoms: C10_17  and  C11_18 
REMARK   11  A    between atoms: C13_22  and  N6_23 
REMARK   12  A    between atoms: C15_29  and  N9_30 
ROOT
HETATM    1  N6  UNL     1      10.090   1.680   0.835  1.00  0.00    -0.126 N 
ATOM      2  H6  UNL     1      10.635   2.180   0.132  1.00  0.00     0.197 HD
HETATM    3  C14 UNL     1      10.567   1.600   2.137  1.00  0.00     0.196 C 
HETATM    4  N7  UNL     1      10.957   1.548   3.209  1.00  0.00    -0.171 NA
ENDROOT
BRANCH   1   5
HETATM    5  C13 UNL     1       8.956   1.126   0.493  1.00  0.00     0.692 A 
HETATM    6  N5  UNL     1       8.266   0.475   1.445  1.00  0.00    -0.200 N 
HETATM    7  C12 UNL     1       7.107  -0.120   1.205  1.00  0.00     0.117 A 
ATOM      8  H5  UNL     1       8.650   0.438   2.389  1.00  0.00     0.183 HD
HETATM    9  C11 UNL     1       6.573  -0.078  -0.070  1.00  0.00     0.004 A 
HETATM   10  C15 UNL     1       7.290   0.590  -1.036  1.00  0.00     0.122 A 
HETATM   11  N8  UNL     1       8.481   1.191  -0.748  1.00  0.00    -0.176 N 
ATOM     12  H8  UNL     1       9.000   1.684  -1.475  1.00  0.00     0.186 HD
BRANCH   9  13
HETATM   13  C10 UNL     1       5.256  -0.726  -0.328  1.00  0.00     0.074 C 
BRANCH  13  14
HETATM   14  C9  UNL     1       4.172   0.299  -0.339  1.00  0.00     0.270 C 
BRANCH  14  15
HETATM   15  N4  UNL     1       2.874  -0.213  -0.581  1.00  0.00     0.019 N 
HETATM   16  C8  UNL     1       1.830   0.816  -0.434  1.00  0.00     0.294 C 
HETATM   17  C7  UNL     1       0.605   0.357  -1.221  1.00  0.00     0.285 C 
HETATM   18  N3  UNL     1       0.470  -1.063  -1.032  1.00  0.00     0.043 N 
HETATM   19  C17 UNL     1       0.956  -1.440   0.256  1.00  0.00     0.285 C 
HETATM   20  C18 UNL     1       1.536  -1.589  -1.945  1.00  0.00     0.444 C 
HETATM   21  C16 UNL     1       2.487  -1.294   0.318  1.00  0.00     0.294 C 
HETATM   22  N10 UNL     1       2.710  -0.789  -1.875  1.00  0.00    -0.160 N 
HETATM   23  O2  UNL     1       1.351  -2.586  -2.637  1.00  0.00    -0.237 OA
ATOM     24  H10 UNL     1       3.354  -0.645  -2.653  1.00  0.00     0.199 HD
BRANCH  18  25
HETATM   25  C6  UNL     1      -0.703  -1.668  -1.504  1.00  0.00     0.269 C 
HETATM   26  C5  UNL     1      -1.964  -1.395  -0.867  1.00  0.00     0.160 C 
BRANCH  26  27
HETATM   27  N2  UNL     1      -2.296  -0.582   0.222  1.00  0.00    -0.368 N 
ATOM     28  H2  UNL     1      -1.542  -0.076   0.687  1.00  0.00     0.161 HD
BRANCH  27  29
HETATM   29  C4  UNL     1      -3.654  -0.411   0.737  1.00  0.00     0.150 C 
BRANCH  29  30
HETATM   30  C3  UNL     1      -4.614   0.192  -0.213  1.00  0.00     0.257 C 
BRANCH  30  31
HETATM   31  N1  UNL     1      -5.947   0.349   0.334  1.00  0.00    -0.066 N 
HETATM   32  C19 UNL     1      -6.405  -0.802   1.042  1.00  0.00     0.237 C 
HETATM   33  C20 UNL     1      -7.916  -0.775   0.947  1.00  0.00     0.029 C 
HETATM   34  C21 UNL     1      -8.175  -0.112  -0.388  1.00  0.00     0.029 C 
HETATM   35  C22 UNL     1      -6.861   0.494  -0.779  1.00  0.00     0.237 C 
BRANCH  31  36
HETATM   36  C2  UNL     1      -6.038   1.490   1.220  1.00  0.00     0.233 C 
HETATM   37  C1  UNL     1      -6.065   2.806   0.521  1.00  0.00     0.035 C 
ENDBRANCH  31  36
ENDBRANCH  30  31
ENDBRANCH  29  30
ENDBRANCH  27  29
ENDBRANCH  26  27
BRANCH  26  38
HETATM   38  O1  UNL     1      -3.005  -2.013  -1.389  1.00  0.00    -0.345 OA
ATOM     39  H1  UNL     1      -2.780  -2.565  -2.129  1.00  0.00     0.219 HD
ENDBRANCH  26  38
ENDBRANCH  18  25
ENDBRANCH  14  15
ENDBRANCH  13  14
ENDBRANCH   9  13
BRANCH  10  40
HETATM   40  N9  UNL     1       6.871   0.653  -2.249  1.00  0.00    -0.385 N 
ATOM     41  H92 UNL     1       5.981   0.204  -2.464  1.00  0.00     0.157 HD
ATOM     42  H91 UNL     1       7.402   1.148  -2.965  1.00  0.00     0.157 HD
ENDBRANCH  10  40
ENDBRANCH   1   5
TORSDOF 12
