REMARK  11 active torsions:
REMARK  status: ('A' for Active; 'I' for Inactive)
REMARK       I    between atoms: C2_2  and  N1_4 
REMARK    1  A    between atoms: N1_4  and  C3_6 
REMARK    2  A    between atoms: C3_6  and  C4_7 
REMARK    3  A    between atoms: C3_6  and  C19_39 
REMARK       I    between atoms: C4_7  and  N2_9 
REMARK    4  A    between atoms: N2_9  and  C5_11 
REMARK    5  A    between atoms: C5_11  and  C6_12 
REMARK    6  A    between atoms: C5_11  and  C10_20 
REMARK    7  A    between atoms: C6_12  and  C7_13 
REMARK    8  A    between atoms: C10_20  and  N5_22 
REMARK       I    between atoms: N6_26  and  C14_27 
REMARK    9  A    between atoms: C18_32  and  N7_33 
REMARK   10  A    between atoms: N7_33  and  N8_34 
REMARK   11  A    between atoms: N8_34  and  N9_36 
ROOT
HETATM    1  C5  UNL     1      -0.319   1.741  -0.545  1.00  0.00     0.113 C 
ENDROOT
BRANCH   1   2
HETATM    2  N2  UNL     1      -1.037   0.415  -0.512  1.00  0.00    -0.352 N 
HETATM    3  C4  UNL     1      -1.871   0.051   0.548  1.00  0.00     0.241 C 
HETATM    4  O2  UNL     1      -1.971   0.914   1.487  1.00  0.00    -0.271 OA
ATOM      5  H2  UNL     1      -0.910  -0.236  -1.287  1.00  0.00     0.163 HD
BRANCH   3   6
HETATM    6  C3  UNL     1      -2.642  -1.186   0.725  1.00  0.00     0.179 C 
BRANCH   6   7
HETATM    7  N1  UNL     1      -3.313  -1.165   2.036  1.00  0.00    -0.348 N 
HETATM    8  C2  UNL     1      -3.092  -2.121   3.046  1.00  0.00     0.214 C 
HETATM    9  C1  UNL     1      -3.820  -2.008   4.332  1.00  0.00     0.117 C 
HETATM   10  O1  UNL     1      -2.299  -3.092   2.931  1.00  0.00    -0.274 OA
ATOM     11  H1  UNL     1      -3.977  -0.414   2.223  1.00  0.00     0.163 HD
ENDBRANCH   6   7
BRANCH   6  12
HETATM   12  C19 UNL     1      -3.671  -1.455  -0.347  1.00  0.00     0.009 C 
HETATM   13  C20 UNL     1      -4.352  -2.809  -0.081  1.00  0.00     0.012 C 
HETATM   14  C21 UNL     1      -3.175  -1.445  -1.742  1.00  0.00     0.012 C 
ENDBRANCH   6  12
ENDBRANCH   3   6
ENDBRANCH   1   2
BRANCH   1  15
HETATM   15  C6  UNL     1      -1.144   2.440  -1.603  1.00  0.00     0.085 C 
BRANCH  15  16
HETATM   16  C7  UNL     1      -0.803   3.808  -1.960  1.00  0.00     0.027 A 
HETATM   17  C8  UNL     1      -1.248   4.948  -1.336  1.00  0.00     0.114 A 
HETATM   18  N3  UNL     1      -0.739   5.988  -2.006  1.00  0.00    -0.360 N 
HETATM   19  C9  UNL     1      -0.002   5.535  -3.012  1.00  0.00     0.180 A 
ATOM     20  H3  UNL     1      -0.893   6.971  -1.780  1.00  0.00     0.166 HD
HETATM   21  N4  UNL     1      -0.042   4.208  -2.984  1.00  0.00    -0.355 N 
ATOM     22  H4  UNL     1       0.434   3.590  -3.641  1.00  0.00     0.166 HD
ENDBRANCH  15  16
ENDBRANCH   1  15
BRANCH   1  23
HETATM   23  C10 UNL     1       1.090   1.528  -0.882  1.00  0.00     0.114 C 
HETATM   24  C11 UNL     1       1.911   2.797  -0.884  1.00  0.00     0.035 C 
BRANCH  23  25
HETATM   25  N5  UNL     1       1.819   0.560  -0.144  1.00  0.00    -0.285 N 
HETATM   26  C12 UNL     1       2.037   0.551   1.239  1.00  0.00     0.244 C 
HETATM   27  O3  UNL     1       1.933   1.575   1.897  1.00  0.00    -0.271 OA
HETATM   28  C13 UNL     1       2.397  -0.705   1.917  1.00  0.00     0.229 C 
HETATM   29  N6  UNL     1       3.235  -1.555   1.126  1.00  0.00    -0.331 N 
HETATM   30  C14 UNL     1       3.647  -2.812   1.663  1.00  0.00     0.216 C 
HETATM   31  C16 UNL     1       3.641  -1.129  -0.174  1.00  0.00     0.168 C 
HETATM   32  C15 UNL     1       4.515  -3.742   0.906  1.00  0.00     0.117 C 
HETATM   33  O4  UNL     1       3.270  -3.150   2.810  1.00  0.00    -0.274 OA
HETATM   34  C17 UNL     1       4.707  -0.068  -0.023  1.00  0.00     0.042 C 
HETATM   35  C18 UNL     1       2.415  -0.541  -0.882  1.00  0.00     0.209 C 
BRANCH  35  36
HETATM   36  N7  UNL     1       2.012  -0.969  -1.941  1.00  0.00    -0.294 NA
BRANCH  36  37
HETATM   37  N8  UNL     1       1.506  -1.342  -3.051  1.00  0.00    -0.181 N 
ATOM     38  H8  UNL     1       0.727  -1.999  -3.005  1.00  0.00     0.223 HD
BRANCH  37  39
HETATM   39  N9  UNL     1       1.888  -0.965  -4.238  1.00  0.00    -0.320 N 
ATOM     40  H92 UNL     1       2.668  -0.308  -4.264  1.00  0.00     0.179 HD
ATOM     41  H91 UNL     1       1.483  -1.263  -5.126  1.00  0.00     0.179 HD
ENDBRANCH  37  39
ENDBRANCH  36  37
ENDBRANCH  35  36
ENDBRANCH  23  25
ENDBRANCH   1  23
TORSDOF 11
