REMARK  3 active torsions:
REMARK  status: ('A' for Active; 'I' for Inactive)
REMARK    1  A    between atoms: C2_2  and  C4_4 
REMARK    2  A    between atoms: C7_7  and  C8_8 
REMARK    3  A    between atoms: C8_8  and  C9_9 
ROOT
HETATM    1  C4  UNL     1       1.809  -0.404  -0.512  1.00  0.00     0.045 C 
HETATM    2  C5  UNL     1       0.704  -1.374  -0.410  1.00  0.00     0.019 C 
HETATM    3  C6  UNL     1      -0.560  -0.521  -0.576  1.00  0.00     0.033 C 
HETATM    4  C7  UNL     1      -0.801   0.057   0.771  1.00  0.00     0.194 C 
HETATM    5  N3  UNL     1       0.378   0.947   0.955  1.00  0.00    -0.064 N 
ATOM      6  H31 UNL     1       0.949   0.696   1.762  1.00  0.00     0.278 HD
ATOM      7  H32 UNL     1       0.128   1.887   1.262  1.00  0.00     0.278 HD
HETATM    8  C11 UNL     1       1.107   0.931  -0.279  1.00  0.00     0.209 C 
HETATM    9  C12 UNL     1      -0.034   0.745  -1.286  1.00  0.00     0.095 C 
HETATM   10 BR1  UNL     1       0.577   0.391  -3.055  1.00  0.00    -0.088 Br
ENDROOT
BRANCH   4  11
HETATM   11  C8  UNL     1      -2.061   0.790   0.918  1.00  0.00     0.066 C 
BRANCH  11  12
HETATM   12  C9  UNL     1      -3.320   0.032   0.714  1.00  0.00     0.151 A 
HETATM   13  N1  UNL     1      -3.647  -0.600  -0.540  1.00  0.00    -0.367 N 
HETATM   14  C10 UNL     1      -4.408   0.602  -0.101  1.00  0.00     0.094 A 
ATOM     15  H1  UNL     1      -3.479  -1.335  -1.227  1.00  0.00     0.161 HD
HETATM   16  N2  UNL     1      -5.333   1.453  -0.333  1.00  0.00    -0.387 N 
ATOM     17  H22 UNL     1      -5.854   2.276  -0.032  1.00  0.00     0.157 HD
ATOM     18  H21 UNL     1      -6.086   1.847  -0.897  1.00  0.00     0.157 HD
ENDBRANCH  11  12
ENDBRANCH   4  11
BRANCH   1  19
HETATM   19  C2  UNL     1       2.984  -0.581   0.313  1.00  0.00    -0.087 C 
HETATM   20  C1  UNL     1       3.142  -1.550   1.159  1.00  0.00     0.014 C 
HETATM   21  C3  UNL     1       4.080   0.433   0.174  1.00  0.00     0.043 C 
ENDBRANCH   1  19
TORSDOF 3
