REMARK  4 active torsions:
REMARK  status: ('A' for Active; 'I' for Inactive)
REMARK    1  A    between atoms: C3_5  and  O1_6 
REMARK    2  A    between atoms: C6_10  and  C7_11 
REMARK    3  A    between atoms: C7_11  and  C8_12 
REMARK    4  A    between atoms: C9_17  and  C10_18 
ROOT
HETATM    1  C1  UNL     1      -0.580  -2.201   0.921  1.00  0.00     0.044 C 
HETATM    2  C2  UNL     1      -1.255  -1.175   0.439  1.00  0.00     0.036 A 
HETATM    3  N1  UNL     1      -2.539  -1.322  -0.002  1.00  0.00    -0.336 N 
ATOM      4  H1  UNL     1      -3.071  -2.192  -0.000  1.00  0.00     0.168 HD
HETATM    5  C3  UNL     1      -2.987  -0.132  -0.439  1.00  0.00     0.161 A 
HETATM    6  C5  UNL     1      -1.983   0.775  -0.275  1.00  0.00     0.074 A 
HETATM    7 BR1  UNL     1      -2.099   2.610  -0.736  1.00  0.00    -0.045 Br
HETATM    8  C6  UNL     1      -0.867   0.122   0.287  1.00  0.00     0.014 A 
ENDROOT
BRANCH   8   9
HETATM    9  C7  UNL     1       0.242   0.731   0.560  1.00  0.00     0.048 C 
BRANCH   9  10
HETATM   10  C8  UNL     1       1.473   0.241   1.129  1.00  0.00     0.072 A 
HETATM   11  N2  UNL     1       1.933   0.100   2.396  1.00  0.00    -0.299 N 
HETATM   12  N3  UNL     1       3.091  -0.367   1.995  1.00  0.00    -0.302 N 
ATOM     13  H2  UNL     1       1.531   0.287   3.314  1.00  0.00     0.187 HD
HETATM   14  C9  UNL     1       2.708  -0.257   0.715  1.00  0.00     0.053 A 
ATOM     15  H3  UNL     1       3.938  -0.685   2.466  1.00  0.00     0.186 HD
BRANCH  14  16
HETATM   16  C10 UNL     1       3.254  -0.514  -0.630  1.00  0.00     0.056 C 
HETATM   17  C11 UNL     1       3.669   0.744  -1.321  1.00  0.00     0.011 C 
ENDBRANCH  14  16
ENDBRANCH   9  10
ENDBRANCH   8   9
BRANCH   5  18
HETATM   18  O1  UNL     1      -4.266   0.028  -0.948  1.00  0.00    -0.340 OA
HETATM   19  C4  UNL     1      -4.796   1.225  -1.416  1.00  0.00     0.211 C 
ENDBRANCH   5  18
TORSDOF 4
