REMARK  2 active torsions:
REMARK  status: ('A' for Active; 'I' for Inactive)
REMARK       I    between atoms: N1_2  and  C2_4 
REMARK       I    between atoms: C2_4  and  N3_8 
REMARK       I    between atoms: C3_10  and  N4_11 
REMARK       I    between atoms: C3_10  and  N5_14 
REMARK    1  A    between atoms: N5_14  and  C4_16 
REMARK    2  A    between atoms: C4_16  and  C5_17 
ROOT
HETATM    1  C1  UNL     1      -5.282  -0.961  -0.729  1.00  0.00     0.165 C 
HETATM    2  N1  UNL     1      -4.222   0.015  -0.878  1.00  0.00    -0.230 N 
ATOM      3  H1  UNL     1      -4.144   0.535  -1.752  1.00  0.00     0.177 HD
HETATM    4  C2  UNL     1      -3.294   0.265   0.158  1.00  0.00     0.685 C 
HETATM    5  N2  UNL     1      -3.731   0.473   1.339  1.00  0.00    -0.234 N 
ATOM      6  H21 UNL     1      -3.061   0.653   2.087  1.00  0.00     0.174 HD
ATOM      7  H22 UNL     1      -4.734   0.456   1.521  1.00  0.00     0.174 HD
HETATM    8  N3  UNL     1      -1.901   0.288  -0.095  1.00  0.00    -0.023 N 
ATOM      9  H3  UNL     1      -1.519  -0.370  -0.774  1.00  0.00     0.203 HD
HETATM   10  C3  UNL     1      -1.091   1.104   0.495  1.00  0.00     0.698 C 
HETATM   11  N4  UNL     1      -1.642   2.001   1.428  1.00  0.00    -0.156 N 
ATOM     12  H4  UNL     1      -1.598   1.803   2.428  1.00  0.00     0.192 HD
HETATM   13 BR1  UNL     1      -2.458   3.567   0.801  1.00  0.00     0.063 Br
HETATM   14  N5  UNL     1       0.293   1.121   0.238  1.00  0.00    -0.225 N 
ATOM     15  H5  UNL     1       0.856   1.920   0.531  1.00  0.00     0.177 HD
ENDROOT
BRANCH  14  16
HETATM   16  C4  UNL     1       0.922   0.002  -0.445  1.00  0.00     0.142 C 
BRANCH  16  17
HETATM   17  C5  UNL     1       2.406   0.251  -0.605  1.00  0.00     0.004 C 
HETATM   18  C6  UNL     1       3.015  -0.912  -1.305  1.00  0.00     0.006 C 
HETATM   19  C7  UNL     1       3.604  -1.738  -0.166  1.00  0.00     0.000 C 
HETATM   20  C8  UNL     1       4.157  -0.638   0.726  1.00  0.00     0.000 C 
HETATM   21  C9  UNL     1       3.079   0.397   0.736  1.00  0.00     0.006 C 
ENDBRANCH  16  17
ENDBRANCH  14  16
TORSDOF 2
