REMARK  4 active torsions:
REMARK  status: ('A' for Active; 'I' for Inactive)
REMARK    1  A    between atoms: C2_2  and  C3_3 
REMARK    2  A    between atoms: C3_3  and  N1_4 
REMARK       I    between atoms: N1_4  and  C4_6 
REMARK       I    between atoms: C4_6  and  N3_10 
REMARK    3  A    between atoms: N3_10  and  C5_12 
REMARK    4  A    between atoms: C7_16  and  N5_17 
ROOT
HETATM    1  C5  UNL     1       0.797  -0.457  -0.246  1.00  0.00     0.698 A 
HETATM    2  N4  UNL     1       0.837  -0.355   1.097  1.00  0.00    -0.198 N 
ATOM      3  H4  UNL     1       1.681  -0.452   1.662  1.00  0.00     0.183 HD
HETATM    4  C6  UNL     1      -0.389  -0.108   1.590  1.00  0.00     0.163 A 
HETATM    5  C7  UNL     1      -1.250  -0.052   0.494  1.00  0.00     0.240 A 
HETATM    6  N6  UNL     1      -0.501  -0.267  -0.599  1.00  0.00    -0.167 N 
ATOM      7  H6  UNL     1      -0.855  -0.285  -1.555  1.00  0.00     0.186 HD
ENDROOT
BRANCH   1   8
HETATM    8  N3  UNL     1       1.761  -0.694  -1.082  1.00  0.00    -0.023 N 
HETATM    9  C4  UNL     1       3.087  -0.879  -0.526  1.00  0.00     0.686 C 
HETATM   10  N1  UNL     1       3.743   0.175   0.142  1.00  0.00    -0.226 N 
HETATM   11  N2  UNL     1       3.684  -2.014  -0.631  1.00  0.00    -0.234 N 
ATOM     12  H1  UNL     1       3.274   1.077   0.222  1.00  0.00     0.177 HD
ATOM     13  H22 UNL     1       4.617  -2.144  -0.240  1.00  0.00     0.174 HD
ATOM     14  H21 UNL     1       3.209  -2.777  -1.114  1.00  0.00     0.174 HD
ATOM     15  H3  UNL     1       1.593  -0.748  -2.087  1.00  0.00     0.203 HD
BRANCH  10  16
HETATM   16  C3  UNL     1       5.047   0.018   0.711  1.00  0.00     0.137 C 
BRANCH  16  17
HETATM   17  C2  UNL     1       6.152  -0.144  -0.287  1.00  0.00     0.016 C 
HETATM   18  C1  UNL     1       6.183   1.113  -1.166  1.00  0.00     0.006 C 
ENDBRANCH  16  17
ENDBRANCH  10  16
ENDBRANCH   1   8
BRANCH   5  19
HETATM   19  N5  UNL     1      -2.650   0.183   0.529  1.00  0.00     0.006 N 
HETATM   20  C8  UNL     1      -2.933   1.210   1.529  1.00  0.00     0.285 C 
HETATM   21  C9  UNL     1      -3.348  -1.038   0.839  1.00  0.00     0.249 C 
HETATM   22  C10 UNL     1      -4.555  -1.291  -0.000  1.00  0.00     0.029 C 
HETATM   23  C11 UNL     1      -5.384  -0.079  -0.260  1.00  0.00     0.006 C 
HETATM   24  C12 UNL     1      -4.541   1.022  -0.817  1.00  0.00     0.068 C 
HETATM   25  C13 UNL     1      -3.052   0.709  -0.739  1.00  0.00     0.379 C 
HETATM   26  F1  UNL     1      -2.381   1.874  -1.041  1.00  0.00    -0.218 F 
ENDBRANCH   5  19
TORSDOF 4
