REMARK  5 active torsions:
REMARK  status: ('A' for Active; 'I' for Inactive)
REMARK    1  A    between atoms: C3_7  and  C4_8 
REMARK    2  A    between atoms: C4_8  and  C5_9 
REMARK    3  A    between atoms: C6_10  and  O1_11 
REMARK    4  A    between atoms: C7_15  and  C8_16 
REMARK    5  A    between atoms: C9_18  and  C10_19 
ROOT
HETATM    1  C5  UNL     1      -0.145   0.830  -0.480  1.00  0.00     0.025 A 
HETATM    2  C6  UNL     1      -0.315   2.161  -0.125  1.00  0.00     0.151 A 
HETATM    3  N3  UNL     1      -1.601   2.299   0.245  1.00  0.00    -0.339 N 
ATOM      4  H3  UNL     1      -2.025   3.172   0.559  1.00  0.00     0.168 HD
HETATM    5  C7  UNL     1      -2.248   1.125   0.142  1.00  0.00     0.028 A 
HETATM    6  C9  UNL     1      -1.346   0.177  -0.315  1.00  0.00    -0.021 A 
ENDROOT
BRANCH   1   7
HETATM    7  C4  UNL     1       1.119   0.284  -0.949  1.00  0.00     0.049 C 
BRANCH   7   8
HETATM    8  C3  UNL     1       2.019  -0.170  -0.106  1.00  0.00     0.076 A 
HETATM    9  C2  UNL     1       3.292  -0.738  -0.243  1.00  0.00     0.066 A 
HETATM   10  C1  UNL     1       4.058  -1.025  -1.279  1.00  0.00     0.047 C 
HETATM   11  N1  UNL     1       3.346  -0.839   1.097  1.00  0.00    -0.299 N 
HETATM   12  N2  UNL     1       2.145  -0.303   1.222  1.00  0.00    -0.298 N 
ATOM     13  H1  UNL     1       4.040  -1.191   1.756  1.00  0.00     0.187 HD
ATOM     14  H2  UNL     1       1.547  -0.078   2.018  1.00  0.00     0.187 HD
ENDBRANCH   7   8
ENDBRANCH   1   7
BRANCH   2  15
HETATM   15  O1  UNL     1       0.607   3.181  -0.130  1.00  0.00    -0.345 OA
ATOM     16  H1  UNL     1       0.491   4.092   0.113  1.00  0.00     0.219 HD
ENDBRANCH   2  15
BRANCH   6  17
HETATM   17  C10 UNL     1      -1.619  -1.247  -0.567  1.00  0.00     0.037 C 
HETATM   18  C11 UNL     1      -1.092  -2.154   0.530  1.00  0.00     0.010 C 
ENDBRANCH   6  17
BRANCH   5  19
HETATM   19  C8  UNL     1      -3.666   0.905   0.466  1.00  0.00     0.142 C 
HETATM   20 BR1  UNL     1      -3.935   0.009   2.145  1.00  0.00    -0.090 Br
ENDBRANCH   5  19
TORSDOF 5
