REMARK  6 active torsions:
REMARK  status: ('A' for Active; 'I' for Inactive)
REMARK    1  A    between atoms: C2_2  and  N1_5 
REMARK       I    between atoms: N1_5  and  C5_7 
REMARK    2  A    between atoms: C5_7  and  C6_9 
REMARK    3  A    between atoms: C6_9  and  N2_12 
REMARK       I    between atoms: N2_12  and  C9_14 
REMARK       I    between atoms: C9_14  and  N3_16 
REMARK    4  A    between atoms: N3_16  and  C10_18 
REMARK    5  A    between atoms: C10_18  and  C11_19 
REMARK       I    between atoms: C11_19  and  N4_21 
REMARK    6  A    between atoms: N4_21  and  C12_23 
ROOT
HETATM    1  N2  UNL     1      -1.763  -1.965  -0.516  1.00  0.00    -0.326 N 
ATOM      2  H2  UNL     1      -1.491  -2.875  -0.144  1.00  0.00     0.165 HD
HETATM    3  C9  UNL     1      -0.797  -0.944  -0.686  1.00  0.00     0.317 C 
HETATM    4  O2  UNL     1      -1.093   0.193  -1.158  1.00  0.00    -0.247 OA
HETATM    5  N3  UNL     1       0.550  -1.194  -0.318  1.00  0.00    -0.334 N 
ATOM      6  H3  UNL     1       0.818  -2.100   0.066  1.00  0.00     0.164 HD
ENDROOT
BRANCH   1   7
HETATM    7  C6  UNL     1      -3.128  -1.706  -0.873  1.00  0.00     0.108 C 
HETATM    8  C7  UNL     1      -3.118  -1.258  -2.322  1.00  0.00     0.049 C 
HETATM    9  C8  UNL     1      -3.997  -2.932  -0.682  1.00  0.00     0.049 C 
BRANCH   7  10
HETATM   10  C5  UNL     1      -3.670  -0.643  -0.006  1.00  0.00     0.246 C 
HETATM   11  N1  UNL     1      -4.990  -0.178  -0.218  1.00  0.00    -0.351 N 
ATOM     12  H1  UNL     1      -5.548  -0.585  -0.969  1.00  0.00     0.163 HD
HETATM   13  O1  UNL     1      -2.963  -0.163   0.903  1.00  0.00    -0.271 OA
BRANCH  11  14
HETATM   14  C2  UNL     1      -5.565   0.863   0.608  1.00  0.00     0.022 C 
HETATM   15  C1  UNL     1      -6.983   1.176   0.153  1.00  0.00     0.037 C 
HETATM   16  C3  UNL     1      -4.721   2.110   0.488  1.00  0.00     0.037 C 
HETATM   17  C4  UNL     1      -5.643   0.484   2.067  1.00  0.00     0.037 C 
ENDBRANCH  11  14
ENDBRANCH   7  10
ENDBRANCH   1   7
BRANCH   5  18
HETATM   18  C10 UNL     1       1.533  -0.161  -0.490  1.00  0.00     0.227 C 
BRANCH  18  19
HETATM   19  C11 UNL     1       2.857  -0.645  -0.041  1.00  0.00     0.235 C 
HETATM   20  O3  UNL     1       2.980  -1.821   0.411  1.00  0.00    -0.272 OA
HETATM   21  N4  UNL     1       3.965   0.230  -0.129  1.00  0.00    -0.355 N 
ATOM     22  H4  UNL     1       3.855   1.176  -0.494  1.00  0.00     0.162 HD
BRANCH  21  23
HETATM   23  C12 UNL     1       5.256  -0.248   0.311  1.00  0.00     0.084 C 
HETATM   24  C13 UNL     1       5.726   0.643   1.440  1.00  0.00     0.025 C 
HETATM   25  C14 UNL     1       7.151   1.117   1.238  1.00  0.00     0.002 C 
HETATM   26  C15 UNL     1       7.286   1.874  -0.067  1.00  0.00     0.000 C 
HETATM   27  C16 UNL     1       6.567   1.179  -1.182  1.00  0.00     0.002 C 
HETATM   28  C17 UNL     1       6.259  -0.243  -0.804  1.00  0.00     0.025 C 
ENDBRANCH  21  23
ENDBRANCH  18  19
ENDBRANCH   5  18
TORSDOF 6
