REMARK  4 active torsions:
REMARK  status: ('A' for Active; 'I' for Inactive)
REMARK    1  A    between atoms: C4_9  and  C5_10 
REMARK    2  A    between atoms: C15_26  and  C16_27 
REMARK    3  A    between atoms: C16_27  and  C17_28 
REMARK    4  A    between atoms: C17_28  and  C18_29 
ROOT
HETATM    1  C1  UNL     1      -2.338   2.967  -0.433  1.00  0.00     0.043 C 
HETATM    2  C2  UNL     1      -1.438   2.023  -0.435  1.00  0.00     0.031 A 
HETATM    3  N1  UNL     1      -0.142   2.340  -0.166  1.00  0.00    -0.342 N 
ATOM      4  H1  UNL     1       0.095   3.312   0.031  1.00  0.00     0.167 HD
HETATM    5  C3  UNL     1       0.838   1.420  -0.150  1.00  0.00     0.110 A 
HETATM    6  N2  UNL     1       2.015   1.849   0.116  1.00  0.00    -0.385 N 
ATOM      7  H21 UNL     1       2.759   1.151   0.128  1.00  0.00     0.157 HD
ATOM      8  H22 UNL     1       2.245   2.823   0.311  1.00  0.00     0.157 HD
HETATM    9  C4  UNL     1       0.527   0.101  -0.414  1.00  0.00     0.015 A 
HETATM   10  C13 UNL     1      -0.806  -0.245  -0.693  1.00  0.00    -0.040 A 
HETATM   11  C14 UNL     1      -1.095  -1.652  -0.944  1.00  0.00     0.050 C 
HETATM   12  C15 UNL     1      -1.792   0.715  -0.706  1.00  0.00    -0.025 A 
ENDROOT
BRANCH   9  13
HETATM   13  C5  UNL     1       1.469  -0.808  -0.404  1.00  0.00     0.031 C 
HETATM   14  C6  UNL     1       2.877  -0.659  -0.145  1.00  0.00     0.018 A 
HETATM   15  C7  UNL     1       3.522  -0.771   1.070  1.00  0.00     0.018 A 
HETATM   16  C12 UNL     1       3.847  -0.393  -1.111  1.00  0.00     0.089 A 
HETATM   17  C8  UNL     1       2.849  -1.059   2.385  1.00  0.00     0.069 C 
HETATM   18  N3  UNL     1       4.825  -0.583   0.852  1.00  0.00    -0.356 N 
HETATM   19  C9  UNL     1       5.051  -0.354  -0.449  1.00  0.00     0.085 A 
ATOM     20  H3  UNL     1       5.546  -0.610   1.573  1.00  0.00     0.166 HD
HETATM   21  C10 UNL     1       6.028  -0.092  -1.385  1.00  0.00     0.051 A 
HETATM   22  C11 UNL     1       7.509   0.045  -1.136  1.00  0.00     0.072 C 
HETATM   23  N4  UNL     1       5.400   0.017  -2.567  1.00  0.00    -0.302 N 
HETATM   24  N5  UNL     1       4.099  -0.162  -2.411  1.00  0.00    -0.297 N 
ATOM     25  H4  UNL     1       5.860   0.210  -3.457  1.00  0.00     0.186 HD
ATOM     26  H5  UNL     1       3.402  -0.130  -3.155  1.00  0.00     0.187 HD
ENDBRANCH   9  13
BRANCH  12  27
HETATM   27  C16 UNL     1      -3.173   0.334  -1.000  1.00  0.00     0.042 C 
BRANCH  27  28
HETATM   28  C17 UNL     1      -4.037   0.244   0.239  1.00  0.00     0.008 C 
BRANCH  28  29
HETATM   29  C18 UNL     1      -5.462  -0.149  -0.125  1.00  0.00    -0.023 C 
HETATM   30  C19 UNL     1      -6.332  -0.241   1.110  1.00  0.00     0.009 C 
HETATM   31  C20 UNL     1      -5.487  -1.532  -0.763  1.00  0.00     0.009 C 
ENDBRANCH  28  29
ENDBRANCH  27  28
ENDBRANCH  12  27
TORSDOF 4
