REMARK  5 active torsions:
REMARK  status: ('A' for Active; 'I' for Inactive)
REMARK    1  A    between atoms: C2_2  and  C3_3 
REMARK    2  A    between atoms: C3_3  and  C4_4 
REMARK    3  A    between atoms: C4_4  and  C5_5 
REMARK    4  A    between atoms: C5_5  and  C6_6 
REMARK       I    between atoms: N3_15  and  C10_17 
REMARK       I    between atoms: C10_17  and  N4_19 
REMARK    5  A    between atoms: N4_19  and  C11_21 
ROOT
HETATM    1  C6  UNL     1      -3.766  -0.625  -0.619  1.00  0.00     0.101 C 
HETATM    2  C7  UNL     1      -4.070   0.551  -1.513  1.00  0.00     0.146 C 
HETATM    3  N1  UNL     1      -3.009   1.499  -1.301  1.00  0.00    -0.372 N 
ATOM      4  H1  UNL     1      -3.219   2.471  -1.074  1.00  0.00     0.161 HD
HETATM    5  C8  UNL     1      -1.627   1.045  -1.417  1.00  0.00     0.139 C 
HETATM    6  N2  UNL     1      -0.729   1.930  -1.562  1.00  0.00    -0.383 N 
ATOM      7  H21 UNL     1       0.237   1.613  -1.643  1.00  0.00     0.157 HD
ATOM      8  H22 UNL     1      -0.884   2.937  -1.605  1.00  0.00     0.157 HD
HETATM    9  C9  UNL     1      -1.406  -0.392  -1.355  1.00  0.00     0.149 C 
HETATM   10  N3  UNL     1      -0.299  -0.948  -1.443  1.00  0.00    -0.292 N 
ATOM     11  H3  UNL     1      -0.391  -1.961  -1.373  1.00  0.00     0.172 HD
HETATM   12  C10 UNL     1       0.984  -0.590  -1.604  1.00  0.00     0.322 C 
HETATM   13  O1  UNL     1       1.480  -0.433  -2.775  1.00  0.00    -0.247 OA
HETATM   14  N4  UNL     1       1.883  -0.361  -0.518  1.00  0.00    -0.338 N 
ATOM     15  H4  UNL     1       1.533  -0.474   0.433  1.00  0.00     0.164 HD
HETATM   16  N5  UNL     1      -2.588  -1.242  -1.184  1.00  0.00    -0.367 N 
ATOM     17  H5  UNL     1      -2.579  -2.226  -1.452  1.00  0.00     0.161 HD
ENDROOT
BRANCH   1  18
HETATM   18  C5  UNL     1      -4.878  -1.591  -0.426  1.00  0.00     0.027 C 
BRANCH  18  19
HETATM   19  C4  UNL     1      -6.073  -0.934   0.190  1.00  0.00     0.002 C 
BRANCH  19  20
HETATM   20  C3  UNL     1      -5.663  -0.361   1.542  1.00  0.00    -0.000 C 
BRANCH  20  21
HETATM   21  C2  UNL     1      -6.932   0.277   2.122  1.00  0.00    -0.005 C 
HETATM   22  C1  UNL     1      -7.382   1.349   1.161  1.00  0.00     0.005 C 
ENDBRANCH  20  21
ENDBRANCH  19  20
ENDBRANCH  18  19
ENDBRANCH   1  18
BRANCH  14  23
HETATM   23  C11 UNL     1       3.270   0.024  -0.701  1.00  0.00     0.091 C 
HETATM   24  C12 UNL     1       3.546   1.282   0.055  1.00  0.00     0.030 C 
HETATM   25  C13 UNL     1       4.248   0.896   1.344  1.00  0.00    -0.012 C 
HETATM   26  C14 UNL     1       5.727   1.095   1.141  1.00  0.00     0.010 C 
HETATM   27  C20 UNL     1       4.040  -0.623   1.422  1.00  0.00     0.011 C 
HETATM   28  C15 UNL     1       6.176   0.534  -0.160  1.00  0.00    -0.010 C 
HETATM   29  C16 UNL     1       7.506  -0.209   0.030  1.00  0.00     0.005 C 
HETATM   30  C18 UNL     1       5.568  -0.753  -0.560  1.00  0.00    -0.004 C 
HETATM   31  C17 UNL     1       6.679  -1.485   0.115  1.00  0.00     0.006 C 
HETATM   32  C19 UNL     1       4.179  -0.988  -0.033  1.00  0.00     0.013 C 
ENDBRANCH  14  23
TORSDOF 5
