REMARK  10 active torsions:
REMARK  status: ('A' for Active; 'I' for Inactive)
REMARK    1  A    between atoms: C2_2  and  C3_3 
REMARK    2  A    between atoms: C3_3  and  C4_4 
REMARK    3  A    between atoms: C4_4  and  N1_5 
REMARK    4  A    between atoms: N1_5  and  C5_7 
REMARK    5  A    between atoms: C5_7  and  N2_9 
REMARK    6  A    between atoms: N2_9  and  N3_11 
REMARK    7  A    between atoms: N3_11  and  C6_13 
REMARK    8  A    between atoms: C6_13  and  N4_15 
REMARK    9  A    between atoms: N4_15  and  C7_17 
REMARK   10  A    between atoms: C7_17  and  C8_18 
ROOT
HETATM    1  C6  UNL     1       0.544   0.477   0.115  1.00  0.00     0.186 C 
HETATM    2  S2  UNL     1       1.197   0.795  -1.360  1.00  0.00    -0.040 SA
ENDROOT
BRANCH   1   3
HETATM    3  N3  UNL     1       1.373   0.380   1.263  1.00  0.00    -0.274 N 
ATOM      4  H3  UNL     1       0.973   0.183   2.180  1.00  0.00     0.189 HD
BRANCH   3   5
HETATM    5  N2  UNL     1       2.738   0.559   1.108  1.00  0.00    -0.274 N 
ATOM      6  H2  UNL     1       3.144   1.481   1.271  1.00  0.00     0.189 HD
BRANCH   5   7
HETATM    7  C5  UNL     1       3.575  -0.508   0.730  1.00  0.00     0.186 C 
HETATM    8  S1  UNL     1       2.960  -1.994   0.461  1.00  0.00    -0.040 SA
BRANCH   7   9
HETATM    9  N1  UNL     1       4.955  -0.304   0.579  1.00  0.00    -0.366 N 
ATOM     10  H1  UNL     1       5.353   0.620   0.744  1.00  0.00     0.161 HD
BRANCH   9  11
HETATM   11  C4  UNL     1       5.809  -1.393   0.193  1.00  0.00     0.122 C 
BRANCH  11  12
HETATM   12  C3  UNL     1       7.235  -0.933   0.085  1.00  0.00     0.019 C 
BRANCH  12  13
HETATM   13  C2  UNL     1       7.325   0.159  -0.970  1.00  0.00    -0.003 C 
HETATM   14  C1  UNL     1       8.763   0.649  -1.108  1.00  0.00     0.005 C 
ENDBRANCH  12  13
ENDBRANCH  11  12
ENDBRANCH   9  11
ENDBRANCH   7   9
ENDBRANCH   5   7
ENDBRANCH   3   5
ENDBRANCH   1   3
BRANCH   1  15
HETATM   15  N4  UNL     1      -0.846   0.296   0.255  1.00  0.00    -0.365 N 
ATOM     16  H4  UNL     1      -1.257   0.097   1.167  1.00  0.00     0.161 HD
BRANCH  15  17
HETATM   17  C7  UNL     1      -1.679   0.399  -0.929  1.00  0.00     0.131 C 
BRANCH  17  18
HETATM   18  C8  UNL     1      -3.117   0.171  -0.541  1.00  0.00    -0.023 C 
HETATM   19  C9  UNL     1      -3.353  -1.176   0.071  1.00  0.00     0.015 C 
HETATM   20  C10 UNL     1      -4.836  -1.304   0.355  1.00  0.00    -0.013 C 
HETATM   21  C11 UNL     1      -5.633  -1.187  -0.914  1.00  0.00     0.009 C 
HETATM   22  C15 UNL     1      -5.243  -0.238   1.343  1.00  0.00     0.009 C 
HETATM   23  C12 UNL     1      -5.422   0.178  -1.508  1.00  0.00    -0.013 C 
HETATM   24  C13 UNL     1      -5.791   1.278  -0.525  1.00  0.00     0.009 C 
HETATM   25  C17 UNL     1      -3.949   0.348  -1.817  1.00  0.00     0.015 C 
HETATM   26  C14 UNL     1      -5.006   1.119   0.740  1.00  0.00    -0.013 C 
HETATM   27  C16 UNL     1      -3.526   1.232   0.437  1.00  0.00     0.015 C 
ENDBRANCH  17  18
ENDBRANCH  15  17
ENDBRANCH   1  15
TORSDOF 10
