REMARK  7 active torsions:
REMARK  status: ('A' for Active; 'I' for Inactive)
REMARK    1  A    between atoms: C2_2  and  C3_3 
REMARK    2  A    between atoms: N2_11  and  C10_13 
REMARK    3  A    between atoms: C10_13  and  C11_14 
REMARK    4  A    between atoms: C11_14  and  O1_15 
REMARK    5  A    between atoms: C11_14  and  C12_17 
REMARK    6  A    between atoms: C12_17  and  C14_19 
REMARK    7  A    between atoms: C15_20  and  O2_21 
ROOT
HETATM    1  C10 UNL     1      -0.642   0.652   1.076  1.00  0.00     0.274 C 
ENDROOT
BRANCH   1   2
HETATM    2  N2  UNL     1       0.698   0.250   0.895  1.00  0.00    -0.059 N 
HETATM    3  C7  UNL     1       1.141  -0.063  -0.420  1.00  0.00     0.236 C 
HETATM    4  C6  UNL     1       2.616   0.057  -0.612  1.00  0.00     0.046 A 
HETATM    5  C8  UNL     1       0.495   0.668  -1.557  1.00  0.00     0.047 C 
HETATM    6  C5  UNL     1       3.436   0.690   0.273  1.00  0.00    -0.030 A 
HETATM    7  N1  UNL     1       3.377  -0.408  -1.660  1.00  0.00    -0.361 N 
HETATM    8  C4  UNL     1       4.717   0.592  -0.276  1.00  0.00     0.034 A 
HETATM    9  C20 UNL     1       2.880   1.280   1.504  1.00  0.00     0.068 C 
HETATM   10  C3  UNL     1       4.642  -0.092  -1.469  1.00  0.00     0.009 A 
HETATM   11  C19 UNL     1       1.439   1.420   1.420  1.00  0.00     0.242 C 
ATOM     12  H1  UNL     1       3.016  -0.921  -2.464  1.00  0.00     0.165 HD
HETATM   13  C9  UNL     1       1.113  -0.856   1.755  1.00  0.00     0.273 C 
BRANCH  10  14
HETATM   14  C2  UNL     1       5.789  -0.401  -2.354  1.00  0.00     0.052 C 
HETATM   15  C1  UNL     1       7.068   0.153  -1.752  1.00  0.00     0.011 C 
ENDBRANCH  10  14
ENDBRANCH   1   2
BRANCH   1  16
HETATM   16  C11 UNL     1      -1.766  -0.184   0.559  1.00  0.00     0.173 C 
BRANCH  16  17
HETATM   17  O1  UNL     1      -1.817  -1.458   1.104  1.00  0.00    -0.389 OA
ATOM     18  H1  UNL     1      -2.532  -1.990   0.775  1.00  0.00     0.210 HD
ENDBRANCH  16  17
BRANCH  16  19
HETATM   19  C12 UNL     1      -3.074   0.452   0.905  1.00  0.00    -0.039 C 
HETATM   20  C13 UNL     1      -3.263   0.542   2.417  1.00  0.00     0.047 C 
BRANCH  19  21
HETATM   21  C14 UNL     1      -4.272   0.112   0.196  1.00  0.00     0.025 A 
HETATM   22  C15 UNL     1      -5.524   0.603   0.632  1.00  0.00     0.093 A 
HETATM   23  C16 UNL     1      -6.470   0.137  -0.227  1.00  0.00     0.125 A 
HETATM   24  N3  UNL     1      -5.884  -0.613  -1.169  1.00  0.00    -0.366 N 
HETATM   25  C17 UNL     1      -4.531  -0.629  -0.911  1.00  0.00     0.018 A 
ATOM     26  H3  UNL     1      -6.355  -1.087  -1.939  1.00  0.00     0.165 HD
HETATM   27  C18 UNL     1      -3.624  -1.371  -1.818  1.00  0.00     0.069 C 
BRANCH  22  28
HETATM   28  O2  UNL     1      -5.805   1.412   1.717  1.00  0.00    -0.358 OA
ATOM     29  H2  UNL     1      -6.646   1.742   2.010  1.00  0.00     0.217 HD
ENDBRANCH  22  28
ENDBRANCH  19  21
ENDBRANCH  16  19
ENDBRANCH   1  16
TORSDOF 7
