REMARK  7 active torsions:
REMARK  status: ('A' for Active; 'I' for Inactive)
REMARK       I    between atoms: N1_2  and  C2_4 
REMARK       I    between atoms: C2_4  and  N2_6 
REMARK    1  A    between atoms: N2_6  and  C3_8 
REMARK    2  A    between atoms: C3_8  and  C4_9 
REMARK    3  A    between atoms: C4_9  and  N3_10 
REMARK    4  A    between atoms: C4_9  and  C12_22 
REMARK    5  A    between atoms: N3_10  and  C5_12 
REMARK    6  A    between atoms: C5_12  and  N4_14 
REMARK    7  A    between atoms: N4_14  and  C6_16 
ROOT
HETATM    1  C4  UNL     1      -0.971   0.062   0.432  1.00  0.00     0.106 C 
ENDROOT
BRANCH   1   2
HETATM    2  C3  UNL     1      -1.667   1.360   0.197  1.00  0.00     0.149 C 
BRANCH   2   3
HETATM    3  N2  UNL     1      -3.043   1.452   0.528  1.00  0.00    -0.341 N 
HETATM    4  C2  UNL     1      -3.690   2.696   0.258  1.00  0.00     0.315 C 
HETATM    5  N1  UNL     1      -5.065   2.873   0.560  1.00  0.00    -0.347 N 
HETATM    6  O1  UNL     1      -3.056   3.652  -0.248  1.00  0.00    -0.247 OA
HETATM    7  C1  UNL     1      -5.729   4.131   0.289  1.00  0.00     0.151 C 
ATOM      8  H1  UNL     1      -5.593   2.104   0.973  1.00  0.00     0.163 HD
ATOM      9  H2  UNL     1      -3.547   0.666   0.940  1.00  0.00     0.164 HD
ENDBRANCH   2   3
ENDBRANCH   1   2
BRANCH   1  10
HETATM   10  N3  UNL     1       0.434   0.301   0.053  1.00  0.00    -0.361 N 
ATOM     11  H3  UNL     1       0.785  -0.072  -0.829  1.00  0.00     0.162 HD
BRANCH  10  12
HETATM   12  C5  UNL     1       1.301   1.037   0.889  1.00  0.00     0.168 C 
HETATM   13  S1  UNL     1       0.770   1.610   2.352  1.00  0.00    -0.041 SA
BRANCH  12  14
HETATM   14  N4  UNL     1       2.653   1.307   0.572  1.00  0.00    -0.363 N 
ATOM     15  H4  UNL     1       3.213   1.853   1.227  1.00  0.00     0.162 HD
BRANCH  14  16
HETATM   16  C6  UNL     1       3.260   0.841  -0.634  1.00  0.00     0.083 C 
HETATM   17  C7  UNL     1       4.669   1.395  -0.761  1.00  0.00     0.025 C 
HETATM   18  C8  UNL     1       5.503   1.045   0.452  1.00  0.00     0.002 C 
HETATM   19  C9  UNL     1       5.326  -0.406   0.843  1.00  0.00     0.000 C 
HETATM   20  C10 UNL     1       4.686  -1.194  -0.306  1.00  0.00     0.002 C 
HETATM   21  C11 UNL     1       3.289  -0.675  -0.574  1.00  0.00     0.025 C 
ENDBRANCH  14  16
ENDBRANCH  12  14
ENDBRANCH  10  12
ENDBRANCH   1  10
BRANCH   1  22
HETATM   22  C12 UNL     1      -1.455  -1.043  -0.480  1.00  0.00     0.010 C 
HETATM   23  C13 UNL     1      -2.883  -1.394  -0.359  1.00  0.00     0.007 C 
HETATM   24  C14 UNL     1      -3.138  -2.804  -0.951  1.00  0.00     0.000 C 
HETATM   25  C15 UNL     1      -2.469  -3.727   0.043  1.00  0.00     0.000 C 
HETATM   26  C16 UNL     1      -1.006  -3.506  -0.014  1.00  0.00     0.000 C 
HETATM   27  C17 UNL     1      -0.511  -2.209  -0.501  1.00  0.00     0.007 C 
ENDBRANCH   1  22
TORSDOF 7
