REMARK  14 active torsions:
REMARK  status: ('A' for Active; 'I' for Inactive)
REMARK    1  A    between atoms: C2_2  and  C3_3 
REMARK    2  A    between atoms: C3_3  and  C4_4 
REMARK    3  A    between atoms: C4_4  and  C5_5 
REMARK    4  A    between atoms: C6_6  and  O1_7 
REMARK    5  A    between atoms: C8_10  and  O2_11 
REMARK    6  A    between atoms: O2_11  and  C9_12 
REMARK    7  A    between atoms: C13_16  and  O3_17 
REMARK    8  A    between atoms: O3_17  and  C14_18 
REMARK    9  A    between atoms: C15_19  and  O4_20 
REMARK   10  A    between atoms: C17_24  and  O6_25 
REMARK   11  A    between atoms: C19_29  and  C20_30 
REMARK   12  A    between atoms: C20_30  and  O8_31 
REMARK   13  A    between atoms: C21_33  and  O9_34 
REMARK   14  A    between atoms: C22_36  and  O10_37 
ROOT
HETATM    1  C5  UNL     1      -2.523  -0.279  -0.257  1.00  0.00     0.045 C 
HETATM    2  C6  UNL     1      -2.760  -0.158   1.230  1.00  0.00     0.143 C 
HETATM    3  C7  UNL     1      -1.959  -1.390   1.443  1.00  0.00     0.090 C 
HETATM    4  C8  UNL     1      -0.563  -1.289   1.926  1.00  0.00     0.277 C 
HETATM    5  O7  UNL     1      -0.542  -1.656   3.256  1.00  0.00    -0.350 OA
HETATM    6  C19 UNL     1      -1.681  -2.319   3.595  1.00  0.00     0.178 C 
HETATM    7  C21 UNL     1      -2.560  -2.414   2.380  1.00  0.00     0.167 C 
HETATM    8  C22 UNL     1      -2.135  -1.722  -0.028  1.00  0.00     0.143 C 
ENDROOT
BRANCH   4   9
HETATM    9  O2  UNL     1       0.079  -0.093   1.752  1.00  0.00    -0.354 OA
BRANCH   9  10
HETATM   10  C9  UNL     1       1.252  -0.168   1.040  1.00  0.00     0.131 C 
HETATM   11  C10 UNL     1       2.358   0.268   2.015  1.00  0.00     0.033 C 
HETATM   12  C11 UNL     1       2.348   1.754   1.921  1.00  0.00     0.010 C 
HETATM   13  C12 UNL     1       2.068   1.996   0.474  1.00  0.00     0.024 A 
HETATM   14  C13 UNL     1       2.794   1.144  -0.501  1.00  0.00     0.134 A 
HETATM   15  C18 UNL     1       1.405   0.802  -0.079  1.00  0.00     0.050 A 
BRANCH  14  16
HETATM   16  O3  UNL     1       3.048   1.749  -1.716  1.00  0.00    -0.372 OA
BRANCH  16  17
HETATM   17  C14 UNL     1       4.227   1.288  -2.230  1.00  0.00     0.207 C 
HETATM   18  C15 UNL     1       4.135   0.764  -3.638  1.00  0.00     0.175 C 
HETATM   19  C16 UNL     1       5.556   0.950  -4.118  1.00  0.00     0.205 C 
HETATM   20  O5  UNL     1       6.142   1.934  -3.377  1.00  0.00    -0.356 OA
HETATM   21  C17 UNL     1       5.270   2.391  -2.423  1.00  0.00     0.288 C 
BRANCH  18  22
HETATM   22  O4  UNL     1       3.746  -0.565  -3.696  1.00  0.00    -0.391 OA
ATOM     23  H4  UNL     1       3.688  -0.896  -4.585  1.00  0.00     0.210 HD
ENDBRANCH  18  22
BRANCH  21  24
HETATM   24  O6  UNL     1       4.651   3.546  -2.897  1.00  0.00    -0.369 OA
ATOM     25  H6  UNL     1       5.299   4.231  -3.017  1.00  0.00     0.212 HD
ENDBRANCH  21  24
ENDBRANCH  16  17
ENDBRANCH  14  16
ENDBRANCH   9  10
ENDBRANCH   4   9
BRANCH   2  26
HETATM   26  O1  UNL     1      -4.112  -0.419   1.556  1.00  0.00    -0.394 OA
ATOM     27  H1  UNL     1      -4.261  -0.343   2.491  1.00  0.00     0.210 HD
ENDBRANCH   2  26
BRANCH   7  28
HETATM   28  O9  UNL     1      -2.510  -3.699   1.875  1.00  0.00    -0.392 OA
ATOM     29  H9  UNL     1      -2.887  -4.342   2.464  1.00  0.00     0.210 HD
ENDBRANCH   7  28
BRANCH   8  30
HETATM   30  O10 UNL     1      -3.235  -2.533  -0.296  1.00  0.00    -0.394 OA
ATOM     31  H10 UNL     1      -2.991  -3.440  -0.152  1.00  0.00     0.210 HD
ENDBRANCH   8  30
BRANCH   6  32
HETATM   32  C20 UNL     1      -1.316  -3.694   4.125  1.00  0.00     0.198 C 
BRANCH  32  33
HETATM   33  O8  UNL     1      -2.449  -4.386   4.475  1.00  0.00    -0.398 OA
ATOM     34  H8  UNL     1      -2.221  -5.246   4.807  1.00  0.00     0.209 HD
ENDBRANCH  32  33
ENDBRANCH   6  32
BRANCH   1  35
HETATM   35  C4  UNL     1      -3.747  -0.077  -1.101  1.00  0.00     0.010 C 
BRANCH  35  36
HETATM   36  C3  UNL     1      -4.302   1.291  -0.872  1.00  0.00     0.000 C 
BRANCH  36  37
HETATM   37  C2  UNL     1      -3.276   2.368  -1.241  1.00  0.00    -0.005 C 
HETATM   38  C1  UNL     1      -2.906   2.234  -2.703  1.00  0.00     0.005 C 
ENDBRANCH  36  37
ENDBRANCH  35  36
ENDBRANCH   1  35
TORSDOF 14
