REMARK  11 active torsions:
REMARK  status: ('A' for Active; 'I' for Inactive)
REMARK    1  A    between atoms: C4_4  and  O1_5 
REMARK    2  A    between atoms: O1_5  and  C5_6 
REMARK    3  A    between atoms: C5_6  and  C6_7 
REMARK    4  A    between atoms: C7_9  and  O3_10 
REMARK    5  A    between atoms: C8_12  and  O4_13 
REMARK    6  A    between atoms: C9_15  and  O5_16 
REMARK    7  A    between atoms: C10_18  and  O6_19 
REMARK    8  A    between atoms: C12_23  and  O8_24 
REMARK    9  A    between atoms: O8_24  and  C13_25 
REMARK   10  A    between atoms: C17_29  and  C18_30 
REMARK   11  A    between atoms: C18_30  and  C19_31 
REMARK       I    between atoms: C19_31  and  N1_33 
ROOT
HETATM    1  C19 UNL     1      -6.973  -0.989  -1.226  1.00  0.00     0.233 C 
HETATM    2  O9  UNL     1      -7.261  -2.127  -0.791  1.00  0.00    -0.272 OA
HETATM    3  N1  UNL     1      -8.017  -0.217  -1.799  1.00  0.00    -0.264 N 
ATOM      4  H1  UNL     1      -7.809   0.714  -2.160  1.00  0.00     0.181 HD
HETATM    5  C20 UNL     1      -9.316  -0.702  -1.878  1.00  0.00     0.184 C 
HETATM    6  N2  UNL     1     -10.413  -1.095  -1.947  1.00  0.00    -0.172 NA
ENDROOT
BRANCH   1   7
HETATM    7  C18 UNL     1      -5.597  -0.497  -1.132  1.00  0.00     0.135 C 
BRANCH   7   8
HETATM    8  C17 UNL     1      -4.620  -1.377  -0.441  1.00  0.00     0.133 C 
HETATM    9  C16 UNL     1      -4.898  -1.698   0.982  1.00  0.00     0.033 C 
HETATM   10  C15 UNL     1      -4.959  -0.392   1.743  1.00  0.00     0.007 C 
HETATM   11  C14 UNL     1      -3.840   0.516   1.309  1.00  0.00     0.061 C 
HETATM   12  C13 UNL     1      -2.851  -0.116   0.371  1.00  0.00     0.263 C 
HETATM   13  O10 UNL     1      -3.356  -0.845  -0.652  1.00  0.00    -0.355 OA
BRANCH  12  14
HETATM   14  O8  UNL     1      -2.123   0.963  -0.185  1.00  0.00    -0.328 OA
BRANCH  14  15
HETATM   15  C12 UNL     1      -0.790   0.925   0.213  1.00  0.00     0.292 C 
HETATM   16  C2  UNL     1       0.062   0.961  -0.995  1.00  0.00    -0.032 C 
HETATM   17  C1  UNL     1      -0.107   0.190  -2.033  1.00  0.00     0.019 C 
HETATM   18  C3  UNL     1       1.174   1.962  -0.970  1.00  0.00     0.072 C 
HETATM   19  C4  UNL     1       1.763   1.875   0.417  1.00  0.00     0.149 C 
HETATM   20  C11 UNL     1       0.674   2.228   1.455  1.00  0.00     0.203 C 
HETATM   21  O7  UNL     1      -0.565   2.142   0.886  1.00  0.00    -0.355 OA
BRANCH  19  22
HETATM   22  O1  UNL     1       2.096   0.573   0.701  1.00  0.00    -0.381 OA
BRANCH  22  23
HETATM   23  C5  UNL     1       3.348   0.381   1.198  1.00  0.00     0.203 C 
BRANCH  23  24
HETATM   24  C6  UNL     1       4.435   0.747   0.228  1.00  0.00     0.179 C 
HETATM   25  O2  UNL     1       5.637   0.576   0.899  1.00  0.00    -0.349 OA
HETATM   26  C7  UNL     1       6.109  -0.697   0.994  1.00  0.00     0.288 C 
HETATM   27  C8  UNL     1       6.538  -1.096  -0.426  1.00  0.00     0.204 C 
HETATM   28  C9  UNL     1       5.247  -1.190  -1.207  1.00  0.00     0.183 C 
HETATM   29  C10 UNL     1       4.364  -0.013  -1.059  1.00  0.00     0.180 C 
BRANCH  26  30
HETATM   30  O3  UNL     1       7.206  -0.732   1.856  1.00  0.00    -0.369 OA
ATOM     31  H3  UNL     1       7.535  -1.621   1.922  1.00  0.00     0.212 HD
ENDBRANCH  26  30
BRANCH  27  32
HETATM   32  O4  UNL     1       7.252  -0.021  -0.930  1.00  0.00    -0.388 OA
ATOM     33  H4  UNL     1       7.517  -0.268  -1.808  1.00  0.00     0.210 HD
ENDBRANCH  27  32
BRANCH  28  34
HETATM   34  O5  UNL     1       4.631  -2.385  -0.811  1.00  0.00    -0.390 OA
ATOM     35  H5  UNL     1       3.820  -2.444  -1.302  1.00  0.00     0.210 HD
ENDBRANCH  28  34
BRANCH  29  36
HETATM   36  O6  UNL     1       4.656   0.871  -2.126  1.00  0.00    -0.390 OA
ATOM     37  H6  UNL     1       4.611   0.388  -2.943  1.00  0.00     0.210 HD
ENDBRANCH  29  36
ENDBRANCH  23  24
ENDBRANCH  22  23
ENDBRANCH  19  22
ENDBRANCH  14  15
ENDBRANCH  12  14
ENDBRANCH   7   8
ENDBRANCH   1   7
TORSDOF 11
