REMARK  15 active torsions:
REMARK  status: ('A' for Active; 'I' for Inactive)
REMARK    1  A    between atoms: C2_2  and  N2_6 
REMARK    2  A    between atoms: N2_6  and  C3_8 
REMARK    3  A    between atoms: C4_9  and  O1_10 
REMARK    4  A    between atoms: O1_10  and  C5_11 
REMARK    5  A    between atoms: C5_11  and  C6_13 
REMARK    6  A    between atoms: C6_13  and  N3_14 
REMARK    7  A    between atoms: C6_13  and  C7_18 
REMARK    8  A    between atoms: C7_18  and  C8_20 
REMARK       I    between atoms: C8_20  and  N4_22 
REMARK    9  A    between atoms: N4_22  and  C9_24 
REMARK   10  A    between atoms: C15_31  and  C16_32 
REMARK   11  A    between atoms: C16_32  and  N5_33 
REMARK   12  A    between atoms: N5_33  and  N6_35 
REMARK   13  A    between atoms: N6_35  and  N7_36 
REMARK   14  A    between atoms: C17_39  and  O6_40 
REMARK   15  A    between atoms: C18_42  and  O7_43 
ROOT
HETATM    1  C3  UNL     1      -3.989  -1.320   0.170  1.00  0.00     0.169 C 
HETATM    2  C4  UNL     1      -2.679  -1.309  -0.596  1.00  0.00     0.295 C 
HETATM    3  O5  UNL     1      -2.849  -0.531  -1.727  1.00  0.00    -0.349 OA
HETATM    4  C15 UNL     1      -2.976   0.808  -1.352  1.00  0.00     0.176 C 
HETATM    5  C17 UNL     1      -4.296   0.957  -0.628  1.00  0.00     0.179 C 
HETATM    6  C18 UNL     1      -4.220   0.123   0.634  1.00  0.00     0.177 C 
ENDROOT
BRANCH   2   7
HETATM    7  O1  UNL     1      -1.685  -0.798   0.273  1.00  0.00    -0.285 OA
BRANCH   7   8
HETATM    8  C5  UNL     1      -0.551  -1.512   0.634  1.00  0.00     0.300 C 
HETATM    9  O2  UNL     1      -0.439  -2.663   0.144  1.00  0.00    -0.262 OA
BRANCH   8  10
HETATM   10  C6  UNL     1       0.409  -0.888   1.538  1.00  0.00     0.361 C 
BRANCH  10  11
HETATM   11  N3  UNL     1      -0.032   0.441   1.904  1.00  0.00    -0.059 N 
ATOM     12  H33 UNL     1      -0.213   1.020   1.084  1.00  0.00     0.275 HD
ATOM     13  H32 UNL     1      -0.974   0.434   2.296  1.00  0.00     0.275 HD
ATOM     14  H31 UNL     1       0.639   0.877   2.536  1.00  0.00     0.275 HD
ENDBRANCH  10  11
BRANCH  10  15
HETATM   15  C7  UNL     1       1.804  -0.913   1.069  1.00  0.00     0.256 C 
HETATM   16  O3  UNL     1       2.305  -2.029   0.725  1.00  0.00    -0.284 OA
BRANCH  15  17
HETATM   17  C8  UNL     1       2.666   0.242   0.965  1.00  0.00     0.290 C 
HETATM   18  O4  UNL     1       2.201   1.351   1.296  1.00  0.00    -0.264 OA
HETATM   19  N4  UNL     1       3.997   0.163   0.509  1.00  0.00    -0.350 N 
ATOM     20  H4  UNL     1       4.365  -0.750   0.242  1.00  0.00     0.163 HD
BRANCH  19  21
HETATM   21  C9  UNL     1       4.872   1.320   0.400  1.00  0.00     0.084 C 
HETATM   22  C10 UNL     1       6.070   1.211   1.305  1.00  0.00     0.025 C 
HETATM   23  C11 UNL     1       7.350   0.929   0.578  1.00  0.00     0.002 C 
HETATM   24  C12 UNL     1       7.142  -0.026  -0.571  1.00  0.00     0.000 C 
HETATM   25  C13 UNL     1       6.197   0.529  -1.586  1.00  0.00     0.002 C 
HETATM   26  C14 UNL     1       5.230   1.536  -1.037  1.00  0.00     0.025 C 
ENDBRANCH  19  21
ENDBRANCH  15  17
ENDBRANCH  10  15
ENDBRANCH   8  10
ENDBRANCH   7   8
ENDBRANCH   2   7
BRANCH   1  27
HETATM   27  N2  UNL     1      -3.910  -2.149   1.337  1.00  0.00    -0.368 N 
ATOM     28  H2  UNL     1      -3.035  -2.629   1.545  1.00  0.00     0.161 HD
BRANCH  27  29
HETATM   29  C2  UNL     1      -5.010  -2.320   2.208  1.00  0.00     0.067 C 
HETATM   30  C1  UNL     1      -6.361  -2.686   1.775  1.00  0.00     0.088 C 
HETATM   31  N1  UNL     1      -4.811  -2.141   3.486  1.00  0.00    -0.389 N 
ATOM     32  H12 UNL     1      -5.605  -2.264   4.115  1.00  0.00     0.157 HD
ATOM     33  H11 UNL     1      -3.870  -1.886   3.787  1.00  0.00     0.157 HD
ENDBRANCH  27  29
ENDBRANCH   1  27
BRANCH   6  34
HETATM   34  O7  UNL     1      -5.345   0.244   1.420  1.00  0.00    -0.391 OA
ATOM     35  H7  UNL     1      -5.488   1.138   1.707  1.00  0.00     0.210 HD
ENDBRANCH   6  34
BRANCH   4  36
HETATM   36  C16 UNL     1      -2.904   1.727  -2.557  1.00  0.00     0.190 C 
BRANCH  36  37
HETATM   37  N5  UNL     1      -1.649   1.565  -3.222  1.00  0.00    -0.250 N 
ATOM     38  H5  UNL     1      -1.509   0.711  -3.761  1.00  0.00     0.197 HD
BRANCH  37  39
HETATM   39  N6  UNL     1      -0.725   2.376  -3.194  1.00  0.00    -0.248 NA
BRANCH  39  40
HETATM   40  N7  UNL     1       0.067   3.306  -3.338  1.00  0.00    -0.261 N 
ATOM     41  H72 UNL     1      -0.545   3.723  -4.039  1.00  0.00     0.193 HD
ATOM     42  H71 UNL     1       0.833   3.979  -3.315  1.00  0.00     0.193 HD
ENDBRANCH  39  40
ENDBRANCH  37  39
ENDBRANCH  36  37
ENDBRANCH   4  36
BRANCH   5  43
HETATM   43  O6  UNL     1      -5.314   0.379  -1.416  1.00  0.00    -0.390 OA
ATOM     44  H6  UNL     1      -6.143   0.473  -0.961  1.00  0.00     0.210 HD
ENDBRANCH   5  43
TORSDOF 15
