REMARK  12 active torsions:
REMARK  status: ('A' for Active; 'I' for Inactive)
REMARK    1  A    between atoms: C1_2  and  C2_4 
REMARK    2  A    between atoms: C4_6  and  O2_7 
REMARK    3  A    between atoms: C5_9  and  O3_10 
REMARK    4  A    between atoms: C6_12  and  O4_13 
REMARK    5  A    between atoms: O4_13  and  C7_14 
REMARK    6  A    between atoms: C8_16  and  C9_17 
REMARK    7  A    between atoms: C9_17  and  S1_18 
REMARK    8  A    between atoms: S1_18  and  C10_19 
REMARK    9  A    between atoms: C10_19  and  C11_20 
REMARK   10  A    between atoms: C17_26  and  O6_27 
REMARK   11  A    between atoms: C18_29  and  O7_30 
REMARK   12  A    between atoms: C19_32  and  O8_33 
ROOT
HETATM    1  C7  UNL     1      -1.025   1.482  -1.287  1.00  0.00     0.294 C 
HETATM    2  O5  UNL     1       0.224   0.894  -1.089  1.00  0.00    -0.350 OA
HETATM    3  C8  UNL     1       0.380  -0.311  -1.722  1.00  0.00     0.165 C 
HETATM    4  C17 UNL     1      -0.527  -0.545  -2.884  1.00  0.00     0.179 C 
HETATM    5  C18 UNL     1      -0.981   0.685  -3.587  1.00  0.00     0.183 C 
HETATM    6  C19 UNL     1      -1.043   1.911  -2.738  1.00  0.00     0.204 C 
ENDROOT
BRANCH   1   7
HETATM    7  O4  UNL     1      -1.982   0.562  -0.972  1.00  0.00    -0.326 OA
BRANCH   7   8
HETATM    8  C6  UNL     1      -2.777   0.915   0.118  1.00  0.00     0.295 C 
HETATM    9  C5  UNL     1      -2.567  -0.159   1.165  1.00  0.00     0.202 C 
HETATM   10  C4  UNL     1      -3.429   0.162   2.336  1.00  0.00     0.154 C 
HETATM   11  C3  UNL     1      -4.748   0.762   2.046  1.00  0.00     0.076 C 
HETATM   12  C2  UNL     1      -5.036   1.108   0.629  1.00  0.00     0.216 C 
HETATM   13  O9  UNL     1      -4.086   0.844  -0.283  1.00  0.00    -0.344 OA
BRANCH   9  14
HETATM   14  O3  UNL     1      -1.212  -0.083   1.550  1.00  0.00    -0.388 OA
ATOM     15  H3  UNL     1      -0.662  -0.288   0.803  1.00  0.00     0.210 HD
ENDBRANCH   9  14
BRANCH  10  16
HETATM   16  O2  UNL     1      -3.559  -1.036   3.080  1.00  0.00    -0.393 OA
ATOM     17  H2  UNL     1      -2.711  -1.422   3.266  1.00  0.00     0.210 HD
ENDBRANCH  10  16
BRANCH  12  18
HETATM   18  C1  UNL     1      -6.320   0.513   0.186  1.00  0.00     0.260 C 
HETATM   19  N1  UNL     1      -6.345  -0.192  -1.043  1.00  0.00    -0.060 NA
HETATM   20  O1  UNL     1      -7.392   0.593   0.835  1.00  0.00    -0.274 OA
ENDBRANCH  12  18
ENDBRANCH   7   8
ENDBRANCH   1   7
BRANCH   6  21
HETATM   21  O8  UNL     1       0.122   2.650  -2.958  1.00  0.00    -0.388 OA
ATOM     22  H8  UNL     1       0.111   2.919  -3.869  1.00  0.00     0.210 HD
ENDBRANCH   6  21
BRANCH   3  23
HETATM   23  C9  UNL     1       1.832  -0.393  -2.187  1.00  0.00     0.108 C 
BRANCH  23  24
HETATM   24  S1  UNL     1       2.980  -0.286  -0.813  1.00  0.00    -0.166 SA
BRANCH  24  25
HETATM   25  C10 UNL     1       2.805  -1.741   0.247  1.00  0.00     0.078 C 
BRANCH  25  26
HETATM   26  C11 UNL     1       3.768  -1.685   1.424  1.00  0.00    -0.005 C 
HETATM   27  C12 UNL     1       3.564  -0.497   2.303  1.00  0.00     0.005 C 
HETATM   28  C13 UNL     1       4.428   0.680   1.976  1.00  0.00     0.000 C 
HETATM   29  C14 UNL     1       5.882   0.365   1.817  1.00  0.00     0.000 C 
HETATM   30  C15 UNL     1       6.144  -1.128   1.785  1.00  0.00     0.000 C 
HETATM   31  C16 UNL     1       5.158  -1.841   0.898  1.00  0.00     0.005 C 
ENDBRANCH  25  26
ENDBRANCH  24  25
ENDBRANCH  23  24
ENDBRANCH   3  23
BRANCH   5  32
HETATM   32  O7  UNL     1      -0.197   0.985  -4.719  1.00  0.00    -0.390 OA
ATOM     33  H7  UNL     1      -0.487   1.770  -5.168  1.00  0.00     0.210 HD
ENDBRANCH   5  32
BRANCH   4  34
HETATM   34  O6  UNL     1       0.197  -1.315  -3.827  1.00  0.00    -0.390 OA
ATOM     35  H6  UNL     1      -0.380  -1.464  -4.567  1.00  0.00     0.210 HD
ENDBRANCH   4  34
TORSDOF 12
