REMARK  4 active torsions:
REMARK  status: ('A' for Active; 'I' for Inactive)
REMARK    1  A    between atoms: C2_2  and  C12_19 
REMARK    2  A    between atoms: C3_3  and  C4_4 
REMARK    3  A    between atoms: C5_5  and  C6_6 
REMARK    4  A    between atoms: C11_13  and  N2_14 
ROOT
HETATM    1  C6  UNL     1       0.721  -0.519  -0.458  1.00  0.00     0.106 A 
HETATM    2  N1  UNL     1       1.926  -1.024  -0.912  1.00  0.00    -0.346 N 
ATOM      3  H1  UNL     1       1.923  -1.849  -1.512  1.00  0.00     0.167 HD
HETATM    4  C7  UNL     1       3.084  -0.466  -0.590  1.00  0.00     0.016 A 
HETATM    5  C8  UNL     1       4.348  -1.040  -1.099  1.00  0.00     0.069 C 
HETATM    6  C9  UNL     1       3.147   0.651   0.218  1.00  0.00     0.004 A 
HETATM    7  C10 UNL     1       4.461   1.221   0.538  1.00  0.00     0.054 C 
HETATM    8  C11 UNL     1       1.974   1.166   0.678  1.00  0.00     0.108 A 
HETATM    9  N3  UNL     1       0.791   0.553   0.317  1.00  0.00    -0.329 N 
ATOM     10  H3  UNL     1      -0.081   0.949   0.668  1.00  0.00     0.169 HD
ENDROOT
BRANCH   1  11
HETATM   11  C5  UNL     1      -0.503  -1.157  -0.833  1.00  0.00     0.048 C 
HETATM   12  C4  UNL     1      -1.749  -0.979  -0.614  1.00  0.00     0.004 C 
BRANCH  12  13
HETATM   13  C3  UNL     1      -2.520  -0.036   0.128  1.00  0.00     0.008 C 
HETATM   14  C2  UNL     1      -3.860  -0.151   0.142  1.00  0.00    -0.014 C 
HETATM   15  C1  UNL     1      -4.477  -1.244  -0.609  1.00  0.00     0.049 C 
BRANCH  14  16
HETATM   16  C12 UNL     1      -4.725   0.796   0.894  1.00  0.00     0.279 C 
HETATM   17  F1  UNL     1      -5.425   0.030   1.820  1.00  0.00    -0.202 F 
HETATM   18 CL1  UNL     1      -5.929   1.428  -0.252  1.00  0.00    -0.061 Cl
HETATM   19 CL2  UNL     1      -3.796   2.073   1.658  1.00  0.00    -0.061 Cl
ENDBRANCH  14  16
ENDBRANCH  12  13
ENDBRANCH   1  11
BRANCH   8  20
HETATM   20  N2  UNL     1       1.980   2.205   1.433  1.00  0.00    -0.385 N 
ATOM     21  H22 UNL     1       2.854   2.658   1.700  1.00  0.00     0.157 HD
ATOM     22  H21 UNL     1       1.101   2.591   1.778  1.00  0.00     0.157 HD
ENDBRANCH   8  20
TORSDOF 4
