REMARK  4 active torsions:
REMARK  status: ('A' for Active; 'I' for Inactive)
REMARK    1  A    between atoms: C2_2  and  C3_3 
REMARK    2  A    between atoms: C3_3  and  N2_7 
REMARK    3  A    between atoms: N2_7  and  C4_9 
REMARK    4  A    between atoms: C5_10  and  O1_11 
ROOT
HETATM    1  C4  UNL     1       0.611  -0.823  -0.443  1.00  0.00     0.091 A 
HETATM    2  C5  UNL     1       1.249  -0.431   0.706  1.00  0.00     0.098 A 
HETATM    3  C7  UNL     1       1.410  -1.288   1.790  1.00  0.00     0.064 A 
HETATM    4  C8  UNL     1       0.920  -2.571   1.723  1.00  0.00     0.060 A 
HETATM    5 CL1  UNL     1       1.142  -3.637   3.119  1.00  0.00    -0.082 Cl
HETATM    6  C9  UNL     1       0.275  -2.985   0.579  1.00  0.00     0.080 A 
HETATM    7 CL2  UNL     1      -0.352  -4.611   0.485  1.00  0.00    -0.081 Cl
HETATM    8  C10 UNL     1       0.126  -2.105  -0.497  1.00  0.00     0.087 A 
HETATM    9 CL3  UNL     1      -0.688  -2.673  -1.929  1.00  0.00    -0.080 Cl
ENDROOT
BRANCH   1  10
HETATM   10  N2  UNL     1       0.473   0.065  -1.511  1.00  0.00    -0.343 N 
ATOM     11  H2  UNL     1       1.206   0.051  -2.220  1.00  0.00     0.167 HD
BRANCH  10  12
HETATM   12  C3  UNL     1      -0.578   0.976  -1.704  1.00  0.00     0.074 C 
HETATM   13  N1  UNL     1      -0.455   1.930  -2.531  1.00  0.00    -0.389 N 
ATOM     14  H12 UNL     1      -1.218   2.592  -2.671  1.00  0.00     0.157 HD
ATOM     15  H11 UNL     1       0.413   2.031  -3.056  1.00  0.00     0.157 HD
BRANCH  12  16
HETATM   16  C2  UNL     1      -1.829   0.831  -0.947  1.00  0.00     0.071 C 
HETATM   17  C1  UNL     1      -2.816   1.936  -1.268  1.00  0.00     0.013 C 
ENDBRANCH  12  16
ENDBRANCH  10  12
ENDBRANCH   1  10
BRANCH   2  18
HETATM   18  O1  UNL     1       1.741   0.858   0.770  1.00  0.00    -0.354 OA
HETATM   19  C6  UNL     1       2.404   1.291   1.942  1.00  0.00     0.210 C 
ENDBRANCH   2  18
TORSDOF 4
