REMARK  5 active torsions:
REMARK  status: ('A' for Active; 'I' for Inactive)
REMARK    1  A    between atoms: C1_4  and  N2_5 
REMARK    2  A    between atoms: C1_4  and  O1_16 
REMARK    3  A    between atoms: N2_5  and  C2_7 
REMARK    4  A    between atoms: C6_11  and  C7_12 
REMARK    5  A    between atoms: O1_16  and  C8_17 
ROOT
HETATM    1  N1  UNL     1       0.545   0.638   1.722  1.00  0.00    -0.365 N 
ATOM      2  H11 UNL     1       1.440   1.122   1.649  1.00  0.00     0.159 HD
ATOM      3  H12 UNL     1       0.005   0.564   2.584  1.00  0.00     0.159 HD
HETATM    4  C1  UNL     1       0.042   0.083   0.697  1.00  0.00     0.213 C 
ENDROOT
BRANCH   4   5
HETATM    5  N2  UNL     1      -1.198  -0.587   0.798  1.00  0.00    -0.351 N 
ATOM      6  H2  UNL     1      -1.304  -1.428   1.366  1.00  0.00     0.163 HD
BRANCH   5   7
HETATM    7  C2  UNL     1      -2.314  -0.028   0.060  1.00  0.00     0.097 C 
HETATM    8  C3  UNL     1      -2.640   1.369   0.481  1.00  0.00     0.026 C 
HETATM    9  C4  UNL     1      -4.151   1.485   0.511  1.00  0.00     0.003 C 
HETATM   10  C5  UNL     1      -4.639   0.222  -0.181  1.00  0.00     0.015 C 
HETATM   11  C6  UNL     1      -3.590  -0.779   0.302  1.00  0.00     0.116 C 
BRANCH  11  12
HETATM   12  C7  UNL     1      -3.663  -2.060  -0.502  1.00  0.00     0.393 C 
HETATM   13  F1  UNL     1      -3.594  -1.804  -1.849  1.00  0.00    -0.171 F 
HETATM   14  F2  UNL     1      -2.586  -2.860  -0.172  1.00  0.00    -0.171 F 
HETATM   15  F3  UNL     1      -4.798  -2.765  -0.164  1.00  0.00    -0.171 F 
ENDBRANCH  11  12
ENDBRANCH   5   7
ENDBRANCH   4   5
BRANCH   4  16
HETATM   16  O1  UNL     1       0.770   0.183  -0.465  1.00  0.00    -0.317 OA
BRANCH  16  17
HETATM   17  C8  UNL     1       2.135   0.208  -0.519  1.00  0.00     0.132 C 
HETATM   18  C9  UNL     1       2.668  -1.094   0.095  1.00  0.00     0.032 C 
HETATM   19  C10 UNL     1       4.147  -1.243  -0.184  1.00  0.00     0.002 C 
HETATM   20  C11 UNL     1       4.929  -0.049   0.273  1.00  0.00     0.000 C 
HETATM   21  C12 UNL     1       4.348   1.177  -0.395  1.00  0.00     0.002 C 
HETATM   22  C13 UNL     1       2.874   1.358   0.018  1.00  0.00     0.032 C 
ENDBRANCH  16  17
ENDBRANCH   4  16
TORSDOF 5
