REMARK  13 active torsions:
REMARK  status: ('A' for Active; 'I' for Inactive)
REMARK    1  A    between atoms: C1_2  and  C2_3 
REMARK       I    between atoms: C1_2  and  N1_13 
REMARK    2  A    between atoms: C2_3  and  C3_4 
REMARK    3  A    between atoms: C3_4  and  C4_5 
REMARK    4  A    between atoms: N1_13  and  C10_15 
REMARK    5  A    between atoms: C10_15  and  C11_16 
REMARK    6  A    between atoms: C11_16  and  C12_17 
REMARK    7  A    between atoms: C12_17  and  N2_18 
REMARK    8  A    between atoms: N2_18  and  C13_19 
REMARK    9  A    between atoms: C16_25  and  N4_26 
REMARK   10  A    between atoms: N4_26  and  C17_28 
REMARK   11  A    between atoms: C17_28  and  C18_29 
REMARK   12  A    between atoms: C18_29  and  C19_30 
REMARK   13  A    between atoms: C19_30  and  N5_31 
ROOT
HETATM    1  C13 UNL     1       0.532  -0.845  -0.182  1.00  0.00     0.195 A 
HETATM    2  C14 UNL     1       0.004   0.121  -1.060  1.00  0.00     0.107 A 
HETATM    3  C15 UNL     1       0.766   0.684  -2.029  1.00  0.00     0.124 A 
HETATM    4 CL3  UNL     1      -0.010   1.884  -3.065  1.00  0.00    -0.064 Cl
HETATM    5  N3  UNL     1       2.035   0.334  -2.171  1.00  0.00    -0.181 N 
ATOM      6  H3  UNL     1       2.597   0.766  -2.904  1.00  0.00     0.185 HD
HETATM    7  C16 UNL     1       2.603  -0.600  -1.347  1.00  0.00     0.685 A 
HETATM    8  N6  UNL     1       1.863  -1.149  -0.405  1.00  0.00    -0.164 N 
ATOM      9  H6  UNL     1       2.301  -1.844   0.200  1.00  0.00     0.187 HD
ENDROOT
BRANCH   1  10
HETATM   10  N2  UNL     1      -0.072  -1.358   0.717  1.00  0.00    -0.403 NA
BRANCH  10  11
HETATM   11  C12 UNL     1      -0.756  -1.920   1.713  1.00  0.00     0.159 C 
BRANCH  11  12
HETATM   12  C11 UNL     1      -1.624  -0.975   2.503  1.00  0.00     0.079 C 
BRANCH  12  13
HETATM   13  C10 UNL     1      -2.749  -0.341   1.799  1.00  0.00     0.128 C 
BRANCH  13  14
HETATM   14  N1  UNL     1      -3.703  -1.263   1.249  1.00  0.00    -0.361 N 
HETATM   15  C1  UNL     1      -4.922  -0.766   0.711  1.00  0.00     0.217 C 
HETATM   16  O1  UNL     1      -5.116   0.479   0.754  1.00  0.00    -0.274 OA
ATOM     17  H1  UNL     1      -3.508  -2.264   1.244  1.00  0.00     0.162 HD
BRANCH  15  18
HETATM   18  C2  UNL     1      -5.894  -1.697   0.147  1.00  0.00     0.107 C 
BRANCH  18  19
HETATM   19  C3  UNL     1      -7.328  -1.347   0.272  1.00  0.00     0.049 C 
BRANCH  19  20
HETATM   20  C4  UNL     1      -7.816  -0.106  -0.290  1.00  0.00    -0.036 A 
HETATM   21  C5  UNL     1      -8.105   0.959   0.581  1.00  0.00     0.010 A 
HETATM   22  C6  UNL     1      -8.593   2.158   0.131  1.00  0.00     0.024 A 
HETATM   23  C7  UNL     1      -8.815   2.358  -1.195  1.00  0.00     0.035 A 
HETATM   24 CL1  UNL     1      -9.450   3.889  -1.728  1.00  0.00    -0.084 Cl
HETATM   25  C8  UNL     1      -8.536   1.320  -2.080  1.00  0.00     0.048 A 
HETATM   26  C9  UNL     1      -8.045   0.109  -1.629  1.00  0.00     0.042 A 
HETATM   27 CL2  UNL     1      -7.727  -1.175  -2.814  1.00  0.00    -0.084 Cl
ENDBRANCH  19  20
ENDBRANCH  18  19
ENDBRANCH  15  18
ENDBRANCH  13  14
ENDBRANCH  12  13
ENDBRANCH  11  12
ENDBRANCH  10  11
ENDBRANCH   1  10
BRANCH   7  28
HETATM   28  N4  UNL     1       3.824  -0.862  -1.554  1.00  0.00    -0.205 N 
ATOM     29  H4  UNL     1       4.287  -0.360  -2.312  1.00  0.00     0.183 HD
BRANCH  28  30
HETATM   30  C17 UNL     1       4.599  -1.788  -0.826  1.00  0.00     0.080 C 
BRANCH  30  31
HETATM   31  C18 UNL     1       5.502  -1.214   0.235  1.00  0.00     0.075 C 
BRANCH  31  32
HETATM   32  C19 UNL     1       6.428  -0.237  -0.426  1.00  0.00     0.277 C 
BRANCH  32  33
HETATM   33  N5  UNL     1       7.412   0.353   0.405  1.00  0.00     0.088 N 
HETATM   34  C20 UNL     1       7.043   1.209   1.443  1.00  0.00     0.272 C 
HETATM   35  C21 UNL     1       7.111   2.572   0.802  1.00  0.00     0.032 C 
HETATM   36  C22 UNL     1       8.194   2.434  -0.288  1.00  0.00     0.032 C 
HETATM   37  C23 UNL     1       8.502   0.959  -0.267  1.00  0.00     0.272 C 
ENDBRANCH  32  33
ENDBRANCH  31  32
ENDBRANCH  30  31
ENDBRANCH  28  30
ENDBRANCH   7  28
TORSDOF 13
