REMARK  11 active torsions:
REMARK  status: ('A' for Active; 'I' for Inactive)
REMARK       I    between atoms: C1_2  and  N1_3 
REMARK    1  A    between atoms: C1_2  and  C11_16 
REMARK    2  A    between atoms: N1_3  and  C2_5 
REMARK    3  A    between atoms: C2_5  and  C3_6 
REMARK    4  A    between atoms: C3_6  and  C4_7 
REMARK    5  A    between atoms: C4_7  and  C5_8 
REMARK    6  A    between atoms: C16_24  and  C17_25 
REMARK    7  A    between atoms: C17_25  and  N3_26 
REMARK    8  A    between atoms: N3_26  and  C18_29 
REMARK    9  A    between atoms: C18_29  and  C19_30 
REMARK   10  A    between atoms: C19_30  and  C20_31 
REMARK   11  A    between atoms: C20_31  and  N4_32 
ROOT
HETATM    1  C11 UNL     1      -0.941   0.598  -0.646  1.00  0.00     0.180 C 
HETATM    2  N2  UNL     1      -0.617   1.924  -1.062  1.00  0.00    -0.371 N 
ATOM      3  H2  UNL     1      -0.545   2.021  -2.075  1.00  0.00     0.161 HD
HETATM    4  C12 UNL     1      -0.373   3.139  -0.364  1.00  0.00     0.074 C 
HETATM    5  S1  UNL     1       0.049   4.449  -1.254  1.00  0.00    -0.066 SA
HETATM    6  C13 UNL     1      -0.463   3.340   1.108  1.00  0.00     0.069 C 
HETATM    7  C14 UNL     1      -0.174   2.075   1.858  1.00  0.00     0.007 C 
HETATM    8  C15 UNL     1       0.755   1.124   1.136  1.00  0.00     0.009 C 
HETATM    9  C16 UNL     1       0.062   0.054   0.366  1.00  0.00     0.043 C 
ENDROOT
BRANCH   1  10
HETATM   10  C1  UNL     1      -2.298   0.445  -0.061  1.00  0.00     0.240 C 
HETATM   11  O1  UNL     1      -3.006   1.441   0.117  1.00  0.00    -0.271 OA
HETATM   12  N1  UNL     1      -2.748  -0.839   0.279  1.00  0.00    -0.359 N 
ATOM     13  H1  UNL     1      -2.105  -1.607   0.084  1.00  0.00     0.162 HD
BRANCH  12  14
HETATM   14  C2  UNL     1      -4.005  -1.201   0.869  1.00  0.00     0.123 C 
BRANCH  14  15
HETATM   15  C3  UNL     1      -5.157  -0.748   0.044  1.00  0.00     0.024 C 
BRANCH  15  16
HETATM   16  C4  UNL     1      -6.482  -1.218   0.674  1.00  0.00     0.042 C 
BRANCH  16  17
HETATM   17  C5  UNL     1      -7.624  -0.706  -0.092  1.00  0.00    -0.036 A 
HETATM   18  C6  UNL     1      -8.376   0.331   0.455  1.00  0.00     0.010 A 
HETATM   19  C7  UNL     1      -9.463   0.876  -0.164  1.00  0.00     0.024 A 
HETATM   20  C8  UNL     1      -9.834   0.377  -1.385  1.00  0.00     0.035 A 
HETATM   21 CL1  UNL     1     -11.235   1.064  -2.205  1.00  0.00    -0.084 Cl
HETATM   22  C9  UNL     1      -9.121  -0.648  -1.966  1.00  0.00     0.048 A 
HETATM   23  C10 UNL     1      -8.002  -1.195  -1.309  1.00  0.00     0.042 A 
HETATM   24 CL2  UNL     1      -7.118  -2.499  -2.055  1.00  0.00    -0.084 Cl
ENDBRANCH  16  17
ENDBRANCH  15  16
ENDBRANCH  14  15
ENDBRANCH  12  14
ENDBRANCH   1  10
BRANCH   9  25
HETATM   25  C17 UNL     1       1.068  -0.785  -0.372  1.00  0.00     0.239 C 
BRANCH  25  26
HETATM   26  N3  UNL     1       2.005  -1.338   0.555  1.00  0.00    -0.075 N 
ATOM     27  H32 UNL     1       2.516  -0.595   1.031  1.00  0.00     0.277 HD
ATOM     28  H31 UNL     1       1.518  -1.752   1.350  1.00  0.00     0.277 HD
BRANCH  26  29
HETATM   29  C18 UNL     1       2.914  -2.280  -0.018  1.00  0.00     0.234 C 
BRANCH  29  30
HETATM   30  C19 UNL     1       3.918  -1.664  -0.924  1.00  0.00     0.057 C 
BRANCH  30  31
HETATM   31  C20 UNL     1       4.769  -0.646  -0.195  1.00  0.00     0.274 C 
BRANCH  31  32
HETATM   32  N4  UNL     1       5.758  -0.137  -1.120  1.00  0.00     0.088 N 
HETATM   33  C21 UNL     1       6.696  -1.197  -1.389  1.00  0.00     0.275 C 
HETATM   34  C22 UNL     1       8.091  -0.732  -0.988  1.00  0.00     0.067 C 
HETATM   35  C23 UNL     1       8.014  -0.367   0.492  1.00  0.00     0.173 C 
HETATM   36  F1  UNL     1       9.292  -0.075   0.944  1.00  0.00    -0.249 F 
HETATM   37  C24 UNL     1       7.167   0.847   0.659  1.00  0.00     0.067 C 
HETATM   38  C25 UNL     1       6.327   1.056  -0.587  1.00  0.00     0.275 C 
ENDBRANCH  31  32
ENDBRANCH  30  31
ENDBRANCH  29  30
ENDBRANCH  26  29
ENDBRANCH  25  26
ENDBRANCH   9  25
TORSDOF 11
