REMARK  13 active torsions:
REMARK  status: ('A' for Active; 'I' for Inactive)
REMARK    1  A    between atoms: N1_2  and  C2_3 
REMARK    2  A    between atoms: N1_2  and  C18_30 
REMARK    3  A    between atoms: C2_3  and  C3_4 
REMARK    4  A    between atoms: C3_4  and  C4_5 
REMARK    5  A    between atoms: C4_5  and  N2_6 
REMARK    6  A    between atoms: N2_6  and  C5_8 
REMARK    7  A    between atoms: C8_15  and  N5_16 
REMARK    8  A    between atoms: N5_16  and  C9_18 
REMARK    9  A    between atoms: C9_18  and  C10_19 
REMARK   10  A    between atoms: C13_22  and  C14_23 
REMARK   11  A    between atoms: C14_23  and  C15_24 
REMARK   12  A    between atoms: C18_30  and  C19_31 
REMARK   13  A    between atoms: C19_31  and  C20_32 
ROOT
HETATM    1  C5  UNL     1       0.403  -1.211  -1.413  1.00  0.00     0.145 A 
HETATM    2  N3  UNL     1      -0.337  -2.267  -1.740  1.00  0.00    -0.348 N 
ATOM      3  H3  UNL     1      -1.280  -2.125  -2.103  1.00  0.00     0.167 HD
HETATM    4  C6  UNL     1       0.132  -3.509  -1.602  1.00  0.00     0.107 A 
HETATM    5  C7  UNL     1       1.402  -3.691  -1.111  1.00  0.00     0.107 A 
HETATM    6  N4  UNL     1       2.171  -2.651  -0.772  1.00  0.00    -0.348 N 
ATOM      7  H4  UNL     1       3.112  -2.801  -0.408  1.00  0.00     0.167 HD
HETATM    8  C8  UNL     1       1.675  -1.373  -0.921  1.00  0.00     0.145 A 
ENDROOT
BRANCH   1   9
HETATM    9  N2  UNL     1      -0.012   0.005  -1.537  1.00  0.00    -0.373 N 
ATOM     10  H2  UNL     1       0.645   0.732  -1.252  1.00  0.00     0.161 HD
BRANCH   9  11
HETATM   11  C4  UNL     1      -1.265   0.456  -2.019  1.00  0.00     0.123 C 
BRANCH  11  12
HETATM   12  C3  UNL     1      -2.224   0.967  -0.970  1.00  0.00     0.039 C 
BRANCH  12  13
HETATM   13  C2  UNL     1      -2.503  -0.144   0.000  1.00  0.00     0.123 C 
BRANCH  13  14
HETATM   14  N1  UNL     1      -3.421   0.210   1.035  1.00  0.00    -0.397 N 
HETATM   15  C1  UNL     1      -2.987   1.159   1.988  1.00  0.00     0.148 C 
BRANCH  14  16
HETATM   16  C18 UNL     1      -4.126  -0.927   1.478  1.00  0.00     0.062 C 
BRANCH  16  17
HETATM   17  C19 UNL     1      -5.502  -0.726   2.015  1.00  0.00     0.083 C 
BRANCH  17  18
HETATM   18  C20 UNL     1      -6.437  -0.142   1.025  1.00  0.00    -0.052 A 
HETATM   19  C21 UNL     1      -7.187  -0.924   0.169  1.00  0.00     0.009 A 
HETATM   20  C22 UNL     1      -8.037  -0.347  -0.723  1.00  0.00     0.026 A 
HETATM   21  C23 UNL     1      -8.188   1.019  -0.814  1.00  0.00     0.055 A 
HETATM   22 CL1  UNL     1      -9.301   1.740  -1.985  1.00  0.00    -0.083 Cl
HETATM   23  C24 UNL     1      -7.440   1.797   0.041  1.00  0.00     0.056 A 
HETATM   24 CL2  UNL     1      -7.613   3.520  -0.059  1.00  0.00    -0.083 Cl
HETATM   25  C25 UNL     1      -6.560   1.224   0.967  1.00  0.00     0.033 A 
ENDBRANCH  17  18
ENDBRANCH  16  17
ENDBRANCH  14  16
ENDBRANCH  13  14
ENDBRANCH  12  13
ENDBRANCH  11  12
ENDBRANCH   9  11
ENDBRANCH   1   9
BRANCH   8  26
HETATM   26  N5  UNL     1       2.481  -0.451  -0.579  1.00  0.00    -0.373 N 
ATOM     27  H5  UNL     1       3.385  -0.776  -0.236  1.00  0.00     0.161 HD
BRANCH  26  28
HETATM   28  C9  UNL     1       2.321   0.957  -0.600  1.00  0.00     0.128 C 
BRANCH  28  29
HETATM   29  C10 UNL     1       3.589   1.657  -0.059  1.00  0.00     0.037 C 
HETATM   30  C11 UNL     1       3.889   1.257   1.342  1.00  0.00     0.009 C 
HETATM   31  C12 UNL     1       4.575  -0.042   1.501  1.00  0.00     0.006 C 
HETATM   32  C13 UNL     1       5.567  -0.435   0.474  1.00  0.00    -0.002 C 
HETATM   33  C16 UNL     1       5.404   0.142  -0.886  1.00  0.00     0.042 C 
HETATM   34  C17 UNL     1       4.748   1.472  -0.979  1.00  0.00     0.176 C 
HETATM   35  F1  UNL     1       4.244   1.600  -2.283  1.00  0.00    -0.249 F 
BRANCH  32  36
HETATM   36  C14 UNL     1       7.020  -0.326   0.954  1.00  0.00     0.117 C 
BRANCH  36  37
HETATM   37  C15 UNL     1       7.413   1.012   1.358  1.00  0.00     0.172 C 
HETATM   38  O1  UNL     1       7.140   1.442   2.498  1.00  0.00    -0.648 OA
HETATM   39  O2  UNL     1       8.096   1.834   0.486  1.00  0.00    -0.648 OA
ENDBRANCH  36  37
ENDBRANCH  32  36
ENDBRANCH  28  29
ENDBRANCH  26  28
ENDBRANCH   8  26
TORSDOF 13
