REMARK  14 active torsions:
REMARK  status: ('A' for Active; 'I' for Inactive)
REMARK       I    between atoms: C1_2  and  N1_3 
REMARK    1  A    between atoms: C1_2  and  C25_39 
REMARK    2  A    between atoms: N1_3  and  C2_5 
REMARK    3  A    between atoms: C2_5  and  C3_6 
REMARK    4  A    between atoms: C3_6  and  C4_7 
REMARK    5  A    between atoms: C4_7  and  C5_8 
REMARK    6  A    between atoms: C5_8  and  C6_9 
REMARK    7  A    between atoms: C6_9  and  C7_10 
REMARK    8  A    between atoms: C7_10  and  N2_11 
REMARK    9  A    between atoms: N2_11  and  C8_13 
REMARK   10  A    between atoms: C9_16  and  N4_17 
REMARK   11  A    between atoms: N4_17  and  C10_19 
REMARK   12  A    between atoms: C10_19  and  C11_20 
REMARK   13  A    between atoms: C11_20  and  C12_21 
REMARK   14  A    between atoms: C16_26  and  C17_27 
ROOT
HETATM    1  C8  UNL     1      -0.352   0.353  -0.194  1.00  0.00     0.125 A 
HETATM    2  N3  UNL     1      -1.523  -0.195   0.138  1.00  0.00    -0.176 N 
ATOM      3  H3  UNL     1      -1.603  -1.212   0.141  1.00  0.00     0.186 HD
HETATM    4  C9  UNL     1      -2.602   0.536   0.469  1.00  0.00     0.679 A 
HETATM    5  N5  UNL     1      -2.460   1.889   0.455  1.00  0.00    -0.195 N 
ATOM      6  H5  UNL     1      -3.267   2.462   0.703  1.00  0.00     0.184 HD
HETATM    7  C19 UNL     1      -1.320   2.507   0.134  1.00  0.00     0.036 A 
HETATM    8  C20 UNL     1      -0.230   1.742  -0.201  1.00  0.00     0.009 A 
HETATM    9  C21 UNL     1       1.036   2.415  -0.563  1.00  0.00     0.044 C 
HETATM   10  C22 UNL     1       1.182   3.617   0.326  1.00  0.00     0.005 C 
HETATM   11  C23 UNL     1       0.049   4.593   0.191  1.00  0.00     0.006 C 
HETATM   12  C24 UNL     1      -1.297   3.984   0.157  1.00  0.00     0.058 C 
ENDROOT
BRANCH   1  13
HETATM   13  N2  UNL     1       0.711  -0.307  -0.519  1.00  0.00    -0.375 N 
ATOM     14  H2  UNL     1       1.547   0.229  -0.751  1.00  0.00     0.161 HD
BRANCH  13  15
HETATM   15  C7  UNL     1       0.799  -1.721  -0.576  1.00  0.00     0.121 C 
BRANCH  15  16
HETATM   16  C6  UNL     1       2.174  -2.254  -0.584  1.00  0.00     0.020 C 
BRANCH  16  17
HETATM   17  C5  UNL     1       3.056  -2.011   0.581  1.00  0.00     0.002 C 
BRANCH  17  18
HETATM   18  C4  UNL     1       3.370  -0.601   0.942  1.00  0.00     0.005 C 
BRANCH  18  19
HETATM   19  C3  UNL     1       4.292  -0.540   2.109  1.00  0.00     0.044 C 
BRANCH  19  20
HETATM   20  C2  UNL     1       5.622  -1.126   1.982  1.00  0.00     0.064 C 
BRANCH  20  21
HETATM   21  N1  UNL     1       6.565  -0.588   1.088  1.00  0.00    -0.340 N 
HETATM   22  C1  UNL     1       6.664  -0.482  -0.290  1.00  0.00     0.225 C 
HETATM   23  O1  UNL     1       5.868  -0.895  -1.139  1.00  0.00    -0.273 OA
ATOM     24  H1  UNL     1       7.366  -0.179   1.568  1.00  0.00     0.167 HD
BRANCH  22  25
HETATM   25  C25 UNL     1       7.897   0.225  -0.860  1.00  0.00     0.078 A 
HETATM   26  C26 UNL     1       7.747   0.925  -2.158  1.00  0.00     0.015 A 
HETATM   27  C27 UNL     1       8.403  -0.404  -2.121  1.00  0.00     0.015 A 
ENDBRANCH  22  25
ENDBRANCH  20  21
ENDBRANCH  19  20
ENDBRANCH  18  19
ENDBRANCH  17  18
ENDBRANCH  16  17
ENDBRANCH  15  16
ENDBRANCH  13  15
ENDBRANCH   1  13
BRANCH   4  28
HETATM   28  N4  UNL     1      -3.729   0.001   0.789  1.00  0.00    -0.226 N 
ATOM     29  H4  UNL     1      -4.535   0.576   1.036  1.00  0.00     0.177 HD
BRANCH  28  30
HETATM   30  C10 UNL     1      -3.813  -1.444   0.786  1.00  0.00     0.142 C 
BRANCH  30  31
HETATM   31  C11 UNL     1      -5.126  -1.930   1.366  1.00  0.00     0.058 C 
BRANCH  31  32
HETATM   32  C12 UNL     1      -6.276  -1.426   0.610  1.00  0.00    -0.056 A 
HETATM   33  C13 UNL     1      -6.818  -0.205   1.010  1.00  0.00     0.009 A 
HETATM   34  C14 UNL     1      -7.901   0.353   0.364  1.00  0.00     0.025 A 
HETATM   35  C15 UNL     1      -8.482  -0.291  -0.706  1.00  0.00     0.045 A 
HETATM   36 CL1  UNL     1      -9.868   0.397  -1.552  1.00  0.00    -0.084 Cl
HETATM   37  C16 UNL     1      -7.954  -1.514  -1.121  1.00  0.00     0.028 A 
HETATM   38  C18 UNL     1      -6.867  -2.058  -0.461  1.00  0.00     0.021 A 
BRANCH  37  39
HETATM   39  C17 UNL     1      -8.609  -2.167  -2.272  1.00  0.00     0.388 C 
HETATM   40  F1  UNL     1      -9.960  -2.358  -1.978  1.00  0.00    -0.209 F 
HETATM   41  F2  UNL     1      -8.505  -1.283  -3.346  1.00  0.00    -0.209 F 
ENDBRANCH  37  39
ENDBRANCH  31  32
ENDBRANCH  30  31
ENDBRANCH  28  30
ENDBRANCH   4  28
TORSDOF 14
