REMARK  7 active torsions:
REMARK  status: ('A' for Active; 'I' for Inactive)
REMARK    1  A    between atoms: C6_6  and  C7_7 
REMARK    2  A    between atoms: C7_7  and  C8_8 
REMARK    3  A    between atoms: C8_8  and  C9_9 
REMARK    4  A    between atoms: C11_13  and  O3_14 
REMARK    5  A    between atoms: N1_19  and  C15_20 
REMARK    6  A    between atoms: C15_20  and  C16_21 
REMARK    7  A    between atoms: C16_21  and  O5_23 
ROOT
HETATM    1  C1  UNL     1       1.627   3.590  -1.612  1.00  0.00     0.016 C 
HETATM    2  C2  UNL     1       1.016   2.502  -1.170  1.00  0.00    -0.071 C 
HETATM    3  C3  UNL     1      -0.292   2.282  -1.846  1.00  0.00     0.035 C 
HETATM    4  C4  UNL     1      -1.453   2.163  -0.931  1.00  0.00     0.010 C 
HETATM    5  C5  UNL     1      -1.397   1.195   0.176  1.00  0.00    -0.001 C 
HETATM    6  C6  UNL     1      -0.722  -0.107  -0.075  1.00  0.00     0.022 C 
HETATM    7  C10 UNL     1       0.380   0.269   0.842  1.00  0.00     0.066 C 
HETATM    8  C11 UNL     1       0.570  -0.440   2.135  1.00  0.00     0.147 C 
HETATM    9  C12 UNL     1      -0.524  -0.030   3.104  1.00  0.00     0.035 C 
HETATM   10  C13 UNL     1      -1.018   1.266   2.596  1.00  0.00     0.010 C 
HETATM   11  C14 UNL     1      -0.393   1.493   1.234  1.00  0.00     0.021 C 
HETATM   12  N1  UNL     1       1.572   0.497   0.118  1.00  0.00    -0.368 N 
HETATM   13  C18 UNL     1       1.872   1.884  -0.145  1.00  0.00     0.157 C 
ENDROOT
BRANCH   6  14
HETATM   14  C7  UNL     1      -1.471  -1.373   0.129  1.00  0.00     0.018 C 
BRANCH  14  15
HETATM   15  C8  UNL     1      -2.673  -1.340  -0.829  1.00  0.00     0.113 C 
BRANCH  15  16
HETATM   16  C9  UNL     1      -3.483  -2.558  -0.706  1.00  0.00     0.172 C 
HETATM   17  O1  UNL     1      -3.063  -3.621  -1.218  1.00  0.00    -0.648 OA
HETATM   18  O2  UNL     1      -4.686  -2.530  -0.037  1.00  0.00    -0.648 OA
ENDBRANCH  15  16
ENDBRANCH  14  15
ENDBRANCH   6  14
BRANCH   8  19
HETATM   19  O3  UNL     1       1.748   0.105   2.710  1.00  0.00    -0.393 OA
ATOM     20  H3  UNL     1       1.869  -0.348   3.536  1.00  0.00     0.210 HD
ENDBRANCH   8  19
BRANCH  12  21
HETATM   21  C15 UNL     1       1.989  -0.359  -0.903  1.00  0.00     0.169 C 
BRANCH  21  22
HETATM   22  C16 UNL     1       2.478  -1.702  -0.640  1.00  0.00     0.297 C 
HETATM   23  O4  UNL     1       2.819  -2.094   0.483  1.00  0.00    -0.259 OA
BRANCH  22  24
HETATM   24  O5  UNL     1       2.597  -2.660  -1.663  1.00  0.00    -0.322 OA
HETATM   25  C17 UNL     1       3.076  -3.958  -1.373  1.00  0.00     0.213 C 
ENDBRANCH  22  24
ENDBRANCH  21  22
ENDBRANCH  12  21
TORSDOF 7
