REMARK  6 active torsions:
REMARK  status: ('A' for Active; 'I' for Inactive)
REMARK    1  A    between atoms: C2_2  and  O1_3 
REMARK    2  A    between atoms: C2_2  and  C3_5 
REMARK    3  A    between atoms: C2_2  and  C14_21 
REMARK       I    between atoms: C3_5  and  N1_7 
REMARK    4  A    between atoms: N1_7  and  C4_9 
REMARK    5  A    between atoms: C4_9  and  C5_10 
REMARK    6  A    between atoms: C5_10  and  N2_11 
ROOT
HETATM    1  C3  UNL     1      -2.280  -1.020   0.523  1.00  0.00     0.252 C 
HETATM    2  O2  UNL     1      -2.544  -0.737   1.717  1.00  0.00    -0.270 OA
HETATM    3  N1  UNL     1      -0.937  -0.798   0.108  1.00  0.00    -0.357 N 
ATOM      4  H1  UNL     1      -0.674  -1.013  -0.854  1.00  0.00     0.162 HD
ENDROOT
BRANCH   3   5
HETATM    5  C4  UNL     1       0.085  -0.267   1.027  1.00  0.00     0.153 C 
BRANCH   5   6
HETATM    6  C5  UNL     1       1.383  -0.150   0.300  1.00  0.00     0.296 C 
BRANCH   6   7
HETATM    7  N2  UNL     1       2.461   0.353   1.078  1.00  0.00     0.127 N 
HETATM    8  C6  UNL     1       2.926  -0.499   2.120  1.00  0.00     0.302 C 
HETATM    9  C7  UNL     1       4.311  -0.005   2.385  1.00  0.00     0.201 C 
HETATM   10  O3  UNL     1       4.695   0.729   1.274  1.00  0.00    -0.350 OA
HETATM   11  C8  UNL     1       3.628   0.729   0.385  1.00  0.00     0.261 C 
HETATM   12  C9  UNL     1       3.932  -0.377  -0.635  1.00  0.00     0.072 C 
HETATM   13  C13 UNL     1       3.608   2.024  -0.341  1.00  0.00     0.072 C 
HETATM   14  C10 UNL     1       5.347  -0.215  -1.136  1.00  0.00     0.005 C 
HETATM   15  C11 UNL     1       5.482   1.130  -1.773  1.00  0.00     0.000 C 
HETATM   16  C12 UNL     1       4.943   2.267  -0.984  1.00  0.00     0.005 C 
ENDBRANCH   6   7
ENDBRANCH   5   6
ENDBRANCH   3   5
BRANCH   1  17
HETATM   17  C2  UNL     1      -3.242  -1.549  -0.441  1.00  0.00     0.138 C 
HETATM   18  C1  UNL     1      -3.753  -2.902   0.035  1.00  0.00     0.057 C 
BRANCH  17  19
HETATM   19  O1  UNL     1      -2.649  -1.800  -1.689  1.00  0.00    -0.380 OA
ATOM     20  H1  UNL     1      -2.330  -0.956  -1.986  1.00  0.00     0.211 HD
ENDBRANCH  17  19
BRANCH  17  21
HETATM   21  C14 UNL     1      -4.429  -0.660  -0.724  1.00  0.00     0.033 C 
HETATM   22  C15 UNL     1      -5.301  -0.434   0.459  1.00  0.00     0.034 C 
HETATM   23  C16 UNL     1      -6.373   0.558   0.031  1.00  0.00     0.168 C 
HETATM   24  O4  UNL     1      -5.746   1.762  -0.139  1.00  0.00    -0.391 OA
HETATM   25  C17 UNL     1      -4.751   1.826  -1.064  1.00  0.00     0.168 C 
HETATM   26  C18 UNL     1      -4.077   0.589  -1.478  1.00  0.00     0.034 C 
ENDBRANCH  17  21
ENDBRANCH   1  17
TORSDOF 6
