REMARK  7 active torsions:
REMARK  status: ('A' for Active; 'I' for Inactive)
REMARK    1  A    between atoms: C6_9  and  C7_10 
REMARK    2  A    between atoms: C7_10  and  N2_11 
REMARK    3  A    between atoms: C10_14  and  C11_15 
REMARK    4  A    between atoms: C11_15  and  O2_17 
REMARK    5  A    between atoms: O2_17  and  C12_18 
REMARK    6  A    between atoms: C12_18  and  C13_19 
REMARK       I    between atoms: C13_19  and  N3_21 
REMARK    7  A    between atoms: N3_21  and  C14_23 
ROOT
HETATM    1  N2  UNL     1      -2.609   0.794   0.227  1.00  0.00     0.088 N 
HETATM    2  C8  UNL     1      -1.842   1.914  -0.322  1.00  0.00     0.273 C 
HETATM    3  C9  UNL     1      -0.615   1.232  -0.903  1.00  0.00     0.045 C 
HETATM    4  C10 UNL     1       0.079   0.365   0.105  1.00  0.00     0.089 C 
HETATM    5  C18 UNL     1      -0.645   0.014   1.325  1.00  0.00     0.045 C 
HETATM    6  C19 UNL     1      -2.009   0.593   1.533  1.00  0.00     0.273 C 
ENDROOT
BRANCH   4   7
HETATM    7  C11 UNL     1       1.397   0.989   0.382  1.00  0.00     0.263 C 
HETATM    8  O1  UNL     1       1.422   2.112   0.929  1.00  0.00    -0.265 OA
BRANCH   7   9
HETATM    9  O2  UNL     1       2.600   0.382   0.057  1.00  0.00    -0.312 OA
BRANCH   9  10
HETATM   10  C12 UNL     1       3.852   1.034   0.319  1.00  0.00     0.281 C 
BRANCH  10  11
HETATM   11  C13 UNL     1       4.899   0.079  -0.115  1.00  0.00     0.242 C 
HETATM   12  O3  UNL     1       4.675  -1.079  -0.515  1.00  0.00    -0.271 OA
HETATM   13  N3  UNL     1       6.255   0.511  -0.075  1.00  0.00    -0.351 N 
ATOM     14  H3  UNL     1       6.460   1.457   0.247  1.00  0.00     0.163 HD
BRANCH  13  15
HETATM   15  C14 UNL     1       7.352  -0.343  -0.474  1.00  0.00     0.022 C 
HETATM   16  C15 UNL     1       7.184  -0.840  -1.897  1.00  0.00     0.037 C 
HETATM   17  C16 UNL     1       7.462  -1.470   0.513  1.00  0.00     0.037 C 
HETATM   18  C17 UNL     1       8.619   0.516  -0.482  1.00  0.00     0.037 C 
ENDBRANCH  13  15
ENDBRANCH  10  11
ENDBRANCH   9  10
ENDBRANCH   7   9
ENDBRANCH   4   7
BRANCH   1  19
HETATM   19  C7  UNL     1      -4.014   1.110   0.297  1.00  0.00     0.277 C 
BRANCH  19  20
HETATM   20  C6  UNL     1      -4.749  -0.206   0.613  1.00  0.00     0.021 C 
HETATM   21  C2  UNL     1      -6.235   0.041   0.711  1.00  0.00     0.013 C 
HETATM   22  C1  UNL     1      -6.826   0.747  -0.466  1.00  0.00     0.012 C 
HETATM   23  C3  UNL     1      -6.916  -1.303   0.858  1.00  0.00     0.237 C 
HETATM   24  N1  UNL     1      -5.986  -2.400   1.003  1.00  0.00    -0.075 N 
HETATM   25  C4  UNL     1      -5.095  -2.513  -0.123  1.00  0.00     0.232 C 
ATOM     26  H12 UNL     1      -5.467  -2.330   1.878  1.00  0.00     0.277 HD
ATOM     27  H11 UNL     1      -6.476  -3.278   1.175  1.00  0.00     0.277 HD
HETATM   28  C5  UNL     1      -4.410  -1.220  -0.487  1.00  0.00     0.034 C 
ENDBRANCH  19  20
ENDBRANCH   1  19
TORSDOF 7
