REMARK  9 active torsions:
REMARK  status: ('A' for Active; 'I' for Inactive)
REMARK    1  A    between atoms: C2_2  and  C3_3 
REMARK    2  A    between atoms: C3_3  and  C4_4 
REMARK    3  A    between atoms: C4_4  and  C5_5 
REMARK    4  A    between atoms: C5_5  and  O1_6 
REMARK    5  A    between atoms: C5_5  and  C6_8 
REMARK    6  A    between atoms: C9_13  and  C10_14 
REMARK    7  A    between atoms: C10_14  and  O3_15 
REMARK    8  A    between atoms: C10_14  and  C11_17 
REMARK    9  A    between atoms: C15_21  and  O4_22 
ROOT
HETATM    1  C6  UNL     1       1.739   1.073   0.112  1.00  0.00     0.159 C 
HETATM    2  O2  UNL     1       0.710   1.866   0.679  1.00  0.00    -0.282 OA
HETATM    3  N1  UNL     1       0.347   2.402  -0.509  1.00  0.00    -0.184 NA
HETATM    4  C7  UNL     1      -0.822   1.698  -1.041  1.00  0.00     0.127 C 
HETATM    5  C8  UNL     1      -1.108   0.607  -0.086  1.00  0.00     0.015 C 
HETATM    6  C9  UNL     1      -2.398  -0.130  -0.189  1.00  0.00     0.023 C 
HETATM    7  C14 UNL     1      -2.069  -1.314   0.747  1.00  0.00     0.039 C 
HETATM    8  C15 UNL     1      -0.550  -1.528   0.613  1.00  0.00     0.123 C 
HETATM    9  C16 UNL     1      -0.139  -0.531  -0.406  1.00  0.00     0.031 C 
HETATM   10  C17 UNL     1       1.284  -0.162  -0.499  1.00  0.00     0.060 C 
HETATM   11  C18 UNL     1       1.583  -0.005  -1.953  1.00  0.00    -0.020 C 
HETATM   12  C19 UNL     1       1.776   1.272  -2.193  1.00  0.00    -0.005 C 
HETATM   13  C20 UNL     1       1.637   2.085  -0.986  1.00  0.00     0.152 C 
ENDROOT
BRANCH   1  14
HETATM   14  C5  UNL     1       2.924   1.020   0.950  1.00  0.00     0.082 C 
BRANCH  14  15
HETATM   15  C4  UNL     1       4.183   0.387   0.884  1.00  0.00     0.031 C 
BRANCH  15  16
HETATM   16  C3  UNL     1       4.678  -0.394  -0.021  1.00  0.00    -0.024 C 
BRANCH  16  17
HETATM   17  C2  UNL     1       6.065  -0.978   0.095  1.00  0.00     0.022 C 
HETATM   18  C1  UNL     1       6.734  -0.525   1.362  1.00  0.00     0.009 C 
ENDBRANCH  16  17
ENDBRANCH  15  16
ENDBRANCH  14  15
BRANCH  14  19
HETATM   19  O1  UNL     1       2.773   1.753   2.051  1.00  0.00    -0.362 OA
ATOM     20  H1  UNL     1       1.925   2.179   2.095  1.00  0.00     0.217 HD
ENDBRANCH  14  19
ENDBRANCH   1  14
BRANCH   8  21
HETATM   21  O4  UNL     1       0.106  -1.420   1.817  1.00  0.00    -0.395 OA
ATOM     22  H4  UNL     1       1.043  -1.552   1.734  1.00  0.00     0.210 HD
ENDBRANCH   8  21
BRANCH   6  23
HETATM   23  C10 UNL     1      -3.572   0.609   0.366  1.00  0.00     0.126 C 
BRANCH  23  24
HETATM   24  O3  UNL     1      -3.773   1.841  -0.276  1.00  0.00    -0.395 OA
ATOM     25  H3  UNL     1      -4.519   2.311   0.077  1.00  0.00     0.210 HD
ENDBRANCH  23  24
BRANCH  23  26
HETATM   26  C11 UNL     1      -4.888  -0.107   0.264  1.00  0.00     0.006 C 
HETATM   27  C12 UNL     1      -5.237  -0.418  -1.198  1.00  0.00     0.012 C 
HETATM   28  C13 UNL     1      -5.054  -1.344   1.057  1.00  0.00     0.012 C 
ENDBRANCH  23  26
ENDBRANCH   6  23
TORSDOF 9
