REMARK  7 active torsions:
REMARK  status: ('A' for Active; 'I' for Inactive)
REMARK    1  A    between atoms: C2_2  and  N1_3 
REMARK    2  A    between atoms: C7_10  and  N3_11 
REMARK    3  A    between atoms: N3_11  and  C8_13 
REMARK    4  A    between atoms: C8_13  and  C9_14 
REMARK    5  A    between atoms: C9_14  and  N4_15 
REMARK    6  A    between atoms: C14_22  and  N6_23 
REMARK    7  A    between atoms: N6_23  and  C15_25 
ROOT
HETATM    1  C1  UNL     1      -1.974   1.058  -0.007  1.00  0.00     0.097 A 
HETATM    2  C2  UNL     1      -0.852   1.637   0.544  1.00  0.00     0.122 A 
HETATM    3  N2  UNL     1       0.225   0.833   0.807  1.00  0.00    -0.177 N 
ATOM      4  H2  UNL     1       1.064   1.244   1.217  1.00  0.00     0.185 HD
HETATM    5  C7  UNL     1       0.204  -0.480   0.539  1.00  0.00     0.681 A 
HETATM    6  N5  UNL     1      -0.930  -1.016  -0.009  1.00  0.00    -0.177 N 
ATOM      7  H5  UNL     1      -0.947  -2.015  -0.213  1.00  0.00     0.185 HD
HETATM    8  C14 UNL     1      -2.021  -0.287  -0.290  1.00  0.00     0.120 A 
ENDROOT
BRANCH   5   9
HETATM    9  N3  UNL     1       1.221  -1.208   0.793  1.00  0.00    -0.224 N 
ATOM     10  H3  UNL     1       1.143  -2.199   0.565  1.00  0.00     0.177 HD
BRANCH   9  11
HETATM   11  C8  UNL     1       2.449  -0.778   1.360  1.00  0.00     0.168 C 
BRANCH  11  12
HETATM   12  C9  UNL     1       3.380  -0.168   0.352  1.00  0.00     0.292 C 
BRANCH  12  13
HETATM   13  N4  UNL     1       3.736  -1.035  -0.732  1.00  0.00     0.090 N 
HETATM   14  C10 UNL     1       4.630  -0.279  -1.620  1.00  0.00     0.272 C 
HETATM   15  C11 UNL     1       5.949  -0.341  -0.889  1.00  0.00     0.032 C 
HETATM   16  C12 UNL     1       5.943  -1.746  -0.318  1.00  0.00     0.032 C 
HETATM   17  C13 UNL     1       4.478  -2.169  -0.299  1.00  0.00     0.272 C 
ENDBRANCH  12  13
ENDBRANCH  11  12
ENDBRANCH   9  11
ENDBRANCH   5   9
BRANCH   2  18
HETATM   18  N1  UNL     1      -0.840   3.033   0.807  1.00  0.00    -0.367 N 
HETATM   19  C3  UNL     1      -1.399   3.670   1.978  1.00  0.00     0.124 C 
HETATM   20  C4  UNL     1      -2.067   4.887   1.383  1.00  0.00     0.021 C 
HETATM   21  C5  UNL     1      -1.074   5.339   0.346  1.00  0.00     0.021 C 
HETATM   22  C6  UNL     1      -0.286   4.099   0.013  1.00  0.00     0.124 C 
ENDBRANCH   2  18
BRANCH   8  23
HETATM   23  N6  UNL     1      -3.084  -0.768  -0.792  1.00  0.00    -0.371 N 
ATOM     24  H6  UNL     1      -3.840  -0.101  -0.950  1.00  0.00     0.161 HD
BRANCH  23  25
HETATM   25  C15 UNL     1      -3.361  -2.118  -1.164  1.00  0.00     0.083 C 
HETATM   26  C16 UNL     1      -3.379  -2.986   0.061  1.00  0.00     0.025 C 
HETATM   27  C17 UNL     1      -4.711  -3.714   0.091  1.00  0.00     0.002 C 
HETATM   28  C18 UNL     1      -5.204  -3.582  -1.345  1.00  0.00     0.002 C 
HETATM   29  C19 UNL     1      -4.813  -2.152  -1.634  1.00  0.00     0.025 C 
ENDBRANCH  23  25
ENDBRANCH   8  23
TORSDOF 7
