REMARK  3 active torsions:
REMARK  status: ('A' for Active; 'I' for Inactive)
REMARK    1  A    between atoms: C9_10  and  C10_11 
REMARK    2  A    between atoms: C10_11  and  C11_12 
REMARK    3  A    between atoms: C13_17  and  C14_18 
ROOT
HETATM    1  C1  UNL     1       5.287   0.111  -0.080  1.00  0.00     0.010 C 
HETATM    2  C2  UNL     1       4.111  -0.538   0.610  1.00  0.00    -0.010 C 
HETATM    3  C3  UNL     1       3.978  -1.988   0.218  1.00  0.00     0.035 C 
HETATM    4  C4  UNL     1       2.561  -2.421   0.487  1.00  0.00     0.273 C 
HETATM    5  N1  UNL     1       1.642  -1.769  -0.419  1.00  0.00     0.098 N 
HETATM    6  C5  UNL     1       0.281  -2.098  -0.284  1.00  0.00     0.344 C 
HETATM    7  C6  UNL     1      -0.495  -0.852  -0.051  1.00  0.00     0.289 C 
HETATM    8  C7  UNL     1       0.503   0.251  -0.157  1.00  0.00     0.110 C 
HETATM    9  C8  UNL     1       1.850  -0.361  -0.500  1.00  0.00     0.232 C 
HETATM   10  C9  UNL     1       2.831   0.170   0.515  1.00  0.00     0.033 C 
HETATM   11  O3  UNL     1      -1.052  -0.863   1.221  1.00  0.00    -0.349 OA
HETATM   12  C12 UNL     1      -2.257  -0.211   1.178  1.00  0.00     0.210 C 
HETATM   13  C13 UNL     1      -2.368   0.338  -0.246  1.00  0.00     0.284 C 
HETATM   14  N2  UNL     1      -1.636  -0.683  -0.961  1.00  0.00     0.131 N 
HETATM   15  C19 UNL     1      -1.248  -0.325  -2.277  1.00  0.00     0.314 C 
ENDROOT
BRANCH  13  16
HETATM   16  C14 UNL     1      -3.818   0.408  -0.577  1.00  0.00     0.100 C 
HETATM   17  C15 UNL     1      -4.103   0.842  -1.987  1.00  0.00     0.049 C 
HETATM   18  C16 UNL     1      -4.441   1.449   0.345  1.00  0.00     0.050 C 
HETATM   19  C17 UNL     1      -5.395   0.680   1.233  1.00  0.00     0.114 C 
HETATM   20  C18 UNL     1      -5.700  -0.507   0.366  1.00  0.00     0.259 C 
HETATM   21  O4  UNL     1      -6.808  -1.068   0.341  1.00  0.00    -0.265 OA
HETATM   22  O5  UNL     1      -4.528  -0.762  -0.312  1.00  0.00    -0.308 OA
ENDBRANCH  13  16
BRANCH  10  23
HETATM   23  C10 UNL     1       2.963   1.663   0.170  1.00  0.00     0.120 C 
BRANCH  23  24
HETATM   24  C11 UNL     1       3.753   2.398   1.177  1.00  0.00     0.172 C 
HETATM   25  O1  UNL     1       3.931   3.621   0.975  1.00  0.00    -0.648 OA
HETATM   26  O2  UNL     1       4.303   1.831   2.317  1.00  0.00    -0.648 OA
ENDBRANCH  23  24
ENDBRANCH  10  23
TORSDOF 3
