REMARK  3 active torsions:
REMARK  status: ('A' for Active; 'I' for Inactive)
REMARK    1  A    between atoms: C1_2  and  C2_3 
REMARK       I    between atoms: C1_2  and  N6_25 
REMARK    2  A    between atoms: C2_3  and  N1_4 
REMARK    3  A    between atoms: C5_7  and  N2_8 
REMARK       I    between atoms: N2_8  and  C6_10 
REMARK       I    between atoms: C6_10  and  N3_12 
ROOT
HETATM    1  N1  UNL     1       1.854  -0.497  -0.757  1.00  0.00     0.097 N 
HETATM    2  C3  UNL     1       1.415   0.772  -1.299  1.00  0.00     0.275 C 
HETATM    3  C4  UNL     1      -0.091   0.902  -1.358  1.00  0.00     0.055 C 
HETATM    4  C5  UNL     1      -0.622   1.006   0.075  1.00  0.00     0.089 C 
HETATM    5  C13 UNL     1       0.287   0.228   0.989  1.00  0.00     0.055 C 
HETATM    6  C14 UNL     1       0.892  -0.957   0.242  1.00  0.00     0.275 C 
ENDROOT
BRANCH   4   7
HETATM    7  N2  UNL     1      -1.973   0.454   0.096  1.00  0.00    -0.336 N 
HETATM    8  C6  UNL     1      -3.055   1.259   0.481  1.00  0.00     0.357 C 
HETATM    9  O2  UNL     1      -2.862   2.467   0.812  1.00  0.00    -0.243 OA
HETATM   10  N3  UNL     1      -4.379   0.747   0.510  1.00  0.00    -0.142 N 
HETATM   11  N4  UNL     1      -5.486   1.417   0.854  1.00  0.00    -0.278 N 
HETATM   12  N5  UNL     1      -4.740  -0.490   0.201  1.00  0.00    -0.278 N 
HETATM   13  C7  UNL     1      -6.541   0.588   0.757  1.00  0.00     0.052 A 
ATOM     14  H4  UNL     1      -5.523   2.395   1.142  1.00  0.00     0.189 HD
HETATM   15  C8  UNL     1      -6.062  -0.635   0.338  1.00  0.00     0.052 A 
HETATM   16  C12 UNL     1      -8.011   0.683   0.981  1.00  0.00     0.061 C 
HETATM   17  C9  UNL     1      -7.051  -1.728   0.159  1.00  0.00     0.061 C 
HETATM   18  C10 UNL     1      -8.254  -1.243  -0.583  1.00  0.00     0.006 C 
HETATM   19  C11 UNL     1      -8.642   0.173  -0.321  1.00  0.00     0.006 C 
ATOM     20  H5  UNL     1      -4.101  -1.226  -0.099  1.00  0.00     0.189 HD
ATOM     21  H2  UNL     1      -2.130  -0.518  -0.170  1.00  0.00     0.164 HD
ENDBRANCH   4   7
BRANCH   1  22
HETATM   22  C2  UNL     1       3.089  -0.263  -0.034  1.00  0.00     0.374 C 
BRANCH  22  23
HETATM   23  C1  UNL     1       4.223   0.099  -0.914  1.00  0.00     0.248 C 
HETATM   24  O1  UNL     1       4.126   0.193  -2.155  1.00  0.00    -0.271 OA
HETATM   25  N6  UNL     1       5.484   0.354  -0.325  1.00  0.00    -0.351 N 
HETATM   26  C15 UNL     1       5.673   0.263   1.109  1.00  0.00     0.126 C 
HETATM   27  C19 UNL     1       6.652   0.720  -1.109  1.00  0.00     0.126 C 
HETATM   28  C16 UNL     1       6.823  -0.655   1.457  1.00  0.00     0.020 C 
HETATM   29  C17 UNL     1       7.265  -1.334   0.178  1.00  0.00     0.003 C 
HETATM   30  C18 UNL     1       7.777  -0.227  -0.747  1.00  0.00     0.020 C 
ENDBRANCH  22  23
ENDBRANCH   1  22
TORSDOF 3
