REMARK  4 active torsions:
REMARK  status: ('A' for Active; 'I' for Inactive)
REMARK    1  A    between atoms: O1_2  and  O2_3 
REMARK    2  A    between atoms: O2_3  and  C2_4 
REMARK    3  A    between atoms: C13_17  and  C14_18 
REMARK    4  A    between atoms: C14_18  and  N1_19 
REMARK       I    between atoms: N1_19  and  C15_21 
ROOT
HETATM    1  C2  UNL     1      -3.698  -0.740   0.311  1.00  0.00     0.197 C 
HETATM    2  C3  UNL     1      -3.647  -0.951   1.811  1.00  0.00     0.072 C 
HETATM    3  C4  UNL     1      -2.535  -1.863   2.224  1.00  0.00     0.015 C 
HETATM    4  C5  UNL     1      -1.649  -2.153   1.055  1.00  0.00     0.039 C 
HETATM    5  C6  UNL     1      -2.469  -2.666  -0.080  1.00  0.00     0.178 C 
HETATM    6  O3  UNL     1      -3.567  -1.911  -0.397  1.00  0.00    -0.352 OA
HETATM    7  C7  UNL     1      -0.765  -0.998   0.712  1.00  0.00     0.133 C 
HETATM    8  O4  UNL     1      -0.243  -1.039  -0.561  1.00  0.00    -0.372 OA
HETATM    9  C8  UNL     1       0.441   0.175  -0.621  1.00  0.00     0.094 C 
HETATM   10  C9  UNL     1      -0.442   1.205  -0.004  1.00  0.00     0.047 C 
HETATM   11  C10 UNL     1      -1.471   0.333   0.732  1.00  0.00     0.023 C 
HETATM   12  C11 UNL     1      -2.697   0.294  -0.125  1.00  0.00     0.078 C 
HETATM   13  C12 UNL     1       1.726   0.009   0.176  1.00  0.00     0.077 C 
HETATM   14  C13 UNL     1       2.854   0.406  -0.721  1.00  0.00     0.243 C 
HETATM   15  N2  UNL     1       2.238   1.186  -1.781  1.00  0.00     0.097 N 
HETATM   16  C17 UNL     1       3.031   1.103  -2.971  1.00  0.00     0.311 C 
HETATM   17  C18 UNL     1       0.947   0.510  -1.980  1.00  0.00     0.253 C 
HETATM   18  C19 UNL     1       0.079   1.433  -2.761  1.00  0.00     0.046 C 
ENDROOT
BRANCH  14  19
HETATM   19  C14 UNL     1       3.866   1.286  -0.037  1.00  0.00     0.158 C 
BRANCH  19  20
HETATM   20  N1  UNL     1       4.489   0.691   1.102  1.00  0.00    -0.359 N 
HETATM   21  C15 UNL     1       5.244  -0.489   1.031  1.00  0.00     0.213 C 
HETATM   22  C16 UNL     1       5.884  -1.083   2.259  1.00  0.00     0.117 C 
HETATM   23  O5  UNL     1       5.404  -1.078  -0.055  1.00  0.00    -0.274 OA
ATOM     24  H1  UNL     1       4.380   1.145   2.009  1.00  0.00     0.162 HD
ENDBRANCH  19  20
ENDBRANCH  14  19
BRANCH   1  25
HETATM   25  O2  UNL     1      -4.973  -0.229   0.029  1.00  0.00    -0.201 OA
BRANCH  25  26
HETATM   26  O1  UNL     1      -5.126   0.891   0.671  1.00  0.00    -0.243 OA
HETATM   27  C1  UNL     1      -5.901   1.786  -0.071  1.00  0.00     0.247 C 
ENDBRANCH  25  26
ENDBRANCH   1  25
TORSDOF 4
