REMARK  8 active torsions:
REMARK  status: ('A' for Active; 'I' for Inactive)
REMARK    1  A    between atoms: C2_2  and  C4_4 
REMARK    2  A    between atoms: C4_4  and  C5_5 
REMARK    3  A    between atoms: C5_5  and  N1_6 
REMARK    4  A    between atoms: N1_6  and  C6_8 
REMARK    5  A    between atoms: C7_11  and  N3_12 
REMARK    6  A    between atoms: C10_15  and  N4_16 
REMARK    7  A    between atoms: C15_23  and  N6_24 
REMARK    8  A    between atoms: N6_24  and  C16_26 
ROOT
HETATM    1  C6  UNL     1       1.610  -0.349   0.055  1.00  0.00     0.707 A 
HETATM    2  N2  UNL     1       0.283  -0.451   0.237  1.00  0.00    -0.021 N 
ATOM      3  H2  UNL     1      -0.093  -1.363   0.496  1.00  0.00     0.203 HD
HETATM    4  C7  UNL     1      -0.585   0.570   0.101  1.00  0.00     0.709 A 
HETATM    5  N5  UNL     1      -0.041   1.772  -0.245  1.00  0.00    -0.021 N 
ATOM      6  H5  UNL     1      -0.656   2.578  -0.361  1.00  0.00     0.203 HD
HETATM    7  C15 UNL     1       1.266   1.926  -0.436  1.00  0.00     0.707 A 
HETATM    8  N7  UNL     1       2.100   0.856  -0.285  1.00  0.00    -0.022 N 
ATOM      9  H7  UNL     1       3.103   0.972  -0.431  1.00  0.00     0.203 HD
ENDROOT
BRANCH   4  10
HETATM   10  N3  UNL     1      -1.969   0.412   0.303  1.00  0.00    -0.216 N 
HETATM   11  C8  UNL     1      -2.893   1.506   0.146  1.00  0.00     0.143 C 
HETATM   12  C9  UNL     1      -4.126   0.997  -0.609  1.00  0.00     0.045 C 
HETATM   13  C10 UNL     1      -4.796  -0.032   0.268  1.00  0.00     0.081 C 
HETATM   14  C13 UNL     1      -3.879  -0.636   1.270  1.00  0.00     0.045 C 
HETATM   15  C14 UNL     1      -2.495  -0.874   0.677  1.00  0.00     0.143 C 
BRANCH  13  16
HETATM   16  N4  UNL     1      -5.541  -1.001  -0.499  1.00  0.00    -0.416 N 
HETATM   17  C11 UNL     1      -6.618  -0.445  -1.246  1.00  0.00     0.143 C 
HETATM   18  C12 UNL     1      -5.815  -2.211   0.190  1.00  0.00     0.143 C 
ENDBRANCH  13  16
ENDBRANCH   4  10
BRANCH   1  19
HETATM   19  N1  UNL     1       2.354  -1.393   0.211  1.00  0.00    -0.225 N 
ATOM     20  H1  UNL     1       1.935  -2.286   0.470  1.00  0.00     0.177 HD
BRANCH  19  21
HETATM   21  C5  UNL     1       3.767  -1.291   0.019  1.00  0.00     0.138 C 
BRANCH  21  22
HETATM   22  C4  UNL     1       4.454  -2.634  -0.039  1.00  0.00     0.024 C 
BRANCH  22  23
HETATM   23  C2  UNL     1       5.942  -2.350  -0.245  1.00  0.00    -0.021 C 
HETATM   24  C1  UNL     1       6.693  -3.666  -0.311  1.00  0.00     0.009 C 
HETATM   25  C3  UNL     1       6.499  -1.564   0.925  1.00  0.00     0.009 C 
ENDBRANCH  22  23
ENDBRANCH  21  22
ENDBRANCH  19  21
ENDBRANCH   1  19
BRANCH   7  26
HETATM   26  N6  UNL     1       1.842   3.027  -0.760  1.00  0.00    -0.220 N 
ATOM     27  H6  UNL     1       2.852   3.077  -0.893  1.00  0.00     0.178 HD
BRANCH  26  28
HETATM   28  C16 UNL     1       0.998   4.202  -0.931  1.00  0.00     0.099 A 
HETATM   29  C17 UNL     1       1.476   5.452  -0.293  1.00  0.00     0.028 A 
HETATM   30  C18 UNL     1       0.291   4.743   0.266  1.00  0.00     0.028 A 
ENDBRANCH  26  28
ENDBRANCH   7  26
TORSDOF 8
