REMARK  9 active torsions:
REMARK  status: ('A' for Active; 'I' for Inactive)
REMARK    1  A    between atoms: C2_2  and  N1_3 
REMARK    2  A    between atoms: N1_3  and  C3_5 
REMARK    3  A    between atoms: C3_5  and  N2_7 
REMARK    4  A    between atoms: N3_9  and  C5_10 
REMARK    5  A    between atoms: C5_10  and  C6_11 
REMARK    6  A    between atoms: N4_12  and  N5_14 
REMARK    7  A    between atoms: C12_20  and  C13_21 
REMARK    8  A    between atoms: C13_21  and  O2_23 
REMARK    9  A    between atoms: O2_23  and  C14_24 
ROOT
HETATM    1  N2  UNL     1      -1.614  -1.083   0.251  1.00  0.00    -0.284 N 
HETATM    2  C4  UNL     1      -0.352  -0.887   0.984  1.00  0.00     0.407 C 
HETATM    3  N3  UNL     1       0.046   0.472   0.804  1.00  0.00     0.132 N 
HETATM    4  C12 UNL     1      -0.833   1.067  -0.169  1.00  0.00     0.390 C 
HETATM    5  C16 UNL     1      -1.627  -0.054  -0.717  1.00  0.00     0.125 C 
HETATM    6  N6  UNL     1      -2.198  -0.058  -1.853  1.00  0.00    -0.386 N 
ATOM      7  H61 UNL     1      -2.207   0.685  -2.552  1.00  0.00     0.157 HD
ATOM      8  H62 UNL     1      -2.746  -0.831  -2.231  1.00  0.00     0.157 HD
ENDROOT
BRANCH   3   9
HETATM    9  C5  UNL     1       1.404   0.627   0.353  1.00  0.00     0.322 C 
BRANCH   9  10
HETATM   10  C6  UNL     1       1.616   0.139  -1.015  1.00  0.00     0.110 C 
HETATM   11  N4  UNL     1       2.804  -0.232  -1.369  1.00  0.00    -0.316 N 
ATOM     12  H4  UNL     1       2.947  -0.569  -2.321  1.00  0.00     0.185 HD
BRANCH  11  13
HETATM   13  N5  UNL     1       3.887  -0.191  -0.513  1.00  0.00    -0.328 N 
HETATM   14  C7  UNL     1       4.248  -1.363   0.247  1.00  0.00     0.142 C 
HETATM   15  C8  UNL     1       5.411  -1.048   1.169  1.00  0.00     0.021 C 
HETATM   16  C9  UNL     1       6.556  -0.407   0.448  1.00  0.00     0.003 C 
HETATM   17  C10 UNL     1       6.124   0.615  -0.551  1.00  0.00     0.021 C 
HETATM   18  C11 UNL     1       4.684   0.999  -0.351  1.00  0.00     0.142 C 
ENDBRANCH  11  13
ENDBRANCH   9  10
ENDBRANCH   3   9
BRANCH   4  19
HETATM   19  C13 UNL     1      -1.803   2.008   0.479  1.00  0.00     0.300 C 
HETATM   20  O1  UNL     1      -1.726   2.152   1.727  1.00  0.00    -0.262 OA
BRANCH  19  21
HETATM   21  O2  UNL     1      -2.765   2.719  -0.188  1.00  0.00    -0.320 OA
BRANCH  21  22
HETATM   22  C14 UNL     1      -3.669   3.603   0.453  1.00  0.00     0.174 C 
HETATM   23  C15 UNL     1      -4.591   4.219  -0.584  1.00  0.00     0.034 C 
ENDBRANCH  21  22
ENDBRANCH  19  21
ENDBRANCH   4  19
BRANCH   1  24
HETATM   24  C3  UNL     1      -2.570  -2.102   0.500  1.00  0.00     0.176 C 
HETATM   25  S1  UNL     1      -2.212  -3.155   1.730  1.00  0.00    -0.041 SA
BRANCH  24  26
HETATM   26  N1  UNL     1      -3.753  -2.230  -0.236  1.00  0.00    -0.367 N 
ATOM     27  H1  UNL     1      -3.966  -1.577  -0.990  1.00  0.00     0.161 HD
BRANCH  26  28
HETATM   28  C2  UNL     1      -4.671  -3.304   0.089  1.00  0.00     0.117 C 
HETATM   29  C1  UNL     1      -5.881  -3.298  -0.806  1.00  0.00     0.026 C 
ENDBRANCH  26  28
ENDBRANCH  24  26
ENDBRANCH   1  24
TORSDOF 9
