REMARK  10 active torsions:
REMARK  status: ('A' for Active; 'I' for Inactive)
REMARK    1  A    between atoms: N1_4  and  C4_5 
REMARK    2  A    between atoms: C4_5  and  C5_6 
REMARK    3  A    between atoms: C5_6  and  C6_7 
REMARK    4  A    between atoms: C5_6  and  C8_13 
REMARK    5  A    between atoms: C6_7  and  N2_8 
REMARK    6  A    between atoms: N2_8  and  O1_9 
REMARK    7  A    between atoms: N2_8  and  C7_11 
REMARK    8  A    between atoms: C8_13  and  O3_15 
REMARK       I    between atoms: N3_19  and  C12_20 
REMARK    9  A    between atoms: C12_20  and  O5_22 
REMARK   10  A    between atoms: O5_22  and  C13_23 
ROOT
HETATM    1  C1  UNL     1       1.076  -2.045  -1.570  1.00  0.00     0.013 C 
HETATM    2  C2  UNL     1       0.835  -0.736  -2.235  1.00  0.00     0.028 C 
HETATM    3  C3  UNL     1      -0.505  -0.149  -2.108  1.00  0.00     0.278 C 
HETATM    4  N1  UNL     1      -1.218  -0.410  -0.867  1.00  0.00     0.090 N 
HETATM    5  C10 UNL     1      -0.471  -0.092   0.289  1.00  0.00     0.292 C 
HETATM    6  C11 UNL     1       0.464   1.087   0.105  1.00  0.00     0.158 C 
HETATM    7  N3  UNL     1       1.694   0.691  -0.515  1.00  0.00    -0.326 N 
HETATM    8  C12 UNL     1       2.878   0.649   0.304  1.00  0.00     0.363 C 
HETATM    9  O4  UNL     1       2.841   0.949   1.522  1.00  0.00    -0.238 OA
HETATM   10  C17 UNL     1       1.885   0.321  -1.896  1.00  0.00     0.134 C 
ENDROOT
BRANCH   4  11
HETATM   11  C4  UNL     1      -2.419   0.372  -0.971  1.00  0.00     0.281 C 
BRANCH  11  12
HETATM   12  C5  UNL     1      -3.393   0.256   0.155  1.00  0.00     0.063 C 
BRANCH  12  13
HETATM   13  C6  UNL     1      -4.575   1.149  -0.188  1.00  0.00     0.167 C 
BRANCH  13  14
HETATM   14  N2  UNL     1      -5.600   1.134   0.808  1.00  0.00    -0.236 N 
BRANCH  14  15
HETATM   15  O1  UNL     1      -6.648   0.282   0.770  1.00  0.00    -0.285 OA
ATOM     16  H1  UNL     1      -7.329   0.272   1.432  1.00  0.00     0.245 HD
ENDBRANCH  14  15
BRANCH  14  17
HETATM   17  C7  UNL     1      -5.535   2.068   1.877  1.00  0.00     0.376 C 
HETATM   18  O2  UNL     1      -4.591   2.905   1.961  1.00  0.00    -0.281 OA
ENDBRANCH  14  17
ENDBRANCH  13  14
ENDBRANCH  12  13
BRANCH  12  19
HETATM   19  C8  UNL     1      -3.742  -1.140   0.512  1.00  0.00     0.121 C 
HETATM   20  C9  UNL     1      -4.383  -1.939  -0.574  1.00  0.00     0.040 C 
BRANCH  19  21
HETATM   21  O3  UNL     1      -4.437  -1.184   1.713  1.00  0.00    -0.395 OA
ATOM     22  H3  UNL     1      -4.661  -2.079   1.942  1.00  0.00     0.210 HD
ENDBRANCH  19  21
ENDBRANCH  12  19
ENDBRANCH  11  12
ENDBRANCH   4  11
BRANCH   8  23
HETATM   23  O5  UNL     1       4.104   0.277  -0.224  1.00  0.00    -0.294 OA
BRANCH  23  24
HETATM   24  C13 UNL     1       5.293   0.210   0.498  1.00  0.00     0.061 C 
HETATM   25  C14 UNL     1       6.380  -0.243  -0.487  1.00  0.00     0.046 C 
HETATM   26  C15 UNL     1       5.283  -0.834   1.596  1.00  0.00     0.046 C 
HETATM   27  C16 UNL     1       5.755   1.533   1.050  1.00  0.00     0.046 C 
ENDBRANCH  23  24
ENDBRANCH   8  23
TORSDOF 10
