REMARK  7 active torsions:
REMARK  status: ('A' for Active; 'I' for Inactive)
REMARK    1  A    between atoms: C2_2  and  C3_3 
REMARK    2  A    between atoms: C3_3  and  N1_4 
REMARK    3  A    between atoms: N2_13  and  C11_14 
REMARK    4  A    between atoms: C11_14  and  C12_15 
REMARK    5  A    between atoms: C12_15  and  N3_16 
REMARK    6  A    between atoms: C12_15  and  C17_25 
REMARK       I    between atoms: N3_16  and  C13_18 
REMARK       I    between atoms: C13_18  and  N4_20 
REMARK    7  A    between atoms: N4_20  and  C14_22 
ROOT
HETATM    1  C3  UNL     1      -2.210  -0.378  -0.279  1.00  0.00     0.388 C 
HETATM    2  O1  UNL     1      -2.271  -1.099  -1.440  1.00  0.00    -0.329 OA
HETATM    3  C9  UNL     1      -1.110  -1.340  -2.104  1.00  0.00     0.190 C 
HETATM    4  C10 UNL     1       0.039  -0.518  -1.611  1.00  0.00     0.147 C 
HETATM    5  N2  UNL     1       0.086  -0.622  -0.192  1.00  0.00    -0.187 NA
HETATM    6  O4  UNL     1      -1.049  -0.398   0.422  1.00  0.00    -0.235 OA
ENDROOT
BRANCH   5   7
HETATM    7  C11 UNL     1       0.765  -1.738   0.342  1.00  0.00     0.154 C 
BRANCH   7   8
HETATM    8  C12 UNL     1       2.239  -1.790   0.155  1.00  0.00     0.170 C 
BRANCH   8   9
HETATM    9  N3  UNL     1       2.919  -0.656   0.754  1.00  0.00    -0.330 N 
HETATM   10  C13 UNL     1       3.874   0.071  -0.014  1.00  0.00     0.317 C 
HETATM   11  O2  UNL     1       4.155  -0.232  -1.195  1.00  0.00    -0.247 OA
HETATM   12  N4  UNL     1       4.532   1.177   0.578  1.00  0.00    -0.339 N 
ATOM     13  H4  UNL     1       4.317   1.442   1.539  1.00  0.00     0.164 HD
ATOM     14  H3  UNL     1       2.715  -0.382   1.715  1.00  0.00     0.165 HD
BRANCH  12  15
HETATM   15  C14 UNL     1       5.501   1.926  -0.171  1.00  0.00     0.086 A 
HETATM   16  C15 UNL     1       6.734   2.445   0.580  1.00  0.00     0.027 A 
HETATM   17  C16 UNL     1       5.708   3.382   0.046  1.00  0.00     0.027 A 
ENDBRANCH  12  15
ENDBRANCH   8   9
BRANCH   8  18
HETATM   18  C17 UNL     1       2.741  -3.007   0.892  1.00  0.00     0.146 C 
HETATM   19  C18 UNL     1       2.263  -4.377   0.550  1.00  0.00     0.093 C 
HETATM   20  O3  UNL     1       3.556  -2.930   1.796  1.00  0.00    -0.296 OA
ENDBRANCH   8  18
ENDBRANCH   7   8
ENDBRANCH   5   7
BRANCH   1  21
HETATM   21  C2  UNL     1      -3.245  -1.050   0.650  1.00  0.00     0.101 C 
HETATM   22  C1  UNL     1      -2.711  -2.463   0.934  1.00  0.00     0.013 C 
ENDBRANCH   1  21
BRANCH   1  23
HETATM   23  N1  UNL     1      -2.709   0.956  -0.555  1.00  0.00     0.153 N 
HETATM   24  C4  UNL     1      -2.822   1.797   0.595  1.00  0.00     0.279 C 
HETATM   25  C5  UNL     1      -3.371   3.138   0.110  1.00  0.00     0.030 C 
HETATM   26  C6  UNL     1      -4.802   2.995  -0.356  1.00  0.00     0.003 C 
HETATM   27  C7  UNL     1      -5.095   1.539  -0.649  1.00  0.00     0.030 C 
HETATM   28  C8  UNL     1      -3.913   0.920  -1.355  1.00  0.00     0.279 C 
ENDBRANCH   1  23
TORSDOF 7
