REMARK  6 active torsions:
REMARK  status: ('A' for Active; 'I' for Inactive)
REMARK    1  A    between atoms: O1_2  and  C2_3 
REMARK    2  A    between atoms: C2_3  and  C3_5 
REMARK    3  A    between atoms: C6_8  and  C18_22 
REMARK    4  A    between atoms: C8_10  and  O3_11 
REMARK    5  A    between atoms: C20_25  and  C21_26 
REMARK    6  A    between atoms: C21_26  and  O5_27 
ROOT
HETATM    1  C3  UNL     1      -0.479  -0.832   0.148  1.00  0.00     0.098 C 
HETATM    2  C4  UNL     1      -0.928   0.376   0.852  1.00  0.00     0.043 C 
HETATM    3  C5  UNL     1      -0.079   1.095   1.821  1.00  0.00     0.015 C 
HETATM    4  C6  UNL     1       0.937   1.890   0.955  1.00  0.00     0.023 C 
HETATM    5  C7  UNL     1      -0.090   2.556   0.119  1.00  0.00     0.045 C 
HETATM    6  C8  UNL     1      -1.313   1.609   0.047  1.00  0.00     0.066 C 
HETATM    7  C10 UNL     1      -1.860   1.370  -1.280  1.00  0.00     0.046 C 
HETATM    8  C11 UNL     1      -1.792  -0.018  -1.842  1.00  0.00     0.033 A 
HETATM    9  C12 UNL     1      -0.406  -0.499  -2.124  1.00  0.00     0.140 A 
HETATM   10  O4  UNL     1       0.567   0.121  -1.406  1.00  0.00    -0.372 OA
HETATM   11  C13 UNL     1       0.851  -0.744  -0.365  1.00  0.00     0.087 C 
HETATM   12  C14 UNL     1       1.809  -1.511  -1.060  1.00  0.00     0.075 C 
HETATM   13  C15 UNL     1       2.999  -0.532  -0.874  1.00  0.00     0.226 C 
HETATM   14  C16 UNL     1       3.110  -0.884   0.623  1.00  0.00     0.045 C 
HETATM   15  C17 UNL     1       1.669  -0.344   0.810  1.00  0.00     0.057 C 
HETATM   16  C18 UNL     1       2.029   1.098   0.550  1.00  0.00     0.234 C 
HETATM   17  N1  UNL     1       2.633   0.870  -0.704  1.00  0.00     0.094 N 
HETATM   18  C19 UNL     1       3.800   1.642  -1.000  1.00  0.00     0.310 C 
HETATM   19  C20 UNL     1      -1.344  -1.098  -1.027  1.00  0.00     0.034 A 
ENDROOT
BRANCH   1  20
HETATM   20  C2  UNL     1      -0.605  -1.998   1.075  1.00  0.00     0.271 C 
HETATM   21  O2  UNL     1       0.347  -2.782   1.315  1.00  0.00    -0.264 OA
BRANCH  20  22
HETATM   22  O1  UNL     1      -1.797  -2.300   1.743  1.00  0.00    -0.326 OA
HETATM   23  C1  UNL     1      -1.893  -3.417   2.622  1.00  0.00     0.213 C 
ENDBRANCH  20  22
ENDBRANCH   1  20
BRANCH  19  24
HETATM   24  C21 UNL     1      -1.863  -2.497  -1.330  1.00  0.00     0.178 C 
BRANCH  24  25
HETATM   25  O5  UNL     1      -2.645  -2.431  -2.499  1.00  0.00    -0.400 OA
ATOM     26  H5  UNL     1      -2.969  -3.304  -2.688  1.00  0.00     0.209 HD
ENDBRANCH  24  25
ENDBRANCH  19  24
BRANCH   6  27
HETATM   27  O3  UNL     1      -2.326   2.165   0.832  1.00  0.00    -0.385 OA
HETATM   28  C9  UNL     1      -2.904   3.310   0.426  1.00  0.00     0.202 C 
ENDBRANCH   6  27
TORSDOF 6
