REMARK  3 active torsions:
REMARK  status: ('A' for Active; 'I' for Inactive)
REMARK    1  A    between atoms: C2_2  and  C3_3 
REMARK    2  A    between atoms: N3_17  and  C11_18 
REMARK    3  A    between atoms: C11_18  and  C12_19 
ROOT
HETATM    1  C3  UNL     1      -2.676   0.677   0.776  1.00  0.00     0.068 C 
HETATM    2  C4  UNL     1      -2.817   2.225   0.995  1.00  0.00     0.047 C 
HETATM    3  O1  UNL     1      -3.867   0.292   0.246  1.00  0.00    -0.341 OA
HETATM    4  C5  UNL     1      -3.997   0.010  -1.059  1.00  0.00     0.220 C 
HETATM    5  C6  UNL     1      -4.722  -1.351  -1.148  1.00  0.00     0.082 C 
HETATM    6  C7  UNL     1      -4.788   0.935  -1.858  1.00  0.00     0.281 C 
HETATM    7  O2  UNL     1      -5.646   1.739  -1.440  1.00  0.00    -0.267 OA
HETATM    8  N1  UNL     1      -4.414   0.764  -3.208  1.00  0.00    -0.275 N 
ATOM      9  H1  UNL     1      -4.932   1.072  -4.031  1.00  0.00     0.173 HD
HETATM   10  C8  UNL     1      -3.170   0.076  -3.190  1.00  0.00     0.328 C 
HETATM   11  O3  UNL     1      -2.456  -0.293  -4.159  1.00  0.00    -0.247 OA
HETATM   12  N2  UNL     1      -2.787  -0.170  -1.838  1.00  0.00    -0.287 N 
HETATM   13  C9  UNL     1      -1.622  -0.522  -1.119  1.00  0.00     0.129 C 
HETATM   14  C10 UNL     1      -0.300  -0.201  -1.772  1.00  0.00     0.298 C 
HETATM   15  N3  UNL     1       0.600  -0.397  -0.612  1.00  0.00     0.093 N 
HETATM   16  C18 UNL     1      -0.181   0.106   0.536  1.00  0.00     0.282 C 
HETATM   17  C19 UNL     1      -1.476   0.521  -0.019  1.00  0.00     0.073 C 
ENDROOT
BRANCH  15  18
HETATM   18  C11 UNL     1       1.830   0.273  -0.818  1.00  0.00     0.304 C 
BRANCH  18  19
HETATM   19  C12 UNL     1       2.903  -0.122   0.107  1.00  0.00     0.155 C 
HETATM   20  C13 UNL     1       2.682   0.003   1.578  1.00  0.00     0.060 C 
HETATM   21  C14 UNL     1       4.014  -0.364   2.257  1.00  0.00     0.174 C 
HETATM   22  O4  UNL     1       4.740  -1.082   1.305  1.00  0.00    -0.356 OA
HETATM   23  C15 UNL     1       5.147  -0.249   0.260  1.00  0.00     0.157 C 
HETATM   24  C16 UNL     1       6.359   0.582   0.657  1.00  0.00     0.078 C 
HETATM   25  C17 UNL     1       5.550  -1.136  -0.892  1.00  0.00     0.078 C 
HETATM   26  O5  UNL     1       4.106   0.568  -0.169  1.00  0.00    -0.349 OA
ENDBRANCH  18  19
ENDBRANCH  15  18
BRANCH   1  27
HETATM   27  C2  UNL     1      -2.658   0.176   2.208  1.00  0.00     0.034 C 
HETATM   28  C1  UNL     1      -2.565  -1.309   2.281  1.00  0.00     0.008 C 
ENDBRANCH   1  27
TORSDOF 3
