REMARK  5 active torsions:
REMARK  status: ('A' for Active; 'I' for Inactive)
REMARK    1  A    between atoms: C2_2  and  C5_5 
REMARK       I    between atoms: C5_5  and  N1_7 
REMARK    2  A    between atoms: N1_7  and  C6_9 
REMARK    3  A    between atoms: C7_12  and  C8_13 
REMARK    4  A    between atoms: C8_13  and  N3_14 
REMARK    5  A    between atoms: C15_23  and  N5_24 
ROOT
HETATM    1  C6  UNL     1      -1.131  -0.475   0.081  1.00  0.00     0.701 A 
HETATM    2  N2  UNL     1       0.210  -0.370   0.010  1.00  0.00    -0.174 N 
ATOM      3  H2  UNL     1       0.767  -1.222  -0.050  1.00  0.00     0.186 HD
HETATM    4  C7  UNL     1       0.835   0.808   0.015  1.00  0.00     0.152 A 
HETATM    5  N4  UNL     1       0.044   1.925   0.097  1.00  0.00    -0.174 N 
ATOM      6  H4  UNL     1       0.484   2.845   0.104  1.00  0.00     0.186 HD
HETATM    7  C15 UNL     1      -1.297   1.839   0.168  1.00  0.00     0.696 A 
HETATM    8  N6  UNL     1      -1.909   0.616   0.161  1.00  0.00    -0.022 N 
ATOM      9  H6  UNL     1      -2.924   0.535   0.215  1.00  0.00     0.203 HD
ENDROOT
BRANCH   1  10
HETATM   10  N1  UNL     1      -1.671  -1.633   0.079  1.00  0.00    -0.158 N 
HETATM   11  C5  UNL     1      -3.054  -1.861   0.151  1.00  0.00     0.243 C 
HETATM   12  O1  UNL     1      -3.825  -0.975   0.565  1.00  0.00    -0.272 OA
ATOM     13  H1  UNL     1      -1.057  -2.445   0.021  1.00  0.00     0.187 HD
BRANCH  11  14
HETATM   14  C2  UNL     1      -3.574  -3.175  -0.279  1.00  0.00     0.031 C 
HETATM   15  C1  UNL     1      -5.069  -3.285  -0.261  1.00  0.00     0.025 C 
HETATM   16  C3  UNL     1      -3.024  -4.226   0.673  1.00  0.00     0.025 C 
HETATM   17  C4  UNL     1      -3.084  -3.414  -1.691  1.00  0.00     0.025 C 
ENDBRANCH  11  14
ENDBRANCH   1  10
BRANCH   4  18
HETATM   18  C8  UNL     1       2.281   1.046  -0.050  1.00  0.00     0.139 C 
BRANCH  18  19
HETATM   19  N3  UNL     1       3.143  -0.014   0.243  1.00  0.00    -0.367 N 
HETATM   20  C9  UNL     1       3.184  -1.158  -0.573  1.00  0.00     0.063 C 
HETATM   21  C10 UNL     1       3.856  -2.279   0.209  1.00  0.00     0.044 C 
HETATM   22  C11 UNL     1       5.326  -2.176   0.316  1.00  0.00     0.005 C 
HETATM   23  C12 UNL     1       5.996  -1.142  -0.523  1.00  0.00     0.002 C 
HETATM   24  C13 UNL     1       5.558   0.263  -0.223  1.00  0.00     0.020 C 
HETATM   25  C14 UNL     1       4.419   0.315   0.767  1.00  0.00     0.127 C 
ENDBRANCH  18  19
ENDBRANCH   4  18
BRANCH   7  26
HETATM   26  N5  UNL     1      -2.018   3.043   0.263  1.00  0.00    -0.213 N 
HETATM   27  C16 UNL     1      -2.268   3.838  -0.911  1.00  0.00     0.167 C 
HETATM   28  C17 UNL     1      -2.161   5.303  -0.476  1.00  0.00     0.188 C 
HETATM   29  O2  UNL     1      -3.061   5.624   0.511  1.00  0.00    -0.388 OA
HETATM   30  C18 UNL     1      -3.557   4.567   1.228  1.00  0.00     0.188 C 
HETATM   31  C19 UNL     1      -2.521   3.493   1.529  1.00  0.00     0.167 C 
ENDBRANCH   7  26
TORSDOF 5
