REMARK  3 active torsions:
REMARK  status: ('A' for Active; 'I' for Inactive)
REMARK    1  A    between atoms: O1_2  and  C2_3 
REMARK    2  A    between atoms: C18_24  and  O5_25 
REMARK    3  A    between atoms: O5_25  and  C19_26 
ROOT
HETATM    1  C2  UNL     1      -1.849  -0.711  -0.234  1.00  0.00     0.114 C 
HETATM    2  C3  UNL     1      -1.705  -0.082   1.154  1.00  0.00     0.051 C 
HETATM    3  C4  UNL     1      -0.182  -0.007   1.412  1.00  0.00     0.025 C 
HETATM    4  C5  UNL     1       0.045  -1.444   1.817  1.00  0.00     0.008 C 
HETATM    5  C6  UNL     1      -0.528  -2.437   0.846  1.00  0.00     0.008 C 
HETATM    6  C7  UNL     1      -0.982  -1.912  -0.458  1.00  0.00     0.025 C 
HETATM    7  C8  UNL     1       0.051  -1.857  -1.532  1.00  0.00     0.010 C 
HETATM    8  C9  UNL     1       1.472  -1.719  -1.202  1.00  0.00     0.033 C 
HETATM    9  C10 UNL     1       2.154  -0.440  -1.070  1.00  0.00     0.134 C 
HETATM   10  O2  UNL     1       1.952   0.596  -1.898  1.00  0.00    -0.370 OA
HETATM   11  C11 UNL     1       2.273   1.781  -1.182  1.00  0.00     0.221 C 
HETATM   12  C12 UNL     1       3.745   1.787  -1.026  1.00  0.00     0.247 C 
HETATM   13  O3  UNL     1       4.384   2.237  -1.992  1.00  0.00    -0.271 OA
HETATM   14  N1  UNL     1       4.471   1.339   0.094  1.00  0.00    -0.359 N 
ATOM     15  H1  UNL     1       5.479   1.250  -0.038  1.00  0.00     0.162 HD
HETATM   16  C13 UNL     1       3.984   0.994   1.386  1.00  0.00     0.123 C 
HETATM   17  C14 UNL     1       2.821   0.048   1.396  1.00  0.00     0.035 C 
HETATM   18  C15 UNL     1       1.875   0.124   0.298  1.00  0.00     0.029 A 
HETATM   19  C16 UNL     1       1.578   1.580   0.175  1.00  0.00     0.074 A 
HETATM   20  C17 UNL     1       0.473   0.551   0.279  1.00  0.00     0.086 A 
HETATM   21  O4  UNL     1      -0.170   0.688  -0.894  1.00  0.00    -0.345 OA
HETATM   22  C18 UNL     1      -1.429   0.474  -1.122  1.00  0.00     0.305 C 
ENDROOT
BRANCH  22  23
HETATM   23  O5  UNL     1      -2.329   1.533  -0.753  1.00  0.00    -0.287 OA
BRANCH  23  24
HETATM   24  C19 UNL     1      -3.232   2.097  -1.628  1.00  0.00     0.257 C 
HETATM   25  C20 UNL     1      -4.159   3.181  -1.260  1.00  0.00     0.126 C 
HETATM   26  O6  UNL     1      -3.250   1.643  -2.808  1.00  0.00    -0.266 OA
ENDBRANCH  23  24
ENDBRANCH  22  23
BRANCH   1  27
HETATM   27  O1  UNL     1      -3.181  -0.863  -0.499  1.00  0.00    -0.380 OA
HETATM   28  C1  UNL     1      -3.923  -1.636   0.320  1.00  0.00     0.202 C 
ENDBRANCH   1  27
TORSDOF 3
