REMARK  5 active torsions:
REMARK  status: ('A' for Active; 'I' for Inactive)
REMARK    1  A    between atoms: C2_2  and  O1_5 
REMARK    2  A    between atoms: O1_5  and  C5_6 
REMARK       I    between atoms: C5_6  and  N1_8 
REMARK    3  A    between atoms: C8_11  and  C9_12 
REMARK       I    between atoms: C9_12  and  N2_14 
REMARK    4  A    between atoms: N2_14  and  C10_16 
REMARK    5  A    between atoms: C10_16  and  C11_17 
ROOT
HETATM    1  C5  UNL     1      -3.107  -1.046  -0.586  1.00  0.00     0.364 C 
HETATM    2  O2  UNL     1      -3.942  -1.979  -0.856  1.00  0.00    -0.238 OA
HETATM    3  N1  UNL     1      -1.723  -1.201  -0.830  1.00  0.00    -0.315 N 
HETATM    4  C6  UNL     1      -1.122  -2.386  -1.390  1.00  0.00     0.130 C 
HETATM    5  C7  UNL     1       0.314  -2.362  -0.914  1.00  0.00     0.036 C 
HETATM    6  C8  UNL     1       0.613  -0.873  -0.930  1.00  0.00     0.110 C 
HETATM    7  C15 UNL     1      -0.704  -0.213  -0.563  1.00  0.00     0.073 C 
HETATM    8  C16 UNL     1      -0.955   0.995  -1.408  1.00  0.00     0.060 C 
HETATM    9  C17 UNL     1      -1.140   2.108  -0.447  1.00  0.00     0.170 C 
HETATM   10  O6  UNL     1      -0.860   1.679   0.814  1.00  0.00    -0.389 OA
HETATM   11  C18 UNL     1      -0.754   0.316   0.828  1.00  0.00     0.199 C 
ENDROOT
BRANCH   6  12
HETATM   12  C9  UNL     1       1.683  -0.583   0.051  1.00  0.00     0.224 C 
HETATM   13  O3  UNL     1       2.064  -1.503   0.801  1.00  0.00    -0.273 OA
HETATM   14  N2  UNL     1       2.263   0.705   0.140  1.00  0.00    -0.358 N 
ATOM     15  H2  UNL     1       1.911   1.418  -0.498  1.00  0.00     0.162 HD
BRANCH  14  16
HETATM   16  C10 UNL     1       3.298   1.095   1.044  1.00  0.00     0.156 C 
BRANCH  16  17
HETATM   17  C11 UNL     1       4.549   0.301   0.809  1.00  0.00     0.163 C 
HETATM   18  C12 UNL     1       5.612   0.680   1.824  1.00  0.00     0.201 C 
HETATM   19  O4  UNL     1       6.537   1.574   1.297  1.00  0.00    -0.386 OA
HETATM   20  C13 UNL     1       7.183   1.061   0.178  1.00  0.00     0.193 C 
HETATM   21  C14 UNL     1       6.313   0.055  -0.556  1.00  0.00     0.194 C 
HETATM   22  O5  UNL     1       5.005   0.491  -0.494  1.00  0.00    -0.380 OA
ENDBRANCH  16  17
ENDBRANCH  14  16
ENDBRANCH   6  12
BRANCH   1  23
HETATM   23  O1  UNL     1      -3.695   0.086  -0.049  1.00  0.00    -0.294 OA
BRANCH  23  24
HETATM   24  C2  UNL     1      -5.055   0.255   0.198  1.00  0.00     0.061 C 
HETATM   25  C1  UNL     1      -5.910   0.139  -1.043  1.00  0.00     0.046 C 
HETATM   26  C3  UNL     1      -5.614  -0.655   1.246  1.00  0.00     0.046 C 
HETATM   27  C4  UNL     1      -5.239   1.693   0.702  1.00  0.00     0.046 C 
ENDBRANCH  23  24
ENDBRANCH   1  23
TORSDOF 5
