REMARK  11 active torsions:
REMARK  status: ('A' for Active; 'I' for Inactive)
REMARK    1  A    between atoms: N1_2  and  O1_3 
REMARK    2  A    between atoms: N1_2  and  C2_5 
REMARK    3  A    between atoms: C2_5  and  O2_6 
REMARK    4  A    between atoms: C2_5  and  C3_8 
REMARK    5  A    between atoms: N2_11  and  C6_12 
REMARK    6  A    between atoms: C6_12  and  O3_13 
REMARK    7  A    between atoms: C6_12  and  C7_15 
REMARK    8  A    between atoms: C7_15  and  N3_16 
REMARK    9  A    between atoms: C7_15  and  C8_20 
REMARK   10  A    between atoms: C8_20  and  N4_21 
REMARK   11  A    between atoms: C8_20  and  C9_25 
ROOT
HETATM    1  C7  UNL     1       0.448   0.307   1.886  1.00  0.00     0.263 C 
ENDROOT
BRANCH   1   2
HETATM    2  C6  UNL     1       1.879   0.132   2.308  1.00  0.00     0.272 C 
BRANCH   2   3
HETATM    3  N2  UNL     1       2.861   0.348   1.273  1.00  0.00    -0.272 N 
HETATM    4  C5  UNL     1       3.775  -0.566   0.930  1.00  0.00     0.114 A 
HETATM    5  C4  UNL     1       4.744  -0.384  -0.054  1.00  0.00     0.036 A 
HETATM    6  C3  UNL     1       4.787   0.792  -0.725  1.00  0.00     0.035 A 
HETATM    7  C18 UNL     1       3.801   1.734  -0.331  1.00  0.00     0.123 A 
HETATM    8  N6  UNL     1       2.904   1.488   0.621  1.00  0.00    -0.307 N 
ATOM      9  H6  UNL     1       2.224   2.212   0.853  1.00  0.00     0.186 HD
BRANCH   6  10
HETATM   10  C2  UNL     1       5.716   1.154  -1.766  1.00  0.00     0.173 C 
BRANCH  10  11
HETATM   11  N1  UNL     1       6.749   0.437  -2.313  1.00  0.00    -0.243 N 
HETATM   12  C1  UNL     1       7.207  -0.870  -2.014  1.00  0.00     0.188 C 
BRANCH  11  13
HETATM   13  O1  UNL     1       7.474   1.080  -3.325  1.00  0.00    -0.286 OA
ATOM     14  H1  UNL     1       7.167   1.956  -3.525  1.00  0.00     0.244 HD
ENDBRANCH  11  13
ENDBRANCH  10  11
BRANCH  10  15
HETATM   15  O2  UNL     1       5.566   2.362  -2.287  1.00  0.00    -0.344 OA
ATOM     16  H2  UNL     1       4.850   2.859  -1.908  1.00  0.00     0.219 HD
ENDBRANCH  10  15
ENDBRANCH   6  10
ENDBRANCH   2   3
BRANCH   2  17
HETATM   17  O3  UNL     1       2.051  -1.180   2.764  1.00  0.00    -0.373 OA
ATOM     18  H3  UNL     1       1.404  -1.322   3.445  1.00  0.00     0.212 HD
ENDBRANCH   2  17
ENDBRANCH   1   2
BRANCH   1  19
HETATM   19  N3  UNL     1       0.326   1.681   1.403  1.00  0.00    -0.069 N 
ATOM     20  H33 UNL     1       0.636   2.377   2.081  1.00  0.00     0.275 HD
ATOM     21  H32 UNL     1       0.995   1.913   0.669  1.00  0.00     0.275 HD
ATOM     22  H31 UNL     1      -0.646   1.800   1.116  1.00  0.00     0.275 HD
ENDBRANCH   1  19
BRANCH   1  23
HETATM   23  C8  UNL     1       0.036  -0.723   0.917  1.00  0.00     0.223 C 
BRANCH  23  24
HETATM   24  N4  UNL     1       0.842  -0.648  -0.280  1.00  0.00    -0.072 N 
ATOM     25  H43 UNL     1       0.824   0.286  -0.690  1.00  0.00     0.274 HD
ATOM     26  H42 UNL     1       1.838  -0.704  -0.069  1.00  0.00     0.274 HD
ATOM     27  H41 UNL     1       0.557  -1.361  -0.951  1.00  0.00     0.274 HD
ENDBRANCH  23  24
BRANCH  23  28
HETATM   28  C9  UNL     1      -1.426  -0.797   0.588  1.00  0.00     0.044 C 
HETATM   29  C10 UNL     1      -2.221  -1.087   1.831  1.00  0.00     0.010 C 
HETATM   30  C11 UNL     1      -3.304  -0.040   1.946  1.00  0.00     0.028 C 
HETATM   31  C12 UNL     1      -4.141  -0.123   0.690  1.00  0.00     0.237 C 
HETATM   32  N5  UNL     1      -3.362   0.037  -0.518  1.00  0.00    -0.063 N 
HETATM   33  C13 UNL     1      -3.471  -1.082  -1.416  1.00  0.00     0.263 C 
HETATM   34  C16 UNL     1      -3.909   1.211  -1.205  1.00  0.00     0.263 C 
HETATM   35  C17 UNL     1      -1.967   0.332  -0.217  1.00  0.00     0.244 C 
HETATM   36  C14 UNL     1      -4.773  -1.159  -2.144  1.00  0.00     0.195 C 
HETATM   37  O4  UNL     1      -5.155   0.010  -2.769  1.00  0.00    -0.388 OA
HETATM   38  C15 UNL     1      -5.280   0.978  -1.746  1.00  0.00     0.195 C 
ENDBRANCH  23  28
ENDBRANCH   1  23
TORSDOF 11
