REMARK  10 active torsions:
REMARK  status: ('A' for Active; 'I' for Inactive)
REMARK    1  A    between atoms: C2_2  and  C3_3 
REMARK    2  A    between atoms: C3_3  and  N1_4 
REMARK    3  A    between atoms: N1_4  and  C4_5 
REMARK    4  A    between atoms: C6_9  and  O1_10 
REMARK    5  A    between atoms: N3_14  and  C9_15 
REMARK    6  A    between atoms: C9_15  and  O2_16 
REMARK    7  A    between atoms: C9_15  and  C10_18 
REMARK    8  A    between atoms: C10_18  and  C11_19 
REMARK    9  A    between atoms: C13_24  and  C14_25 
REMARK   10  A    between atoms: C14_25  and  N5_26 
ROOT
HETATM    1  C9  UNL     1      -2.055   0.532  -0.064  1.00  0.00     0.126 C 
ENDROOT
BRANCH   1   2
HETATM    2  N3  UNL     1      -3.101  -0.303  -0.351  1.00  0.00    -0.258 N 
HETATM    3  C4  UNL     1      -4.333  -0.394   0.459  1.00  0.00     0.258 C 
HETATM    4  N2  UNL     1      -5.245  -1.435  -0.055  1.00  0.00    -0.347 N 
HETATM    5  C5  UNL     1      -4.709  -2.730  -0.347  1.00  0.00     0.161 C 
ATOM      6  H2  UNL     1      -6.235  -1.236  -0.199  1.00  0.00     0.163 HD
HETATM    7  C6  UNL     1      -3.543  -2.640  -1.313  1.00  0.00     0.185 C 
HETATM    8  C7  UNL     1      -3.094  -1.228  -1.446  1.00  0.00     0.043 C 
HETATM    9  C8  UNL     1      -2.702  -0.808  -2.613  1.00  0.00     0.041 C 
BRANCH   3  10
HETATM   10  N1  UNL     1      -4.616   0.311   1.367  1.00  0.00    -0.412 NA
BRANCH  10  11
HETATM   11  C3  UNL     1      -4.952   1.108   2.403  1.00  0.00     0.248 C 
BRANCH  11  12
HETATM   12  C2  UNL     1      -5.624   2.356   1.779  1.00  0.00    -0.004 C 
HETATM   13  C1  UNL     1      -5.217   3.503   1.961  1.00  0.00     0.009 C 
ENDBRANCH  11  12
ENDBRANCH  10  11
ENDBRANCH   3  10
BRANCH   7  14
HETATM   14  O1  UNL     1      -2.486  -3.395  -0.847  1.00  0.00    -0.388 OA
ATOM     15  H1  UNL     1      -1.756  -3.339  -1.452  1.00  0.00     0.210 HD
ENDBRANCH   7  14
ENDBRANCH   1   2
BRANCH   1  16
HETATM   16  O2  UNL     1      -2.273   1.259   1.025  1.00  0.00    -0.349 OA
ATOM     17  H2  UNL     1      -1.547   1.839   1.224  1.00  0.00     0.219 HD
ENDBRANCH   1  16
BRANCH   1  18
HETATM   18  C10 UNL     1      -0.766   0.842  -0.624  1.00  0.00     0.091 C 
BRANCH  18  19
HETATM   19  C11 UNL     1       0.164  -0.276  -0.878  1.00  0.00     0.021 C 
HETATM   20  C12 UNL     1       0.506  -1.148   0.308  1.00  0.00     0.238 C 
HETATM   21  N4  UNL     1       1.578  -1.949  -0.355  1.00  0.00    -0.066 N 
HETATM   22  C13 UNL     1       2.482  -0.836  -0.712  1.00  0.00     0.224 C 
ATOM     23  H42 UNL     1       1.984  -2.709   0.191  1.00  0.00     0.278 HD
ATOM     24  H41 UNL     1       1.285  -2.561  -1.116  1.00  0.00     0.278 HD
HETATM   25  C19 UNL     1       1.628   0.348  -1.006  1.00  0.00     0.045 C 
BRANCH  22  26
HETATM   26  C14 UNL     1       3.483  -0.694   0.369  1.00  0.00     0.091 C 
BRANCH  26  27
HETATM   27  N5  UNL     1       4.441   0.326   0.285  1.00  0.00    -0.387 N 
HETATM   28  C15 UNL     1       5.437   0.307   1.320  1.00  0.00     0.148 C 
HETATM   29  C16 UNL     1       6.821   0.370   0.731  1.00  0.00     0.187 C 
HETATM   30  O3  UNL     1       7.010   1.583   0.080  1.00  0.00    -0.388 OA
HETATM   31  C17 UNL     1       5.881   1.940  -0.631  1.00  0.00     0.187 C 
HETATM   32  C18 UNL     1       5.004   0.712  -0.939  1.00  0.00     0.148 C 
ENDBRANCH  26  27
ENDBRANCH  22  26
ENDBRANCH  18  19
ENDBRANCH   1  18
TORSDOF 10
