REMARK  6 active torsions:
REMARK  status: ('A' for Active; 'I' for Inactive)
REMARK    1  A    between atoms: C4_4  and  N1_5 
REMARK    2  A    between atoms: C9_13  and  S1_14 
REMARK    3  A    between atoms: C11_18  and  N4_19 
REMARK    4  A    between atoms: N4_19  and  N5_21 
REMARK    5  A    between atoms: N5_21  and  C12_23 
REMARK    6  A    between atoms: C12_23  and  N6_25 
ROOT
HETATM    1  C1  UNL     1      -1.873   2.934  -1.818  1.00  0.00     0.103 C 
HETATM    2  C2  UNL     1      -1.774   1.846  -1.260  1.00  0.00    -0.141 C 
HETATM    3  C3  UNL     1      -1.627   0.577  -0.603  1.00  0.00     0.094 A 
HETATM    4  C4  UNL     1      -2.737  -0.090  -0.156  1.00  0.00     0.127 A 
HETATM    5  N2  UNL     1      -2.561  -1.290   0.469  1.00  0.00    -0.322 N 
ATOM      6  H2  UNL     1      -3.377  -1.800   0.807  1.00  0.00     0.169 HD
HETATM    7  C9  UNL     1      -1.335  -1.815   0.649  1.00  0.00     0.147 A 
HETATM    8  N3  UNL     1      -0.271  -1.141   0.202  1.00  0.00    -0.321 N 
ATOM      9  H3  UNL     1       0.651  -1.553   0.345  1.00  0.00     0.169 HD
HETATM   10  C11 UNL     1      -0.341   0.042  -0.422  1.00  0.00     0.143 A 
ENDROOT
BRANCH   4  11
HETATM   11  N1  UNL     1      -4.023   0.445  -0.342  1.00  0.00    -0.362 N 
HETATM   12  C5  UNL     1      -4.535   0.656  -1.691  1.00  0.00     0.150 C 
HETATM   13  C6  UNL     1      -5.891  -0.033  -1.789  1.00  0.00     0.187 C 
HETATM   14  O1  UNL     1      -6.727   0.649  -0.888  1.00  0.00    -0.388 OA
HETATM   15  C7  UNL     1      -6.348   0.299   0.403  1.00  0.00     0.187 C 
HETATM   16  C8  UNL     1      -4.938   0.817   0.725  1.00  0.00     0.150 C 
ENDBRANCH   4  11
BRANCH  10  17
HETATM   17  N4  UNL     1       0.670   0.702  -0.857  1.00  0.00    -0.282 N 
ATOM     18  H4  UNL     1       0.484   1.593  -1.317  1.00  0.00     0.188 HD
BRANCH  17  19
HETATM   19  N5  UNL     1       1.980   0.308  -0.755  1.00  0.00    -0.275 N 
ATOM     20  H5  UNL     1       2.273  -0.591  -1.137  1.00  0.00     0.189 HD
BRANCH  19  21
HETATM   21  C12 UNL     1       2.936   1.159  -0.113  1.00  0.00     0.188 C 
HETATM   22  S2  UNL     1       2.435   2.592   0.488  1.00  0.00    -0.039 SA
BRANCH  21  23
HETATM   23  N6  UNL     1       4.297   0.787   0.013  1.00  0.00    -0.353 N 
HETATM   24  C13 UNL     1       5.223   1.680   0.669  1.00  0.00     0.151 C 
HETATM   25  C14 UNL     1       5.845   0.927   1.846  1.00  0.00     0.187 C 
HETATM   26  O2  UNL     1       6.043  -0.410   1.564  1.00  0.00    -0.388 OA
HETATM   27  C15 UNL     1       6.141  -0.702   0.222  1.00  0.00     0.187 C 
HETATM   28  C16 UNL     1       4.806  -0.471  -0.498  1.00  0.00     0.151 C 
ENDBRANCH  21  23
ENDBRANCH  19  21
ENDBRANCH  17  19
ENDBRANCH  10  17
BRANCH   7  29
HETATM   29  S1  UNL     1      -1.150  -3.406   1.482  1.00  0.00    -0.098 SA
HETATM   30  C10 UNL     1       0.602  -3.829   1.564  1.00  0.00     0.099 C 
ENDBRANCH   7  29
TORSDOF 6
