REMARK  3 active torsions:
REMARK  status: ('A' for Active; 'I' for Inactive)
REMARK    1  A    between atoms: C2_2  and  N1_3 
REMARK    2  A    between atoms: N2_6  and  C5_7 
REMARK    3  A    between atoms: C7_16  and  N6_17 
REMARK       I    between atoms: N8_29  and  C17_30 
ROOT
HETATM    1  C5  UNL     1       0.851  -0.145   0.809  1.00  0.00     0.709 A 
HETATM    2  N3  UNL     1       0.577   0.055   2.124  1.00  0.00    -0.022 N 
ATOM      3  H3  UNL     1      -0.397   0.066   2.428  1.00  0.00     0.203 HD
HETATM    4  C6  UNL     1       1.540   0.238   3.035  1.00  0.00     0.705 A 
HETATM    5  N4  UNL     1       1.330   0.438   4.276  1.00  0.00    -0.234 N 
ATOM      6  H41 UNL     1       2.064   0.577   4.970  1.00  0.00     0.174 HD
ATOM      7  H42 UNL     1       0.376   0.460   4.638  1.00  0.00     0.174 HD
HETATM    8  N5  UNL     1       2.819   0.209   2.550  1.00  0.00    -0.022 N 
ATOM      9  H5  UNL     1       3.585   0.344   3.209  1.00  0.00     0.203 HD
HETATM   10  C7  UNL     1       3.121   0.016   1.276  1.00  0.00     0.709 A 
HETATM   11  N7  UNL     1       2.122  -0.163   0.399  1.00  0.00    -0.021 N 
ATOM     12  H7  UNL     1       2.334  -0.314  -0.587  1.00  0.00     0.203 HD
ENDROOT
BRANCH   1  13
HETATM   13  N2  UNL     1      -0.275  -0.320  -0.055  1.00  0.00    -0.214 N 
HETATM   14  C4  UNL     1      -0.190  -1.544  -0.831  1.00  0.00     0.161 C 
HETATM   15  C3  UNL     1      -1.421  -1.567  -1.716  1.00  0.00     0.147 C 
HETATM   16  N1  UNL     1      -2.603  -1.882  -1.008  1.00  0.00    -0.372 N 
HETATM   17  C15 UNL     1      -3.016  -1.071   0.048  1.00  0.00     0.077 C 
HETATM   18  C14 UNL     1      -2.657   0.372  -0.158  1.00  0.00     0.041 C 
HETATM   19  C13 UNL     1      -1.231   0.728   0.021  1.00  0.00     0.159 C 
HETATM   20  C16 UNL     1      -3.521   1.235   0.758  1.00  0.00     0.144 C 
HETATM   21  C19 UNL     1      -3.354   1.067  -1.301  1.00  0.00     0.144 C 
HETATM   22  N8  UNL     1      -3.943   2.032  -0.386  1.00  0.00    -0.350 N 
HETATM   23  C17 UNL     1      -4.653   3.247  -0.487  1.00  0.00     0.215 C 
HETATM   24  C18 UNL     1      -5.117   3.943   0.731  1.00  0.00     0.117 C 
HETATM   25  O1  UNL     1      -4.890   3.736  -1.613  1.00  0.00    -0.274 OA
BRANCH  16  26
HETATM   26  C2  UNL     1      -3.300  -3.033  -1.375  1.00  0.00     0.059 C 
HETATM   27  C1  UNL     1      -4.529  -3.393  -0.624  1.00  0.00     0.055 C 
ENDBRANCH  16  26
ENDBRANCH   1  13
BRANCH  10  28
HETATM   28  N6  UNL     1       4.471  -0.001   0.887  1.00  0.00    -0.217 N 
HETATM   29  C8  UNL     1       5.198   1.277   0.760  1.00  0.00     0.141 C 
HETATM   30  C9  UNL     1       5.355   1.455  -0.755  1.00  0.00     0.020 C 
HETATM   31  C10 UNL     1       6.195   0.302  -1.252  1.00  0.00     0.003 C 
HETATM   32  C11 UNL     1       6.460  -0.750  -0.226  1.00  0.00     0.020 C 
HETATM   33  C12 UNL     1       5.254  -1.172   0.574  1.00  0.00     0.141 C 
ENDBRANCH  10  28
TORSDOF 3
