REMARK  5 active torsions:
REMARK  status: ('A' for Active; 'I' for Inactive)
REMARK    1  A    between atoms: C2_3  and  C3_4 
REMARK    2  A    between atoms: C3_4  and  N2_5 
REMARK    3  A    between atoms: N3_13  and  C10_14 
REMARK    4  A    between atoms: C10_14  and  O2_15 
REMARK    5  A    between atoms: C10_14  and  C11_17 
ROOT
HETATM    1  N1  UNL     1      -5.552  -0.971   1.338  1.00  0.00    -0.196 NA
HETATM    2  C1  UNL     1      -4.804  -0.659   0.511  1.00  0.00     0.071 C 
HETATM    3  C2  UNL     1      -3.898  -0.279  -0.539  1.00  0.00     0.065 C 
HETATM    4  C16 UNL     1      -4.728   0.269  -1.683  1.00  0.00     0.026 C 
HETATM    5  C17 UNL     1      -4.752  -0.886  -2.694  1.00  0.00     0.002 C 
HETATM    6  C18 UNL     1      -3.283  -1.324  -2.584  1.00  0.00     0.002 C 
HETATM    7  C19 UNL     1      -3.187  -1.515  -1.088  1.00  0.00     0.026 C 
ENDROOT
BRANCH   3   8
HETATM    8  C3  UNL     1      -2.849   0.706  -0.157  1.00  0.00     0.148 C 
BRANCH   8   9
HETATM    9  N2  UNL     1      -1.958   0.316   0.867  1.00  0.00    -0.369 N 
HETATM   10  C4  UNL     1      -2.412   0.176   2.175  1.00  0.00     0.224 C 
HETATM   11  O1  UNL     1      -1.548   0.574   3.183  1.00  0.00    -0.346 OA
HETATM   12  C5  UNL     1      -0.603   1.484   2.744  1.00  0.00     0.189 C 
HETATM   13  C6  UNL     1       0.293   0.716   1.789  1.00  0.00     0.014 C 
HETATM   14  C7  UNL     1       0.711  -0.616   2.388  1.00  0.00     0.016 C 
HETATM   15  C14 UNL     1       1.498   1.492   1.395  1.00  0.00     0.138 C 
HETATM   16  C15 UNL     1      -0.576   0.405   0.592  1.00  0.00     0.137 C 
HETATM   17  C8  UNL     1       2.069  -0.442   2.985  1.00  0.00     0.021 C 
HETATM   18  C9  UNL     1       3.044  -0.433   1.777  1.00  0.00     0.125 C 
HETATM   19  N3  UNL     1       2.611   0.636   0.924  1.00  0.00    -0.358 N 
BRANCH  19  20
HETATM   20  C10 UNL     1       3.178   0.929  -0.322  1.00  0.00     0.184 C 
BRANCH  20  21
HETATM   21  O2  UNL     1       2.632   1.948  -0.968  1.00  0.00    -0.343 OA
ATOM     22  H2  UNL     1       3.017   2.147  -1.814  1.00  0.00     0.219 HD
ENDBRANCH  20  21
BRANCH  20  23
HETATM   23  C11 UNL     1       4.258   0.297  -1.009  1.00  0.00     0.173 A 
HETATM   24  N4  UNL     1       4.547   0.780  -2.263  1.00  0.00    -0.172 N 
HETATM   25  C12 UNL     1       5.497   0.290  -3.033  1.00  0.00     0.678 A 
ATOM     26  H4  UNL     1       3.995   1.561  -2.617  1.00  0.00     0.186 HD
HETATM   27  N5  UNL     1       5.729   0.779  -4.207  1.00  0.00    -0.234 N 
HETATM   28  N6  UNL     1       6.253  -0.733  -2.622  1.00  0.00    -0.188 N 
ATOM     29  H52 UNL     1       5.152   1.560  -4.521  1.00  0.00     0.174 HD
ATOM     30  H51 UNL     1       6.465   0.400  -4.803  1.00  0.00     0.174 HD
HETATM   31  C13 UNL     1       6.012  -1.243  -1.400  1.00  0.00     0.199 A 
ATOM     32  H6  UNL     1       6.989  -1.115  -3.216  1.00  0.00     0.185 HD
HETATM   33  N7  UNL     1       5.024  -0.721  -0.620  1.00  0.00    -0.334 N 
ATOM     34  H7  UNL     1       4.864  -1.127   0.302  1.00  0.00     0.168 HD
ENDBRANCH  20  23
ENDBRANCH  19  20
ENDBRANCH   8   9
ENDBRANCH   3   8
TORSDOF 5
