REMARK  4 active torsions:
REMARK  status: ('A' for Active; 'I' for Inactive)
REMARK    1  A    between atoms: N1_7  and  C6_8 
REMARK    2  A    between atoms: C7_11  and  N3_12 
REMARK    3  A    between atoms: C15_22  and  N5_23 
REMARK    4  A    between atoms: N5_23  and  C16_25 
ROOT
HETATM    1  C6  UNL     1       0.125   1.423   0.142  1.00  0.00     0.709 A 
HETATM    2  N2  UNL     1      -1.036   0.807   0.403  1.00  0.00    -0.021 N 
ATOM      3  H2  UNL     1      -1.874   1.383   0.485  1.00  0.00     0.203 HD
HETATM    4  C7  UNL     1      -1.167  -0.521   0.564  1.00  0.00     0.709 A 
HETATM    5  N4  UNL     1      -0.041  -1.253   0.450  1.00  0.00    -0.021 N 
ATOM      6  H4  UNL     1      -0.101  -2.265   0.566  1.00  0.00     0.203 HD
HETATM    7  C15 UNL     1       1.159  -0.704   0.189  1.00  0.00     0.707 A 
HETATM    8  N7  UNL     1       1.214   0.631   0.041  1.00  0.00    -0.021 N 
ATOM      9  H7  UNL     1       2.116   1.064  -0.156  1.00  0.00     0.203 HD
ENDROOT
BRANCH   7  10
HETATM   10  N5  UNL     1       2.174  -1.459   0.096  1.00  0.00    -0.220 N 
ATOM     11  H5  UNL     1       2.006  -2.456   0.228  1.00  0.00     0.178 HD
BRANCH  10  12
HETATM   12  C16 UNL     1       3.517  -1.079  -0.170  1.00  0.00     0.102 C 
HETATM   13  C17 UNL     1       4.088  -1.825  -1.352  1.00  0.00     0.053 C 
HETATM   14  C18 UNL     1       5.558  -1.637  -1.510  1.00  0.00     0.234 C 
HETATM   15  N6  UNL     1       6.254  -1.325  -0.294  1.00  0.00    -0.075 N 
HETATM   16  C19 UNL     1       5.621  -2.042   0.788  1.00  0.00     0.234 C 
ATOM     17  H62 UNL     1       7.255  -1.511  -0.356  1.00  0.00     0.277 HD
ATOM     18  H61 UNL     1       6.310  -0.321  -0.120  1.00  0.00     0.277 HD
HETATM   19  C20 UNL     1       4.320  -1.341   1.095  1.00  0.00     0.053 C 
ENDBRANCH  10  12
ENDBRANCH   7  10
BRANCH   4  20
HETATM   20  N3  UNL     1      -2.434  -1.105   0.839  1.00  0.00    -0.212 N 
HETATM   21  C8  UNL     1      -3.676  -0.370   0.973  1.00  0.00     0.146 C 
HETATM   22  C9  UNL     1      -4.763  -1.406   1.006  1.00  0.00     0.006 C 
HETATM   23  C10 UNL     1      -5.044  -1.836  -0.415  1.00  0.00     0.006 C 
HETATM   24  C14 UNL     1      -4.077  -2.563   1.714  1.00  0.00     0.032 C 
HETATM   25  C11 UNL     1      -4.327  -3.106  -0.782  1.00  0.00     0.002 C 
HETATM   26  C12 UNL     1      -2.892  -3.131  -0.334  1.00  0.00     0.026 C 
HETATM   27  C13 UNL     1      -2.703  -2.515   1.032  1.00  0.00     0.102 C 
ENDBRANCH   4  20
BRANCH   1  28
HETATM   28  N1  UNL     1       0.183   2.828  -0.015  1.00  0.00    -0.208 N 
HETATM   29  C2  UNL     1      -1.025   3.603   0.109  1.00  0.00     0.122 C 
HETATM   30  C1  UNL     1      -1.065   4.122   1.539  1.00  0.00     0.035 C 
HETATM   31  C3  UNL     1      -1.101   4.744  -0.883  1.00  0.00     0.193 C 
HETATM   32  O1  UNL     1       0.072   5.455  -0.833  1.00  0.00    -0.388 OA
HETATM   33  C4  UNL     1       1.123   4.642  -1.277  1.00  0.00     0.188 C 
HETATM   34  C5  UNL     1       1.412   3.531  -0.294  1.00  0.00     0.168 C 
ENDBRANCH   1  28
TORSDOF 4
