REMARK  4 active torsions:
REMARK  status: ('A' for Active; 'I' for Inactive)
REMARK    1  A    between atoms: N1_1  and  C1_4 
REMARK    2  A    between atoms: N4_12  and  C5_13 
REMARK       I    between atoms: N5_16  and  C8_17 
REMARK    3  A    between atoms: C8_17  and  C9_19 
REMARK    4  A    between atoms: N6_28  and  C17_29 
ROOT
HETATM    1  C1  UNL     1      -1.052  -0.314  -2.239  1.00  0.00     0.130 A 
HETATM    2  N2  UNL     1      -1.790  -0.881  -3.210  1.00  0.00    -0.337 N 
ATOM      3  H2  UNL     1      -1.366  -1.188  -4.085  1.00  0.00     0.168 HD
HETATM    4  C2  UNL     1      -3.132  -1.031  -2.981  1.00  0.00     0.183 A 
HETATM    5  N3  UNL     1      -3.664  -0.617  -1.820  1.00  0.00    -0.337 N 
ATOM      6  H3  UNL     1      -4.667  -0.747  -1.691  1.00  0.00     0.168 HD
HETATM    7  C3  UNL     1      -2.983  -0.047  -0.819  1.00  0.00     0.135 A 
HETATM    8  C4  UNL     1      -1.596   0.111  -1.048  1.00  0.00     0.119 A 
HETATM    9  N4  UNL     1      -0.794   0.712  -0.031  1.00  0.00    -0.368 N 
HETATM   10  C15 UNL     1      -1.594   1.642   0.774  1.00  0.00     0.143 C 
HETATM   11  C16 UNL     1      -2.759   0.931   1.416  1.00  0.00     0.145 C 
HETATM   12  N6  UNL     1      -3.610   0.375   0.373  1.00  0.00    -0.359 N 
ENDROOT
BRANCH   9  13
HETATM   13  C5  UNL     1       0.572   0.424   0.134  1.00  0.00     0.088 C 
HETATM   14  C6  UNL     1       0.763   0.056   1.637  1.00  0.00     0.045 C 
HETATM   15  C7  UNL     1       2.093   0.425   2.154  1.00  0.00     0.127 C 
HETATM   16  N5  UNL     1       3.093   0.210   1.122  1.00  0.00    -0.352 N 
HETATM   17  C8  UNL     1       4.083  -0.798   1.219  1.00  0.00     0.226 C 
HETATM   18  C13 UNL     1       2.965   1.138   0.005  1.00  0.00     0.127 C 
HETATM   19  O1  UNL     1       4.015  -1.498   2.293  1.00  0.00    -0.273 OA
HETATM   20  C14 UNL     1       1.497   1.608   0.013  1.00  0.00     0.045 C 
BRANCH  17  21
HETATM   21  C9  UNL     1       5.135  -1.114   0.265  1.00  0.00     0.104 A 
HETATM   22  C10 UNL     1       6.062   0.019  -0.080  1.00  0.00     0.042 A 
HETATM   23  C11 UNL     1       6.147   0.003  -1.566  1.00  0.00     0.168 A 
HETATM   24  O2  UNL     1       5.345  -0.980  -2.060  1.00  0.00    -0.390 OA
HETATM   25  C12 UNL     1       4.721  -1.656  -1.049  1.00  0.00     0.181 A 
ENDBRANCH  17  21
ENDBRANCH   9  13
BRANCH   1  26
HETATM   26  N1  UNL     1       0.197  -0.125  -2.409  1.00  0.00    -0.383 N 
ATOM     27  H12 UNL     1       0.600  -0.440  -3.291  1.00  0.00     0.157 HD
ATOM     28  H11 UNL     1       0.757   0.305  -1.673  1.00  0.00     0.157 HD
ENDBRANCH   1  26
BRANCH  12  29
HETATM   29  C17 UNL     1      -5.010   0.333   0.643  1.00  0.00     0.086 C 
HETATM   30  C18 UNL     1      -5.945  -0.441  -0.228  1.00  0.00     0.025 C 
HETATM   31  C19 UNL     1      -6.792  -0.782   1.038  1.00  0.00     0.004 C 
HETATM   32  C20 UNL     1      -5.478  -0.546   1.795  1.00  0.00     0.025 C 
ENDBRANCH  12  29
TORSDOF 4
