REMARK  5 active torsions:
REMARK  status: ('A' for Active; 'I' for Inactive)
REMARK    1  A    between atoms: O1_2  and  C2_3 
REMARK    2  A    between atoms: C2_3  and  C3_5 
REMARK    3  A    between atoms: C3_5  and  C4_6 
REMARK    4  A    between atoms: C3_5  and  N5_25 
REMARK    5  A    between atoms: C8_12  and  N2_13 
ROOT
HETATM    1  C4  UNL     1      -0.043   0.841   0.558  1.00  0.00     0.129 A 
HETATM    2  N1  UNL     1      -0.949   0.605  -0.401  1.00  0.00    -0.340 N 
ATOM      3  H1  UNL     1      -0.747   0.675  -1.398  1.00  0.00     0.167 HD
HETATM    4  C5  UNL     1      -2.129   0.273   0.083  1.00  0.00     0.085 A 
HETATM    5  C6  UNL     1      -3.318  -0.047  -0.504  1.00  0.00    -0.018 A 
HETATM    6  C7  UNL     1      -4.383  -0.353   0.309  1.00  0.00    -0.006 A 
HETATM    7  C8  UNL     1      -4.232  -0.331   1.678  1.00  0.00     0.107 A 
HETATM    8  N3  UNL     1      -3.057  -0.014   2.231  1.00  0.00    -0.327 N 
ATOM      9  H3  UNL     1      -2.970  -0.004   3.247  1.00  0.00     0.169 HD
HETATM   10  C9  UNL     1      -1.988   0.292   1.477  1.00  0.00     0.138 A 
HETATM   11  N4  UNL     1      -0.713   0.640   1.711  1.00  0.00    -0.323 N 
HETATM   12  C10 UNL     1      -0.204   0.761   3.075  1.00  0.00     0.159 C 
HETATM   13  C11 UNL     1      -5.674  -0.696  -0.344  1.00  0.00     0.043 C 
HETATM   14  C12 UNL     1      -5.501  -1.574  -1.549  1.00  0.00     0.005 C 
HETATM   15  C13 UNL     1      -4.192  -1.441  -2.235  1.00  0.00     0.005 C 
HETATM   16  C14 UNL     1      -3.519  -0.089  -1.964  1.00  0.00     0.042 C 
ENDROOT
BRANCH   1  17
HETATM   17  C3  UNL     1       1.366   1.232   0.479  1.00  0.00     0.388 C 
BRANCH  17  18
HETATM   18  C2  UNL     1       1.508   2.697   0.156  1.00  0.00     0.300 C 
HETATM   19  O2  UNL     1       0.943   3.534   0.895  1.00  0.00    -0.262 OA
BRANCH  18  20
HETATM   20  O1  UNL     1       2.234   3.160  -0.921  1.00  0.00    -0.324 OA
HETATM   21  C1  UNL     1       2.311   4.575  -1.149  1.00  0.00     0.213 C 
ENDBRANCH  18  20
ENDBRANCH  17  18
BRANCH  17  22
HETATM   22  N5  UNL     1       2.176   0.537  -0.446  1.00  0.00     0.111 N 
HETATM   23  C15 UNL     1       3.554   0.909  -0.231  1.00  0.00     0.275 C 
HETATM   24  C16 UNL     1       4.297  -0.211   0.477  1.00  0.00     0.050 C 
HETATM   25  C17 UNL     1       4.968  -1.054  -0.561  1.00  0.00     0.118 C 
HETATM   26  N6  UNL     1       4.095  -1.980  -1.200  1.00  0.00    -0.415 N 
HETATM   27  C18 UNL     1       3.911  -3.232  -0.542  1.00  0.00     0.143 C 
HETATM   28  C19 UNL     1       2.883  -1.426  -1.704  1.00  0.00     0.146 C 
HETATM   29  C20 UNL     1       1.966  -0.855  -0.619  1.00  0.00     0.293 C 
ENDBRANCH  17  22
ENDBRANCH   1  17
BRANCH   7  30
HETATM   30  N2  UNL     1      -5.264  -0.626   2.397  1.00  0.00    -0.385 N 
ATOM     31  H22 UNL     1      -6.161  -0.868   1.975  1.00  0.00     0.157 HD
ATOM     32  H21 UNL     1      -5.152  -0.610   3.411  1.00  0.00     0.157 HD
ENDBRANCH   7  30
TORSDOF 5
