REMARK  6 active torsions:
REMARK  status: ('A' for Active; 'I' for Inactive)
REMARK    1  A    between atoms: O1_2  and  C2_3 
REMARK    2  A    between atoms: C2_3  and  C3_4 
REMARK    3  A    between atoms: C4_6  and  C5_7 
REMARK    4  A    between atoms: C5_7  and  C6_8 
REMARK    5  A    between atoms: C6_8  and  O3_10 
REMARK    6  A    between atoms: C10_14  and  O4_15 
ROOT
HETATM    1  C3  UNL     1       1.923   0.299   0.665  1.00  0.00     0.188 C 
HETATM    2  O2  UNL     1       0.781   0.887   1.130  1.00  0.00    -0.342 OA
HETATM    3  C4  UNL     1      -0.262   0.735   0.227  1.00  0.00     0.269 C 
HETATM    4  C8  UNL     1      -1.120  -0.370   0.634  1.00  0.00     0.065 C 
HETATM    5  C9  UNL     1      -2.202  -0.074   1.651  1.00  0.00     0.042 C 
HETATM    6  C10 UNL     1      -2.601  -1.550   1.921  1.00  0.00     0.119 C 
HETATM    7  C11 UNL     1      -2.859  -1.965   0.489  1.00  0.00     0.043 C 
HETATM    8  C12 UNL     1      -1.860  -1.167  -0.375  1.00  0.00    -0.012 C 
HETATM    9  C13 UNL     1      -2.662  -0.406  -1.361  1.00  0.00     0.018 C 
HETATM   10  C14 UNL     1      -1.080  -2.215  -1.108  1.00  0.00     0.180 C 
HETATM   11  O5  UNL     1      -0.285  -1.779  -2.130  1.00  0.00    -0.360 OA
HETATM   12  C15 UNL     1       0.995  -2.315  -1.990  1.00  0.00     0.262 C 
HETATM   13  C16 UNL     1       1.628  -1.851  -0.672  1.00  0.00     0.106 C 
HETATM   14  C17 UNL     1       1.602  -0.376  -0.606  1.00  0.00     0.203 C 
HETATM   15  C18 UNL     1       2.291   0.168  -1.845  1.00  0.00     0.080 C 
HETATM   16  C19 UNL     1       1.933  -0.526  -3.102  1.00  0.00     0.180 C 
HETATM   17  O6  UNL     1       1.830  -1.903  -2.994  1.00  0.00    -0.361 OA
HETATM   18  C20 UNL     1       1.294   1.314  -1.591  1.00  0.00     0.287 C 
HETATM   19  N1  UNL     1       0.426   0.300  -1.024  1.00  0.00     0.137 N 
ENDROOT
BRANCH   3  20
HETATM   20  C5  UNL     1      -0.829   2.071  -0.044  1.00  0.00     0.103 C 
BRANCH  20  21
HETATM   21  C6  UNL     1      -1.356   2.908   1.042  1.00  0.00     0.118 C 
HETATM   22  C7  UNL     1      -1.837   4.218   0.362  1.00  0.00     0.039 C 
BRANCH  21  23
HETATM   23  O3  UNL     1      -0.418   3.336   1.974  1.00  0.00    -0.396 OA
ATOM     24  H3  UNL     1      -0.759   3.877   2.676  1.00  0.00     0.210 HD
ENDBRANCH  21  23
ENDBRANCH  20  21
ENDBRANCH   3  20
BRANCH   1  25
HETATM   25  C2  UNL     1       2.443  -0.594   1.764  1.00  0.00     0.201 C 
BRANCH  25  26
HETATM   26  O1  UNL     1       3.585  -1.275   1.470  1.00  0.00    -0.393 OA
HETATM   27  C1  UNL     1       4.663  -0.452   1.201  1.00  0.00     0.201 C 
ENDBRANCH  25  26
ENDBRANCH   1  25
BRANCH   6  28
HETATM   28  O4  UNL     1      -3.689  -1.646   2.742  1.00  0.00    -0.396 OA
ATOM     29  H4  UNL     1      -3.933  -2.549   2.907  1.00  0.00     0.210 HD
ENDBRANCH   6  28
TORSDOF 6
