REMARK  5 active torsions:
REMARK  status: ('A' for Active; 'I' for Inactive)
REMARK    1  A    between atoms: N1_2  and  C3_4 
REMARK    2  A    between atoms: C3_4  and  C4_5 
REMARK       I    between atoms: C4_5  and  N2_7 
REMARK    3  A    between atoms: N4_14  and  C8_15 
REMARK    4  A    between atoms: C8_15  and  C11_18 
REMARK    5  A    between atoms: C11_18  and  C12_19 
ROOT
HETATM    1  C4  UNL     1       3.135   0.698   0.683  1.00  0.00     0.248 C 
HETATM    2  O1  UNL     1       2.553   1.813   0.715  1.00  0.00    -0.271 OA
HETATM    3  N2  UNL     1       2.696  -0.416   1.443  1.00  0.00    -0.347 N 
HETATM    4  C5  UNL     1       1.526  -0.231   2.280  1.00  0.00     0.145 C 
HETATM    5  C6  UNL     1       0.328   0.263   1.456  1.00  0.00     0.144 C 
HETATM    6  N3  UNL     1      -0.839  -0.400   1.945  1.00  0.00    -0.341 N 
ATOM      7  H3  UNL     1      -0.706  -1.118   2.657  1.00  0.00     0.164 HD
HETATM    8  C7  UNL     1      -2.187  -0.137   1.515  1.00  0.00     0.319 C 
HETATM    9  O2  UNL     1      -3.023  -0.072   2.464  1.00  0.00    -0.247 OA
HETATM   10  N4  UNL     1      -2.592   0.040   0.176  1.00  0.00    -0.324 N 
HETATM   11  C13 UNL     1      -2.055  -0.813  -0.891  1.00  0.00     0.154 C 
HETATM   12  C14 UNL     1      -2.166  -2.283  -0.558  1.00  0.00     0.187 C 
HETATM   13  O3  UNL     1      -1.133  -2.806   0.161  1.00  0.00    -0.387 OA
HETATM   14  C15 UNL     1      -0.472  -3.861  -0.451  1.00  0.00     0.193 C 
HETATM   15  C16 UNL     1       0.981  -3.948   0.013  1.00  0.00     0.193 C 
HETATM   16  O4  UNL     1       1.458  -2.685   0.347  1.00  0.00    -0.387 OA
HETATM   17  C17 UNL     1       2.826  -2.634   0.380  1.00  0.00     0.187 C 
HETATM   18  C18 UNL     1       3.387  -1.662   1.378  1.00  0.00     0.152 C 
ENDROOT
BRANCH   1  19
HETATM   19  C3  UNL     1       4.321   0.558  -0.184  1.00  0.00     0.373 C 
BRANCH  19  20
HETATM   20  N1  UNL     1       4.613   1.805  -0.880  1.00  0.00     0.088 N 
HETATM   21  C1  UNL     1       5.761   1.682  -1.726  1.00  0.00     0.310 C 
HETATM   22  C2  UNL     1       4.838   2.891   0.053  1.00  0.00     0.310 C 
ENDBRANCH  19  20
ENDBRANCH   1  19
BRANCH  10  23
HETATM   23  C8  UNL     1      -3.566   1.078  -0.141  1.00  0.00     0.030 C 
HETATM   24  C9  UNL     1      -3.079   2.433   0.357  1.00  0.00     0.038 C 
HETATM   25  C10 UNL     1      -3.586   1.292  -1.678  1.00  0.00     0.038 C 
BRANCH  23  26
HETATM   26  C11 UNL     1      -4.937   0.827   0.357  1.00  0.00     0.041 C 
BRANCH  26  27
HETATM   27  C12 UNL     1      -5.982   1.836   0.036  1.00  0.00     0.088 C 
HETATM   28  S1  UNL     1      -5.704   3.489   0.689  1.00  0.00    -0.098 SA
ENDBRANCH  26  27
ENDBRANCH  23  26
ENDBRANCH  10  23
TORSDOF 5
