REMARK  8 active torsions:
REMARK  status: ('A' for Active; 'I' for Inactive)
REMARK    1  A    between atoms: C2_2  and  N1_3 
REMARK    2  A    between atoms: C4_5  and  N2_6 
REMARK    3  A    between atoms: N2_6  and  C5_8 
REMARK    4  A    between atoms: C5_8  and  N3_10 
REMARK    5  A    between atoms: C10_16  and  O2_17 
REMARK    6  A    between atoms: C10_16  and  C11_19 
REMARK    7  A    between atoms: C12_20  and  C13_21 
REMARK    8  A    between atoms: C13_21  and  S2_22 
ROOT
HETATM    1  N1  UNL     1       0.210   2.472  -0.609  1.00  0.00    -0.368 N 
HETATM    2  C3  UNL     1       0.416   1.427  -1.586  1.00  0.00     0.153 C 
HETATM    3  C4  UNL     1       0.280   0.092  -0.889  1.00  0.00     0.150 C 
HETATM    4  C10 UNL     1       1.180  -0.072   0.286  1.00  0.00     0.165 C 
HETATM    5  C15 UNL     1       1.945   1.170   0.697  1.00  0.00     0.208 C 
HETATM    6  C16 UNL     1       2.311   1.121   2.112  1.00  0.00     0.075 C 
HETATM    7  N4  UNL     1       2.620   1.087   3.237  1.00  0.00    -0.196 NA
HETATM    8  C17 UNL     1       1.142   2.393   0.494  1.00  0.00     0.095 C 
HETATM    9  N5  UNL     1       1.274   3.377   1.290  1.00  0.00    -0.388 N 
ATOM     10  H51 UNL     1       1.931   3.321   2.068  1.00  0.00     0.157 HD
ATOM     11  H52 UNL     1       0.719   4.222   1.150  1.00  0.00     0.157 HD
ENDROOT
BRANCH   4  12
HETATM   12  O2  UNL     1       0.369  -0.362   1.401  1.00  0.00    -0.373 OA
ATOM     13  H2  UNL     1       0.943  -0.467   2.151  1.00  0.00     0.212 HD
ENDBRANCH   4  12
BRANCH   4  14
HETATM   14  C11 UNL     1       2.201  -1.104   0.093  1.00  0.00    -0.063 C 
HETATM   15  C12 UNL     1       3.073  -1.950  -0.068  1.00  0.00    -0.091 C 
BRANCH  15  16
HETATM   16  C13 UNL     1       4.122  -2.960  -0.235  1.00  0.00     0.202 C 
BRANCH  16  17
HETATM   17  S2  UNL     1       5.601  -2.108  -0.697  1.00  0.00     0.022 S 
HETATM   18  C14 UNL     1       6.117  -0.940   0.510  1.00  0.00     0.128 C 
HETATM   19  O3  UNL     1       6.838  -3.177  -1.102  1.00  0.00    -0.258 OA
ENDBRANCH  16  17
ENDBRANCH  15  16
ENDBRANCH   4  14
BRANCH   3  20
HETATM   20  N2  UNL     1      -1.107  -0.134  -0.631  1.00  0.00    -0.357 N 
ATOM     21  H2  UNL     1      -1.741   0.660  -0.715  1.00  0.00     0.162 HD
BRANCH  20  22
HETATM   22  C5  UNL     1      -1.660  -1.382  -0.268  1.00  0.00     0.170 C 
HETATM   23  S1  UNL     1      -0.753  -2.728  -0.158  1.00  0.00    -0.041 SA
BRANCH  22  24
HETATM   24  N3  UNL     1      -3.060  -1.530  -0.010  1.00  0.00    -0.354 N 
HETATM   25  C6  UNL     1      -3.902  -0.360  -0.132  1.00  0.00     0.151 C 
HETATM   26  C7  UNL     1      -5.360  -0.635   0.021  1.00  0.00     0.187 C 
HETATM   27  O1  UNL     1      -5.674  -1.770   0.724  1.00  0.00    -0.388 OA
HETATM   28  C8  UNL     1      -5.108  -2.852   0.049  1.00  0.00     0.187 C 
HETATM   29  C9  UNL     1      -3.624  -2.806   0.365  1.00  0.00     0.151 C 
ENDBRANCH  22  24
ENDBRANCH  20  22
ENDBRANCH   3  20
BRANCH   1  30
HETATM   30  C2  UNL     1      -0.785   3.499  -0.681  1.00  0.00     0.119 C 
HETATM   31  C1  UNL     1      -0.521   4.489  -1.806  1.00  0.00     0.026 C 
ENDBRANCH   1  30
TORSDOF 8
