REMARK  4 active torsions:
REMARK  status: ('A' for Active; 'I' for Inactive)
REMARK       I    between atoms: N2_7  and  C5_8 
REMARK    1  A    between atoms: C5_8  and  C6_10 
REMARK    2  A    between atoms: C6_10  and  N3_11 
REMARK       I    between atoms: C7_13  and  N4_14 
REMARK       I    between atoms: C7_13  and  N6_18 
REMARK    3  A    between atoms: N6_18  and  C9_20 
REMARK    4  A    between atoms: C12_23  and  O3_24 
ROOT
HETATM    1  N3  UNL     1       0.233  -1.080   0.271  1.00  0.00    -0.217 N 
ATOM      2  H3  UNL     1       0.597  -0.309  -0.288  1.00  0.00     0.178 HD
HETATM    3  C7  UNL     1      -0.884  -0.944   0.887  1.00  0.00     0.683 C 
HETATM    4  N4  UNL     1      -1.491  -1.943   1.694  1.00  0.00    -0.126 N 
ATOM      5  H4  UNL     1      -1.891  -2.760   1.232  1.00  0.00     0.197 HD
HETATM    6  C8  UNL     1      -1.570  -1.868   3.081  1.00  0.00     0.196 C 
HETATM    7  N5  UNL     1      -1.636  -1.804   4.226  1.00  0.00    -0.171 NA
HETATM    8  N6  UNL     1      -1.568   0.296   0.756  1.00  0.00    -0.218 N 
ATOM      9  H6  UNL     1      -1.435   1.046   1.435  1.00  0.00     0.178 HD
ENDROOT
BRANCH   1  10
HETATM   10  C6  UNL     1       0.966  -2.288   0.358  1.00  0.00     0.240 C 
BRANCH  10  11
HETATM   11  C5  UNL     1       2.394  -2.248   0.080  1.00  0.00     0.238 C 
HETATM   12  N2  UNL     1       3.226  -1.196  -0.275  1.00  0.00    -0.349 N 
HETATM   13  C4  UNL     1       2.641   0.110  -0.409  1.00  0.00     0.128 C 
HETATM   14  C18 UNL     1       4.630  -1.513  -0.481  1.00  0.00     0.162 C 
HETATM   15  C3  UNL     1       3.710   1.137  -0.848  1.00  0.00     0.056 C 
HETATM   16  C2  UNL     1       4.666   1.390   0.296  1.00  0.00     0.313 C 
HETATM   17  N1  UNL     1       5.836   0.559   0.058  1.00  0.00     0.011 N 
HETATM   18  C1  UNL     1       6.907   1.089   0.866  1.00  0.00     0.356 C 
HETATM   19  O1  UNL     1       6.173   0.592  -1.253  1.00  0.00    -0.065 OA
HETATM   20  C19 UNL     1       5.518  -0.783   0.499  1.00  0.00     0.331 C 
HETATM   21  O2  UNL     1       2.981  -3.403   0.185  1.00  0.00    -0.272 OA
ENDBRANCH  10  11
ENDBRANCH   1  10
BRANCH   8  22
HETATM   22  C9  UNL     1      -2.452   0.457  -0.364  1.00  0.00     0.132 C 
HETATM   23  C10 UNL     1      -3.573  -0.540  -0.396  1.00  0.00     0.014 C 
HETATM   24  C11 UNL     1      -4.436  -0.451   0.841  1.00  0.00     0.041 C 
HETATM   25  C17 UNL     1      -4.375  -0.316  -1.658  1.00  0.00     0.014 C 
HETATM   26  C12 UNL     1      -5.696   0.302   0.440  1.00  0.00     0.148 C 
HETATM   27  C13 UNL     1      -5.239   1.537  -0.308  1.00  0.00     0.155 C 
HETATM   28  O4  UNL     1      -4.131   2.038   0.320  1.00  0.00    -0.376 OA
HETATM   29  C16 UNL     1      -4.849   1.123  -1.703  1.00  0.00     0.020 C 
HETATM   30  C14 UNL     1      -3.026   1.845  -0.467  1.00  0.00     0.146 C 
HETATM   31  C15 UNL     1      -3.582   1.972  -1.894  1.00  0.00     0.041 C 
BRANCH  26  32
HETATM   32  O3  UNL     1      -6.429   0.707   1.557  1.00  0.00    -0.393 OA
ATOM     33  H3  UNL     1      -7.216   1.177   1.307  1.00  0.00     0.210 HD
ENDBRANCH  26  32
ENDBRANCH   8  22
TORSDOF 4
