REMARK  7 active torsions:
REMARK  status: ('A' for Active; 'I' for Inactive)
REMARK    1  A    between atoms: N1_1  and  C1_5 
REMARK    2  A    between atoms: C4_8  and  C5_9 
REMARK    3  A    between atoms: C5_9  and  O1_10 
REMARK    4  A    between atoms: C5_9  and  N2_12 
REMARK    5  A    between atoms: N3_15  and  C8_16 
REMARK    6  A    between atoms: C8_16  and  C9_17 
REMARK       I    between atoms: C9_17  and  N4_19 
REMARK    7  A    between atoms: N4_19  and  C10_21 
ROOT
HETATM    1  N2  UNL     1      -2.488  -0.973  -0.003  1.00  0.00    -0.362 N 
HETATM    2  C6  UNL     1      -2.223   0.347   0.470  1.00  0.00     0.154 C 
HETATM    3  C7  UNL     1      -0.942   0.254   1.291  1.00  0.00     0.293 C 
HETATM    4  N3  UNL     1       0.162   0.042   0.353  1.00  0.00     0.100 N 
HETATM    5  C18 UNL     1      -0.062  -1.150  -0.403  1.00  0.00     0.293 C 
HETATM    6  C19 UNL     1      -1.348  -1.857  -0.142  1.00  0.00     0.154 C 
ENDROOT
BRANCH   4   7
HETATM    7  C8  UNL     1       1.421  -0.015   1.098  1.00  0.00     0.374 C 
BRANCH   7   8
HETATM    8  C9  UNL     1       2.574  -0.209   0.186  1.00  0.00     0.246 C 
HETATM    9  O2  UNL     1       2.389  -0.300  -1.066  1.00  0.00    -0.272 OA
HETATM   10  N4  UNL     1       3.888  -0.294   0.719  1.00  0.00    -0.353 N 
ATOM     11  H4  UNL     1       4.045  -0.222   1.724  1.00  0.00     0.163 HD
BRANCH  10  12
HETATM   12  C10 UNL     1       4.989  -0.482  -0.178  1.00  0.00     0.107 C 
HETATM   13  C11 UNL     1       5.887  -1.641   0.230  1.00  0.00     0.015 A 
HETATM   14  C12 UNL     1       6.932  -1.987  -0.756  1.00  0.00     0.013 A 
HETATM   15  C13 UNL     1       7.131  -0.755   0.004  1.00  0.00     0.012 A 
HETATM   16  C14 UNL     1       6.167   0.407  -0.067  1.00  0.00     0.074 C 
HETATM   17  C15 UNL     1       6.434   1.333  -1.231  1.00  0.00     0.049 C 
HETATM   18  C17 UNL     1       6.299   1.290   1.087  1.00  0.00     0.270 C 
HETATM   19  C16 UNL     1       7.512   2.227  -0.630  1.00  0.00     0.180 C 
HETATM   20  O3  UNL     1       6.928   2.468   0.653  1.00  0.00    -0.321 OA
HETATM   21  O4  UNL     1       5.967   1.170   2.302  1.00  0.00    -0.264 OA
ENDBRANCH  10  12
ENDBRANCH   7   8
ENDBRANCH   4   7
BRANCH   1  22
HETATM   22  C5  UNL     1      -3.769  -1.437  -0.329  1.00  0.00     0.117 C 
BRANCH  22  23
HETATM   23  C4  UNL     1      -5.037  -0.701  -0.249  1.00  0.00     0.060 C 
HETATM   24  C3  UNL     1      -4.970   0.522  -1.132  1.00  0.00     0.015 C 
HETATM   25  C2  UNL     1      -6.400   1.086  -1.283  1.00  0.00     0.033 C 
HETATM   26  C1  UNL     1      -7.038   1.276   0.059  1.00  0.00     0.183 C 
HETATM   27  C21 UNL     1      -6.096   1.011   1.223  1.00  0.00     0.033 C 
HETATM   28  C20 UNL     1      -5.532  -0.399   1.124  1.00  0.00     0.015 C 
BRANCH  26  29
HETATM   29  N1  UNL     1      -8.176   0.388   0.205  1.00  0.00    -0.075 N 
ATOM     30  H13 UNL     1      -8.847   0.501  -0.555  1.00  0.00     0.274 HD
ATOM     31  H12 UNL     1      -7.923  -0.586   0.038  1.00  0.00     0.274 HD
ATOM     32  H11 UNL     1      -8.610   0.517   1.119  1.00  0.00     0.274 HD
ENDBRANCH  26  29
ENDBRANCH  22  23
BRANCH  22  33
HETATM   33  O1  UNL     1      -3.824  -2.672  -0.752  1.00  0.00    -0.349 OA
ATOM     34  H1  UNL     1      -3.004  -3.148  -0.804  1.00  0.00     0.219 HD
ENDBRANCH  22  33
ENDBRANCH   1  22
TORSDOF 7
