REMARK  6 active torsions:
REMARK  status: ('A' for Active; 'I' for Inactive)
REMARK    1  A    between atoms: C2_2  and  C3_3 
REMARK    2  A    between atoms: C3_3  and  C4_4 
REMARK    3  A    between atoms: C16_20  and  O1_21 
REMARK    4  A    between atoms: C18_23  and  O2_24 
REMARK    5  A    between atoms: C20_27  and  C21_28 
REMARK    6  A    between atoms: C21_28  and  O4_30 
ROOT
HETATM    1  C3  UNL     1      -2.918  -1.286   0.222  1.00  0.00     0.199 A 
HETATM    2  N1  UNL     1      -3.376  -2.049  -0.958  1.00  0.00    -0.028 N 
ATOM      3  H11 UNL     1      -4.260  -1.821  -1.413  1.00  0.00     0.282 HD
ATOM      4  H12 UNL     1      -3.690  -3.015  -0.862  1.00  0.00     0.282 HD
HETATM    5  C6  UNL     1      -2.118  -1.744  -1.599  1.00  0.00     0.287 A 
HETATM    6  C7  UNL     1      -2.159  -0.775  -2.750  1.00  0.00     0.055 C 
HETATM    7  C8  UNL     1      -0.823   0.003  -2.839  1.00  0.00     0.011 C 
HETATM    8  C9  UNL     1      -0.659   0.696  -1.540  1.00  0.00     0.024 C 
HETATM    9  C10 UNL     1      -0.640  -0.385  -0.459  1.00  0.00     0.107 C 
HETATM   10  C11 UNL     1      -0.031   0.359   0.684  1.00  0.00     0.125 C 
HETATM   11  C12 UNL     1      -0.792   1.491   1.142  1.00  0.00     0.067 C 
HETATM   12  N2  UNL     1      -1.433   2.404   1.518  1.00  0.00    -0.197 NA
HETATM   13  C13 UNL     1       1.225   0.911  -0.010  1.00  0.00    -0.007 C 
HETATM   14  C14 UNL     1       2.200  -0.208  -0.216  1.00  0.00     0.014 C 
HETATM   15  C15 UNL     1       3.590   0.093   0.304  1.00  0.00     0.035 C 
HETATM   16  C16 UNL     1       3.439   0.401   1.770  1.00  0.00     0.149 C 
HETATM   17  C18 UNL     1       2.662   1.666   1.920  1.00  0.00     0.147 C 
HETATM   18  C19 UNL     1       1.820   2.054   0.750  1.00  0.00     0.046 C 
HETATM   19  C20 UNL     1       0.605   1.436  -1.288  1.00  0.00     0.101 C 
HETATM   20  N3  UNL     1      -1.739  -1.109  -0.359  1.00  0.00    -0.348 N 
ENDROOT
BRANCH  19  21
HETATM   21  C21 UNL     1       1.527   1.541  -2.419  1.00  0.00     0.263 C 
HETATM   22  O3  UNL     1       1.429   0.986  -3.538  1.00  0.00    -0.265 OA
BRANCH  21  23
HETATM   23  O4  UNL     1       2.685   2.341  -2.317  1.00  0.00    -0.326 OA
HETATM   24  C22 UNL     1       3.610   2.487  -3.357  1.00  0.00     0.213 C 
ENDBRANCH  21  23
ENDBRANCH  19  21
BRANCH   1  25
HETATM   25  C2  UNL     1      -3.941  -0.232   0.493  1.00  0.00     0.057 C 
HETATM   26  C1  UNL     1      -5.321  -0.848   0.658  1.00  0.00     0.009 C 
ENDBRANCH   1  25
BRANCH   1  27
HETATM   27  C4  UNL     1      -2.882  -2.277   1.399  1.00  0.00     0.057 C 
HETATM   28  C5  UNL     1      -2.536  -1.635   2.690  1.00  0.00     0.009 C 
ENDBRANCH   1  27
BRANCH  17  29
HETATM   29  O2  UNL     1       3.564   2.696   2.188  1.00  0.00    -0.393 OA
ATOM     30  H2  UNL     1       3.069   3.501   2.284  1.00  0.00     0.210 HD
ENDBRANCH  17  29
BRANCH  16  31
HETATM   31  O1  UNL     1       2.906  -0.690   2.403  1.00  0.00    -0.388 OA
HETATM   32  C17 UNL     1       3.840  -1.233   3.277  1.00  0.00     0.202 C 
ENDBRANCH  16  31
TORSDOF 6
