REMARK  6 active torsions:
REMARK  status: ('A' for Active; 'I' for Inactive)
REMARK    1  A    between atoms: C2_2  and  C3_3 
REMARK    2  A    between atoms: C3_3  and  N1_4 
REMARK    3  A    between atoms: C6_7  and  N2_8 
REMARK    4  A    between atoms: N3_11  and  C9_12 
REMARK    5  A    between atoms: C9_12  and  C10_13 
REMARK    6  A    between atoms: C10_13  and  O1_14 
ROOT
HETATM    1  N1  UNL     1      -1.873   2.071  -0.794  1.00  0.00    -0.183 N 
HETATM    2  C4  UNL     1      -1.932   0.726  -0.687  1.00  0.00     0.040 A 
HETATM    3  C5  UNL     1      -0.751   0.011  -0.541  1.00  0.00     0.010 A 
HETATM    4  C6  UNL     1       0.479   0.628  -0.500  1.00  0.00     0.127 A 
HETATM    5  N4  UNL     1       0.465   1.962  -0.611  1.00  0.00    -0.176 N 
ATOM      6  H4  UNL     1       1.357   2.456  -0.585  1.00  0.00     0.186 HD
HETATM    7  C13 UNL     1      -0.677   2.701  -0.757  1.00  0.00     0.680 A 
HETATM    8  N5  UNL     1      -0.579   3.974  -0.846  1.00  0.00    -0.234 N 
ATOM      9  H51 UNL     1       0.323   4.449  -0.818  1.00  0.00     0.174 HD
ATOM     10  H52 UNL     1      -1.430   4.525  -0.955  1.00  0.00     0.174 HD
HETATM   11  C14 UNL     1      -0.883  -1.459  -0.473  1.00  0.00     0.045 C 
HETATM   12  C15 UNL     1      -1.863  -1.753   0.635  1.00  0.00     0.014 C 
HETATM   13  C16 UNL     1      -3.207  -1.199   0.297  1.00  0.00    -0.042 C 
HETATM   14  C17 UNL     1      -3.825  -0.688   1.579  1.00  0.00     0.015 C 
HETATM   15  C18 UNL     1      -4.093  -2.286  -0.327  1.00  0.00     0.015 C 
HETATM   16  C19 UNL     1      -3.184  -0.052  -0.691  1.00  0.00     0.067 C 
ENDROOT
BRANCH   4  17
HETATM   17  N2  UNL     1       1.695  -0.101  -0.321  1.00  0.00    -0.363 N 
HETATM   18  C7  UNL     1       1.974  -0.707   0.945  1.00  0.00     0.154 C 
HETATM   19  C8  UNL     1       3.008  -1.804   0.644  1.00  0.00     0.292 C 
HETATM   20  N3  UNL     1       4.175  -1.089   0.196  1.00  0.00     0.093 N 
HETATM   21  C11 UNL     1       3.989  -0.596  -1.121  1.00  0.00     0.292 C 
HETATM   22  C12 UNL     1       2.593  -0.205  -1.436  1.00  0.00     0.154 C 
BRANCH  20  23
HETATM   23  C9  UNL     1       5.396  -1.801   0.408  1.00  0.00     0.298 C 
BRANCH  23  24
HETATM   24  C10 UNL     1       6.545  -0.959  -0.101  1.00  0.00     0.194 C 
BRANCH  24  25
HETATM   25  O1  UNL     1       6.536   0.236   0.613  1.00  0.00    -0.399 OA
ATOM     26  H1  UNL     1       7.258   0.765   0.293  1.00  0.00     0.209 HD
ENDBRANCH  24  25
ENDBRANCH  23  24
ENDBRANCH  20  23
ENDBRANCH   4  17
BRANCH   1  27
HETATM   27  C3  UNL     1      -3.128   2.778  -0.973  1.00  0.00     0.174 C 
BRANCH  27  28
HETATM   28  C2  UNL     1      -3.776   3.174   0.289  1.00  0.00    -0.016 C 
HETATM   29  C1  UNL     1      -4.061   4.413   0.639  1.00  0.00     0.008 C 
ENDBRANCH  27  28
ENDBRANCH   1  27
TORSDOF 6
