REMARK  8 active torsions:
REMARK  status: ('A' for Active; 'I' for Inactive)
REMARK    1  A    between atoms: C2_2  and  C4_5 
REMARK    2  A    between atoms: C5_6  and  C6_7 
REMARK    3  A    between atoms: C8_9  and  O1_10 
REMARK    4  A    between atoms: O1_10  and  C9_11 
REMARK    5  A    between atoms: C12_15  and  C13_16 
REMARK    6  A    between atoms: C12_15  and  C14_19 
REMARK    7  A    between atoms: C13_16  and  O3_17 
REMARK    8  A    between atoms: C14_19  and  O4_20 
ROOT
HETATM    1  C1  UNL     1       5.879   0.589  -1.208  1.00  0.00     0.035 C 
HETATM    2  C2  UNL     1       4.575   0.569  -0.848  1.00  0.00     0.035 C 
HETATM    3  C3  UNL     1       4.316   1.122   0.450  1.00  0.00     0.098 C 
HETATM    4  N1  UNL     1       4.140   1.567   1.516  1.00  0.00    -0.191 NA
ENDROOT
BRANCH   2   5
HETATM    5  C4  UNL     1       3.659  -0.007  -1.764  1.00  0.00     0.018 C 
HETATM    6  C5  UNL     1       2.388  -0.130  -1.653  1.00  0.00    -0.019 C 
BRANCH   6   7
HETATM    7  C6  UNL     1       1.517   0.301  -0.540  1.00  0.00     0.029 A 
HETATM    8  C7  UNL     1       0.063   0.190  -0.757  1.00  0.00     0.037 A 
HETATM    9  C8  UNL     1      -1.024   0.949  -0.113  1.00  0.00     0.138 C 
HETATM   10  C18 UNL     1       0.774  -0.594   0.212  1.00  0.00     0.021 A 
HETATM   11  C11 UNL     1      -2.032   0.004   0.435  1.00  0.00     0.046 C 
HETATM   12  C12 UNL     1      -2.169  -1.318  -0.200  1.00  0.00     0.007 C 
HETATM   13  C15 UNL     1      -1.036  -2.170  -0.488  1.00  0.00     0.046 C 
HETATM   14  C16 UNL     1       0.275  -1.932   0.201  1.00  0.00     0.134 A 
HETATM   15  O5  UNL     1       0.190  -1.932   1.594  1.00  0.00    -0.384 OA
HETATM   16  C17 UNL     1       0.763  -0.663   1.659  1.00  0.00     0.181 A 
BRANCH   9  17
HETATM   17  O1  UNL     1      -0.537   1.876   0.825  1.00  0.00    -0.316 OA
BRANCH  17  18
HETATM   18  C9  UNL     1      -0.669   3.231   0.717  1.00  0.00     0.255 C 
HETATM   19  C10 UNL     1      -0.172   4.230   1.679  1.00  0.00     0.126 C 
HETATM   20  O2  UNL     1      -1.279   3.647  -0.319  1.00  0.00    -0.266 OA
ENDBRANCH  17  18
ENDBRANCH   9  17
BRANCH  12  21
HETATM   21  C13 UNL     1      -3.129  -2.098   0.727  1.00  0.00     0.175 C 
BRANCH  21  22
HETATM   22  O3  UNL     1      -2.646  -2.226   2.002  1.00  0.00    -0.400 OA
ATOM     23  H3  UNL     1      -3.236  -2.705   2.572  1.00  0.00     0.209 HD
ENDBRANCH  21  22
ENDBRANCH  12  21
BRANCH  12  24
HETATM   24  C14 UNL     1      -3.005  -1.126  -1.478  1.00  0.00     0.175 C 
BRANCH  24  25
HETATM   25  O4  UNL     1      -4.272  -0.609  -1.147  1.00  0.00    -0.400 OA
ATOM     26  H4  UNL     1      -4.788  -0.490  -1.936  1.00  0.00     0.209 HD
ENDBRANCH  24  25
ENDBRANCH  12  24
ENDBRANCH   6   7
ENDBRANCH   2   5
TORSDOF 8
