REMARK  6 active torsions:
REMARK  status: ('A' for Active; 'I' for Inactive)
REMARK    1  A    between atoms: C7_9  and  O3_10 
REMARK    2  A    between atoms: C7_9  and  C8_12 
REMARK    3  A    between atoms: C8_12  and  N1_13 
REMARK    4  A    between atoms: N1_13  and  C9_16 
REMARK    5  A    between atoms: C9_16  and  C10_17 
REMARK    6  A    between atoms: C10_17  and  N2_18 
ROOT
HETATM    1  O1  UNL     1      -6.705   2.173  -0.621  1.00  0.00    -0.262 OA
HETATM    2  C1  UNL     1      -5.738   1.584  -0.074  1.00  0.00     0.289 C 
HETATM    3  O2  UNL     1      -5.669   0.174   0.029  1.00  0.00    -0.313 OA
HETATM    4  C2  UNL     1      -4.279  -0.063  -0.044  1.00  0.00     0.141 C 
HETATM    5  C3  UNL     1      -3.849  -1.404   0.442  1.00  0.00     0.038 C 
HETATM    6  C4  UNL     1      -2.416  -1.686   0.288  1.00  0.00    -0.005 C 
HETATM    7  C5  UNL     1      -2.252  -2.603  -0.935  1.00  0.00     0.008 C 
HETATM    8  C6  UNL     1      -0.730  -2.703  -0.959  1.00  0.00     0.040 C 
HETATM    9  C7  UNL     1      -0.391  -1.217  -0.820  1.00  0.00     0.086 C 
HETATM   10  C14 UNL     1      -1.429  -0.622   0.116  1.00  0.00     0.028 C 
HETATM   11  C15 UNL     1      -1.797   0.696  -0.434  1.00  0.00     0.040 C 
HETATM   12  C16 UNL     1      -2.598   1.620   0.422  1.00  0.00     0.132 C 
HETATM   13  O4  UNL     1      -3.470   2.472  -0.298  1.00  0.00    -0.369 OA
HETATM   14  C17 UNL     1      -4.514   2.168   0.559  1.00  0.00     0.230 C 
HETATM   15  C18 UNL     1      -3.776   0.944   0.968  1.00  0.00     0.083 C 
ENDROOT
BRANCH   9  16
HETATM   16  O3  UNL     1      -0.618  -0.668  -2.087  1.00  0.00    -0.388 OA
ATOM     17  H3  UNL     1      -0.408   0.254  -2.001  1.00  0.00     0.210 HD
ENDBRANCH   9  16
BRANCH   9  18
HETATM   18  C8  UNL     1       1.018  -1.098  -0.379  1.00  0.00     0.270 C 
BRANCH  18  19
HETATM   19  N1  UNL     1       1.523   0.250  -0.254  1.00  0.00    -0.071 N 
ATOM     20  H12 UNL     1       1.272   0.825  -1.058  1.00  0.00     0.277 HD
ATOM     21  H11 UNL     1       1.029   0.775   0.468  1.00  0.00     0.277 HD
BRANCH  19  22
HETATM   22  C9  UNL     1       2.971   0.235  -0.024  1.00  0.00     0.262 C 
BRANCH  22  23
HETATM   23  C10 UNL     1       3.496   1.618   0.153  1.00  0.00     0.299 C 
BRANCH  23  24
HETATM   24  N2  UNL     1       4.949   1.652   0.268  1.00  0.00     0.090 N 
HETATM   25  C11 UNL     1       5.607   1.352  -1.012  1.00  0.00     0.274 C 
HETATM   26  C12 UNL     1       6.619   0.483  -0.341  1.00  0.00     0.060 C 
HETATM   27  C13 UNL     1       5.571   0.448   0.786  1.00  0.00     0.274 C 
ENDBRANCH  23  24
ENDBRANCH  22  23
ENDBRANCH  19  22
ENDBRANCH  18  19
ENDBRANCH   9  18
TORSDOF 6
