REMARK  9 active torsions:
REMARK  status: ('A' for Active; 'I' for Inactive)
REMARK    1  A    between atoms: C2_2  and  C3_3 
REMARK    2  A    between atoms: C4_4  and  C5_5 
REMARK    3  A    between atoms: C5_5  and  N1_6 
REMARK    4  A    between atoms: N1_6  and  C6_8 
REMARK    5  A    between atoms: C7_13  and  C8_14 
REMARK    6  A    between atoms: C8_14  and  N4_16 
REMARK    7  A    between atoms: N5_20  and  N6_21 
REMARK    8  A    between atoms: C11_27  and  N8_28 
REMARK    9  A    between atoms: N10_33  and  O1_34 
ROOT
HETATM    1  C5  UNL     1      -0.701  -1.840   0.307  1.00  0.00     0.197 C 
ENDROOT
BRANCH   1   2
HETATM    2  C4  UNL     1      -1.575  -0.656   0.097  1.00  0.00     0.054 A 
HETATM    3  C3  UNL     1      -2.869  -0.566   0.574  1.00  0.00     0.064 A 
HETATM    4  N11 UNL     1      -3.401   0.621   0.228  1.00  0.00    -0.197 N 
HETATM    5  C10 UNL     1      -2.441   1.271  -0.464  1.00  0.00     0.177 A 
HETATM    6  N10 UNL     1      -4.476   1.413   0.286  1.00  0.00    -0.084 N 
HETATM    7  N7  UNL     1      -1.341   0.495  -0.539  1.00  0.00    -0.338 N 
HETATM    8  C11 UNL     1      -2.982   2.493  -0.823  1.00  0.00     0.164 A 
ATOM      9  H7  UNL     1      -0.470   0.747  -1.006  1.00  0.00     0.167 HD
HETATM   10  N9  UNL     1      -4.235   2.551  -0.347  1.00  0.00    -0.240 N 
ATOM     11  H9  UNL     1      -4.884   3.330  -0.453  1.00  0.00     0.193 HD
BRANCH   3  12
HETATM   12  C2  UNL     1      -3.610  -1.602   1.356  1.00  0.00     0.057 C 
HETATM   13  C1  UNL     1      -4.079  -2.728   0.455  1.00  0.00     0.011 C 
ENDBRANCH   3  12
BRANCH   8  14
HETATM   14  N8  UNL     1      -2.341   3.392  -1.503  1.00  0.00    -0.381 N 
ATOM     15  H82 UNL     1      -1.388   3.348  -1.865  1.00  0.00     0.157 HD
ATOM     16  H81 UNL     1      -2.740   4.293  -1.768  1.00  0.00     0.157 HD
ENDBRANCH   8  14
BRANCH   6  17
HETATM   17  O1  UNL     1      -5.641   1.038   0.929  1.00  0.00    -0.253 OA
ATOM     18  H1  UNL     1      -5.814   0.222   1.383  1.00  0.00     0.248 HD
ENDBRANCH   6  17
ENDBRANCH   1   2
BRANCH   1  19
HETATM   19  N1  UNL     1       0.591  -1.688  -0.288  1.00  0.00    -0.217 N 
ATOM     20  H1  UNL     1       0.810  -2.309  -1.067  1.00  0.00     0.178 HD
BRANCH  19  21
HETATM   21  C6  UNL     1       1.502  -0.855   0.053  1.00  0.00     0.715 A 
HETATM   22  N2  UNL     1       1.521   0.073   1.013  1.00  0.00    -0.129 N 
HETATM   23  N3  UNL     1       2.697   0.688   0.967  1.00  0.00    -0.271 N 
ATOM     24  H2  UNL     1       0.765   0.274   1.667  1.00  0.00     0.205 HD
HETATM   25  C7  UNL     1       3.443   0.162  -0.020  1.00  0.00     0.166 A 
ATOM     26  H3  UNL     1       2.990   1.444   1.586  1.00  0.00     0.189 HD
HETATM   27  N5  UNL     1       2.695  -0.795  -0.583  1.00  0.00    -0.076 N 
BRANCH  25  28
HETATM   28  C8  UNL     1       4.840   0.543  -0.438  1.00  0.00     0.250 C 
HETATM   29  C9  UNL     1       4.843   1.780  -1.289  1.00  0.00     0.048 C 
BRANCH  28  30
HETATM   30  N4  UNL     1       5.642   0.695   0.737  1.00  0.00    -0.068 N 
ATOM     31  H43 UNL     1       5.239   1.355   1.403  1.00  0.00     0.275 HD
ATOM     32  H42 UNL     1       5.624  -0.133   1.332  1.00  0.00     0.275 HD
ATOM     33  H41 UNL     1       6.587   0.953   0.454  1.00  0.00     0.275 HD
ENDBRANCH  28  30
ENDBRANCH  25  28
BRANCH  27  34
HETATM   34  N6  UNL     1       3.130  -1.583  -1.662  1.00  0.00    -0.323 N 
ATOM     35  H62 UNL     1       2.560  -2.312  -2.091  1.00  0.00     0.178 HD
ATOM     36  H61 UNL     1       4.029  -1.538  -2.141  1.00  0.00     0.178 HD
ENDBRANCH  27  34
ENDBRANCH  19  21
ENDBRANCH   1  19
TORSDOF 9
