REMARK  7 active torsions:
REMARK  status: ('A' for Active; 'I' for Inactive)
REMARK    1  A    between atoms: N1_1  and  C1_4 
REMARK    2  A    between atoms: C4_11  and  C5_12 
REMARK    3  A    between atoms: C5_12  and  N4_13 
REMARK    4  A    between atoms: N4_13  and  C6_15 
REMARK    5  A    between atoms: C6_15  and  N5_17 
REMARK    6  A    between atoms: N5_17  and  C7_19 
REMARK    7  A    between atoms: C7_19  and  C8_20 
ROOT
HETATM    1  C5  UNL     1      -0.856  -1.707  -1.240  1.00  0.00     0.184 C 
ENDROOT
BRANCH   1   2
HETATM    2  C4  UNL     1      -1.289  -0.348  -0.880  1.00  0.00     0.091 A 
HETATM    3  C3  UNL     1      -2.570   0.036  -0.528  1.00  0.00     0.173 A 
HETATM    4  N3  UNL     1      -3.716  -0.691  -0.406  1.00  0.00    -0.334 N 
HETATM    5  N12 UNL     1      -2.515   1.351  -0.303  1.00  0.00    -0.053 N 
HETATM    6  C2  UNL     1      -4.843  -0.061  -0.042  1.00  0.00     0.199 A 
ATOM      7  H3  UNL     1      -3.717  -1.695  -0.588  1.00  0.00     0.168 HD
HETATM    8  N2  UNL     1      -4.811   1.259   0.189  1.00  0.00    -0.186 N 
HETATM    9  C1  UNL     1      -3.678   1.952   0.063  1.00  0.00     0.701 A 
ATOM     10  H2  UNL     1      -5.666   1.741   0.465  1.00  0.00     0.185 HD
HETATM   11  N11 UNL     1      -1.294   1.749  -0.501  1.00  0.00    -0.220 N 
HETATM   12  N10 UNL     1      -0.539   0.741  -0.850  1.00  0.00    -0.284 N 
ATOM     13  H11 UNL     1      -0.971   2.711  -0.399  1.00  0.00     0.209 HD
ATOM     14  H10 UNL     1       0.458   0.786  -1.063  1.00  0.00     0.188 HD
BRANCH   9  15
HETATM   15  N1  UNL     1      -3.655   3.221   0.287  1.00  0.00    -0.233 N 
ATOM     16  H12 UNL     1      -4.528   3.672   0.562  1.00  0.00     0.174 HD
ATOM     17  H11 UNL     1      -2.789   3.751   0.191  1.00  0.00     0.174 HD
ENDBRANCH   9  15
ENDBRANCH   1   2
BRANCH   1  18
HETATM   18  N4  UNL     1       0.551  -1.719  -1.527  1.00  0.00    -0.361 N 
ATOM     19  H4  UNL     1       0.876  -1.859  -2.484  1.00  0.00     0.162 HD
BRANCH  18  20
HETATM   20  C6  UNL     1       1.489  -1.536  -0.479  1.00  0.00     0.168 C 
HETATM   21  S1  UNL     1       0.944  -1.362   1.044  1.00  0.00    -0.041 SA
BRANCH  20  22
HETATM   22  N5  UNL     1       2.880  -1.533  -0.752  1.00  0.00    -0.360 N 
ATOM     23  H5  UNL     1       3.186  -1.668  -1.716  1.00  0.00     0.162 HD
BRANCH  22  24
HETATM   24  C7  UNL     1       3.874  -1.350   0.256  1.00  0.00     0.201 C 
BRANCH  24  25
HETATM   25  C8  UNL     1       3.821  -0.031   0.937  1.00  0.00     0.131 A 
HETATM   26  N6  UNL     1       3.085   1.056   0.689  1.00  0.00    -0.271 N 
HETATM   27  N7  UNL     1       3.415   1.962   1.586  1.00  0.00    -0.227 N 
ATOM     28  H6  UNL     1       2.396   1.164  -0.056  1.00  0.00     0.190 HD
HETATM   29  N8  UNL     1       4.334   1.483   2.393  1.00  0.00    -0.227 N 
ATOM     30  H7  UNL     1       3.015   2.899   1.645  1.00  0.00     0.210 HD
HETATM   31  N9  UNL     1       4.588   0.256   1.998  1.00  0.00    -0.271 N 
ATOM     32  H8  UNL     1       4.768   1.971   3.177  1.00  0.00     0.210 HD
ATOM     33  H9  UNL     1       5.261  -0.377   2.430  1.00  0.00     0.190 HD
ENDBRANCH  24  25
ENDBRANCH  22  24
ENDBRANCH  20  22
ENDBRANCH  18  20
ENDBRANCH   1  18
TORSDOF 7
