REMARK  8 active torsions:
REMARK  status: ('A' for Active; 'I' for Inactive)
REMARK    1  A    between atoms: C5_5  and  O1_6 
REMARK    2  A    between atoms: C6_8  and  O2_9 
REMARK    3  A    between atoms: C7_11  and  N1_12 
REMARK    4  A    between atoms: N1_12  and  C8_14 
REMARK    5  A    between atoms: C8_14  and  C9_15 
REMARK    6  A    between atoms: C9_15  and  O3_16 
REMARK    7  A    between atoms: O3_16  and  N2_17 
REMARK    8  A    between atoms: N2_17  and  C10_19 
ROOT
HETATM    1  N1  UNL     1      -1.944   0.052  -1.731  1.00  0.00    -0.371 N 
ATOM      2  H1  UNL     1      -2.220  -0.926  -1.814  1.00  0.00     0.160 HD
ENDROOT
BRANCH   1   3
HETATM    3  C7  UNL     1      -2.911   0.904  -1.248  1.00  0.00     0.316 C 
HETATM    4  C6  UNL     1      -2.754   1.606   0.065  1.00  0.00     0.197 C 
HETATM    5  C5  UNL     1      -2.818   0.623   1.212  1.00  0.00     0.153 C 
HETATM    6  C4  UNL     1      -3.249  -0.748   0.774  1.00  0.00     0.072 C 
HETATM    7  C2  UNL     1      -4.435  -0.630  -0.154  1.00  0.00     0.123 C 
HETATM    8  C1  UNL     1      -4.744  -1.992  -0.767  1.00  0.00     0.046 C 
HETATM    9  C3  UNL     1      -5.644  -0.273   0.720  1.00  0.00     0.046 C 
HETATM   10  N3  UNL     1      -4.255   0.304  -1.215  1.00  0.00    -0.043 N 
ATOM     11  H32 UNL     1      -4.482  -0.122  -2.113  1.00  0.00     0.280 HD
ATOM     12  H31 UNL     1      -4.973   1.028  -1.184  1.00  0.00     0.280 HD
BRANCH   4  13
HETATM   13  O2  UNL     1      -3.887   2.484   0.141  1.00  0.00    -0.389 OA
ATOM     14  H2  UNL     1      -3.847   3.102  -0.580  1.00  0.00     0.210 HD
ENDBRANCH   4  13
BRANCH   5  15
HETATM   15  O1  UNL     1      -1.635   0.624   1.939  1.00  0.00    -0.393 OA
ATOM     16  H1  UNL     1      -1.362   1.491   2.216  1.00  0.00     0.210 HD
ENDBRANCH   5  15
ENDBRANCH   1   3
BRANCH   1  17
HETATM   17  C8  UNL     1      -0.658   0.341  -2.116  1.00  0.00     0.086 C 
BRANCH  17  18
HETATM   18  C9  UNL     1       0.346   0.711  -1.064  1.00  0.00     0.244 C 
BRANCH  18  19
HETATM   19  O3  UNL     1       1.604   0.962  -1.632  1.00  0.00    -0.280 OA
BRANCH  19  20
HETATM   20  N2  UNL     1       2.531   1.300  -0.756  1.00  0.00    -0.297 N 
ATOM     21  H2  UNL     1       2.998   2.206  -0.804  1.00  0.00     0.188 HD
BRANCH  20  22
HETATM   22  C10 UNL     1       2.856   0.356   0.258  1.00  0.00     0.114 C 
HETATM   23  C11 UNL     1       3.992   0.841   1.151  1.00  0.00     0.066 C 
HETATM   24  C12 UNL     1       5.166   0.142   0.577  1.00  0.00    -0.050 A 
HETATM   25  C13 UNL     1       6.524   0.409   0.752  1.00  0.00     0.007 A 
HETATM   26  C17 UNL     1       4.809  -0.898  -0.228  1.00  0.00    -0.050 A 
HETATM   27  C14 UNL     1       7.492  -0.355   0.128  1.00  0.00     0.001 A 
HETATM   28  C15 UNL     1       7.141  -1.411  -0.691  1.00  0.00     0.001 A 
HETATM   29  C16 UNL     1       5.805  -1.663  -0.853  1.00  0.00     0.007 A 
HETATM   30  C18 UNL     1       3.325  -0.976  -0.251  1.00  0.00     0.066 C 
ENDBRANCH  20  22
ENDBRANCH  19  20
ENDBRANCH  18  19
ENDBRANCH  17  18
ENDBRANCH   1  17
TORSDOF 8
