REMARK  7 active torsions:
REMARK  status: ('A' for Active; 'I' for Inactive)
REMARK    1  A    between atoms: C3_10  and  C4_11 
REMARK    2  A    between atoms: C4_11  and  C5_12 
REMARK    3  A    between atoms: C5_12  and  N4_13 
REMARK    4  A    between atoms: N4_13  and  C6_16 
REMARK    5  A    between atoms: C6_16  and  C7_17 
REMARK    6  A    between atoms: C7_17  and  C8_18 
REMARK    7  A    between atoms: C8_18  and  O1_19 
ROOT
HETATM    1  N4  UNL     1       2.626   0.988  -1.752  1.00  0.00    -0.075 N 
ATOM      2  H41 UNL     1       2.559   0.245  -2.447  1.00  0.00     0.277 HD
ATOM      3  H42 UNL     1       3.075   1.702  -2.325  1.00  0.00     0.277 HD
ENDROOT
BRANCH   1   4
HETATM    4  C5  UNL     1       3.465   0.598  -0.645  1.00  0.00     0.239 C 
BRANCH   4   5
HETATM    5  C4  UNL     1       4.805   0.166  -1.259  1.00  0.00     0.104 C 
BRANCH   5   6
HETATM    6  C3  UNL     1       5.669  -0.232  -0.109  1.00  0.00     0.099 A 
HETATM    7  N3  UNL     1       6.419   0.748   0.428  1.00  0.00    -0.341 N 
HETATM    8  C2  UNL     1       7.232   0.506   1.466  1.00  0.00     0.199 A 
ATOM      9  H3  UNL     1       6.368   1.690   0.039  1.00  0.00     0.167 HD
HETATM   10  N2  UNL     1       7.292  -0.747   1.972  1.00  0.00    -0.188 N 
HETATM   11  C1  UNL     1       6.535  -1.704   1.419  1.00  0.00     0.678 A 
ATOM     12  H2  UNL     1       7.903  -0.959   2.761  1.00  0.00     0.185 HD
HETATM   13  N1  UNL     1       6.571  -2.918   1.882  1.00  0.00    -0.234 N 
HETATM   14  N6  UNL     1       5.724  -1.464   0.386  1.00  0.00    -0.181 N 
ATOM     15  H12 UNL     1       7.191  -3.101   2.671  1.00  0.00     0.174 HD
ATOM     16  H11 UNL     1       5.995  -3.647   1.461  1.00  0.00     0.174 HD
ATOM     17  H6  UNL     1       5.158  -2.212  -0.015  1.00  0.00     0.185 HD
ENDBRANCH   5   6
ENDBRANCH   4   5
ENDBRANCH   1   4
BRANCH   1  18
HETATM   18  C6  UNL     1       1.294   1.422  -1.300  1.00  0.00     0.235 C 
BRANCH  18  19
HETATM   19  C7  UNL     1       0.546   0.289  -0.767  1.00  0.00     0.069 C 
BRANCH  19  20
HETATM   20  C8  UNL     1      -0.859   0.545  -0.249  1.00  0.00     0.078 C 
HETATM   21  C9  UNL     1      -1.638   1.098  -1.320  1.00  0.00     0.042 C 
HETATM   22  C10 UNL     1      -2.845   2.010  -0.973  1.00  0.00     0.003 C 
HETATM   23  C11 UNL     1      -3.858   1.028  -0.664  1.00  0.00     0.000 C 
HETATM   24  C12 UNL     1      -5.289   1.162  -0.397  1.00  0.00     0.000 C 
HETATM   25  C13 UNL     1      -5.626  -0.326  -0.056  1.00  0.00     0.005 C 
HETATM   26  C14 UNL     1      -4.954  -0.827   1.165  1.00  0.00     0.044 C 
HETATM   27  C15 UNL     1      -3.957  -1.907   1.112  1.00  0.00     0.060 C 
HETATM   28  N5  UNL     1      -3.188  -2.244   0.029  1.00  0.00    -0.379 N 
HETATM   29  C16 UNL     1      -1.865  -1.835  -0.214  1.00  0.00     0.086 C 
ATOM     30  H5  UNL     1      -3.617  -2.851  -0.669  1.00  0.00     0.164 HD
HETATM   31  C17 UNL     1      -1.256  -0.703   0.465  1.00  0.00     0.027 C 
BRANCH  20  32
HETATM   32  O1  UNL     1      -0.691   1.497   0.789  1.00  0.00    -0.386 OA
ATOM     33  H1  UNL     1      -1.570   1.657   1.113  1.00  0.00     0.211 HD
ENDBRANCH  20  32
ENDBRANCH  19  20
ENDBRANCH  18  19
ENDBRANCH   1  18
TORSDOF 7
