REMARK  8 active torsions:
REMARK  status: ('A' for Active; 'I' for Inactive)
REMARK       I    between atoms: N1_1  and  C1_4 
REMARK       I    between atoms: C1_4  and  N2_5 
REMARK       I    between atoms: C1_4  and  N4_13 
REMARK    1  A    between atoms: N2_5  and  C2_7 
REMARK    2  A    between atoms: N4_13  and  C5_15 
REMARK    3  A    between atoms: C9_19  and  C10_20 
REMARK    4  A    between atoms: C10_20  and  N5_21 
REMARK    5  A    between atoms: N5_21  and  C11_24 
REMARK    6  A    between atoms: C11_24  and  C12_25 
REMARK    7  A    between atoms: C12_25  and  N6_26 
REMARK    8  A    between atoms: N6_26  and  C13_28 
ROOT
HETATM    1  C5  UNL     1       2.509   0.147   0.006  1.00  0.00     0.049 A 
HETATM    2  C6  UNL     1       2.951   0.201   1.336  1.00  0.00     0.030 A 
HETATM    3  C7  UNL     1       2.102   0.306   2.419  1.00  0.00     0.003 A 
HETATM    4  C8  UNL     1       0.768   0.366   2.243  1.00  0.00     0.009 A 
HETATM    5  C9  UNL     1       0.261   0.320   0.927  1.00  0.00    -0.031 A 
HETATM    6  C16 UNL     1       1.100   0.217  -0.142  1.00  0.00     0.038 A 
ENDROOT
BRANCH   5   7
HETATM    7  C10 UNL     1      -1.207   0.296   0.727  1.00  0.00     0.270 C 
BRANCH   7   8
HETATM    8  N5  UNL     1      -1.870   0.636   1.995  1.00  0.00    -0.070 N 
ATOM      9  H52 UNL     1      -1.220   0.947   2.717  1.00  0.00     0.277 HD
ATOM     10  H51 UNL     1      -2.423   1.491   1.942  1.00  0.00     0.277 HD
BRANCH   8  11
HETATM   11  C11 UNL     1      -2.656  -0.537   2.391  1.00  0.00     0.252 C 
BRANCH  11  12
HETATM   12  C12 UNL     1      -3.790  -0.882   1.500  1.00  0.00     0.150 C 
BRANCH  12  13
HETATM   13  N6  UNL     1      -4.791   0.208   1.390  1.00  0.00    -0.361 N 
ATOM     14  H6  UNL     1      -4.732   1.037   1.981  1.00  0.00     0.162 HD
BRANCH  13  15
HETATM   15  C13 UNL     1      -5.827   0.062   0.443  1.00  0.00     0.171 C 
HETATM   16  N7  UNL     1      -7.051   0.386   0.517  1.00  0.00    -0.361 N 
HETATM   17  C14 UNL     1      -7.773   0.035  -0.720  1.00  0.00     0.142 C 
ATOM     18  H7  UNL     1      -7.481   0.832   1.328  1.00  0.00     0.162 HD
HETATM   19  C15 UNL     1      -6.599   0.118  -1.718  1.00  0.00     0.142 C 
HETATM   20  N8  UNL     1      -5.583  -0.534  -0.873  1.00  0.00    -0.361 N 
ATOM     21  H8  UNL     1      -4.884  -1.228  -1.138  1.00  0.00     0.162 HD
ENDBRANCH  13  15
ENDBRANCH  12  13
ENDBRANCH  11  12
ENDBRANCH   8  11
ENDBRANCH   7   8
ENDBRANCH   5   7
BRANCH   1  22
HETATM   22  N4  UNL     1       3.378   0.115  -1.105  1.00  0.00    -0.192 N 
HETATM   23  C1  UNL     1       4.564   0.887  -1.191  1.00  0.00     0.679 C 
HETATM   24  N1  UNL     1       4.958   1.747  -0.319  1.00  0.00    -0.234 N 
HETATM   25  N2  UNL     1       5.417   0.777  -2.337  1.00  0.00    -0.155 N 
ATOM     26  H12 UNL     1       5.811   2.302  -0.381  1.00  0.00     0.174 HD
ATOM     27  H11 UNL     1       4.351   1.825   0.497  1.00  0.00     0.174 HD
ATOM     28  H2  UNL     1       5.150   1.303  -3.169  1.00  0.00     0.188 HD
ATOM     29  H4  UNL     1       3.141  -0.495  -1.887  1.00  0.00     0.184 HD
BRANCH  25  30
HETATM   30  C2  UNL     1       6.469   0.086  -2.405  1.00  0.00     0.242 A 
HETATM   31  N3  UNL     1       6.988  -0.675  -1.441  1.00  0.00    -0.330 N 
HETATM   32  C3  UNL     1       8.139  -1.235  -1.929  1.00  0.00     0.116 A 
ATOM     33  H3  UNL     1       6.598  -0.815  -0.509  1.00  0.00     0.168 HD
HETATM   34  C4  UNL     1       8.268  -0.769  -3.211  1.00  0.00     0.162 A 
HETATM   35  O1  UNL     1       7.265   0.018  -3.480  1.00  0.00    -0.290 OA
ENDBRANCH  25  30
ENDBRANCH   1  22
TORSDOF 8
