REMARK  8 active torsions:
REMARK  status: ('A' for Active; 'I' for Inactive)
REMARK    1  A    between atoms: C8_14  and  C9_15 
REMARK    2  A    between atoms: C9_15  and  S1_16 
REMARK    3  A    between atoms: S1_16  and  C10_17 
REMARK    4  A    between atoms: C10_17  and  C11_18 
REMARK    5  A    between atoms: C11_18  and  C12_19 
REMARK    6  A    between atoms: C12_19  and  N4_20 
REMARK    7  A    between atoms: C12_19  and  C13_24 
REMARK    8  A    between atoms: C14_27  and  N6_28 
ROOT
HETATM    1  N1  UNL     1      -6.191  -1.737   0.765  1.00  0.00    -0.388 N 
ATOM      2  H11 UNL     1      -5.942  -2.702   0.982  1.00  0.00     0.157 HD
ATOM      3  H12 UNL     1      -7.192  -1.695   0.955  1.00  0.00     0.157 HD
HETATM    4  C1  UNL     1      -5.461  -0.767   0.353  1.00  0.00     0.092 C 
HETATM    5  N2  UNL     1      -5.808   0.580   0.050  1.00  0.00    -0.293 N 
ATOM      6  H2  UNL     1      -6.757   0.954   0.028  1.00  0.00     0.183 HD
HETATM    7  N3  UNL     1      -4.626   1.321  -0.217  1.00  0.00    -0.134 NA
HETATM    8  C2  UNL     1      -3.658   0.568   0.538  1.00  0.00     0.117 C 
HETATM    9  C3  UNL     1      -4.006  -0.828   0.077  1.00  0.00     0.075 C 
HETATM   10  C4  UNL     1      -3.240  -1.779   0.898  1.00  0.00     0.014 C 
HETATM   11  C5  UNL     1      -1.767  -1.483   0.728  1.00  0.00     0.006 C 
HETATM   12  C6  UNL     1      -1.362  -0.098   1.019  1.00  0.00    -0.006 C 
HETATM   13  C7  UNL     1      -0.004   0.180   0.346  1.00  0.00     0.012 C 
HETATM   14  C8  UNL     1      -0.172   1.383  -0.501  1.00  0.00     0.026 C 
HETATM   15  C14 UNL     1      -1.687   1.273  -0.878  1.00  0.00     0.194 C 
HETATM   16  C15 UNL     1      -2.256   0.962   0.444  1.00  0.00     0.042 C 
ENDROOT
BRANCH  14  17
HETATM   17  C9  UNL     1       0.627   1.555  -1.706  1.00  0.00     0.080 C 
BRANCH  17  18
HETATM   18  S1  UNL     1       2.357   1.685  -1.597  1.00  0.00    -0.169 SA
BRANCH  18  19
HETATM   19  C10 UNL     1       3.314   0.345  -0.993  1.00  0.00     0.076 C 
BRANCH  19  20
HETATM   20  C11 UNL     1       3.933   0.547   0.370  1.00  0.00     0.052 C 
BRANCH  20  21
HETATM   21  C12 UNL     1       4.779  -0.677   0.748  1.00  0.00     0.272 C 
BRANCH  21  22
HETATM   22  N4  UNL     1       5.406  -0.331   2.014  1.00  0.00    -0.067 N 
ATOM     23  H43 UNL     1       5.933   0.542   1.988  1.00  0.00     0.275 HD
ATOM     24  H42 UNL     1       4.745  -0.048   2.737  1.00  0.00     0.275 HD
ATOM     25  H41 UNL     1       5.968  -1.144   2.265  1.00  0.00     0.275 HD
ENDBRANCH  21  22
BRANCH  21  26
HETATM   26  C13 UNL     1       5.700  -1.012  -0.331  1.00  0.00     0.261 C 
HETATM   27  N5  UNL     1       6.996  -0.473  -0.446  1.00  0.00    -0.060 NA
HETATM   28  O1  UNL     1       5.346  -1.830  -1.241  1.00  0.00    -0.275 OA
ENDBRANCH  21  26
ENDBRANCH  20  21
ENDBRANCH  19  20
ENDBRANCH  18  19
ENDBRANCH  17  18
ENDBRANCH  14  17
BRANCH  15  29
HETATM   29  N6  UNL     1      -1.848   0.343  -1.924  1.00  0.00    -0.074 N 
ATOM     30  H63 UNL     1      -1.266   0.567  -2.731  1.00  0.00     0.274 HD
ATOM     31  H62 UNL     1      -1.441  -0.565  -1.698  1.00  0.00     0.274 HD
ATOM     32  H61 UNL     1      -2.835   0.271  -2.170  1.00  0.00     0.274 HD
ENDBRANCH  15  29
TORSDOF 8
