REMARK  7 active torsions:
REMARK  status: ('A' for Active; 'I' for Inactive)
REMARK    1  A    between atoms: C3_3  and  C4_4 
REMARK    2  A    between atoms: C4_4  and  O1_5 
REMARK    3  A    between atoms: C6_8  and  C7_9 
REMARK    4  A    between atoms: C7_9  and  C8_10 
REMARK    5  A    between atoms: C13_18  and  O5_19 
REMARK    6  A    between atoms: C14_21  and  O6_22 
REMARK    7  A    between atoms: C15_24  and  O7_25 
ROOT
HETATM    1  C1  UNL     1      -1.716   3.121  -0.892  1.00  0.00     0.025 C 
HETATM    2  C2  UNL     1      -1.057   2.081  -0.507  1.00  0.00     0.002 C 
HETATM    3  C3  UNL     1       0.379   2.328  -0.196  1.00  0.00    -0.025 C 
HETATM    4  C5  UNL     1       1.350   1.440   0.030  1.00  0.00     0.014 C 
HETATM    5  C6  UNL     1       1.510  -0.025   0.091  1.00  0.00     0.148 C 
HETATM    6  O2  UNL     1       0.995  -0.816  -0.876  1.00  0.00    -0.349 OA
HETATM    7  C10 UNL     1      -0.373  -1.079  -0.833  1.00  0.00     0.295 C 
HETATM    8  O3  UNL     1      -0.874  -0.091  -0.195  1.00  0.00    -0.318 OA
HETATM    9  C11 UNL     1      -1.819   0.790  -0.469  1.00  0.00     0.194 C 
HETATM   10  C12 UNL     1      -2.597   0.688  -1.721  1.00  0.00     0.085 C 
HETATM   11  O4  UNL     1      -2.612   0.583   0.671  1.00  0.00    -0.319 OA
HETATM   12  C13 UNL     1      -2.860  -0.820   0.598  1.00  0.00     0.292 C 
HETATM   13  C14 UNL     1      -1.844  -1.731   1.123  1.00  0.00     0.206 C 
HETATM   14  C15 UNL     1      -0.783  -2.230   0.111  1.00  0.00     0.207 C 
ENDROOT
BRANCH   3  15
HETATM   15  C4  UNL     1       0.727   3.742  -0.139  1.00  0.00     0.203 C 
BRANCH  15  16
HETATM   16  O1  UNL     1       0.021   4.447   0.834  1.00  0.00    -0.396 OA
ATOM     17  H1  UNL     1       0.248   5.369   0.871  1.00  0.00     0.209 HD
ENDBRANCH  15  16
ENDBRANCH   3  15
BRANCH   5  18
HETATM   18  C7  UNL     1       3.013  -0.362   0.175  1.00  0.00     0.036 C 
BRANCH  18  19
HETATM   19  C8  UNL     1       3.191  -1.865   0.238  1.00  0.00    -0.002 C 
HETATM   20  C9  UNL     1       4.644  -2.185   0.319  1.00  0.00     0.005 C 
ENDBRANCH  18  19
ENDBRANCH   5  18
BRANCH  12  21
HETATM   21  O5  UNL     1      -4.041  -0.991   1.362  1.00  0.00    -0.368 OA
ATOM     22  H5  UNL     1      -4.206  -1.925   1.313  1.00  0.00     0.212 HD
ENDBRANCH  12  21
BRANCH  14  23
HETATM   23  O7  UNL     1      -1.225  -3.327  -0.583  1.00  0.00    -0.388 OA
ATOM     24  H7  UNL     1      -1.477  -4.035  -0.002  1.00  0.00     0.210 HD
ENDBRANCH  14  23
BRANCH  13  25
HETATM   25  O6  UNL     1      -2.465  -2.886   1.602  1.00  0.00    -0.388 OA
ATOM     26  H6  UNL     1      -1.805  -3.478   1.943  1.00  0.00     0.210 HD
ENDBRANCH  13  25
TORSDOF 7
