REMARK  7 active torsions:
REMARK  status: ('A' for Active; 'I' for Inactive)
REMARK    1  A    between atoms: C5_5  and  O1_6 
REMARK    2  A    between atoms: C6_8  and  O2_9 
REMARK    3  A    between atoms: N1_11  and  C7_12 
REMARK    4  A    between atoms: N2_14  and  C9_15 
REMARK    5  A    between atoms: C9_15  and  C10_16 
REMARK    6  A    between atoms: C10_16  and  O3_17 
REMARK    7  A    between atoms: N3_21  and  C12_22 
ROOT
HETATM    1  C7  UNL     1       0.351   0.106  -0.058  1.00  0.00     0.126 A 
HETATM    2  C8  UNL     1       1.130   1.230   0.162  1.00  0.00     0.142 A 
HETATM    3  N2  UNL     1       2.422   0.937  -0.057  1.00  0.00    -0.328 N 
HETATM    4  C11 UNL     1       2.433  -0.357  -0.410  1.00  0.00     0.182 A 
HETATM    5  S1  UNL     1       3.839  -1.149  -0.784  1.00  0.00    -0.040 SA
HETATM    6  N3  UNL     1       1.187  -0.866  -0.412  1.00  0.00    -0.304 N 
ENDROOT
BRANCH   1   7
HETATM    7  N1  UNL     1      -1.057   0.120   0.086  1.00  0.00    -0.328 N 
HETATM    8  C2  UNL     1      -1.983   0.396  -0.991  1.00  0.00     0.032 C 
HETATM    9  C1  UNL     1      -2.168  -0.775  -1.897  1.00  0.00     0.038 C 
HETATM   10  C3  UNL     1      -1.507   1.566  -1.842  1.00  0.00     0.038 C 
HETATM   11  C4  UNL     1      -3.294   0.780  -0.388  1.00  0.00     0.066 C 
HETATM   12  C5  UNL     1      -3.039   0.898   1.091  1.00  0.00     0.169 C 
HETATM   13  C6  UNL     1      -1.880  -0.097   1.263  1.00  0.00     0.251 C 
BRANCH  12  14
HETATM   14  O1  UNL     1      -4.173   0.470   1.758  1.00  0.00    -0.391 OA
ATOM     15  H1  UNL     1      -4.012   0.544   2.691  1.00  0.00     0.210 HD
ENDBRANCH  12  14
BRANCH  13  16
HETATM   16  O2  UNL     1      -2.487  -1.358   1.197  1.00  0.00    -0.374 OA
ATOM     17  H2  UNL     1      -1.771  -1.973   1.303  1.00  0.00     0.212 HD
ENDBRANCH  13  16
ENDBRANCH   1   7
BRANCH   6  18
HETATM   18  C12 UNL     1       0.880  -2.218  -0.751  1.00  0.00     0.094 A 
HETATM   19  C13 UNL     1       0.406  -3.247   0.165  1.00  0.00     0.028 A 
HETATM   20  C14 UNL     1       1.847  -3.216  -0.084  1.00  0.00     0.028 A 
ENDBRANCH   6  18
BRANCH   3  21
HETATM   21  C9  UNL     1       3.558   1.814   0.057  1.00  0.00     0.156 C 
BRANCH  21  22
HETATM   22  C10 UNL     1       4.161   1.803   1.445  1.00  0.00     0.184 C 
BRANCH  22  23
HETATM   23  O3  UNL     1       3.211   2.213   2.362  1.00  0.00    -0.399 OA
ATOM     24  H3  UNL     1       3.590   2.206   3.233  1.00  0.00     0.209 HD
ENDBRANCH  22  23
ENDBRANCH  21  22
ENDBRANCH   3  21
TORSDOF 7
