REMARK  8 active torsions:
REMARK  status: ('A' for Active; 'I' for Inactive)
REMARK    1  A    between atoms: C2_2  and  O1_4 
REMARK    2  A    between atoms: C2_2  and  C4_6 
REMARK    3  A    between atoms: C6_8  and  C7_9 
REMARK    4  A    between atoms: C7_9  and  O2_10 
REMARK    5  A    between atoms: C9_15  and  C10_16 
REMARK    6  A    between atoms: C10_16  and  O4_17 
REMARK    7  A    between atoms: C11_20  and  C12_21 
REMARK    8  A    between atoms: C12_21  and  O5_22 
ROOT
HETATM    1  C4  UNL     1       1.255   0.150  -0.069  1.00  0.00    -0.008 A 
HETATM    2  C5  UNL     1       0.022   0.048  -0.604  1.00  0.00     0.031 A 
HETATM    3  C6  UNL     1      -0.861  -0.816  -0.014  1.00  0.00     0.046 A 
HETATM    4  S2  UNL     1       0.055  -1.461   1.272  1.00  0.00    -0.091 SA
HETATM    5  C11 UNL     1       1.530  -0.620   1.026  1.00  0.00     0.016 A 
ENDROOT
BRANCH   3   6
HETATM    6  C7  UNL     1      -2.240  -1.157  -0.353  1.00  0.00     0.213 C 
HETATM    7  O3  UNL     1      -2.472  -1.004  -1.712  1.00  0.00    -0.340 OA
HETATM    8  C8  UNL     1      -3.672  -1.704  -1.988  1.00  0.00     0.246 C 
HETATM    9  S1  UNL     1      -4.735  -1.008  -0.654  1.00  0.00    -0.130 SA
HETATM   10  C9  UNL     1      -3.318  -0.414   0.382  1.00  0.00     0.141 C 
BRANCH   6  11
HETATM   11  O2  UNL     1      -2.494  -2.535  -0.107  1.00  0.00    -0.360 OA
ATOM     12  H2  UNL     1      -3.391  -2.757  -0.328  1.00  0.00     0.213 HD
ENDBRANCH   6  11
BRANCH  10  13
HETATM   13  C10 UNL     1      -3.297   1.060   0.281  1.00  0.00     0.185 C 
BRANCH  13  14
HETATM   14  O4  UNL     1      -2.148   1.607   0.778  1.00  0.00    -0.400 OA
ATOM     15  H4  UNL     1      -2.134   2.555   0.713  1.00  0.00     0.209 HD
ENDBRANCH  13  14
ENDBRANCH  10  13
ENDBRANCH   3   6
BRANCH   1  16
HETATM   16  C2  UNL     1       2.323   1.075  -0.621  1.00  0.00     0.079 C 
HETATM   17  C1  UNL     1       2.708   2.109   0.385  1.00  0.00     0.051 C 
HETATM   18  C3  UNL     1       3.502   0.240  -1.097  1.00  0.00     0.051 C 
BRANCH  16  19
HETATM   19  O1  UNL     1       1.827   1.753  -1.733  1.00  0.00    -0.386 OA
ATOM     20  H1  UNL     1       1.582   1.095  -2.373  1.00  0.00     0.211 HD
ENDBRANCH  16  19
ENDBRANCH   1  16
BRANCH   5  21
HETATM   21  C12 UNL     1       2.777  -0.744   1.835  1.00  0.00     0.211 C 
BRANCH  21  22
HETATM   22  O5  UNL     1       2.529  -1.674   2.840  1.00  0.00    -0.396 OA
ATOM     23  H5  UNL     1       3.323  -1.753   3.355  1.00  0.00     0.209 HD
ENDBRANCH  21  22
ENDBRANCH   5  21
TORSDOF 8
