REMARK  7 active torsions:
REMARK  status: ('A' for Active; 'I' for Inactive)
REMARK    1  A    between atoms: C3_4  and  C4_5 
REMARK    2  A    between atoms: C4_5  and  S1_6 
REMARK    3  A    between atoms: S1_6  and  S2_7 
REMARK    4  A    between atoms: S2_7  and  C5_8 
REMARK    5  A    between atoms: C10_14  and  O2_15 
REMARK    6  A    between atoms: N2_18  and  N3_19 
REMARK    7  A    between atoms: C12_22  and  O3_23 
ROOT
HETATM    1  C1  UNL     1      -5.529  -1.615   0.629  1.00  0.00     0.044 C 
HETATM    2  C2  UNL     1      -4.695  -0.354   0.545  1.00  0.00     0.168 C 
HETATM    3  O1  UNL     1      -3.499  -0.603   1.188  1.00  0.00    -0.370 OA
HETATM    4  C3  UNL     1      -2.603   0.479   1.056  1.00  0.00     0.172 C 
HETATM    5  C11 UNL     1      -2.214   0.516  -0.391  1.00  0.00     0.118 C 
HETATM    6  N2  UNL     1      -3.298   0.522  -1.286  1.00  0.00    -0.279 N 
HETATM    7  C12 UNL     1      -4.543   0.006  -0.898  1.00  0.00     0.267 C 
ENDROOT
BRANCH   4   8
HETATM    8  C4  UNL     1      -1.452   0.143   1.948  1.00  0.00     0.123 C 
BRANCH   8   9
HETATM    9  S1  UNL     1      -0.129   1.326   2.017  1.00  0.00    -0.094 SA
BRANCH   9  10
HETATM   10  S2  UNL     1       0.952   1.527   0.232  1.00  0.00    -0.089 SA
BRANCH  10  11
HETATM   11  C5  UNL     1       2.350   0.395   0.127  1.00  0.00     0.097 C 
HETATM   12  C6  UNL     1       3.418   0.695   1.151  1.00  0.00     0.063 C 
HETATM   13  C7  UNL     1       4.433  -0.409   1.088  1.00  0.00     0.064 C 
HETATM   14  N1  UNL     1       4.884  -0.766  -0.188  1.00  0.00    -0.376 N 
HETATM   15  C8  UNL     1       6.264  -0.614  -0.476  1.00  0.00     0.154 C 
HETATM   16  C9  UNL     1       3.985  -0.718  -1.269  1.00  0.00     0.095 C 
HETATM   17  C10 UNL     1       3.026   0.454  -1.227  1.00  0.00     0.171 C 
BRANCH  17  18
HETATM   18  O2  UNL     1       3.774   1.649  -1.295  1.00  0.00    -0.389 OA
ATOM     19  H2  UNL     1       4.198   1.686  -2.144  1.00  0.00     0.210 HD
ENDBRANCH  17  18
ENDBRANCH  10  11
ENDBRANCH   9  10
ENDBRANCH   8   9
ENDBRANCH   4   8
BRANCH   6  20
HETATM   20  N3  UNL     1      -3.290   1.488  -2.264  1.00  0.00    -0.341 N 
ATOM     21  H32 UNL     1      -2.385   1.863  -2.546  1.00  0.00     0.177 HD
ATOM     22  H31 UNL     1      -4.077   1.492  -2.913  1.00  0.00     0.177 HD
ENDBRANCH   6  20
BRANCH   7  23
HETATM   23  O3  UNL     1      -4.830  -1.119  -1.708  1.00  0.00    -0.372 OA
ATOM     24  H3  UNL     1      -4.733  -0.890  -2.625  1.00  0.00     0.212 HD
ENDBRANCH   7  23
TORSDOF 7
