REMARK  8 active torsions:
REMARK  status: ('A' for Active; 'I' for Inactive)
REMARK    1  A    between atoms: O1_1  and  C1_3 
REMARK    2  A    between atoms: C3_5  and  N1_6 
REMARK    3  A    between atoms: C9_12  and  O2_13 
REMARK    4  A    between atoms: N2_15  and  C10_16 
REMARK    5  A    between atoms: C10_16  and  C11_17 
REMARK    6  A    between atoms: C11_17  and  N3_18 
REMARK    7  A    between atoms: C14_21  and  O3_22 
REMARK    8  A    between atoms: C15_24  and  O4_25 
ROOT
HETATM    1  C1  UNL     1       0.179  -1.311  -1.513  1.00  0.00     0.146 A 
HETATM    2  C2  UNL     1       1.552  -1.313  -1.411  1.00  0.00     0.089 A 
HETATM    3  C3  UNL     1       1.985  -0.272  -0.606  1.00  0.00     0.086 A 
HETATM    4  C9  UNL     1       0.810   0.370  -0.218  1.00  0.00     0.171 A 
HETATM    5  N2  UNL     1      -0.236  -0.271  -0.773  1.00  0.00    -0.305 N 
ENDROOT
BRANCH   5   6
HETATM    6  C10 UNL     1      -1.621   0.160  -0.558  1.00  0.00     0.163 C 
BRANCH   6   7
HETATM    7  C11 UNL     1      -2.183  -0.530   0.643  1.00  0.00     0.296 C 
BRANCH   7   8
HETATM    8  N3  UNL     1      -3.534  -0.128   0.873  1.00  0.00     0.121 N 
HETATM    9  C12 UNL     1      -3.717   1.219   1.293  1.00  0.00     0.278 C 
HETATM   10  C13 UNL     1      -5.228   1.456   1.149  1.00  0.00     0.066 C 
HETATM   11  C14 UNL     1      -5.727   0.262   0.370  1.00  0.00     0.178 C 
HETATM   12  C15 UNL     1      -4.446  -0.320  -0.207  1.00  0.00     0.385 C 
BRANCH  11  13
HETATM   13  O3  UNL     1      -6.551   0.703  -0.664  1.00  0.00    -0.391 OA
ATOM     14  H3  UNL     1      -6.865  -0.048  -1.154  1.00  0.00     0.210 HD
ENDBRANCH  11  13
BRANCH  12  15
HETATM   15  O4  UNL     1      -4.633  -1.679  -0.517  1.00  0.00    -0.366 OA
ATOM     16  H4  UNL     1      -5.240  -1.807  -1.236  1.00  0.00     0.212 HD
ENDBRANCH  12  15
ENDBRANCH   7   8
ENDBRANCH   6   7
ENDBRANCH   5   6
BRANCH   1  17
HETATM   17  O1  UNL     1      -0.667  -2.164  -2.209  1.00  0.00    -0.346 OA
ATOM     18  H1  UNL     1      -1.614  -2.163  -2.279  1.00  0.00     0.219 HD
ENDBRANCH   1  17
BRANCH   4  19
HETATM   19  O2  UNL     1       0.758   1.487   0.606  1.00  0.00    -0.344 OA
ATOM     20  H2  UNL     1      -0.043   1.925   0.870  1.00  0.00     0.219 HD
ENDBRANCH   4  19
BRANCH   3  21
HETATM   21  N1  UNL     1       3.327   0.073  -0.249  1.00  0.00    -0.377 N 
HETATM   22  C4  UNL     1       3.680   0.066   1.135  1.00  0.00     0.123 C 
HETATM   23  C5  UNL     1       5.160   0.026   1.394  1.00  0.00     0.020 C 
HETATM   24  C6  UNL     1       5.828  -0.616   0.189  1.00  0.00     0.003 C 
HETATM   25  C7  UNL     1       5.661   0.385  -0.957  1.00  0.00     0.020 C 
HETATM   26  C8  UNL     1       4.220   0.403  -1.336  1.00  0.00     0.123 C 
ENDBRANCH   3  21
TORSDOF 8
