REMARK  10 active torsions:
REMARK  status: ('A' for Active; 'I' for Inactive)
REMARK    1  A    between atoms: C4_4  and  C5_5 
REMARK    2  A    between atoms: C5_5  and  N1_6 
REMARK    3  A    between atoms: C5_5  and  C6_10 
REMARK    4  A    between atoms: C9_15  and  N3_16 
REMARK    5  A    between atoms: N3_16  and  C10_18 
REMARK    6  A    between atoms: C10_18  and  C11_19 
REMARK    7  A    between atoms: C10_18  and  C12_24 
REMARK    8  A    between atoms: C11_19  and  N4_20 
REMARK    9  A    between atoms: C13_27  and  N6_28 
REMARK       I    between atoms: N6_28  and  C14_30 
REMARK       I    between atoms: C14_30  and  N7_31 
REMARK       I    between atoms: C14_30  and  N8_35 
REMARK   10  A    between atoms: C15_41  and  N10_42 
REMARK       I    between atoms: N10_42  and  C16_44 
ROOT
HETATM    1  C12 UNL     1      -1.854  -0.363  -0.029  1.00  0.00     0.137 A 
HETATM    2  N5  UNL     1      -2.697   0.126  -0.950  1.00  0.00    -0.177 N 
ATOM      3  H5  UNL     1      -2.339   0.309  -1.887  1.00  0.00     0.185 HD
HETATM    4  C13 UNL     1      -3.991   0.386  -0.697  1.00  0.00     0.697 A 
HETATM    5  N9  UNL     1      -4.442   0.135   0.551  1.00  0.00    -0.022 N 
ATOM      6  H9  UNL     1      -5.420   0.324   0.771  1.00  0.00     0.203 HD
HETATM    7  C15 UNL     1      -3.641  -0.356   1.513  1.00  0.00     0.702 A 
HETATM    8  N12 UNL     1      -2.359  -0.594   1.196  1.00  0.00    -0.177 N 
ATOM      9  H12 UNL     1      -1.740  -0.967   1.916  1.00  0.00     0.185 HD
ENDROOT
BRANCH   1  10
HETATM   10  C10 UNL     1      -0.450  -0.613  -0.411  1.00  0.00     0.176 C 
BRANCH  10  11
HETATM   11  N3  UNL     1       0.492  -0.154   0.567  1.00  0.00    -0.376 N 
ATOM     12  H3  UNL     1       0.103   0.094   1.476  1.00  0.00     0.160 HD
BRANCH  11  13
HETATM   13  C9  UNL     1       1.880  -0.002   0.435  1.00  0.00     0.034 A 
HETATM   14  C2  UNL     1       2.616   0.387   1.530  1.00  0.00    -0.035 A 
HETATM   15  C1  UNL     1       1.963   0.637   2.867  1.00  0.00     0.050 C 
HETATM   16  C3  UNL     1       3.978   0.557   1.420  1.00  0.00     0.018 A 
HETATM   17  C4  UNL     1       4.663   0.346   0.215  1.00  0.00    -0.019 A 
HETATM   18  C7  UNL     1       3.894  -0.038  -0.840  1.00  0.00     0.012 A 
HETATM   19  C8  UNL     1       2.527  -0.213  -0.752  1.00  0.00     0.030 A 
BRANCH  17  20
HETATM   20  C5  UNL     1       6.127   0.546   0.221  1.00  0.00     0.304 C 
BRANCH  20  21
HETATM   21  N1  UNL     1       6.721  -0.230   1.307  1.00  0.00    -0.063 N 
ATOM     22  H13 UNL     1       6.299  -0.014   2.210  1.00  0.00     0.275 HD
ATOM     23  H12 UNL     1       6.467  -1.217   1.259  1.00  0.00     0.275 HD
ATOM     24  H11 UNL     1       7.732  -0.092   1.311  1.00  0.00     0.275 HD
ENDBRANCH  20  21
BRANCH  20  25
HETATM   25  C6  UNL     1       6.733   0.214  -1.054  1.00  0.00     0.266 C 
HETATM   26  N2  UNL     1       6.503   1.047  -2.192  1.00  0.00    -0.060 NA
HETATM   27  O1  UNL     1       7.471  -0.804  -1.185  1.00  0.00    -0.274 OA
ENDBRANCH  20  25
ENDBRANCH  17  20
ENDBRANCH  11  13
ENDBRANCH  10  11
BRANCH  10  28
HETATM   28  C11 UNL     1      -0.334  -2.039  -0.820  1.00  0.00     0.262 C 
BRANCH  28  29
HETATM   29  N4  UNL     1      -0.504  -2.963   0.289  1.00  0.00    -0.077 N 
ATOM     30  H43 UNL     1       0.145  -2.747   1.046  1.00  0.00     0.274 HD
ATOM     31  H42 UNL     1      -1.386  -2.793   0.773  1.00  0.00     0.274 HD
ATOM     32  H41 UNL     1      -0.424  -3.940   0.009  1.00  0.00     0.274 HD
ENDBRANCH  28  29
ENDBRANCH  10  28
ENDBRANCH   1  10
BRANCH   4  33
HETATM   33  N6  UNL     1      -4.817   0.855  -1.566  1.00  0.00    -0.173 N 
HETATM   34  C14 UNL     1      -4.351   1.129  -2.906  1.00  0.00     0.494 C 
HETATM   35  N7  UNL     1      -4.627   2.537  -3.197  1.00  0.00    -0.032 N 
HETATM   36  N8  UNL     1      -5.115   0.354  -3.873  1.00  0.00    -0.032 N 
ATOM     37  H73 UNL     1      -5.607   2.785  -3.061  1.00  0.00     0.278 HD
ATOM     38  H72 UNL     1      -4.230   3.170  -2.503  1.00  0.00     0.278 HD
ATOM     39  H71 UNL     1      -4.298   2.730  -4.143  1.00  0.00     0.278 HD
ATOM     40  H83 UNL     1      -5.098  -0.643  -3.660  1.00  0.00     0.278 HD
ATOM     41  H82 UNL     1      -6.119   0.511  -3.779  1.00  0.00     0.278 HD
ATOM     42  H81 UNL     1      -4.786   0.547  -4.819  1.00  0.00     0.278 HD
ATOM     43  H6  UNL     1      -5.789   1.031  -1.312  1.00  0.00     0.181 HD
ENDBRANCH   4  33
BRANCH   7  44
HETATM   44  N10 UNL     1      -4.049  -0.603   2.710  1.00  0.00    -0.143 N 
HETATM   45  C16 UNL     1      -5.362  -0.397   3.158  1.00  0.00     0.346 C 
HETATM   46  N11 UNL     1      -6.258  -1.478   3.359  1.00  0.00    -0.039 NA
HETATM   47  O2  UNL     1      -5.772   0.769   3.394  1.00  0.00    -0.250 OA
ATOM     48  H10 UNL     1      -3.372  -0.973   3.377  1.00  0.00     0.188 HD
ENDBRANCH   7  44
TORSDOF 10
