REMARK  5 active torsions:
REMARK  status: ('A' for Active; 'I' for Inactive)
REMARK    1  A    between atoms: C5_17  and  C6_18 
REMARK       I    between atoms: C6_18  and  N8_20 
REMARK    2  A    between atoms: N8_20  and  C7_22 
REMARK    3  A    between atoms: C7_22  and  C8_23 
REMARK       I    between atoms: C8_23  and  N9_25 
REMARK    4  A    between atoms: N9_25  and  C9_27 
REMARK    5  A    between atoms: C9_27  and  C10_28 
ROOT
HETATM    1  C6  UNL     1      -1.787   1.081   0.844  1.00  0.00     0.257 C 
HETATM    2  O1  UNL     1      -0.947   0.686   1.683  1.00  0.00    -0.270 OA
HETATM    3  N8  UNL     1      -1.515   2.251   0.089  1.00  0.00    -0.350 N 
ATOM      4  H8  UNL     1      -2.209   2.570  -0.587  1.00  0.00     0.163 HD
ENDROOT
BRANCH   1   5
HETATM    5  C5  UNL     1      -3.040   0.315   0.664  1.00  0.00     0.204 C 
HETATM    6  C1  UNL     1      -3.864   0.413   1.870  1.00  0.00     0.131 C 
HETATM    7  N1  UNL     1      -3.501   1.176   2.820  1.00  0.00    -0.385 N 
HETATM    8  N2  UNL     1      -5.121  -0.289   2.129  1.00  0.00    -0.286 N 
ATOM      9  H12 UNL     1      -4.075   1.244   3.660  1.00  0.00     0.157 HD
ATOM     10  H11 UNL     1      -2.625   1.665   2.639  1.00  0.00     0.157 HD
HETATM   11  N3  UNL     1      -6.023  -0.573   1.068  1.00  0.00    -0.288 N 
ATOM     12  H2  UNL     1      -5.352  -0.577   3.080  1.00  0.00     0.188 HD
HETATM   13  C2  UNL     1      -5.967  -0.092  -0.301  1.00  0.00     0.132 C 
ATOM     14  H3  UNL     1      -6.804  -1.189   1.296  1.00  0.00     0.188 HD
HETATM   15  S1  UNL     1      -6.932  -0.734  -1.403  1.00  0.00    -0.058 SA
HETATM   16  C3  UNL     1      -5.003   1.008  -0.662  1.00  0.00     0.152 C 
HETATM   17  N4  UNL     1      -3.678   0.622  -0.553  1.00  0.00    -0.258 N 
HETATM   18  N5  UNL     1      -3.064   0.144  -1.694  1.00  0.00    -0.009 NA
HETATM   19  N6  UNL     1      -3.036  -1.249  -1.763  1.00  0.00    -0.017 NA
HETATM   20  N7  UNL     1      -3.288  -1.839  -0.519  1.00  0.00    -0.125 NA
HETATM   21  C4  UNL     1      -2.589  -1.156   0.549  1.00  0.00     0.183 C 
ENDBRANCH   1   5
BRANCH   3  22
HETATM   22  C7  UNL     1      -0.313   2.997   0.238  1.00  0.00     0.225 C 
BRANCH  22  23
HETATM   23  C8  UNL     1       0.950   2.288  -0.163  1.00  0.00     0.238 C 
HETATM   24  O2  UNL     1       2.041   2.929   0.048  1.00  0.00    -0.271 OA
HETATM   25  N9  UNL     1       1.014   1.021  -0.734  1.00  0.00    -0.337 N 
ATOM     26  H9  UNL     1       0.093   0.612  -0.890  1.00  0.00     0.167 HD
BRANCH  25  27
HETATM   27  C9  UNL     1       2.057   0.179  -1.143  1.00  0.00     0.096 C 
BRANCH  27  28
HETATM   28  C10 UNL     1       3.007  -0.431  -0.183  1.00  0.00     0.224 C 
HETATM   29  C11 UNL     1       3.818   0.495   0.600  1.00  0.00     0.038 C 
HETATM   30  C12 UNL     1       5.034  -0.200   1.253  1.00  0.00     0.002 C 
HETATM   31  C13 UNL     1       6.017  -0.596   0.190  1.00  0.00     0.002 C 
HETATM   32  C14 UNL     1       5.881  -2.083  -0.030  1.00  0.00     0.027 C 
HETATM   33  C15 UNL     1       4.404  -2.403  -0.110  1.00  0.00     0.233 C 
HETATM   34  N10 UNL     1       3.778  -1.421  -0.926  1.00  0.00    -0.066 N 
ATOM     35 2H10 UNL     1       3.198  -1.865  -1.638  1.00  0.00     0.278 HD
ATOM     36 1H10 UNL     1       4.465  -0.963  -1.524  1.00  0.00     0.278 HD
ENDBRANCH  27  28
ENDBRANCH  25  27
ENDBRANCH  22  23
ENDBRANCH   3  22
TORSDOF 5
