REMARK  10 active torsions:
REMARK  status: ('A' for Active; 'I' for Inactive)
REMARK       I    between atoms: C1_4  and  N3_6 
REMARK    1  A    between atoms: N3_6  and  C2_8 
REMARK    2  A    between atoms: C4_11  and  C5_12 
REMARK    3  A    between atoms: C5_12  and  N4_13 
REMARK    4  A    between atoms: N4_13  and  N5_15 
REMARK       I    between atoms: N5_15  and  C6_17 
REMARK       I    between atoms: C6_17  and  N6_18 
REMARK       I    between atoms: C6_17  and  N8_23 
REMARK    5  A    between atoms: N6_18  and  N7_20 
REMARK    6  A    between atoms: N8_23  and  C7_25 
REMARK    7  A    between atoms: C7_25  and  C8_26 
REMARK    8  A    between atoms: C8_26  and  N9_27 
REMARK    9  A    between atoms: N9_27  and  C9_29 
REMARK       I    between atoms: N11_34  and  C12_35 
REMARK   10  A    between atoms: N14_41  and  O1_42 
ROOT
HETATM    1  N5  UNL     1       1.406  -0.421   0.781  1.00  0.00    -0.131 N 
ATOM      2  H5  UNL     1       1.406  -0.647   1.776  1.00  0.00     0.205 HD
HETATM    3  C6  UNL     1       0.570  -1.142  -0.114  1.00  0.00     0.706 C 
HETATM    4  N6  UNL     1       0.101  -2.283   0.212  1.00  0.00    -0.138 N 
ATOM      5  H6  UNL     1      -0.497  -2.781  -0.448  1.00  0.00     0.205 HD
HETATM    6  N8  UNL     1       0.259  -0.585  -1.370  1.00  0.00    -0.222 N 
ATOM      7  H8  UNL     1       0.965  -0.525  -2.104  1.00  0.00     0.177 HD
ENDROOT
BRANCH   1   8
HETATM    8  N4  UNL     1       2.195   0.558   0.312  1.00  0.00    -0.295 N 
ATOM      9  H4  UNL     1       1.659   1.380   0.035  1.00  0.00     0.186 HD
BRANCH   8  10
HETATM   10  C5  UNL     1       3.391   0.712   0.134  1.00  0.00     0.140 C 
BRANCH  10  11
HETATM   11  C4  UNL     1       4.502  -0.232   0.403  1.00  0.00     0.088 A 
HETATM   12  C3  UNL     1       4.239  -1.472   0.918  1.00  0.00     0.086 A 
HETATM   13  S1  UNL     1       5.804  -2.160   1.046  1.00  0.00    -0.061 SA
HETATM   14  C2  UNL     1       6.696  -0.849   0.445  1.00  0.00     0.178 A 
HETATM   15  N14 UNL     1       5.768   0.062   0.170  1.00  0.00    -0.200 N 
BRANCH  14  16
HETATM   16  N3  UNL     1       8.003  -0.736   0.280  1.00  0.00    -0.309 N 
HETATM   17  C1  UNL     1       8.630   0.402  -0.228  1.00  0.00     0.187 C 
HETATM   18  N1  UNL     1       8.863   0.517  -1.489  1.00  0.00    -0.373 N 
HETATM   19  N2  UNL     1       9.005   1.424   0.693  1.00  0.00    -0.064 NA
ATOM     20  H12 UNL     1       9.321   1.349  -1.860  1.00  0.00     0.158 HD
ATOM     21  H11 UNL     1       8.595  -0.214  -2.148  1.00  0.00     0.158 HD
ATOM     22  H3  UNL     1       8.589  -1.530   0.540  1.00  0.00     0.170 HD
ENDBRANCH  14  16
BRANCH  15  23
HETATM   23  O1  UNL     1       6.191   1.310  -0.363  1.00  0.00    -0.280 OA
ATOM     24  H1  UNL     1       5.528   1.961  -0.560  1.00  0.00     0.245 HD
ENDBRANCH  15  23
ENDBRANCH  10  11
ENDBRANCH   8  10
ENDBRANCH   1   8
BRANCH   4  25
HETATM   25  N7  UNL     1       0.383  -2.866   1.443  1.00  0.00    -0.331 N 
ATOM     26  H72 UNL     1       0.982  -2.355   2.091  1.00  0.00     0.177 HD
ATOM     27  H71 UNL     1       0.008  -3.778   1.704  1.00  0.00     0.177 HD
ENDBRANCH   4  25
BRANCH   6  28
HETATM   28  C7  UNL     1      -1.091  -0.098  -1.596  1.00  0.00     0.157 C 
BRANCH  28  29
HETATM   29  C8  UNL     1      -1.254   1.130  -0.698  1.00  0.00     0.141 C 
BRANCH  29  30
HETATM   30  N9  UNL     1      -2.580   1.670  -0.868  1.00  0.00    -0.377 N 
ATOM     31  H9  UNL     1      -2.715   2.576  -1.316  1.00  0.00     0.160 HD
BRANCH  30  32
HETATM   32  C9  UNL     1      -3.691   0.928  -0.406  1.00  0.00     0.091 C 
HETATM   33  N10 UNL     1      -3.631   0.385   0.755  1.00  0.00    -0.377 N 
HETATM   34  C10 UNL     1      -4.718  -0.396   1.319  1.00  0.00     0.141 C 
ATOM     35  H10 UNL     1      -2.782   0.507   1.307  1.00  0.00     0.160 HD
HETATM   36  C11 UNL     1      -6.012   0.246   0.910  1.00  0.00     0.145 C 
HETATM   37  N11 UNL     1      -6.028   0.321  -0.536  1.00  0.00    -0.347 N 
HETATM   38  C12 UNL     1      -7.176  -0.081  -1.265  1.00  0.00     0.184 C 
HETATM   39  C13 UNL     1      -4.880   0.806  -1.280  1.00  0.00     0.201 C 
HETATM   40  N12 UNL     1      -7.442  -1.314  -1.388  1.00  0.00    -0.374 N 
HETATM   41  N13 UNL     1      -7.997   0.909  -1.837  1.00  0.00    -0.064 NA
ATOM     42 2H12 UNL     1      -6.847  -2.031  -0.974  1.00  0.00     0.158 HD
ATOM     43 1H12 UNL     1      -8.268  -1.603  -1.912  1.00  0.00     0.158 HD
ENDBRANCH  30  32
ENDBRANCH  29  30
ENDBRANCH  28  29
ENDBRANCH   6  28
TORSDOF 10
