REMARK  10 active torsions:
REMARK  status: ('A' for Active; 'I' for Inactive)
REMARK       I    between atoms: N1_2  and  C2_4 
REMARK    1  A    between atoms: N3_6  and  C3_8 
REMARK    2  A    between atoms: C4_9  and  C5_10 
REMARK    3  A    between atoms: C5_10  and  N4_11 
REMARK    4  A    between atoms: N4_11  and  C6_14 
REMARK    5  A    between atoms: C6_14  and  C7_15 
REMARK    6  A    between atoms: C7_15  and  O1_16 
REMARK    7  A    between atoms: C7_15  and  N5_18 
REMARK       I    between atoms: N5_18  and  C9_20 
REMARK    8  A    between atoms: C10_23  and  C11_24 
REMARK    9  A    between atoms: C13_27  and  N8_28 
REMARK   10  A    between atoms: C14_33  and  N10_34 
ROOT
HETATM    1  C3  UNL     1      -1.812   0.534  -0.421  1.00  0.00     0.119 A 
HETATM    2  C4  UNL     1      -0.716  -0.380  -0.417  1.00  0.00     0.024 A 
HETATM    3  C10 UNL     1      -0.871  -1.688   0.032  1.00  0.00     0.006 A 
HETATM    4  C12 UNL     1      -2.157  -1.991   0.468  1.00  0.00     0.065 A 
HETATM    5  C13 UNL     1      -2.518  -3.233   0.911  1.00  0.00     0.129 A 
HETATM    6  N9  UNL     1      -3.784  -3.495   1.338  1.00  0.00    -0.176 N 
ATOM      7  H9  UNL     1      -4.008  -4.436   1.662  1.00  0.00     0.186 HD
HETATM    8  C14 UNL     1      -4.741  -2.568   1.349  1.00  0.00     0.679 A 
HETATM    9  N11 UNL     1      -4.428  -1.329   0.895  1.00  0.00    -0.176 N 
ATOM     10  H11 UNL     1      -5.146  -0.605   0.889  1.00  0.00     0.186 HD
HETATM   11  C15 UNL     1      -3.190  -1.032   0.452  1.00  0.00     0.139 A 
HETATM   12  N12 UNL     1      -2.998   0.198  -0.003  1.00  0.00    -0.322 N 
HETATM   13  C16 UNL     1      -4.183   1.064  -0.124  1.00  0.00     0.159 C 
ENDROOT
BRANCH   2  14
HETATM   14  C5  UNL     1       0.494   0.216  -0.961  1.00  0.00     0.275 C 
BRANCH  14  15
HETATM   15  N4  UNL     1       1.779  -0.260  -0.394  1.00  0.00    -0.067 N 
ATOM     16  H42 UNL     1       1.807  -0.290   0.625  1.00  0.00     0.277 HD
ATOM     17  H41 UNL     1       1.962  -1.254  -0.534  1.00  0.00     0.277 HD
BRANCH  15  18
HETATM   18  C6  UNL     1       2.762   0.628  -1.001  1.00  0.00     0.286 C 
BRANCH  18  19
HETATM   19  C7  UNL     1       3.860   1.119  -0.162  1.00  0.00     0.249 C 
BRANCH  19  20
HETATM   20  O1  UNL     1       4.514   2.098  -1.046  1.00  0.00    -0.375 OA
ATOM     21  H1  UNL     1       5.225   2.416  -0.502  1.00  0.00     0.212 HD
ENDBRANCH  19  20
BRANCH  19  22
HETATM   22  N5  UNL     1       4.969   0.302   0.169  1.00  0.00    -0.312 N 
HETATM   23  C8  UNL     1       5.622  -0.509  -0.830  1.00  0.00     0.157 C 
HETATM   24  C9  UNL     1       5.483   0.303   1.493  1.00  0.00     0.332 C 
HETATM   25  N6  UNL     1       6.713  -0.319   1.873  1.00  0.00    -0.040 NA
HETATM   26  O2  UNL     1       4.790   0.917   2.383  1.00  0.00    -0.251 OA
ENDBRANCH  19  22
ENDBRANCH  18  19
ENDBRANCH  15  18
ENDBRANCH  14  15
ENDBRANCH   2  14
BRANCH   1  27
HETATM   27  N3  UNL     1      -1.517   1.729  -0.672  1.00  0.00    -0.316 N 
HETATM   28  C2  UNL     1      -1.962   2.991  -0.822  1.00  0.00     0.189 C 
HETATM   29  N1  UNL     1      -1.897   3.630  -1.922  1.00  0.00    -0.369 N 
HETATM   30  N2  UNL     1      -2.505   3.745   0.316  1.00  0.00    -0.064 NA
HETATM   31  C1  UNL     1      -2.298   4.995  -2.147  1.00  0.00     0.148 C 
ATOM     32  H1  UNL     1      -1.523   3.124  -2.725  1.00  0.00     0.161 HD
ATOM     33  H3  UNL     1      -0.510   1.754  -0.830  1.00  0.00     0.170 HD
ENDBRANCH   1  27
BRANCH   3  34
HETATM   34  C11 UNL     1       0.247  -2.591  -0.036  1.00  0.00     0.113 C 
HETATM   35  N7  UNL     1       0.411  -3.753   0.774  1.00  0.00    -0.114 NA
ENDBRANCH   3  34
BRANCH   5  36
HETATM   36  N8  UNL     1      -1.786  -4.239   0.770  1.00  0.00    -0.384 N 
ATOM     37  H82 UNL     1      -0.838  -4.043   0.450  1.00  0.00     0.157 HD
ATOM     38  H81 UNL     1      -2.055  -5.166   1.101  1.00  0.00     0.157 HD
ENDBRANCH   5  36
BRANCH   8  39
HETATM   39  N10 UNL     1      -5.849  -2.786   1.785  1.00  0.00    -0.234 N 
ATOM     40 2H10 UNL     1      -6.084  -3.718   2.126  1.00  0.00     0.174 HD
ATOM     41 1H10 UNL     1      -6.582  -2.076   1.793  1.00  0.00     0.174 HD
ENDBRANCH   8  39
TORSDOF 10
