REMARK  1 active torsions:
REMARK  status: ('A' for Active; 'I' for Inactive)
REMARK    1  A    between atoms: C2_2  and  N1_3 
ROOT
HETATM    1  N1  UNL     1      -0.084  -0.360   0.169  1.00  0.00    -0.034 N 
HETATM    2  C3  UNL     1       0.817  -0.913   1.162  1.00  0.00     0.468 C 
HETATM    3  N2  UNL     1       1.625   0.271   1.498  1.00  0.00    -0.049 N 
ATOM      4  H21 UNL     1       2.401   0.121   2.142  1.00  0.00     0.279 HD
ATOM      5  H22 UNL     1       1.176   0.972   2.087  1.00  0.00     0.279 HD
HETATM    6  C4  UNL     1       1.981   0.695   0.134  1.00  0.00     0.269 C 
HETATM    7  C5  UNL     1       0.600   0.685  -0.515  1.00  0.00     0.244 A 
HETATM    8  C6  UNL     1       0.211  -0.508  -1.230  1.00  0.00     0.275 A 
ENDROOT
BRANCH   1   9
HETATM    9  C2  UNL     1      -1.435  -0.231   0.612  1.00  0.00     0.236 C 
HETATM   10  C1  UNL     1      -2.313   0.604  -0.240  1.00  0.00     0.035 C 
ENDBRANCH   1   9
TORSDOF 1
