REMARK  1 active torsions:
REMARK  status: ('A' for Active; 'I' for Inactive)
REMARK    1  A    between atoms: N2_4  and  C1_6 
ROOT
HETATM    1  C1  UNL     1       0.678  -0.316  -0.758  1.00  0.00     0.103 C 
HETATM    2  C2  UNL     1       0.040  -1.314   0.190  1.00  0.00     0.027 C 
HETATM    3  C3  UNL     1      -1.384  -0.810   0.245  1.00  0.00     0.007 C 
HETATM    4  C4  UNL     1      -1.307   0.671   0.229  1.00  0.00    -0.008 A 
HETATM    5  C5  UNL     1      -0.206   1.442   0.829  1.00  0.00     0.012 A 
HETATM    6  C6  UNL     1      -0.048   0.991  -0.557  1.00  0.00     0.014 A 
ENDROOT
BRANCH   1   7
HETATM    7  N2  UNL     1       2.031  -0.145  -0.347  1.00  0.00    -0.338 N 
HETATM    8  N1  UNL     1       2.990  -0.429  -1.086  1.00  0.00    -0.349 N 
ATOM      9  H12 UNL     1       2.783  -0.796  -2.015  1.00  0.00     0.176 HD
ATOM     10  H11 UNL     1       3.959  -0.307  -0.792  1.00  0.00     0.176 HD
ATOM     11  H2  UNL     1       2.220   0.223   0.585  1.00  0.00     0.180 HD
ENDBRANCH   1   7
TORSDOF 1
