REMARK  3 active torsions:
REMARK  status: ('A' for Active; 'I' for Inactive)
REMARK    1  A    between atoms: N1_2  and  C2_3 
REMARK    2  A    between atoms: C3_4  and  C4_5 
REMARK    3  A    between atoms: C4_5  and  O1_6 
ROOT
HETATM    1  C2  UNL     1       0.373  -0.077   0.107  1.00  0.00     0.118 C 
HETATM    2  C3  UNL     1       1.560  -0.214   0.290  1.00  0.00    -0.051 C 
ENDROOT
BRANCH   1   3
HETATM    3  N1  UNL     1      -1.009   0.071  -0.129  1.00  0.00    -0.003 N 
HETATM    4  C1  UNL     1      -1.568   1.376   0.071  1.00  0.00     0.290 C 
HETATM    5  C5  UNL     1      -1.880  -1.036   0.262  1.00  0.00     0.283 A 
HETATM    6  C6  UNL     1      -1.626  -0.786  -1.137  1.00  0.00     0.283 A 
ENDBRANCH   1   3
BRANCH   2   7
HETATM    7  C4  UNL     1       3.014  -0.392   0.491  1.00  0.00     0.259 C 
BRANCH   7   8
HETATM    8  O1  UNL     1       3.506   0.824   0.890  1.00  0.00    -0.389 OA
ATOM      9  H1  UNL     1       4.440   0.710   1.019  1.00  0.00     0.210 HD
ENDBRANCH   7   8
ENDBRANCH   2   7
TORSDOF 3
