REMARK  4 active torsions:
REMARK  status: ('A' for Active; 'I' for Inactive)
REMARK    1  A    between atoms: C4_4  and  C5_5 
REMARK    2  A    between atoms: C5_5  and  C6_6 
REMARK    3  A    between atoms: C6_6  and  C7_7 
REMARK    4  A    between atoms: C7_7  and  N1_8 
ROOT
HETATM    1  C1  UNL     1       4.590   1.214  -0.870  1.00  0.00     0.027 C 
HETATM    2  C2  UNL     1       3.546   0.641  -0.680  1.00  0.00    -0.026 C 
HETATM    3  C3  UNL     1       2.343  -0.041  -0.431  1.00  0.00    -0.015 C 
HETATM    4  C4  UNL     1       1.326  -0.621  -0.193  1.00  0.00    -0.081 C 
ENDROOT
BRANCH   4   5
HETATM    5  C5  UNL     1       0.042  -1.335   0.138  1.00  0.00     0.176 C 
BRANCH   5   6
HETATM    6  C6  UNL     1      -0.971  -0.709   0.410  1.00  0.00    -0.150 C 
BRANCH   6   7
HETATM    7  C7  UNL     1      -2.140   0.014   0.724  1.00  0.00     0.219 C 
BRANCH   7   8
HETATM    8  N1  UNL     1      -2.532   0.842  -0.413  1.00  0.00    -0.333 N 
HETATM    9  N2  UNL     1      -3.328   1.771  -0.351  1.00  0.00    -0.349 N 
ATOM     10  H22 UNL     1      -3.735   1.966   0.564  1.00  0.00     0.176 HD
ATOM     11  H21 UNL     1      -3.602   2.349  -1.145  1.00  0.00     0.176 HD
ATOM     12  H1  UNL     1      -2.115   0.633  -1.320  1.00  0.00     0.180 HD
ENDBRANCH   7   8
ENDBRANCH   6   7
ENDBRANCH   5   6
ENDBRANCH   4   5
TORSDOF 4
