REMARK  13 active torsions:
REMARK  status: ('A' for Active; 'I' for Inactive)
REMARK    1  A    between atoms: N1_1  and  S1_4 
REMARK    2  A    between atoms: S1_4  and  C1_7 
REMARK    3  A    between atoms: C4_10  and  C5_11 
REMARK    4  A    between atoms: C5_11  and  O3_12 
REMARK    5  A    between atoms: C5_11  and  N2_14 
REMARK    6  A    between atoms: C8_17  and  N3_18 
REMARK    7  A    between atoms: N3_18  and  C9_20 
REMARK    8  A    between atoms: C10_23  and  N5_24 
REMARK    9  A    between atoms: N5_24  and  N6_26 
REMARK   10  A    between atoms: C11_28  and  C12_29 
REMARK   11  A    between atoms: N9_38  and  C17_40 
REMARK   12  A    between atoms: N10_43  and  C20_44 
REMARK   13  A    between atoms: C20_44  and  C21_45 
ROOT
HETATM    1  C9  UNL     1       0.845   0.167  -0.668  1.00  0.00     0.707 A 
HETATM    2  N4  UNL     1       0.863   1.406  -1.136  1.00  0.00    -0.020 N 
ATOM      3  H4  UNL     1       1.694   1.709  -1.644  1.00  0.00     0.203 HD
HETATM    4  C10 UNL     1      -0.136   2.291  -0.989  1.00  0.00     0.726 A 
HETATM    5  N8  UNL     1      -1.230   1.852  -0.307  1.00  0.00    -0.020 N 
ATOM      6  H8  UNL     1      -2.015   2.488  -0.168  1.00  0.00     0.203 HD
HETATM    7  C16 UNL     1      -1.304   0.612   0.186  1.00  0.00     0.707 A 
HETATM    8  N9  UNL     1      -2.318   0.126   0.826  1.00  0.00    -0.220 N 
ATOM      9  H9  UNL     1      -2.263  -0.836   1.159  1.00  0.00     0.178 HD
HETATM   10  N11 UNL     1      -0.245  -0.234  -0.002  1.00  0.00    -0.021 N 
ATOM     11  H11 UNL     1      -0.287  -1.183   0.370  1.00  0.00     0.203 HD
ENDROOT
BRANCH   1  12
HETATM   12  N3  UNL     1       1.855  -0.640  -0.879  1.00  0.00    -0.220 N 
ATOM     13  H3  UNL     1       1.856  -1.596  -0.525  1.00  0.00     0.178 HD
BRANCH  12  14
HETATM   14  C8  UNL     1       2.965  -0.115  -1.635  1.00  0.00     0.102 C 
HETATM   15  C7  UNL     1       3.825  -1.131  -2.277  1.00  0.00     0.045 C 
HETATM   16  C6  UNL     1       4.912  -1.660  -1.352  1.00  0.00     0.127 C 
HETATM   17  N2  UNL     1       5.710  -0.583  -0.886  1.00  0.00    -0.360 N 
HETATM   18  C30 UNL     1       5.216   0.786  -1.100  1.00  0.00     0.127 C 
HETATM   19  C29 UNL     1       3.732   0.852  -0.762  1.00  0.00     0.045 C 
BRANCH  17  20
HETATM   20  C5  UNL     1       6.928  -0.706  -0.222  1.00  0.00     0.165 C 
BRANCH  20  21
HETATM   21  C4  UNL     1       7.624  -1.921   0.159  1.00  0.00     0.084 A 
HETATM   22  C3  UNL     1       7.251  -3.237   0.049  1.00  0.00     0.037 A 
HETATM   23  C2  UNL     1       8.266  -4.028   0.588  1.00  0.00     0.046 A 
HETATM   24  C1  UNL     1       9.244  -3.196   1.019  1.00  0.00     0.149 A 
HETATM   25  N12 UNL     1       8.854  -1.952   0.762  1.00  0.00    -0.342 N 
ATOM     26  H12 UNL     1       9.403  -1.122   0.986  1.00  0.00     0.167 HD
BRANCH  24  27
HETATM   27  S1  UNL     1      10.783  -3.585   1.778  1.00  0.00     0.272 S 
HETATM   28  O1  UNL     1      11.206  -2.413   2.643  1.00  0.00    -0.199 OA
HETATM   29  O2  UNL     1      10.687  -4.841   2.555  1.00  0.00    -0.199 OA
BRANCH  27  30
HETATM   30  N1  UNL     1      11.962  -3.766   0.536  1.00  0.00    -0.323 N 
ATOM     31  H12 UNL     1      12.790  -3.182   0.417  1.00  0.00     0.169 HD
ATOM     32  H11 UNL     1      11.678  -4.554  -0.046  1.00  0.00     0.169 HD
ENDBRANCH  27  30
ENDBRANCH  24  27
ENDBRANCH  20  21
BRANCH  20  33
HETATM   33  O3  UNL     1       7.540   0.399   0.107  1.00  0.00    -0.344 OA
ATOM     34  H3  UNL     1       7.084   1.194  -0.142  1.00  0.00     0.219 HD
ENDBRANCH  20  33
ENDBRANCH  17  20
ENDBRANCH  12  14
ENDBRANCH   1  12
BRANCH   4  35
HETATM   35  N5  UNL     1      -0.072   3.597  -1.501  1.00  0.00    -0.131 N 
ATOM     36  H5  UNL     1       0.794   3.881  -1.959  1.00  0.00     0.205 HD
BRANCH  35  37
HETATM   37  N6  UNL     1      -1.082   4.520  -1.434  1.00  0.00    -0.295 N 
HETATM   38  C11 UNL     1      -0.967   5.762  -1.191  1.00  0.00     0.137 C 
ATOM     39  H6  UNL     1      -2.027   4.173  -1.597  1.00  0.00     0.186 HD
BRANCH  38  40
HETATM   40  C12 UNL     1      -2.159   6.616  -1.158  1.00  0.00     0.049 A 
HETATM   41  C13 UNL     1      -2.245   7.967  -0.922  1.00  0.00     0.032 A 
HETATM   42  C14 UNL     1      -3.586   8.338  -0.995  1.00  0.00     0.019 A 
HETATM   43  C15 UNL     1      -4.282   7.174  -1.277  1.00  0.00     0.088 A 
HETATM   44  N7  UNL     1      -3.407   6.169  -1.368  1.00  0.00    -0.365 N 
ATOM     45  H7  UNL     1      -3.652   5.199  -1.569  1.00  0.00     0.165 HD
ENDBRANCH  38  40
ENDBRANCH  35  37
ENDBRANCH   4  35
BRANCH   8  46
HETATM   46  C17 UNL     1      -3.528   0.878   1.094  1.00  0.00     0.102 C 
HETATM   47  C18 UNL     1      -4.306   1.102  -0.170  1.00  0.00     0.056 C 
HETATM   48  C19 UNL     1      -5.679   0.571  -0.026  1.00  0.00     0.275 C 
HETATM   49  N10 UNL     1      -5.738  -0.847   0.304  1.00  0.00     0.092 N 
HETATM   50  C27 UNL     1      -5.039  -1.099   1.545  1.00  0.00     0.275 C 
HETATM   51  C28 UNL     1      -4.381   0.148   2.079  1.00  0.00     0.056 C 
BRANCH  49  52
HETATM   52  C20 UNL     1      -7.080  -1.336   0.262  1.00  0.00     0.311 C 
BRANCH  52  53
HETATM   53  C21 UNL     1      -7.285  -2.753   0.500  1.00  0.00    -0.030 A 
HETATM   54  C22 UNL     1      -6.343  -3.732   0.289  1.00  0.00     0.009 A 
HETATM   55  C23 UNL     1      -6.595  -5.070   0.527  1.00  0.00     0.001 A 
HETATM   56  C24 UNL     1      -7.822  -5.484   0.992  1.00  0.00     0.000 A 
HETATM   57  C25 UNL     1      -8.788  -4.528   1.213  1.00  0.00     0.001 A 
HETATM   58  C26 UNL     1      -8.524  -3.205   0.973  1.00  0.00     0.009 A 
ENDBRANCH  52  53
ENDBRANCH  49  52
ENDBRANCH   8  46
TORSDOF 13
