REMARK  14 active torsions:
REMARK  status: ('A' for Active; 'I' for Inactive)
REMARK    1  A    between atoms: N1_1  and  N2_4 
REMARK    2  A    between atoms: N5_22  and  C14_24 
REMARK    3  A    between atoms: C14_24  and  C15_25 
REMARK    4  A    between atoms: C14_24  and  C28_50 
REMARK    5  A    between atoms: C15_25  and  O1_26 
REMARK    6  A    between atoms: O1_26  and  C16_27 
REMARK    7  A    between atoms: C20_31  and  C21_32 
REMARK    8  A    between atoms: C21_32  and  O2_33 
REMARK    9  A    between atoms: O2_33  and  C22_34 
REMARK   10  A    between atoms: C23_36  and  C24_37 
REMARK   11  A    between atoms: C24_37  and  O4_38 
REMARK   12  A    between atoms: C25_40  and  O5_41 
REMARK   13  A    between atoms: C26_43  and  O6_44 
REMARK   14  A    between atoms: C27_46  and  O7_47 
ROOT
HETATM    1  C14 UNL     1       0.682  -1.567  -0.216  1.00  0.00     0.140 C 
ENDROOT
BRANCH   1   2
HETATM    2  N5  UNL     1       2.071  -1.562  -0.725  1.00  0.00    -0.362 N 
HETATM    3  C13 UNL     1       3.007  -0.871  -0.205  1.00  0.00     0.147 A 
HETATM    4  N4  UNL     1       2.924  -0.055   0.850  1.00  0.00    -0.283 N 
HETATM    5  C34 UNL     1       4.318  -0.818  -0.614  1.00  0.00     0.124 A 
HETATM    6  N3  UNL     1       4.098   0.489   1.105  1.00  0.00    -0.296 N 
ATOM      7  H4  UNL     1       2.073   0.122   1.383  1.00  0.00     0.188 HD
HETATM    8  C12 UNL     1       5.007   0.048   0.223  1.00  0.00     0.091 A 
ATOM      9  H3  UNL     1       4.287   1.147   1.861  1.00  0.00     0.187 HD
HETATM   10  C11 UNL     1       6.427   0.325   0.062  1.00  0.00     0.003 A 
HETATM   11  C2  UNL     1       7.094  -0.313  -0.971  1.00  0.00    -0.025 A 
HETATM   12  C10 UNL     1       7.117   1.182   0.886  1.00  0.00     0.026 A 
HETATM   13  C1  UNL     1       6.449  -1.251  -1.906  1.00  0.00     0.188 A 
HETATM   14  C3  UNL     1       8.444  -0.071  -1.153  1.00  0.00     0.022 A 
HETATM   15  N2  UNL     1       5.055  -1.440  -1.657  1.00  0.00    -0.289 N 
HETATM   16  C4  UNL     1       9.121   0.802  -0.307  1.00  0.00    -0.025 A 
HETATM   17  C5  UNL     1      10.471   1.064  -0.458  1.00  0.00     0.012 A 
HETATM   18  C9  UNL     1       8.469   1.451   0.735  1.00  0.00    -0.025 A 
HETATM   19  C6  UNL     1      11.151   1.934   0.388  1.00  0.00     0.001 A 
HETATM   20  C7  UNL     1      10.478   2.567   1.419  1.00  0.00     0.001 A 
HETATM   21  C8  UNL     1       9.141   2.314   1.576  1.00  0.00     0.012 A 
ATOM     22  H5  UNL     1       2.291  -2.142  -1.535  1.00  0.00     0.162 HD
BRANCH  15  23
HETATM   23  N1  UNL     1       4.416  -2.227  -2.423  1.00  0.00    -0.342 N 
ATOM     24  H12 UNL     1       4.945  -2.674  -3.172  1.00  0.00     0.177 HD
ATOM     25  H11 UNL     1       3.421  -2.362  -2.245  1.00  0.00     0.177 HD
ENDBRANCH  15  23
ENDBRANCH   1   2
BRANCH   1  26
HETATM   26  C15 UNL     1       0.569  -2.429   1.000  1.00  0.00     0.201 C 
BRANCH  26  27
HETATM   27  O1  UNL     1      -0.637  -2.484   1.609  1.00  0.00    -0.359 OA
BRANCH  27  28
HETATM   28  C16 UNL     1      -1.159  -1.300   2.109  1.00  0.00     0.264 C 
HETATM   29  C17 UNL     1      -1.334  -1.305   3.583  1.00  0.00     0.087 C 
HETATM   30  C18 UNL     1      -2.220  -0.194   4.001  1.00  0.00    -0.023 C 
HETATM   31  C19 UNL     1      -3.343  -0.038   3.294  1.00  0.00     0.003 C 
HETATM   32  C20 UNL     1      -3.460  -1.066   2.182  1.00  0.00     0.171 C 
HETATM   33  O8  UNL     1      -2.304  -1.043   1.416  1.00  0.00    -0.350 OA
BRANCH  32  34
HETATM   34  C21 UNL     1      -4.677  -0.754   1.352  1.00  0.00     0.207 C 
BRANCH  34  35
HETATM   35  O2  UNL     1      -4.519   0.534   0.840  1.00  0.00    -0.356 OA
BRANCH  35  36
HETATM   36  C22 UNL     1      -5.621   0.879   0.055  1.00  0.00     0.291 C 
HETATM   37  O3  UNL     1      -6.274   1.937   0.701  1.00  0.00    -0.348 OA
HETATM   38  C23 UNL     1      -7.159   2.613  -0.105  1.00  0.00     0.179 C 
HETATM   39  C25 UNL     1      -7.487   1.950  -1.406  1.00  0.00     0.180 C 
HETATM   40  C26 UNL     1      -6.273   1.622  -2.209  1.00  0.00     0.183 C 
HETATM   41  C27 UNL     1      -5.114   1.299  -1.298  1.00  0.00     0.204 C 
BRANCH  38  42
HETATM   42  C24 UNL     1      -8.484   2.769   0.654  1.00  0.00     0.198 C 
BRANCH  42  43
HETATM   43  O4  UNL     1      -8.302   3.485   1.834  1.00  0.00    -0.398 OA
ATOM     44  H4  UNL     1      -9.122   3.582   2.304  1.00  0.00     0.209 HD
ENDBRANCH  42  43
ENDBRANCH  38  42
BRANCH  39  45
HETATM   45  O5  UNL     1      -8.307   0.845  -1.189  1.00  0.00    -0.390 OA
ATOM     46  H5  UNL     1      -8.515   0.424  -2.015  1.00  0.00     0.210 HD
ENDBRANCH  39  45
BRANCH  40  47
HETATM   47  O6  UNL     1      -6.487   0.462  -2.984  1.00  0.00    -0.390 OA
ATOM     48  H6  UNL     1      -5.714   0.253  -3.495  1.00  0.00     0.210 HD
ENDBRANCH  40  47
BRANCH  41  49
HETATM   49  O7  UNL     1      -4.306   2.430  -1.086  1.00  0.00    -0.388 OA
ATOM     50  H7  UNL     1      -3.986   2.695  -1.940  1.00  0.00     0.210 HD
ENDBRANCH  41  49
ENDBRANCH  35  36
ENDBRANCH  34  35
ENDBRANCH  32  34
ENDBRANCH  27  28
ENDBRANCH  26  27
ENDBRANCH   1  26
BRANCH   1  51
HETATM   51  C28 UNL     1      -0.162  -2.055  -1.372  1.00  0.00    -0.034 A 
HETATM   52  C29 UNL     1      -1.040  -3.094  -1.288  1.00  0.00     0.009 A 
HETATM   53  C30 UNL     1      -1.768  -3.452  -2.423  1.00  0.00     0.001 A 
HETATM   54  C31 UNL     1      -1.623  -2.785  -3.619  1.00  0.00     0.000 A 
HETATM   55  C32 UNL     1      -0.737  -1.733  -3.708  1.00  0.00     0.001 A 
HETATM   56  C33 UNL     1      -0.032  -1.398  -2.585  1.00  0.00     0.009 A 
ENDBRANCH   1  51
TORSDOF 14
