REMARK  14 active torsions:
REMARK  status: ('A' for Active; 'I' for Inactive)
REMARK    1  A    between atoms: C1_2  and  C2_4 
REMARK    2  A    between atoms: C3_6  and  O4_7 
REMARK    3  A    between atoms: O4_7  and  C4_8 
REMARK    4  A    between atoms: C5_9  and  O5_10 
REMARK    5  A    between atoms: C6_12  and  O6_13 
REMARK    6  A    between atoms: C7_15  and  C8_16 
REMARK    7  A    between atoms: C8_16  and  C9_17 
REMARK    8  A    between atoms: N1_23  and  C15_24 
REMARK    9  A    between atoms: C15_24  and  C16_25 
REMARK   10  A    between atoms: N2_37  and  C27_38 
REMARK   11  A    between atoms: C27_38  and  C28_39 
REMARK   12  A    between atoms: C34_45  and  O8_46 
REMARK   13  A    between atoms: C35_48  and  O9_49 
REMARK   14  A    between atoms: C36_51  and  O10_52 
ROOT
HETATM    1  C4  UNL     1       1.632   0.836   0.355  1.00  0.00     0.262 C 
HETATM    2  C5  UNL     1       0.760   0.689   1.564  1.00  0.00     0.198 C 
HETATM    3  C6  UNL     1      -0.301  -0.388   1.368  1.00  0.00     0.174 C 
HETATM    4  C7  UNL     1      -1.567   0.285   0.947  1.00  0.00     0.124 C 
HETATM    5  N1  UNL     1      -1.527   0.325  -0.524  1.00  0.00    -0.322 N 
HETATM    6  C26 UNL     1      -0.328   0.594  -1.269  1.00  0.00     0.323 C 
HETATM    7  O7  UNL     1      -0.508   0.380  -2.510  1.00  0.00    -0.247 OA
HETATM    8  N2  UNL     1       0.952   1.034  -0.877  1.00  0.00    -0.300 N 
ENDROOT
BRANCH   1   9
HETATM    9  O4  UNL     1       2.505  -0.257   0.334  1.00  0.00    -0.331 OA
BRANCH   9  10
HETATM   10  C3  UNL     1       3.833   0.099   0.555  1.00  0.00     0.295 C 
HETATM   11  O3  UNL     1       4.567  -0.214  -0.547  1.00  0.00    -0.340 OA
HETATM   12  C2  UNL     1       5.077  -1.435  -0.692  1.00  0.00     0.256 C 
HETATM   13  C36 UNL     1       5.306  -2.262   0.527  1.00  0.00     0.189 C 
HETATM   14  C35 UNL     1       4.387  -1.985   1.669  1.00  0.00     0.183 C 
HETATM   15  C34 UNL     1       4.367  -0.482   1.842  1.00  0.00     0.204 C 
BRANCH  12  16
HETATM   16  C1  UNL     1       6.357  -1.373  -1.442  1.00  0.00     0.206 C 
HETATM   17  O1  UNL     1       6.776  -0.256  -1.823  1.00  0.00    -0.646 OA
HETATM   18  O2  UNL     1       7.106  -2.491  -1.737  1.00  0.00    -0.646 OA
ENDBRANCH  12  16
BRANCH  13  19
HETATM   19  O10 UNL     1       5.162  -3.631   0.205  1.00  0.00    -0.390 OA
ATOM     20  H10 UNL     1       5.308  -4.158   0.982  1.00  0.00     0.210 HD
ENDBRANCH  13  19
BRANCH  14  21
HETATM   21  O9  UNL     1       3.109  -2.487   1.443  1.00  0.00    -0.390 OA
ATOM     22  H9  UNL     1       3.122  -3.431   1.334  1.00  0.00     0.210 HD
ENDBRANCH  14  21
BRANCH  15  23
HETATM   23  O8  UNL     1       5.666  -0.046   2.003  1.00  0.00    -0.388 OA
ATOM     24  H8  UNL     1       6.002  -0.412   2.813  1.00  0.00     0.210 HD
ENDBRANCH  15  23
ENDBRANCH   9  10
ENDBRANCH   1   9
BRANCH   2  25
HETATM   25  O5  UNL     1       0.246   1.866   2.065  1.00  0.00    -0.389 OA
ATOM     26  H5  UNL     1      -0.307   1.773   2.832  1.00  0.00     0.210 HD
ENDBRANCH   2  25
BRANCH   8  27
HETATM   27  C27 UNL     1       1.649   1.787  -1.903  1.00  0.00     0.168 C 
BRANCH  27  28
HETATM   28  C28 UNL     1       1.397   3.227  -1.877  1.00  0.00    -0.040 A 
HETATM   29  C29 UNL     1       0.505   3.885  -1.085  1.00  0.00     0.009 A 
HETATM   30  C30 UNL     1       0.336   5.262  -1.130  1.00  0.00     0.001 A 
HETATM   31  C31 UNL     1       1.082   6.024  -1.996  1.00  0.00     0.000 A 
HETATM   32  C32 UNL     1       1.989   5.382  -2.807  1.00  0.00     0.001 A 
HETATM   33  C33 UNL     1       2.146   4.015  -2.751  1.00  0.00     0.009 A 
ENDBRANCH  27  28
ENDBRANCH   8  27
BRANCH   3  34
HETATM   34  O6  UNL     1      -0.366  -1.137   2.511  1.00  0.00    -0.391 OA
ATOM     35  H6  UNL     1      -1.027  -1.808   2.389  1.00  0.00     0.210 HD
ENDBRANCH   3  34
BRANCH   4  36
HETATM   36  C8  UNL     1      -2.843  -0.144   1.531  1.00  0.00     0.066 C 
BRANCH  36  37
HETATM   37  C9  UNL     1      -2.951  -0.023   2.998  1.00  0.00    -0.056 A 
HETATM   38  C10 UNL     1      -3.157   1.244   3.558  1.00  0.00     0.007 A 
HETATM   39  C11 UNL     1      -3.332   1.411   4.909  1.00  0.00     0.001 A 
HETATM   40  C12 UNL     1      -3.314   0.345   5.773  1.00  0.00     0.000 A 
HETATM   41  C13 UNL     1      -3.115  -0.908   5.256  1.00  0.00     0.001 A 
HETATM   42  C14 UNL     1      -2.938  -1.066   3.884  1.00  0.00     0.007 A 
ENDBRANCH  36  37
ENDBRANCH   4  36
BRANCH   5  43
HETATM   43  C15 UNL     1      -2.725   0.130  -1.256  1.00  0.00     0.167 C 
BRANCH  43  44
HETATM   44  C16 UNL     1      -3.058  -1.231  -1.689  1.00  0.00    -0.029 A 
HETATM   45  C17 UNL     1      -2.280  -2.340  -1.479  1.00  0.00     0.010 A 
HETATM   46  C18 UNL     1      -2.617  -3.602  -1.916  1.00  0.00     0.002 A 
HETATM   47  C19 UNL     1      -3.791  -3.770  -2.599  1.00  0.00     0.012 A 
HETATM   48  C20 UNL     1      -4.609  -2.694  -2.837  1.00  0.00    -0.025 A 
HETATM   49  C21 UNL     1      -5.786  -2.896  -3.529  1.00  0.00     0.012 A 
HETATM   50  C25 UNL     1      -4.245  -1.419  -2.383  1.00  0.00    -0.018 A 
HETATM   51  C22 UNL     1      -6.593  -1.804  -3.760  1.00  0.00     0.001 A 
HETATM   52  C23 UNL     1      -6.240  -0.554  -3.316  1.00  0.00     0.001 A 
HETATM   53  C24 UNL     1      -5.070  -0.350  -2.628  1.00  0.00     0.013 A 
ENDBRANCH  43  44
ENDBRANCH   5  43
TORSDOF 14
