REMARK  13 active torsions:
REMARK  status: ('A' for Active; 'I' for Inactive)
REMARK    1  A    between atoms: C5_6  and  C6_7 
REMARK    2  A    between atoms: C7_10  and  N2_11 
REMARK    3  A    between atoms: N2_11  and  C8_13 
REMARK    4  A    between atoms: C9_16  and  N4_17 
REMARK    5  A    between atoms: N5_20  and  C12_21 
REMARK    6  A    between atoms: C12_21  and  C13_22 
REMARK    7  A    between atoms: C13_22  and  O2_23 
REMARK    8  A    between atoms: N6_29  and  C18_31 
REMARK    9  A    between atoms: C23_36  and  S1_37 
REMARK   10  A    between atoms: S1_37  and  N7_38 
REMARK   11  A    between atoms: C25_46  and  C26_47 
REMARK   12  A    between atoms: C26_47  and  N9_48 
REMARK   13  A    between atoms: N9_48  and  C27_50 
ROOT
HETATM    1  C8  UNL     1       0.331  -1.000   0.785  1.00  0.00     0.687 A 
HETATM    2  N3  UNL     1       1.029   0.105   0.528  1.00  0.00    -0.176 N 
ATOM      3  H3  UNL     1       0.516   0.986   0.525  1.00  0.00     0.186 HD
HETATM    4  C9  UNL     1       2.345   0.166   0.273  1.00  0.00     0.123 A 
HETATM    5  C16 UNL     1       3.039  -1.052   0.284  1.00  0.00     0.098 A 
HETATM    6  C17 UNL     1       2.397  -2.239   0.538  1.00  0.00     0.125 A 
HETATM    7  N6  UNL     1       2.897  -3.373   0.298  1.00  0.00    -0.341 N 
ATOM      8  H6  UNL     1       2.251  -4.111   0.580  1.00  0.00     0.167 HD
HETATM    9  N8  UNL     1       1.050  -2.175   0.789  1.00  0.00    -0.176 N 
ATOM     10  H8  UNL     1       0.554  -3.044   0.989  1.00  0.00     0.186 HD
ENDROOT
BRANCH   1  11
HETATM   11  N2  UNL     1      -0.889  -1.091   0.799  1.00  0.00    -0.176 N 
ATOM     12  H2  UNL     1      -1.066  -2.065   1.046  1.00  0.00     0.186 HD
BRANCH  11  13
HETATM   13  C7  UNL     1      -2.123  -0.554   0.653  1.00  0.00     0.122 A 
HETATM   14  N1  UNL     1      -2.784  -0.868  -0.573  1.00  0.00    -0.341 N 
HETATM   15  C6  UNL     1      -3.936  -0.317  -0.589  1.00  0.00     0.054 A 
ATOM     16  H1  UNL     1      -2.396  -1.443  -1.321  1.00  0.00     0.167 HD
HETATM   17  C25 UNL     1      -4.170   0.406   0.603  1.00  0.00    -0.009 A 
HETATM   18  C24 UNL     1      -3.033   0.242   1.329  1.00  0.00     0.060 A 
BRANCH  15  19
HETATM   19  C5  UNL     1      -4.906  -0.306  -1.698  1.00  0.00     0.022 A 
HETATM   20  C2  UNL     1      -5.128  -1.352  -2.532  1.00  0.00     0.061 A 
HETATM   21  C1  UNL     1      -4.631  -2.723  -2.319  1.00  0.00     0.077 C 
HETATM   22  O1  UNL     1      -5.885  -0.868  -3.525  1.00  0.00    -0.327 OA
HETATM   23  C3  UNL     1      -6.145   0.380  -3.358  1.00  0.00     0.143 A 
HETATM   24  C4  UNL     1      -5.545   0.841  -2.178  1.00  0.00     0.041 A 
ENDBRANCH  15  19
BRANCH  17  25
HETATM   25  C26 UNL     1      -5.546   0.821   0.927  1.00  0.00     0.162 C 
BRANCH  25  26
HETATM   26  N9  UNL     1      -5.790   2.187   1.283  1.00  0.00    -0.372 N 
ATOM     27  H9  UNL     1      -5.056   2.840   1.557  1.00  0.00     0.161 HD
BRANCH  26  28
HETATM   28  C27 UNL     1      -7.071   2.510   1.218  1.00  0.00     0.101 A 
HETATM   29  C28 UNL     1      -7.531   3.783   1.471  1.00  0.00     0.048 A 
HETATM   30  C29 UNL     1      -8.887   4.080   1.458  1.00  0.00     0.005 A 
HETATM   31  C30 UNL     1      -9.808   3.116   1.195  1.00  0.00     0.017 A 
HETATM   32  C31 UNL     1      -9.352   1.853   0.943  1.00  0.00     0.089 A 
HETATM   33  N10 UNL     1      -8.024   1.564   0.956  1.00  0.00    -0.353 N 
ATOM     34  H10 UNL     1      -7.727   0.607   0.763  1.00  0.00     0.166 HD
ENDBRANCH  26  28
ENDBRANCH  25  26
ENDBRANCH  17  25
ENDBRANCH  11  13
ENDBRANCH   1  11
BRANCH   4  35
HETATM   35  N4  UNL     1       3.071   1.354  -0.005  1.00  0.00    -0.360 N 
HETATM   36  C10 UNL     1       4.455   1.233  -0.433  1.00  0.00     0.144 C 
HETATM   37  C11 UNL     1       5.026   2.454  -1.036  1.00  0.00     0.141 C 
HETATM   38  N5  UNL     1       4.757   3.636  -0.296  1.00  0.00    -0.388 N 
HETATM   39  C14 UNL     1       3.611   3.701   0.491  1.00  0.00     0.078 C 
HETATM   40  C15 UNL     1       2.542   2.693   0.131  1.00  0.00     0.168 C 
BRANCH  38  41
HETATM   41  C12 UNL     1       5.915   4.373   0.096  1.00  0.00     0.148 C 
BRANCH  41  42
HETATM   42  C13 UNL     1       5.675   5.596   0.919  1.00  0.00     0.183 C 
BRANCH  42  43
HETATM   43  O2  UNL     1       6.971   6.125   1.172  1.00  0.00    -0.399 OA
ATOM     44  H2  UNL     1       6.818   6.903   1.695  1.00  0.00     0.209 HD
ENDBRANCH  42  43
ENDBRANCH  41  42
ENDBRANCH  38  41
ENDBRANCH   4  35
BRANCH   7  45
HETATM   45  C18 UNL     1       4.039  -3.916  -0.224  1.00  0.00     0.057 A 
HETATM   46  C19 UNL     1       4.831  -3.280  -1.193  1.00  0.00     0.031 A 
HETATM   47  C20 UNL     1       5.891  -3.873  -1.817  1.00  0.00     0.002 A 
HETATM   48  C21 UNL     1       6.211  -5.155  -1.486  1.00  0.00     0.002 A 
HETATM   49  C22 UNL     1       5.453  -5.839  -0.520  1.00  0.00     0.027 A 
HETATM   50  C23 UNL     1       4.403  -5.249   0.095  1.00  0.00     0.105 A 
BRANCH  50  51
HETATM   51  S1  UNL     1       3.434  -6.127   1.295  1.00  0.00     0.259 S 
HETATM   52  O3  UNL     1       3.253  -5.278   2.486  1.00  0.00    -0.201 OA
HETATM   53  O4  UNL     1       2.110  -6.518   0.625  1.00  0.00    -0.201 OA
BRANCH  51  54
HETATM   54  N7  UNL     1       4.185  -7.609   1.711  1.00  0.00    -0.324 N 
ATOM     55  H72 UNL     1       5.069  -7.929   1.314  1.00  0.00     0.169 HD
ATOM     56  H71 UNL     1       3.628  -8.114   2.401  1.00  0.00     0.169 HD
ENDBRANCH  51  54
ENDBRANCH  50  51
ENDBRANCH   7  45
TORSDOF 13
