REMARK  14 active torsions:
REMARK  status: ('A' for Active; 'I' for Inactive)
REMARK    1  A    between atoms: N1_1  and  C1_5 
REMARK    2  A    between atoms: C2_7  and  O2_8 
REMARK    3  A    between atoms: O2_8  and  C3_9 
REMARK    4  A    between atoms: C4_10  and  S1_11 
REMARK    5  A    between atoms: S1_11  and  C5_12 
REMARK    6  A    between atoms: C5_12  and  C6_13 
REMARK    7  A    between atoms: C7_17  and  O3_18 
REMARK    8  A    between atoms: C9_24  and  C10_25 
REMARK    9  A    between atoms: C10_25  and  C11_26 
REMARK   10  A    between atoms: C13_31  and  C14_32 
REMARK   11  A    between atoms: C14_32  and  O8_33 
REMARK   12  A    between atoms: C14_32  and  O9_35 
REMARK   13  A    between atoms: C17_43  and  N6_44 
REMARK   14  A    between atoms: C17_43  and  O11_48 
ROOT
HETATM    1  C3  UNL     1      -1.629  -1.142  -0.869  1.00  0.00     0.164 A 
HETATM    2  C4  UNL     1      -0.455  -1.041  -0.129  1.00  0.00     0.150 A 
HETATM    3  O7  UNL     1      -0.182  -2.083   0.613  1.00  0.00    -0.300 OA
HETATM    4  C13 UNL     1      -0.911  -3.167   0.700  1.00  0.00     0.112 A 
HETATM    5  C15 UNL     1      -2.086  -3.324  -0.010  1.00  0.00     0.095 A 
HETATM    6  C16 UNL     1      -2.434  -2.256  -0.817  1.00  0.00     0.211 A 
HETATM    7  O10 UNL     1      -3.502  -2.344  -1.491  1.00  0.00    -0.285 OA
ENDROOT
BRANCH   2   8
HETATM    8  S1  UNL     1       0.467   0.435  -0.295  1.00  0.00    -0.100 SA
BRANCH   8   9
HETATM    9  C5  UNL     1       1.990   0.586   0.585  1.00  0.00     0.119 C 
BRANCH   9  10
HETATM   10  C6  UNL     1       3.067  -0.271   0.025  1.00  0.00     0.236 C 
HETATM   11  N2  UNL     1       2.692  -1.674   0.112  1.00  0.00    -0.034 N 
HETATM   12  C7  UNL     1       3.962  -2.369  -0.190  1.00  0.00     0.373 C 
ATOM     13  H22 UNL     1       2.255  -1.946   0.992  1.00  0.00     0.281 HD
ATOM     14  H21 UNL     1       1.906  -1.944  -0.479  1.00  0.00     0.281 HD
HETATM   15  C8  UNL     1       4.903  -1.502   0.609  1.00  0.00     0.099 A 
HETATM   16  N3  UNL     1       6.078  -1.457   1.260  1.00  0.00    -0.260 N 
HETATM   17  C12 UNL     1       4.362  -0.230   0.742  1.00  0.00     0.034 A 
HETATM   18  O4  UNL     1       6.255  -0.270   1.754  1.00  0.00    -0.241 OA
ATOM     19  H3  UNL     1       6.730  -2.236   1.352  1.00  0.00     0.194 HD
HETATM   20  C9  UNL     1       5.250   0.519   1.474  1.00  0.00     0.097 A 
BRANCH  12  21
HETATM   21  O3  UNL     1       4.177  -2.212  -1.557  1.00  0.00    -0.365 OA
ATOM     22  H3  UNL     1       4.993  -2.658  -1.751  1.00  0.00     0.212 HD
ENDBRANCH  12  21
BRANCH  20  23
HETATM   23  C10 UNL     1       5.092   1.966   1.875  1.00  0.00     0.181 C 
BRANCH  23  24
HETATM   24  C11 UNL     1       5.366   2.798   0.695  1.00  0.00     0.178 C 
HETATM   25  O5  UNL     1       5.667   2.271  -0.392  1.00  0.00    -0.648 OA
HETATM   26  O6  UNL     1       5.291   4.170   0.785  1.00  0.00    -0.648 OA
ENDBRANCH  23  24
ENDBRANCH  20  23
ENDBRANCH   9  10
ENDBRANCH   8   9
ENDBRANCH   2   8
BRANCH   1  27
HETATM   27  O2  UNL     1      -2.024  -0.109  -1.685  1.00  0.00    -0.294 OA
BRANCH  27  28
HETATM   28  C2  UNL     1      -2.889   0.884  -1.161  1.00  0.00     0.391 C 
HETATM   29  O1  UNL     1      -4.140   0.829  -1.793  1.00  0.00    -0.304 OA
HETATM   30  C1  UNL     1      -4.997   1.624  -1.028  1.00  0.00     0.405 C 
HETATM   31  C17 UNL     1      -4.505   3.058  -0.994  1.00  0.00     0.367 C 
HETATM   32  N5  UNL     1      -3.233   3.192  -1.667  1.00  0.00    -0.070 NA
HETATM   33  N4  UNL     1      -2.339   2.177  -1.336  1.00  0.00    -0.284 N 
ATOM     34  H4  UNL     1      -1.341   2.355  -1.225  1.00  0.00     0.181 HD
BRANCH  30  35
HETATM   35  N1  UNL     1      -6.324   1.506  -1.595  1.00  0.00    -0.046 N 
ATOM     36  H13 UNL     1      -6.353   1.733  -2.589  1.00  0.00     0.277 HD
ATOM     37  H12 UNL     1      -6.640   0.539  -1.669  1.00  0.00     0.277 HD
ATOM     38  H11 UNL     1      -6.950   2.086  -1.036  1.00  0.00     0.277 HD
ENDBRANCH  30  35
BRANCH  31  39
HETATM   39  N6  UNL     1      -4.442   3.514   0.378  1.00  0.00    -0.025 N 
ATOM     40  H63 UNL     1      -5.332   3.400   0.863  1.00  0.00     0.280 HD
ATOM     41  H62 UNL     1      -3.877   2.899   0.963  1.00  0.00     0.280 HD
ATOM     42  H61 UNL     1      -4.111   4.479   0.401  1.00  0.00     0.280 HD
ENDBRANCH  31  39
BRANCH  31  43
HETATM   43  O11 UNL     1      -5.433   3.834  -1.676  1.00  0.00    -0.348 OA
ATOM     44  H11 UNL     1      -5.125   4.732  -1.655  1.00  0.00     0.214 HD
ENDBRANCH  31  43
ENDBRANCH  27  28
ENDBRANCH   1  27
BRANCH   4  45
HETATM   45  C14 UNL     1      -0.481  -4.299   1.597  1.00  0.00     0.312 C 
BRANCH  45  46
HETATM   46  O8  UNL     1       0.867  -4.491   1.386  1.00  0.00    -0.365 OA
ATOM     47  H8  UNL     1       1.138  -5.205   1.951  1.00  0.00     0.213 HD
ENDBRANCH  45  46
BRANCH  45  48
HETATM   48  O9  UNL     1      -1.262  -5.406   1.386  1.00  0.00    -0.365 OA
ATOM     49  H9  UNL     1      -0.991  -6.120   1.951  1.00  0.00     0.213 HD
ENDBRANCH  45  48
ENDBRANCH   4  45
TORSDOF 14
