REMARK  13 active torsions:
REMARK  status: ('A' for Active; 'I' for Inactive)
REMARK    1  A    between atoms: N1_1  and  C1_4 
REMARK    2  A    between atoms: C3_8  and  N3_9 
REMARK    3  A    between atoms: N5_14  and  C4_15 
REMARK    4  A    between atoms: C4_15  and  N6_16 
REMARK       I    between atoms: N6_16  and  C5_18 
REMARK    5  A    between atoms: C5_18  and  C6_20 
REMARK    6  A    between atoms: C6_20  and  C7_21 
REMARK    7  A    between atoms: C8_26  and  C9_27 
REMARK    8  A    between atoms: C11_31  and  C12_32 
REMARK    9  A    between atoms: C12_32  and  C13_34 
REMARK   10  A    between atoms: C13_34  and  N10_35 
REMARK   11  A    between atoms: C13_34  and  N12_39 
REMARK   12  A    between atoms: N10_35  and  N11_36 
REMARK   13  A    between atoms: N18_50  and  N19_51 
ROOT
HETATM    1  C7  UNL     1      -1.122  -1.501  -1.313  1.00  0.00     0.128 A 
HETATM    2  N7  UNL     1      -0.682  -1.100  -2.542  1.00  0.00    -0.285 N 
ATOM      3  H7  UNL     1      -1.268  -0.925  -3.359  1.00  0.00     0.188 HD
HETATM    4  N8  UNL     1       0.620  -0.979  -2.492  1.00  0.00    -0.281 N 
ATOM      5  H8  UNL     1       1.214  -0.691  -3.270  1.00  0.00     0.188 HD
HETATM    6  C8  UNL     1       1.064  -1.298  -1.234  1.00  0.00     0.172 A 
HETATM    7  N18 UNL     1      -0.036  -1.612  -0.544  1.00  0.00    -0.229 N 
ENDROOT
BRANCH   1   8
HETATM    8  C6  UNL     1      -2.562  -1.704  -1.060  1.00  0.00     0.182 C 
BRANCH   8   9
HETATM    9  C5  UNL     1      -3.067  -0.532  -0.302  1.00  0.00     0.226 C 
HETATM   10  N6  UNL     1      -3.789   0.467  -0.965  1.00  0.00    -0.343 N 
ATOM     11  H6  UNL     1      -3.922   0.344  -1.969  1.00  0.00     0.164 HD
HETATM   12  O1  UNL     1      -2.811  -0.489   0.952  1.00  0.00    -0.273 OA
BRANCH  10  13
HETATM   13  C4  UNL     1      -4.364   1.651  -0.379  1.00  0.00     0.275 C 
BRANCH  13  14
HETATM   14  N5  UNL     1      -5.478   1.308   0.485  1.00  0.00    -0.254 N 
HETATM   15  N4  UNL     1      -5.510   1.052   1.756  1.00  0.00    -0.279 N 
HETATM   16  C3  UNL     1      -6.763   0.779   2.197  1.00  0.00     0.145 A 
ATOM     17  H4  UNL     1      -4.685   1.056   2.356  1.00  0.00     0.189 HD
HETATM   18  C2  UNL     1      -7.585   0.875   1.090  1.00  0.00     0.140 A 
HETATM   19  N2  UNL     1      -8.825   0.792   0.616  1.00  0.00    -0.184 N 
HETATM   20  C14 UNL     1      -6.774   1.202   0.052  1.00  0.00     0.170 A 
HETATM   21  C1  UNL     1      -8.808   1.062  -0.708  1.00  0.00     0.678 A 
ATOM     22  H2  UNL     1      -9.654   0.562   1.163  1.00  0.00     0.184 HD
HETATM   23  N20 UNL     1      -7.533   1.312  -1.030  1.00  0.00    -0.173 N 
ATOM     24  H20 UNL     1      -7.197   1.550  -1.963  1.00  0.00     0.186 HD
BRANCH  16  25
HETATM   25  N3  UNL     1      -7.190   0.487   3.367  1.00  0.00    -0.382 N 
ATOM     26  H32 UNL     1      -8.132   0.282   3.699  1.00  0.00     0.157 HD
ATOM     27  H31 UNL     1      -6.583   0.416   4.184  1.00  0.00     0.157 HD
ENDBRANCH  16  25
BRANCH  21  28
HETATM   28  N1  UNL     1      -9.834   1.086  -1.525  1.00  0.00    -0.234 N 
ATOM     29  H12 UNL     1     -10.806   0.896  -1.280  1.00  0.00     0.174 HD
ATOM     30  H11 UNL     1      -9.821   1.290  -2.524  1.00  0.00     0.174 HD
ENDBRANCH  21  28
ENDBRANCH  13  14
ENDBRANCH  10  13
ENDBRANCH   8   9
ENDBRANCH   1   8
BRANCH   7  31
HETATM   31  N19 UNL     1      -0.087  -2.010   0.806  1.00  0.00    -0.335 N 
ATOM     32 2H19 UNL     1      -0.927  -2.250   1.333  1.00  0.00     0.177 HD
ATOM     33 1H19 UNL     1       0.743  -2.095   1.393  1.00  0.00     0.177 HD
ENDBRANCH   7  31
BRANCH   6  34
HETATM   34  C9  UNL     1       2.449  -1.269  -0.790  1.00  0.00     0.110 A 
HETATM   35  C10 UNL     1       3.447  -0.879  -1.699  1.00  0.00     0.124 A 
HETATM   36  N9  UNL     1       4.739  -0.826  -1.344  1.00  0.00    -0.351 N 
HETATM   37  C11 UNL     1       5.132  -1.147  -0.092  1.00  0.00     0.114 A 
ATOM     38  H9  UNL     1       5.436  -0.539  -2.031  1.00  0.00     0.166 HD
HETATM   39  N16 UNL     1       4.161  -1.517   0.758  1.00  0.00    -0.287 N 
HETATM   40  N17 UNL     1       2.872  -1.580   0.439  1.00  0.00    -0.294 N 
ATOM     41  H16 UNL     1       4.430  -1.766   1.710  1.00  0.00     0.188 HD
ATOM     42  H17 UNL     1       2.195  -1.871   1.144  1.00  0.00     0.187 HD
BRANCH  37  43
HETATM   43  C12 UNL     1       6.544  -1.106   0.340  1.00  0.00     0.171 C 
HETATM   44  S1  UNL     1       7.603  -1.816  -0.943  1.00  0.00    -0.080 SA
BRANCH  43  45
HETATM   45  C13 UNL     1       7.006   0.197   0.878  1.00  0.00     0.264 C 
BRANCH  45  46
HETATM   46  N10 UNL     1       8.399   0.181   1.288  1.00  0.00    -0.117 NA
BRANCH  46  47
HETATM   47  N11 UNL     1       9.288  -0.135   0.288  1.00  0.00    -0.346 N 
ATOM     48 2H11 UNL     1       8.978  -0.340  -0.662  1.00  0.00     0.172 HD
ATOM     49 1H11 UNL     1      10.266  -0.146   0.576  1.00  0.00     0.172 HD
ENDBRANCH  46  47
ENDBRANCH  45  46
BRANCH  45  50
HETATM   50  N12 UNL     1       6.686   1.345   0.093  1.00  0.00    -0.179 N 
HETATM   51  N13 UNL     1       5.643   1.936  -0.460  1.00  0.00    -0.207 N 
HETATM   52  N14 UNL     1       6.380   2.897  -0.926  1.00  0.00    -0.211 N 
ATOM     53  H13 UNL     1       4.647   1.721  -0.504  1.00  0.00     0.211 HD
HETATM   54  N15 UNL     1       7.451   2.342  -0.391  1.00  0.00    -0.207 N 
ATOM     55  H14 UNL     1       6.204   3.736  -1.479  1.00  0.00     0.211 HD
ATOM     56  H15 UNL     1       8.444   2.572  -0.358  1.00  0.00     0.211 HD
ENDBRANCH  45  50
ENDBRANCH  43  45
ENDBRANCH  37  43
ENDBRANCH   6  34
TORSDOF 13
