REMARK  11 active torsions:
REMARK  status: ('A' for Active; 'I' for Inactive)
REMARK    1  A    between atoms: C3_8  and  N3_9 
REMARK    2  A    between atoms: N3_9  and  C4_11 
REMARK    3  A    between atoms: C8_15  and  O2_16 
REMARK    4  A    between atoms: N5_22  and  C11_24 
REMARK    5  A    between atoms: C11_24  and  C12_25 
REMARK    6  A    between atoms: C12_25  and  C13_26 
REMARK    7  A    between atoms: C13_26  and  C14_27 
REMARK    8  A    between atoms: C14_27  and  C15_28 
REMARK    9  A    between atoms: C15_28  and  C16_29 
REMARK   10  A    between atoms: C16_29  and  C17_30 
REMARK   11  A    between atoms: C17_30  and  O3_31 
ROOT
HETATM    1  O1  UNL     1      -2.240   5.354  -0.216  1.00  0.00    -0.265 OA
HETATM    2  C1  UNL     1      -1.750   4.197  -0.267  1.00  0.00     0.285 A 
HETATM    3  N1  UNL     1      -2.531   3.103  -0.272  1.00  0.00    -0.304 N 
ATOM      4  H1  UNL     1      -3.542   3.233  -0.233  1.00  0.00     0.171 HD
HETATM    5  C2  UNL     1      -2.055   1.849  -0.326  1.00  0.00     0.154 A 
HETATM    6  N2  UNL     1      -2.830   0.753  -0.331  1.00  0.00    -0.174 N 
ATOM      7  H2  UNL     1      -3.840   0.891  -0.291  1.00  0.00     0.186 HD
HETATM    8  C3  UNL     1      -2.385  -0.498  -0.384  1.00  0.00     0.681 A 
HETATM    9  N4  UNL     1      -1.048  -0.667  -0.435  1.00  0.00    -0.175 N 
ATOM     10  H4  UNL     1      -0.671  -1.614  -0.476  1.00  0.00     0.186 HD
HETATM   11  C10 UNL     1      -0.181   0.393  -0.434  1.00  0.00     0.147 A 
HETATM   12  N5  UNL     1       1.058   0.171  -0.484  1.00  0.00    -0.374 N 
ATOM     13  H5  UNL     1       1.290  -0.822  -0.522  1.00  0.00     0.161 HD
HETATM   14  C18 UNL     1      -0.673   1.675  -0.379  1.00  0.00     0.123 A 
HETATM   15  N6  UNL     1       0.129   2.762  -0.375  1.00  0.00    -0.336 N 
ATOM     16  H6  UNL     1       1.140   2.631  -0.414  1.00  0.00     0.167 HD
HETATM   17  C19 UNL     1      -0.364   4.012  -0.321  1.00  0.00     0.172 A 
HETATM   18 CL1  UNL     1       0.617   5.446  -0.313  1.00  0.00    -0.058 Cl
ENDROOT
BRANCH  12  19
HETATM   19  C11 UNL     1       2.191   1.010  -0.498  1.00  0.00     0.121 C 
BRANCH  19  20
HETATM   20  C12 UNL     1       3.475   0.185  -0.614  1.00  0.00     0.020 C 
BRANCH  20  21
HETATM   21  C13 UNL     1       4.682   1.054  -0.631  1.00  0.00     0.002 C 
BRANCH  21  22
HETATM   22  C14 UNL     1       5.973   0.252  -0.762  1.00  0.00     0.000 C 
BRANCH  22  23
HETATM   23  C15 UNL     1       6.181  -0.704   0.354  1.00  0.00     0.002 C 
BRANCH  23  24
HETATM   24  C16 UNL     1       7.411  -1.533   0.264  1.00  0.00     0.026 C 
BRANCH  24  25
HETATM   25  C17 UNL     1       8.692  -0.795   0.248  1.00  0.00     0.164 C 
BRANCH  25  26
HETATM   26  O3  UNL     1       8.854   0.056  -0.831  1.00  0.00    -0.401 OA
ATOM     27  H3  UNL     1       9.677   0.530  -0.841  1.00  0.00     0.209 HD
ENDBRANCH  25  26
ENDBRANCH  24  25
ENDBRANCH  23  24
ENDBRANCH  22  23
ENDBRANCH  21  22
ENDBRANCH  20  21
ENDBRANCH  19  20
ENDBRANCH  12  19
BRANCH   8  28
HETATM   28  N3  UNL     1      -3.146  -1.555  -0.389  1.00  0.00    -0.221 N 
ATOM     29  H3  UNL     1      -2.716  -2.479  -0.432  1.00  0.00     0.178 HD
BRANCH  28  30
HETATM   30  C4  UNL     1      -4.546  -1.451  -0.337  1.00  0.00     0.101 C 
HETATM   31  C5  UNL     1      -5.287  -2.675  -0.825  1.00  0.00     0.026 C 
HETATM   32  C6  UNL     1      -6.607  -2.781  -0.120  1.00  0.00     0.004 C 
HETATM   33  C7  UNL     1      -7.232  -1.450   0.189  1.00  0.00     0.032 C 
HETATM   34  C8  UNL     1      -6.359  -0.527   0.967  1.00  0.00     0.120 C 
HETATM   35  C9  UNL     1      -4.994  -1.166   1.099  1.00  0.00     0.057 C 
BRANCH  34  36
HETATM   36  O2  UNL     1      -6.889  -0.173   2.203  1.00  0.00    -0.396 OA
ATOM     37  H2  UNL     1      -6.332   0.416   2.699  1.00  0.00     0.210 HD
ENDBRANCH  34  36
ENDBRANCH  28  30
ENDBRANCH   8  28
TORSDOF 11
