REMARK  10 active torsions:
REMARK  status: ('A' for Active; 'I' for Inactive)
REMARK    1  A    between atoms: C4_4  and  C5_5 
REMARK    2  A    between atoms: C6_8  and  N2_9 
REMARK    3  A    between atoms: C7_14  and  N4_15 
REMARK    4  A    between atoms: C9_20  and  O1_21 
REMARK    5  A    between atoms: O1_21  and  C10_22 
REMARK    6  A    between atoms: C10_22  and  C11_23 
REMARK    7  A    between atoms: N6_29  and  C14_30 
REMARK    8  A    between atoms: C14_30  and  C15_31 
REMARK    9  A    between atoms: C15_31  and  C16_32 
REMARK   10  A    between atoms: C16_32  and  N7_33 
ROOT
HETATM    1  C1  UNL     1       1.250   0.681   2.071  1.00  0.00     0.050 C 
HETATM    2  C2  UNL     1       0.316   0.141   1.057  1.00  0.00    -0.032 A 
HETATM    3  C3  UNL     1      -0.947   0.679   0.899  1.00  0.00     0.026 A 
HETATM    4  C4  UNL     1      -1.898   0.123   0.040  1.00  0.00     0.029 A 
HETATM    5  C9  UNL     1      -1.542  -0.992  -0.640  1.00  0.00     0.110 A 
HETATM    6  C12 UNL     1      -0.269  -1.536  -0.486  1.00  0.00     0.095 A 
HETATM    7  N5  UNL     1       0.299  -2.624  -1.014  1.00  0.00    -0.348 N 
ATOM      8  H5  UNL     1      -0.151  -3.256  -1.677  1.00  0.00     0.167 HD
HETATM    9  C13 UNL     1       1.522  -2.760  -0.554  1.00  0.00     0.184 A 
HETATM   10  N6  UNL     1       1.788  -1.722   0.316  1.00  0.00    -0.341 N 
HETATM   11  C18 UNL     1       0.684  -0.993   0.349  1.00  0.00     0.071 A 
ENDROOT
BRANCH   4  12
HETATM   12  C5  UNL     1      -3.085   0.947  -0.225  1.00  0.00     0.087 A 
HETATM   13  N1  UNL     1      -4.300   0.488  -0.516  1.00  0.00    -0.189 N 
HETATM   14  C6  UNL     1      -5.372   1.269  -0.846  1.00  0.00     0.678 A 
ATOM     15  H1  UNL     1      -4.442  -0.522  -0.491  1.00  0.00     0.184 HD
HETATM   16  N3  UNL     1      -5.246   2.594  -0.896  1.00  0.00    -0.176 N 
HETATM   17  C7  UNL     1      -4.064   3.123  -0.620  1.00  0.00     0.139 A 
ATOM     18  H3  UNL     1      -6.040   3.186  -1.141  1.00  0.00     0.186 HD
HETATM   19  C8  UNL     1      -2.959   2.350  -0.284  1.00  0.00     0.106 A 
HETATM   20 CL1  UNL     1      -1.441   3.163  -0.060  1.00  0.00    -0.078 Cl
BRANCH  14  21
HETATM   21  N2  UNL     1      -6.509   0.729  -1.111  1.00  0.00    -0.234 N 
ATOM     22  H22 UNL     1      -6.605  -0.286  -1.073  1.00  0.00     0.174 HD
ATOM     23  H21 UNL     1      -7.309   1.312  -1.357  1.00  0.00     0.174 HD
ENDBRANCH  14  21
BRANCH  17  24
HETATM   24  N4  UNL     1      -3.934   4.426  -0.667  1.00  0.00    -0.384 N 
ATOM     25  H42 UNL     1      -4.745   4.993  -0.914  1.00  0.00     0.157 HD
ATOM     26  H41 UNL     1      -3.023   4.834  -0.454  1.00  0.00     0.157 HD
ENDBRANCH  17  24
ENDBRANCH   4  12
BRANCH   5  27
HETATM   27  O1  UNL     1      -2.355  -1.691  -1.493  1.00  0.00    -0.345 OA
BRANCH  27  28
HETATM   28  C10 UNL     1      -2.869  -2.964  -1.264  1.00  0.00     0.207 C 
BRANCH  28  29
HETATM   29  C11 UNL     1      -3.665  -3.264  -0.066  1.00  0.00     0.248 C 
HETATM   30  F1  UNL     1      -2.886  -2.985   1.068  1.00  0.00    -0.253 F 
ENDBRANCH  28  29
ENDBRANCH  27  28
ENDBRANCH   5  27
BRANCH  10  31
HETATM   31  C14 UNL     1       3.104  -1.528   0.808  1.00  0.00     0.131 C 
BRANCH  31  32
HETATM   32  C15 UNL     1       4.071  -1.308  -0.361  1.00  0.00     0.040 C 
BRANCH  32  33
HETATM   33  C16 UNL     1       3.743  -0.133  -1.183  1.00  0.00     0.123 C 
BRANCH  33  34
HETATM   34  N7  UNL     1       3.861   1.110  -0.514  1.00  0.00    -0.367 N 
HETATM   35  C17 UNL     1       4.923   1.835  -0.454  1.00  0.00     0.196 C 
HETATM   36  N8  UNL     1       4.878   3.053   0.255  1.00  0.00    -0.067 NA
HETATM   37  N9  UNL     1       6.099   1.394  -1.099  1.00  0.00    -0.067 NA
ATOM     38  H7  UNL     1       3.031   1.462  -0.037  1.00  0.00     0.161 HD
ENDBRANCH  33  34
ENDBRANCH  32  33
ENDBRANCH  31  32
ENDBRANCH  10  31
TORSDOF 10
