REMARK  9 active torsions:
REMARK  status: ('A' for Active; 'I' for Inactive)
REMARK    1  A    between atoms: C4_11  and  N3_12 
REMARK    2  A    between atoms: C5_14  and  C6_15 
REMARK    3  A    between atoms: C9_20  and  N5_21 
REMARK    4  A    between atoms: N5_21  and  C10_22 
REMARK    5  A    between atoms: C10_22  and  C11_23 
REMARK    6  A    between atoms: C11_23  and  C12_24 
REMARK    7  A    between atoms: C12_24  and  N6_25 
REMARK    8  A    between atoms: N6_25  and  C13_27 
REMARK    9  A    between atoms: C13_27  and  C14_28 
ROOT
HETATM    1  C6  UNL     1      -3.205  -1.629  -0.515  1.00  0.00     0.052 A 
HETATM    2  C7  UNL     1      -3.181  -2.369  -1.661  1.00  0.00     0.048 A 
HETATM    3  C8  UNL     1      -2.032  -2.375  -2.438  1.00  0.00     0.094 A 
HETATM    4  N4  UNL     1      -0.990  -1.646  -2.020  1.00  0.00    -0.326 N 
ATOM      5  H4  UNL     1      -0.145  -1.650  -2.591  1.00  0.00     0.169 HD
HETATM    6  C9  UNL     1      -0.985  -0.902  -0.886  1.00  0.00     0.258 A 
HETATM    7  N8  UNL     1      -2.145  -0.919  -0.138  1.00  0.00    -0.315 N 
ATOM      8  H8  UNL     1      -2.190  -0.375   0.723  1.00  0.00     0.170 HD
ENDROOT
BRANCH   1   9
HETATM    9  C5  UNL     1      -4.433  -1.601   0.336  1.00  0.00     0.119 C 
HETATM   10  N3  UNL     1      -5.487  -0.923  -0.193  1.00  0.00    -0.348 N 
ATOM     11  H3  UNL     1      -5.497  -1.013  -1.209  1.00  0.00     0.167 HD
BRANCH  10  12
HETATM   12  C4  UNL     1      -6.443  -0.225   0.193  1.00  0.00     0.146 A 
HETATM   13  C3  UNL     1      -6.753   0.111   1.486  1.00  0.00     0.117 A 
HETATM   14  C2  UNL     1      -7.868   0.923   1.744  1.00  0.00     0.144 A 
HETATM   15 CL2  UNL     1      -5.795  -0.464   2.850  1.00  0.00    -0.077 Cl
HETATM   16  N2  UNL     1      -8.642   1.379   0.761  1.00  0.00    -0.180 N 
HETATM   17 CL1  UNL     1      -8.217   1.320   3.414  1.00  0.00    -0.062 Cl
HETATM   18  C1  UNL     1      -8.348   1.054  -0.516  1.00  0.00     0.678 A 
ATOM     19  H2  UNL     1      -9.448   1.967   0.971  1.00  0.00     0.185 HD
HETATM   20  N1  UNL     1      -9.147   1.537  -1.422  1.00  0.00    -0.234 N 
HETATM   21  N9  UNL     1      -7.311   0.301  -0.750  1.00  0.00    -0.175 N 
ATOM     22  H12 UNL     1      -9.959   2.127  -1.239  1.00  0.00     0.174 HD
ATOM     23  H11 UNL     1      -8.925   1.291  -2.387  1.00  0.00     0.174 HD
ATOM     24  H9  UNL     1      -7.119   0.076  -1.726  1.00  0.00     0.186 HD
ENDBRANCH  10  12
ENDBRANCH   1   9
BRANCH   6  25
HETATM   25  N5  UNL     1      -0.045  -0.251  -0.565  1.00  0.00    -0.388 NA
BRANCH  25  26
HETATM   26  C10 UNL     1       1.022   0.474  -0.224  1.00  0.00     0.164 C 
BRANCH  26  27
HETATM   27  C11 UNL     1       2.059  -0.164   0.716  1.00  0.00     0.104 C 
BRANCH  27  28
HETATM   28  C12 UNL     1       3.119   0.896   0.968  1.00  0.00     0.066 C 
BRANCH  28  29
HETATM   29  N6  UNL     1       4.156   0.465   1.818  1.00  0.00    -0.380 N 
ATOM     30  H6  UNL     1       4.224   0.848   2.761  1.00  0.00     0.164 HD
BRANCH  29  31
HETATM   31  C13 UNL     1       5.094  -0.481   1.389  1.00  0.00     0.092 C 
BRANCH  31  32
HETATM   32  C14 UNL     1       6.122  -0.067   0.396  1.00  0.00     0.224 C 
HETATM   33  C15 UNL     1       6.988   1.067   0.908  1.00  0.00     0.040 C 
HETATM   34  C16 UNL     1       7.697   1.529  -0.332  1.00  0.00     0.030 C 
HETATM   35  C17 UNL     1       6.755   1.168  -1.445  1.00  0.00     0.233 C 
HETATM   36  N7  UNL     1       5.653   0.433  -0.854  1.00  0.00    -0.066 N 
ATOM     37  H72 UNL     1       5.279  -0.294  -1.465  1.00  0.00     0.278 HD
ATOM     38  H71 UNL     1       4.798   0.984  -0.773  1.00  0.00     0.278 HD
ENDBRANCH  31  32
ENDBRANCH  29  31
ENDBRANCH  28  29
ENDBRANCH  27  28
ENDBRANCH  26  27
ENDBRANCH  25  26
ENDBRANCH   6  25
TORSDOF 9
