REMARK  14 active torsions:
REMARK  status: ('A' for Active; 'I' for Inactive)
REMARK    1  A    between atoms: C2_2  and  O1_4 
REMARK    2  A    between atoms: C2_2  and  C4_6 
REMARK    3  A    between atoms: C4_6  and  C5_7 
REMARK    4  A    between atoms: C5_7  and  C6_8 
REMARK    5  A    between atoms: C6_8  and  C7_9 
REMARK    6  A    between atoms: C7_9  and  N1_10 
REMARK    7  A    between atoms: N1_10  and  C8_12 
REMARK    8  A    between atoms: C8_12  and  C9_14 
REMARK    9  A    between atoms: C10_15  and  C11_16 
REMARK   10  A    between atoms: C13_19  and  O2_20 
REMARK   11  A    between atoms: C15_23  and  O3_24 
REMARK   12  A    between atoms: C18_28  and  O4_29 
REMARK   13  A    between atoms: C18_28  and  C19_31 
REMARK   14  A    between atoms: C19_31  and  O5_32 
ROOT
HETATM    1  C11 UNL     1      -2.235   0.072  -0.521  1.00  0.00     0.061 C 
HETATM    2  C12 UNL     1      -3.115  -1.113  -0.673  1.00  0.00     0.143 C 
HETATM    3  F2  UNL     1      -2.874  -1.746  -1.912  1.00  0.00    -0.239 F 
HETATM    4  C13 UNL     1      -2.968  -2.200   0.332  1.00  0.00     0.161 C 
HETATM    5  C14 UNL     1      -4.237  -3.020   0.184  1.00  0.00     0.067 C 
HETATM    6  C15 UNL     1      -5.202  -2.188  -0.627  1.00  0.00     0.128 C 
HETATM    7  C16 UNL     1      -4.586  -0.817  -0.685  1.00  0.00     0.060 C 
HETATM    8  C17 UNL     1      -4.930  -0.075   0.550  1.00  0.00     0.051 C 
HETATM    9  C18 UNL     1      -4.136   1.177   0.786  1.00  0.00     0.087 C 
HETATM   10  C20 UNL     1      -2.768   1.216   0.257  1.00  0.00    -0.004 C 
HETATM   11  C21 UNL     1      -2.680   2.478  -0.634  1.00  0.00     0.019 C 
HETATM   12  C22 UNL     1      -1.805   1.597   1.400  1.00  0.00     0.019 C 
ENDROOT
BRANCH   1  13
HETATM   13  C10 UNL     1      -0.869  -0.370  -0.101  1.00  0.00    -0.017 C 
HETATM   14  C9  UNL     1       0.195  -0.392  -0.878  1.00  0.00     0.027 C 
BRANCH  14  15
HETATM   15  C8  UNL     1       1.487  -0.856  -0.321  1.00  0.00     0.288 C 
HETATM   16  F1  UNL     1       1.979  -1.811  -1.223  1.00  0.00    -0.223 F 
BRANCH  15  17
HETATM   17  N1  UNL     1       2.444   0.177  -0.114  1.00  0.00    -0.390 N 
ATOM     18  H1  UNL     1       2.796   0.413   0.814  1.00  0.00     0.156 HD
BRANCH  17  19
HETATM   19  C7  UNL     1       2.878   0.858  -1.283  1.00  0.00     0.117 C 
BRANCH  19  20
HETATM   20  C6  UNL     1       3.874   1.920  -0.842  1.00  0.00     0.019 C 
BRANCH  20  21
HETATM   21  C5  UNL     1       5.029   1.245  -0.142  1.00  0.00     0.004 C 
BRANCH  21  22
HETATM   22  C4  UNL     1       5.755   0.257  -1.030  1.00  0.00     0.037 C 
BRANCH  22  23
HETATM   23  C2  UNL     1       6.901  -0.386  -0.278  1.00  0.00     0.051 C 
HETATM   24  C1  UNL     1       6.434  -1.131   0.942  1.00  0.00     0.045 C 
HETATM   25  C3  UNL     1       7.955   0.610   0.088  1.00  0.00     0.045 C 
BRANCH  23  26
HETATM   26  O1  UNL     1       7.459  -1.342  -1.157  1.00  0.00    -0.391 OA
ATOM     27  H1  UNL     1       7.754  -0.871  -1.928  1.00  0.00     0.210 HD
ENDBRANCH  23  26
ENDBRANCH  22  23
ENDBRANCH  21  22
ENDBRANCH  20  21
ENDBRANCH  19  20
ENDBRANCH  17  19
ENDBRANCH  15  17
ENDBRANCH  14  15
ENDBRANCH   1  13
BRANCH   4  28
HETATM   28  O2  UNL     1      -2.734  -1.843   1.625  1.00  0.00    -0.392 OA
ATOM     29  H2  UNL     1      -2.640  -2.537   2.267  1.00  0.00     0.210 HD
ENDBRANCH   4  28
BRANCH   9  30
HETATM   30  O4  UNL     1      -4.956   2.226   0.277  1.00  0.00    -0.387 OA
ATOM     31  H4  UNL     1      -4.454   3.018   0.426  1.00  0.00     0.210 HD
ENDBRANCH   9  30
BRANCH   9  32
HETATM   32  C19 UNL     1      -4.223   1.416   2.307  1.00  0.00     0.202 C 
BRANCH  32  33
HETATM   33  O5  UNL     1      -5.582   1.308   2.695  1.00  0.00    -0.398 OA
ATOM     34  H5  UNL     1      -5.636   1.455   3.632  1.00  0.00     0.209 HD
ENDBRANCH  32  33
ENDBRANCH   9  32
BRANCH   6  35
HETATM   35  O3  UNL     1      -5.353  -2.769  -1.885  1.00  0.00    -0.395 OA
ATOM     36  H3  UNL     1      -5.960  -2.246  -2.395  1.00  0.00     0.210 HD
ENDBRANCH   6  35
TORSDOF 14
