REMARK  3 active torsions:
REMARK  status: ('A' for Active; 'I' for Inactive)
REMARK    1  A    between atoms: C2_2  and  N1_4 
REMARK       I    between atoms: N1_4  and  C4_6 
REMARK       I    between atoms: C4_6  and  N3_10 
REMARK    2  A    between atoms: N3_10  and  N4_12 
REMARK    3  A    between atoms: C5_14  and  C6_15 
ROOT
HETATM    1  N1  UNL     1      -2.295  -0.754   0.734  1.00  0.00    -0.221 N 
ATOM      2  H1  UNL     1      -2.409  -1.671   1.166  1.00  0.00     0.178 HD
HETATM    3  C4  UNL     1      -1.016  -0.324   0.329  1.00  0.00     0.686 C 
HETATM    4  N2  UNL     1      -0.544   0.792   0.754  1.00  0.00    -0.234 N 
ATOM      5  H21 UNL     1       0.382   1.103   0.461  1.00  0.00     0.174 HD
ATOM      6  H22 UNL     1      -1.126   1.343   1.385  1.00  0.00     0.174 HD
HETATM    7  N3  UNL     1      -0.200  -1.096  -0.556  1.00  0.00    -0.133 N 
ATOM      8  H3  UNL     1      -0.606  -1.563  -1.367  1.00  0.00     0.205 HD
ENDROOT
BRANCH   7   9
HETATM    9  N4  UNL     1       1.154  -1.194  -0.285  1.00  0.00    -0.297 N 
HETATM   10  C5  UNL     1       1.951  -0.202  -0.453  1.00  0.00     0.123 C 
ATOM     11  H4  UNL     1       1.529  -2.079   0.058  1.00  0.00     0.186 HD
BRANCH  10  12
HETATM   12  C6  UNL     1       3.400  -0.336  -0.153  1.00  0.00     0.036 A 
HETATM   13  C7  UNL     1       3.905  -1.522   0.308  1.00  0.00     0.089 A 
HETATM   14 CL1  UNL     1       3.045  -3.031   0.626  1.00  0.00    -0.075 Cl
HETATM   15  S1  UNL     1       5.563  -1.194   0.500  1.00  0.00    -0.063 SA
HETATM   16  C8  UNL     1       5.578   0.432  -0.006  1.00  0.00     0.101 A 
HETATM   17 CL2  UNL     1       6.958   1.544  -0.108  1.00  0.00    -0.074 Cl
HETATM   18  C9  UNL     1       4.269   0.680  -0.316  1.00  0.00     0.088 A 
HETATM   19  N5  UNL     1       3.904   2.001  -0.794  1.00  0.00    -0.099 NA
ENDBRANCH  10  12
ENDBRANCH   7   9
BRANCH   1  20
HETATM   20  C2  UNL     1      -3.452   0.101   0.540  1.00  0.00     0.091 C 
HETATM   21  C1  UNL     1      -4.706  -0.557   1.043  1.00  0.00     0.032 C 
HETATM   22  C3  UNL     1      -3.539   0.436  -0.938  1.00  0.00     0.032 C 
ENDBRANCH   1  20
TORSDOF 3
