REMARK  4 active torsions:
REMARK  status: ('A' for Active; 'I' for Inactive)
REMARK    1  A    between atoms: N1_1  and  C1_4 
REMARK    2  A    between atoms: C4_14  and  C5_15 
REMARK    3  A    between atoms: C5_15  and  C6_16 
REMARK    4  A    between atoms: C6_16  and  C7_17 
ROOT
HETATM    1  C1  UNL     1       3.439   0.196   0.751  1.00  0.00     0.132 A 
HETATM    2  N2  UNL     1       4.220   1.101   0.133  1.00  0.00    -0.317 N 
ATOM      3  H2  UNL     1       5.109   1.386   0.544  1.00  0.00     0.170 HD
HETATM    4  C2  UNL     1       3.808   1.624  -1.036  1.00  0.00     0.182 A 
HETATM    5 CL1  UNL     1       4.811   2.817  -1.874  1.00  0.00    -0.045 Cl
HETATM    6  N3  UNL     1       2.624   1.248  -1.590  1.00  0.00    -0.317 N 
ATOM      7  H3  UNL     1       2.329   1.655  -2.477  1.00  0.00     0.170 HD
HETATM    8  C3  UNL     1       1.839   0.343  -0.977  1.00  0.00     0.140 A 
HETATM    9  N4  UNL     1       0.640  -0.219  -1.267  1.00  0.00    -0.330 N 
ATOM     10  H4  UNL     1       0.095  -0.004  -2.102  1.00  0.00     0.168 HD
HETATM   11  C4  UNL     1       0.262  -1.078  -0.338  1.00  0.00     0.083 A 
HETATM   12  N7  UNL     1       1.287  -1.049   0.585  1.00  0.00    -0.340 N 
ATOM     13  H7  UNL     1       1.312  -1.604   1.440  1.00  0.00     0.167 HD
HETATM   14  C10 UNL     1       2.236  -0.201   0.210  1.00  0.00     0.122 A 
ENDROOT
BRANCH  11  15
HETATM   15  C5  UNL     1      -0.934  -1.903  -0.201  1.00  0.00     0.083 C 
BRANCH  15  16
HETATM   16  C6  UNL     1      -2.052  -1.382   0.604  1.00  0.00     0.066 C 
BRANCH  16  17
HETATM   17  C7  UNL     1      -2.770  -0.179   0.164  1.00  0.00     0.027 A 
HETATM   18  C8  UNL     1      -2.744   0.496  -1.033  1.00  0.00     0.115 A 
HETATM   19  N5  UNL     1      -3.589   1.554  -0.872  1.00  0.00    -0.341 N 
HETATM   20  C9  UNL     1      -4.094   1.508   0.366  1.00  0.00     0.179 A 
ATOM     21  H5  UNL     1      -3.800   2.261  -1.576  1.00  0.00     0.167 HD
HETATM   22 CL2  UNL     1      -5.244   2.654   1.077  1.00  0.00    -0.045 Cl
HETATM   23  N6  UNL     1      -3.617   0.457   1.038  1.00  0.00    -0.335 N 
ATOM     24  H6  UNL     1      -3.835   0.185   1.996  1.00  0.00     0.168 HD
ENDBRANCH  16  17
ENDBRANCH  15  16
ENDBRANCH  11  15
BRANCH   1  25
HETATM   25  N1  UNL     1       3.846  -0.299   1.874  1.00  0.00    -0.383 N 
ATOM     26  H12 UNL     1       4.737  -0.005   2.275  1.00  0.00     0.157 HD
ATOM     27  H11 UNL     1       3.254  -0.985   2.342  1.00  0.00     0.157 HD
ENDBRANCH   1  25
TORSDOF 4
