REMARK  4 active torsions:
REMARK  status: ('A' for Active; 'I' for Inactive)
REMARK    1  A    between atoms: C3_5  and  N2_6 
REMARK    2  A    between atoms: C4_9  and  N3_10 
REMARK    3  A    between atoms: N3_10  and  C5_12 
REMARK    4  A    between atoms: C5_12  and  C6_13 
ROOT
HETATM    1  C1  UNL     1      -5.004   0.019   0.275  1.00  0.00     0.089 C 
HETATM    2  C2  UNL     1      -3.510  -0.094   0.311  1.00  0.00     0.079 A 
HETATM    3  N1  UNL     1      -2.897  -0.996  -0.476  1.00  0.00    -0.331 N 
ATOM      4  H1  UNL     1      -3.442  -1.599  -1.093  1.00  0.00     0.168 HD
HETATM    5  C3  UNL     1      -1.532  -1.095  -0.439  1.00  0.00     0.130 A 
HETATM    6  C4  UNL     1      -0.804  -0.280   0.394  1.00  0.00     0.111 A 
HETATM    7  C9  UNL     1      -1.481   0.623   1.176  1.00  0.00     0.135 A 
HETATM    8 CL1  UNL     1      -0.601   1.666   2.237  1.00  0.00    -0.062 Cl
HETATM    9  N6  UNL     1      -2.842   0.717   1.134  1.00  0.00    -0.335 N 
ATOM     10  H6  UNL     1      -3.337   1.391   1.718  1.00  0.00     0.168 HD
ENDROOT
BRANCH   6  11
HETATM   11  N3  UNL     1       0.600  -0.386   0.428  1.00  0.00    -0.377 N 
ATOM     12  H3  UNL     1       1.066  -1.022   1.076  1.00  0.00     0.160 HD
BRANCH  11  13
HETATM   13  C5  UNL     1       1.366   0.445  -0.496  1.00  0.00     0.196 C 
BRANCH  13  14
HETATM   14  C6  UNL     1       2.813   0.239  -0.358  1.00  0.00     0.100 A 
HETATM   15  N4  UNL     1       3.591  -0.636  -0.994  1.00  0.00    -0.338 N 
HETATM   16  C7  UNL     1       4.869  -0.528  -0.603  1.00  0.00     0.096 A 
ATOM     17  H4  UNL     1       3.257  -1.303  -1.690  1.00  0.00     0.168 HD
HETATM   18 BR1  UNL     1       6.401  -1.506  -1.163  1.00  0.00    -0.030 Br
HETATM   19  C8  UNL     1       4.895   0.472   0.334  1.00  0.00     0.127 A 
HETATM   20  N5  UNL     1       3.625   0.928   0.468  1.00  0.00    -0.352 N 
ATOM     21  H5  UNL     1       3.330   1.676   1.096  1.00  0.00     0.166 HD
ENDBRANCH  13  14
ENDBRANCH  11  13
ENDBRANCH   6  11
BRANCH   5  22
HETATM   22  N2  UNL     1      -0.923  -1.946  -1.180  1.00  0.00    -0.384 N 
ATOM     23  H22 UNL     1      -1.463  -2.551  -1.798  1.00  0.00     0.157 HD
ATOM     24  H21 UNL     1       0.094  -2.020  -1.152  1.00  0.00     0.157 HD
ENDBRANCH   5  22
TORSDOF 4
