REMARK  7 active torsions:
REMARK  status: ('A' for Active; 'I' for Inactive)
REMARK       I    between atoms: N1_2  and  C2_4 
REMARK       I    between atoms: C2_4  and  N2_6 
REMARK    1  A    between atoms: N2_6  and  N3_7 
REMARK    2  A    between atoms: N2_6  and  N13_35 
REMARK       I    between atoms: N4_9  and  C3_11 
REMARK       I    between atoms: C3_11  and  N5_13 
REMARK    3  A    between atoms: N5_13  and  N6_15 
REMARK    4  A    between atoms: C4_17  and  C5_18 
REMARK    5  A    between atoms: C7_23  and  N9_24 
REMARK    6  A    between atoms: C8_29  and  N11_30 
REMARK    7  A    between atoms: N11_30  and  N12_32 
ROOT
HETATM    1  N6  UNL     1      -1.850  -0.127   0.055  1.00  0.00    -0.307 N 
ATOM      2  H6  UNL     1      -2.395   0.498   0.649  1.00  0.00     0.186 HD
HETATM    3  C4  UNL     1      -2.597  -1.012  -0.369  1.00  0.00     0.126 C 
ENDROOT
BRANCH   1   4
HETATM    4  N5  UNL     1      -0.595   0.311   0.022  1.00  0.00    -0.251 N 
HETATM    5  C3  UNL     1       0.492  -0.527   0.427  1.00  0.00     0.354 C 
HETATM    6  N4  UNL     1       1.796   0.002   0.387  1.00  0.00    -0.234 N 
HETATM    7  O2  UNL     1       0.260  -1.687   0.799  1.00  0.00    -0.244 OA
HETATM    8  N3  UNL     1       2.516  -0.073  -0.668  1.00  0.00    -0.213 N 
ATOM      9  H4  UNL     1       2.176   0.455   1.218  1.00  0.00     0.193 HD
ATOM     10  H3  UNL     1       2.215  -0.508  -1.540  1.00  0.00     0.210 HD
ATOM     11  H5  UNL     1      -0.404   1.261  -0.297  1.00  0.00     0.191 HD
BRANCH   8  12
HETATM   12  N2  UNL     1       3.798   0.531  -0.469  1.00  0.00    -0.125 N 
HETATM   13  C2  UNL     1       4.106   1.694  -1.196  1.00  0.00     0.357 C 
HETATM   14  N1  UNL     1       5.368   2.346  -1.008  1.00  0.00    -0.344 N 
HETATM   15  O1  UNL     1       3.255   2.149  -2.007  1.00  0.00    -0.243 OA
HETATM   16  C1  UNL     1       5.638   3.541  -1.779  1.00  0.00     0.151 C 
ATOM     17  H1  UNL     1       6.056   1.979  -0.350  1.00  0.00     0.163 HD
BRANCH  12  18
HETATM   18  N13 UNL     1       4.629  -0.092   0.443  1.00  0.00    -0.249 N 
HETATM   19  C9  UNL     1       5.620  -0.821   0.073  1.00  0.00     0.217 C 
HETATM   20  N14 UNL     1       5.931  -1.039  -1.296  1.00  0.00    -0.065 NA
HETATM   21  N15 UNL     1       6.402  -1.415   1.104  1.00  0.00    -0.065 NA
ATOM     22  H13 UNL     1       4.450   0.031   1.440  1.00  0.00     0.191 HD
ENDBRANCH  12  18
ENDBRANCH   8  12
ENDBRANCH   1   4
BRANCH   3  23
HETATM   23  C5  UNL     1      -4.024  -0.950   0.045  1.00  0.00     0.068 A 
HETATM   24  C6  UNL     1      -4.935  -1.901  -0.374  1.00  0.00     0.147 A 
HETATM   25  N7  UNL     1      -4.450  -2.967  -1.188  1.00  0.00    -0.081 NA
HETATM   26  N8  UNL     1      -6.248  -1.829  -0.016  1.00  0.00    -0.178 N 
HETATM   27  C7  UNL     1      -6.679  -0.821   0.758  1.00  0.00     0.678 A 
ATOM     28  H8  UNL     1      -6.904  -2.542  -0.337  1.00  0.00     0.185 HD
HETATM   29  N10 UNL     1      -5.785   0.102   1.162  1.00  0.00    -0.175 N 
HETATM   30  C8  UNL     1      -4.488   0.082   0.845  1.00  0.00     0.150 A 
ATOM     31  H10 UNL     1      -6.121   0.866   1.748  1.00  0.00     0.186 HD
BRANCH  27  32
HETATM   32  N9  UNL     1      -7.944  -0.718   1.132  1.00  0.00    -0.234 N 
ATOM     33  H92 UNL     1      -8.621  -1.417   0.826  1.00  0.00     0.174 HD
ATOM     34  H91 UNL     1      -8.272   0.048   1.720  1.00  0.00     0.174 HD
ENDBRANCH  27  32
BRANCH  30  35
HETATM   35  N11 UNL     1      -3.620   0.960   1.238  1.00  0.00    -0.291 N 
ATOM     36  H11 UNL     1      -2.637   0.894   0.973  1.00  0.00     0.188 HD
BRANCH  35  37
HETATM   37  N12 UNL     1      -4.095   2.013   2.050  1.00  0.00    -0.344 N 
ATOM     38 2H12 UNL     1      -5.081   2.066   2.307  1.00  0.00     0.176 HD
ATOM     39 1H12 UNL     1      -3.412   2.704   2.359  1.00  0.00     0.176 HD
ENDBRANCH  35  37
ENDBRANCH  30  35
ENDBRANCH   3  23
TORSDOF 7
