REMARK  7 active torsions:
REMARK  status: ('A' for Active; 'I' for Inactive)
REMARK    1  A    between atoms: C2_2  and  O1_3 
REMARK    2  A    between atoms: C2_2  and  C3_5 
REMARK    3  A    between atoms: C11_23  and  O2_24 
REMARK    4  A    between atoms: C11_23  and  C12_26 
REMARK    5  A    between atoms: C12_26  and  O3_27 
REMARK    6  A    between atoms: C12_26  and  N5_29 
REMARK       I    between atoms: N5_29  and  C13_31 
REMARK    7  A    between atoms: C13_31  and  C14_33 
ROOT
HETATM    1  C3  UNL     1      -0.180   1.804   0.140  1.00  0.00     0.250 C 
HETATM    2  N1  UNL     1       1.109   1.826  -0.511  1.00  0.00    -0.393 N 
ATOM      3  H1  UNL     1       1.214   1.752  -1.523  1.00  0.00     0.155 HD
HETATM    4  C4  UNL     1       2.222   1.959   0.368  1.00  0.00     0.144 C 
HETATM    5  C5  UNL     1       3.465   1.516  -0.375  1.00  0.00     0.251 C 
HETATM    6  N2  UNL     1       4.246   0.551   0.335  1.00  0.00    -0.074 N 
ATOM      7  H21 UNL     1       3.898   0.426   1.285  1.00  0.00     0.277 HD
ATOM      8  H22 UNL     1       5.175   0.916   0.546  1.00  0.00     0.277 HD
HETATM    9  C6  UNL     1       4.332  -0.722  -0.360  1.00  0.00     0.234 C 
HETATM   10  C7  UNL     1       2.919  -1.164  -0.640  1.00  0.00     0.055 C 
HETATM   11  C8  UNL     1       2.771  -2.660  -0.748  1.00  0.00     0.234 C 
HETATM   12  N3  UNL     1       1.333  -2.930  -0.774  1.00  0.00    -0.074 N 
ATOM     13  H31 UNL     1       1.133  -3.821  -1.229  1.00  0.00     0.277 HD
ATOM     14  H32 UNL     1       0.852  -2.306  -1.422  1.00  0.00     0.277 HD
HETATM   15  C9  UNL     1       0.743  -2.872   0.541  1.00  0.00     0.251 C 
HETATM   16  C10 UNL     1      -0.685  -2.302   0.492  1.00  0.00     0.146 C 
HETATM   17  N4  UNL     1      -0.686  -0.929   0.760  1.00  0.00    -0.364 N 
ATOM     18  H4  UNL     1       0.002  -0.556   1.414  1.00  0.00     0.158 HD
HETATM   19  C11 UNL     1      -1.594  -0.051   0.165  1.00  0.00     0.290 C 
HETATM   20  O6  UNL     1      -0.992   0.956  -0.610  1.00  0.00    -0.308 OA
ENDROOT
BRANCH  19  21
HETATM   21  O2  UNL     1      -2.227   0.670   1.215  1.00  0.00    -0.345 OA
ATOM     22  H2  UNL     1      -2.845   1.267   0.810  1.00  0.00     0.215 HD
ENDBRANCH  19  21
BRANCH  19  23
HETATM   23  C12 UNL     1      -2.710  -0.592  -0.660  1.00  0.00     0.307 C 
BRANCH  23  24
HETATM   24  O3  UNL     1      -2.272  -1.095  -1.911  1.00  0.00    -0.369 OA
ATOM     25  H3  UNL     1      -2.984  -1.440  -2.437  1.00  0.00     0.212 HD
ENDBRANCH  23  24
BRANCH  23  26
HETATM   26  N5  UNL     1      -3.624  -1.462  -0.012  1.00  0.00    -0.323 N 
HETATM   27  C13 UNL     1      -4.994  -1.123   0.119  1.00  0.00     0.281 C 
HETATM   28  O4  UNL     1      -5.387  -0.027  -0.356  1.00  0.00    -0.265 OA
ATOM     29  H5  UNL     1      -3.289  -2.348   0.367  1.00  0.00     0.165 HD
BRANCH  27  30
HETATM   30  C14 UNL     1      -5.962  -1.987   0.777  1.00  0.00     0.332 C 
HETATM   31  O5  UNL     1      -5.569  -3.095   1.258  1.00  0.00    -0.297 OA
ENDBRANCH  27  30
ENDBRANCH  23  26
ENDBRANCH  19  23
BRANCH   1  32
HETATM   32  C2  UNL     1      -0.812   3.179   0.155  1.00  0.00     0.162 C 
HETATM   33  C1  UNL     1      -0.026   4.188   0.921  1.00  0.00     0.044 C 
BRANCH  32  34
HETATM   34  O1  UNL     1      -0.990   3.640  -1.152  1.00  0.00    -0.392 OA
ATOM     35  H1  UNL     1      -1.491   2.997  -1.640  1.00  0.00     0.210 HD
ENDBRANCH  32  34
ENDBRANCH   1  32
TORSDOF 7
