REMARK  10 active torsions:
REMARK  status: ('A' for Active; 'I' for Inactive)
REMARK    1  A    between atoms: C2_2  and  C3_3 
REMARK    2  A    between atoms: C3_3  and  N1_4 
REMARK    3  A    between atoms: N1_4  and  C4_6 
REMARK    4  A    between atoms: C4_6  and  N2_8 
REMARK    5  A    between atoms: N2_8  and  N3_10 
REMARK       I    between atoms: N3_10  and  C5_12 
REMARK       I    between atoms: C5_12  and  N4_14 
REMARK    6  A    between atoms: N4_14  and  N5_16 
REMARK       I    between atoms: N5_16  and  C6_18 
REMARK       I    between atoms: C6_18  and  N6_20 
REMARK    7  A    between atoms: N6_20  and  N7_22 
REMARK       I    between atoms: N7_22  and  C7_24 
REMARK    8  A    between atoms: C7_24  and  C8_26 
REMARK    9  A    between atoms: C9_30  and  O4_31 
REMARK   10  A    between atoms: C9_30  and  O5_33 
ROOT
HETATM    1  N5  UNL     1       0.611  -1.750   1.001  1.00  0.00    -0.246 N 
ATOM      2  H5  UNL     1       0.475  -2.612   1.530  1.00  0.00     0.192 HD
HETATM    3  C6  UNL     1       1.870  -1.479   0.405  1.00  0.00     0.353 C 
HETATM    4  O2  UNL     1       2.089  -0.422  -0.248  1.00  0.00    -0.244 OA
HETATM    5  N6  UNL     1       2.913  -2.427   0.546  1.00  0.00    -0.248 N 
ATOM      6  H6  UNL     1       2.766  -3.289   1.071  1.00  0.00     0.192 HD
ENDROOT
BRANCH   1   7
HETATM    7  N4  UNL     1      -0.457  -0.832   0.866  1.00  0.00    -0.246 N 
HETATM    8  C5  UNL     1      -1.408  -0.881  -0.159  1.00  0.00     0.353 C 
HETATM    9  N3  UNL     1      -2.448   0.038  -0.285  1.00  0.00    -0.248 N 
HETATM   10  O1  UNL     1      -1.306  -1.825  -1.023  1.00  0.00    -0.244 OA
ATOM     11  H3  UNL     1      -2.523   0.788   0.402  1.00  0.00     0.192 HD
ATOM     12  H4  UNL     1      -0.539  -0.088   1.559  1.00  0.00     0.192 HD
BRANCH   9  13
HETATM   13  N2  UNL     1      -3.393  -0.024  -1.313  1.00  0.00    -0.272 N 
ATOM     14  H2  UNL     1      -3.056  -0.249  -2.249  1.00  0.00     0.189 HD
BRANCH  13  15
HETATM   15  C4  UNL     1      -4.779   0.201  -1.155  1.00  0.00     0.186 C 
HETATM   16  S1  UNL     1      -5.759   0.048  -2.435  1.00  0.00    -0.040 SA
BRANCH  15  17
HETATM   17  N1  UNL     1      -5.298   0.529   0.113  1.00  0.00    -0.366 N 
ATOM     18  H1  UNL     1      -4.646   0.597   0.895  1.00  0.00     0.161 HD
BRANCH  17  19
HETATM   19  C3  UNL     1      -6.685   0.773   0.370  1.00  0.00     0.121 C 
BRANCH  19  20
HETATM   20  C2  UNL     1      -7.158   2.059  -0.253  1.00  0.00     0.015 C 
HETATM   21  C1  UNL     1      -6.357   3.224   0.316  1.00  0.00     0.006 C 
ENDBRANCH  19  20
ENDBRANCH  17  19
ENDBRANCH  15  17
ENDBRANCH  13  15
ENDBRANCH   9  13
ENDBRANCH   1   7
BRANCH   5  22
HETATM   22  N7  UNL     1       4.151  -2.155  -0.052  1.00  0.00    -0.262 N 
HETATM   23  C7  UNL     1       5.166  -1.592   0.745  1.00  0.00     0.293 C 
HETATM   24  O3  UNL     1       4.961  -1.350   1.949  1.00  0.00    -0.267 OA
ATOM     25  H7  UNL     1       4.312  -2.359  -1.038  1.00  0.00     0.190 HD
BRANCH  23  26
HETATM   26  C8  UNL     1       6.483  -1.297   0.109  1.00  0.00     0.431 C 
HETATM   27  N8  UNL     1       7.459  -0.742   1.001  1.00  0.00     0.045 N 
HETATM   28  C9  UNL     1       7.557   0.329   0.059  1.00  0.00     0.464 C 
ATOM     29  H82 UNL     1       7.255  -0.575   1.986  1.00  0.00     0.290 HD
ATOM     30  H81 UNL     1       8.277  -1.272   1.301  1.00  0.00     0.290 HD
HETATM   31  O6  UNL     1       6.419  -0.103  -0.570  1.00  0.00    -0.267 OA
BRANCH  28  32
HETATM   32  O4  UNL     1       7.475   1.606   0.626  1.00  0.00    -0.320 OA
ATOM     33  H4  UNL     1       7.540   2.318   0.000  1.00  0.00     0.217 HD
ENDBRANCH  28  32
BRANCH  28  34
HETATM   34  O5  UNL     1       8.639   0.201  -0.840  1.00  0.00    -0.320 OA
ATOM     35  H5  UNL     1       8.704   0.913  -1.466  1.00  0.00     0.217 HD
ENDBRANCH  28  34
ENDBRANCH  23  26
ENDBRANCH   5  22
TORSDOF 10
