REMARK  3 active torsions:
REMARK  status: ('A' for Active; 'I' for Inactive)
REMARK    1  A    between atoms: C3_3  and  N1_4 
REMARK    2  A    between atoms: C6_7  and  N2_8 
REMARK       I    between atoms: N2_8  and  C7_10 
REMARK       I    between atoms: C7_10  and  N4_14 
REMARK       I    between atoms: N4_14  and  C8_16 
REMARK    3  A    between atoms: C13_22  and  C14_23 
ROOT
HETATM    1  C1  UNL     1      -2.483   4.965  -1.194  1.00  0.00     0.013 C 
HETATM    2  C2  UNL     1      -2.761   3.870  -0.748  1.00  0.00    -0.089 C 
HETATM    3  C3  UNL     1      -3.117   2.550  -0.193  1.00  0.00     0.330 C 
ENDROOT
BRANCH   3   4
HETATM    4  N1  UNL     1      -1.967   1.716  -0.108  1.00  0.00    -0.053 N 
HETATM    5  C4  UNL     1      -0.973   2.244   0.822  1.00  0.00     0.241 C 
HETATM    6  C5  UNL     1       0.028   1.147   1.130  1.00  0.00     0.064 C 
HETATM    7  C6  UNL     1       0.055   0.151  -0.056  1.00  0.00     0.075 C 
HETATM    8  C10 UNL     1       0.083   1.051  -1.327  1.00  0.00     0.064 C 
HETATM    9  C12 UNL     1      -1.240  -0.505  -0.129  1.00  0.00    -0.029 C 
HETATM   10  C11 UNL     1      -1.313   1.648  -1.389  1.00  0.00     0.241 C 
HETATM   11  C13 UNL     1      -1.603  -1.670  -0.571  1.00  0.00    -0.020 C 
HETATM   12  C16 UNL     1      -2.375   0.400   0.374  1.00  0.00     0.275 C 
BRANCH   7  13
HETATM   13  N2  UNL     1       1.243  -0.615   0.006  1.00  0.00    -0.213 N 
HETATM   14  C7  UNL     1       1.789  -1.260   1.137  1.00  0.00     0.675 C 
HETATM   15  N3  UNL     1       1.020  -1.755   2.024  1.00  0.00    -0.235 N 
HETATM   16  N4  UNL     1       3.185  -1.375   1.326  1.00  0.00    -0.161 N 
ATOM     17  H32 UNL     1       0.013  -1.672   1.888  1.00  0.00     0.174 HD
ATOM     18  H31 UNL     1       1.414  -2.221   2.841  1.00  0.00     0.174 HD
HETATM   19  C8  UNL     1       4.210  -0.907   0.506  1.00  0.00     0.231 C 
ATOM     20  H4  UNL     1       3.480  -1.863   2.171  1.00  0.00     0.187 HD
HETATM   21  C9  UNL     1       5.635  -1.149   0.908  1.00  0.00     0.118 C 
HETATM   22  O1  UNL     1       4.070  -0.285  -0.567  1.00  0.00    -0.273 OA
ATOM     23  H2  UNL     1       1.764  -0.712  -0.865  1.00  0.00     0.178 HD
ENDBRANCH   7  13
BRANCH  11  24
HETATM   24  C14 UNL     1      -0.763  -2.738  -1.167  1.00  0.00     0.023 C 
HETATM   25  C15 UNL     1      -0.848  -4.035  -0.348  1.00  0.00     0.009 C 
ENDBRANCH  11  24
ENDBRANCH   3   4
TORSDOF 3
