REMARK  4 active torsions:
REMARK  status: ('A' for Active; 'I' for Inactive)
REMARK    1  A    between atoms: C2_2  and  C5_5 
REMARK    2  A    between atoms: C5_5  and  N1_6 
REMARK    3  A    between atoms: C5_5  and  C8_15 
REMARK       I    between atoms: N1_6  and  C6_8 
REMARK       I    between atoms: C6_8  and  N2_10 
REMARK       I    between atoms: C8_15  and  N5_17 
REMARK    4  A    between atoms: N5_17  and  C9_19 
ROOT
HETATM    1  C5  UNL     1       0.689  -0.300  -0.263  1.00  0.00     0.185 C 
ENDROOT
BRANCH   1   2
HETATM    2  C2  UNL     1       0.635  -1.771   0.104  1.00  0.00    -0.022 C 
HETATM    3  C1  UNL     1       1.998  -2.371  -0.237  1.00  0.00     0.017 C 
HETATM    4  C3  UNL     1       0.402  -2.005   1.563  1.00  0.00     0.017 C 
HETATM    5  C4  UNL     1      -0.371  -2.550  -0.681  1.00  0.00     0.017 C 
ENDBRANCH   1   2
BRANCH   1   6
HETATM    6  N1  UNL     1       1.776   0.274   0.539  1.00  0.00    -0.329 N 
HETATM    7  C6  UNL     1       2.927   0.818  -0.066  1.00  0.00     0.323 C 
HETATM    8  O1  UNL     1       3.067   0.832  -1.339  1.00  0.00    -0.247 OA
HETATM    9  N2  UNL     1       4.003   1.382   0.655  1.00  0.00    -0.285 N 
HETATM   10  C7  UNL     1       5.241   1.341   0.255  1.00  0.00     0.204 C 
ATOM     11  H2  UNL     1       3.798   1.848   1.539  1.00  0.00     0.172 HD
HETATM   12  N3  UNL     1       6.261   1.941   1.056  1.00  0.00    -0.066 NA
HETATM   13  N4  UNL     1       5.515   0.695  -0.968  1.00  0.00    -0.066 NA
ATOM     14  H1  UNL     1       1.697   0.279   1.556  1.00  0.00     0.165 HD
ENDBRANCH   1   6
BRANCH   1  15
HETATM   15  C8  UNL     1      -0.587   0.399   0.055  1.00  0.00     0.241 C 
HETATM   16  O2  UNL     1      -0.535   1.270   0.997  1.00  0.00    -0.271 OA
HETATM   17  N5  UNL     1      -1.811   0.152  -0.616  1.00  0.00    -0.355 N 
ATOM     18  H5  UNL     1      -1.871  -0.533  -1.369  1.00  0.00     0.162 HD
BRANCH  17  19
HETATM   19  C9  UNL     1      -2.978   0.909  -0.194  1.00  0.00     0.084 C 
HETATM   20  C10 UNL     1      -3.530   1.734  -1.365  1.00  0.00     0.025 C 
HETATM   21  C11 UNL     1      -4.841   2.214  -0.732  1.00  0.00     0.002 C 
HETATM   22  C12 UNL     1      -5.291   1.087   0.174  1.00  0.00     0.002 C 
HETATM   23  C13 UNL     1      -4.157   0.054   0.144  1.00  0.00     0.025 C 
ENDBRANCH  17  19
ENDBRANCH   1  15
TORSDOF 4
