REMARK  3 active torsions:
REMARK  status: ('A' for Active; 'I' for Inactive)
REMARK       I    between atoms: C1_4  and  N3_6 
REMARK    1  A    between atoms: C5_10  and  C6_11 
REMARK       I    between atoms: C6_11  and  N4_13 
REMARK    2  A    between atoms: N4_13  and  C7_15 
REMARK    3  A    between atoms: C11_19  and  C12_20 
ROOT
HETATM    1  C6  UNL     1      -0.057   0.692  -1.186  1.00  0.00     0.223 C 
HETATM    2  O1  UNL     1      -0.395   1.505  -2.104  1.00  0.00    -0.273 OA
HETATM    3  N4  UNL     1      -0.979   0.300  -0.209  1.00  0.00    -0.355 N 
ATOM      4  H4  UNL     1      -0.697  -0.353   0.522  1.00  0.00     0.162 HD
ENDROOT
BRANCH   1   5
HETATM    5  C5  UNL     1       1.340   0.151  -1.153  1.00  0.00     0.096 C 
HETATM    6  C4  UNL     1       1.325  -1.350  -1.268  1.00  0.00     0.017 C 
HETATM    7  C3  UNL     1       2.055  -2.037  -0.145  1.00  0.00     0.021 C 
HETATM    8  C2  UNL     1       3.423  -1.392   0.003  1.00  0.00     0.125 C 
HETATM    9  N3  UNL     1       3.194  -0.033   0.455  1.00  0.00    -0.355 N 
HETATM   10  C1  UNL     1       4.135   0.699   1.205  1.00  0.00     0.183 C 
HETATM   11  C13 UNL     1       1.950   0.634   0.138  1.00  0.00     0.139 C 
HETATM   12  N1  UNL     1       4.030   0.748   2.473  1.00  0.00    -0.374 N 
HETATM   13  N2  UNL     1       5.183   1.369   0.550  1.00  0.00    -0.064 NA
ATOM     14  H12 UNL     1       4.711   1.278   3.016  1.00  0.00     0.158 HD
ATOM     15  H11 UNL     1       3.270   0.262   2.948  1.00  0.00     0.158 HD
ENDBRANCH   1   5
BRANCH   3  16
HETATM   16  C7  UNL     1      -2.323   0.813  -0.231  1.00  0.00     0.098 C 
HETATM   17  C8  UNL     1      -2.568   1.523   1.085  1.00  0.00     0.026 C 
HETATM   18  C9  UNL     1      -3.189   0.429   1.927  1.00  0.00     0.003 C 
HETATM   19  C10 UNL     1      -4.181  -0.175   0.924  1.00  0.00     0.017 C 
HETATM   20  C11 UNL     1      -3.284  -0.351  -0.280  1.00  0.00     0.109 C 
BRANCH  20  21
HETATM   21  C12 UNL     1      -4.120  -0.311  -1.521  1.00  0.00     0.179 C 
HETATM   22  O2  UNL     1      -3.935   0.619  -2.316  1.00  0.00    -0.648 OA
HETATM   23  O3  UNL     1      -5.050  -1.293  -1.732  1.00  0.00    -0.648 OA
ENDBRANCH  20  21
ENDBRANCH   3  16
TORSDOF 3
