REMARK  4 active torsions:
REMARK  status: ('A' for Active; 'I' for Inactive)
REMARK    1  A    between atoms: C2_2  and  N1_3 
REMARK       I    between atoms: N1_3  and  C3_5 
REMARK       I    between atoms: C3_5  and  N3_9 
REMARK    2  A    between atoms: N3_9  and  C4_11 
REMARK       I    between atoms: N4_12  and  C5_14 
REMARK    3  A    between atoms: C5_14  and  C6_16 
REMARK    4  A    between atoms: C12_22  and  O2_23 
ROOT
HETATM    1  C4  UNL     1       1.765   1.059  -0.068  1.00  0.00     0.200 C 
HETATM    2  N4  UNL     1       0.564   0.968   0.318  1.00  0.00    -0.322 N 
ATOM      3  H4  UNL     1       0.379   0.526   1.219  1.00  0.00     0.169 HD
HETATM    4  C5  UNL     1      -0.539   1.446  -0.432  1.00  0.00     0.231 C 
HETATM    5  O1  UNL     1      -0.456   2.450  -1.170  1.00  0.00    -0.272 OA
ENDROOT
BRANCH   4   6
HETATM    6  C6  UNL     1      -1.822   0.724  -0.329  1.00  0.00     0.045 C 
HETATM    7  C7  UNL     1      -2.271   0.757   1.115  1.00  0.00     0.024 C 
HETATM    8  C8  UNL     1      -3.618   0.100   1.204  1.00  0.00    -0.010 C 
HETATM    9  C9  UNL     1      -4.621   0.740   0.280  1.00  0.00     0.009 C 
HETATM   10  C13 UNL     1      -3.436  -1.361   0.851  1.00  0.00     0.042 C 
HETATM   11  C10 UNL     1      -4.146   0.667  -1.135  1.00  0.00    -0.010 C 
HETATM   12  C11 UNL     1      -3.965  -0.783  -1.519  1.00  0.00     0.042 C 
HETATM   13  C15 UNL     1      -2.811   1.341  -1.258  1.00  0.00     0.024 C 
HETATM   14  C12 UNL     1      -2.966  -1.426  -0.595  1.00  0.00     0.060 C 
HETATM   15  C14 UNL     1      -1.649  -0.726  -0.723  1.00  0.00     0.057 C 
BRANCH  14  16
HETATM   16  O2  UNL     1      -2.877  -2.772  -0.964  1.00  0.00    -0.390 OA
ATOM     17  H2  UNL     1      -2.246  -3.178  -0.381  1.00  0.00     0.210 HD
ENDBRANCH  14  16
ENDBRANCH   4   6
BRANCH   1  18
HETATM   18  N3  UNL     1       2.837   0.566   0.717  1.00  0.00    -0.188 N 
HETATM   19  C3  UNL     1       4.199   0.795   0.379  1.00  0.00     0.672 C 
HETATM   20  N1  UNL     1       5.211  -0.115   0.781  1.00  0.00    -0.227 N 
HETATM   21  N2  UNL     1       4.533   1.830  -0.297  1.00  0.00    -0.235 N 
ATOM     22  H1  UNL     1       5.175  -0.529   1.713  1.00  0.00     0.177 HD
ATOM     23  H22 UNL     1       5.510   1.994  -0.539  1.00  0.00     0.174 HD
ATOM     24  H21 UNL     1       3.806   2.484  -0.586  1.00  0.00     0.174 HD
ATOM     25  H3  UNL     1       2.623   0.027   1.556  1.00  0.00     0.185 HD
BRANCH  20  26
HETATM   26  C2  UNL     1       6.296  -0.464  -0.116  1.00  0.00     0.133 C 
HETATM   27  C1  UNL     1       7.223  -1.443   0.561  1.00  0.00     0.027 C 
ENDBRANCH  20  26
ENDBRANCH   1  18
TORSDOF 4
