REMARK  7 active torsions:
REMARK  status: ('A' for Active; 'I' for Inactive)
REMARK    1  A    between atoms: N1_2  and  C2_4 
REMARK    2  A    between atoms: C2_4  and  N2_6 
REMARK       I    between atoms: N2_6  and  C3_8 
REMARK       I    between atoms: C3_8  and  N3_10 
REMARK    3  A    between atoms: N3_10  and  C4_12 
REMARK    4  A    between atoms: C4_12  and  C5_13 
REMARK    5  A    between atoms: C5_13  and  N4_14 
REMARK    6  A    between atoms: N4_14  and  C6_16 
REMARK    7  A    between atoms: C6_16  and  N5_18 
ROOT
HETATM    1  N2  UNL     1       4.524   0.156  -0.477  1.00  0.00    -0.286 N 
ATOM      2  H2  UNL     1       4.654   0.607  -1.383  1.00  0.00     0.173 HD
HETATM    3  C3  UNL     1       3.209  -0.147  -0.105  1.00  0.00     0.322 C 
HETATM    4  O1  UNL     1       2.902  -0.698   0.972  1.00  0.00    -0.247 OA
HETATM    5  N3  UNL     1       2.118   0.182  -0.997  1.00  0.00    -0.341 N 
ATOM      6  H3  UNL     1       2.323   0.633  -1.889  1.00  0.00     0.164 HD
ENDROOT
BRANCH   5   7
HETATM    7  C4  UNL     1       0.747  -0.112  -0.655  1.00  0.00     0.144 C 
BRANCH   7   8
HETATM    8  C5  UNL     1      -0.146   0.337  -1.760  1.00  0.00     0.141 C 
BRANCH   8   9
HETATM    9  N4  UNL     1      -1.546   0.094  -1.525  1.00  0.00    -0.366 N 
ATOM     10  H4  UNL     1      -2.007  -0.610  -2.102  1.00  0.00     0.161 HD
BRANCH   9  11
HETATM   11  C6  UNL     1      -2.324   0.755  -0.560  1.00  0.00     0.169 C 
HETATM   12  S2  UNL     1      -1.661   1.901   0.373  1.00  0.00    -0.041 SA
BRANCH  11  13
HETATM   13  N5  UNL     1      -3.690   0.442  -0.399  1.00  0.00    -0.358 N 
HETATM   14  C7  UNL     1      -4.617   1.057   0.570  1.00  0.00     0.125 C 
HETATM   15  C8  UNL     1      -5.992   0.699  -0.006  1.00  0.00     0.021 C 
HETATM   16  C9  UNL     1      -5.712  -0.715  -0.481  1.00  0.00     0.021 C 
HETATM   17  C10 UNL     1      -4.390  -0.551  -1.190  1.00  0.00     0.125 C 
ENDBRANCH  11  13
ENDBRANCH   9  11
ENDBRANCH   8   9
ENDBRANCH   7   8
ENDBRANCH   5   7
BRANCH   1  18
HETATM   18  C2  UNL     1       5.674  -0.099   0.270  1.00  0.00     0.175 C 
HETATM   19  S1  UNL     1       7.119   0.373  -0.424  1.00  0.00    -0.041 SA
BRANCH  18  20
HETATM   20  N1  UNL     1       5.762  -0.705   1.531  1.00  0.00    -0.371 N 
HETATM   21  C1  UNL     1       7.069  -0.885   2.155  1.00  0.00     0.148 C 
ATOM     22  H1  UNL     1       4.918  -1.018   2.010  1.00  0.00     0.161 HD
ENDBRANCH  18  20
ENDBRANCH   1  18
TORSDOF 7
