REMARK  6 active torsions:
REMARK  status: ('A' for Active; 'I' for Inactive)
REMARK    1  A    between atoms: C2_2  and  O1_3 
REMARK    2  A    between atoms: C4_6  and  C5_7 
REMARK    3  A    between atoms: C5_7  and  N1_8 
REMARK       I    between atoms: N1_8  and  C6_10 
REMARK       I    between atoms: C6_10  and  N2_12 
REMARK    4  A    between atoms: N2_12  and  C7_14 
REMARK    5  A    between atoms: C7_14  and  N3_16 
REMARK    6  A    between atoms: N3_16  and  C8_18 
ROOT
HETATM    1  N1  UNL     1       2.062   1.037  -1.119  1.00  0.00    -0.342 N 
ATOM      2  H1  UNL     1       2.393   1.992  -1.258  1.00  0.00     0.164 HD
HETATM    3  C6  UNL     1       0.672   0.812  -0.781  1.00  0.00     0.322 C 
HETATM    4  O2  UNL     1       0.336  -0.384  -0.632  1.00  0.00    -0.247 OA
HETATM    5  N2  UNL     1      -0.167   1.934  -0.651  1.00  0.00    -0.286 N 
ATOM      6  H2  UNL     1       0.243   2.856  -0.802  1.00  0.00     0.173 HD
ENDROOT
BRANCH   1   7
HETATM    7  C5  UNL     1       2.980  -0.047  -1.262  1.00  0.00     0.129 C 
BRANCH   7   8
HETATM    8  C4  UNL     1       3.133  -0.840  -0.001  1.00  0.00     0.009 C 
HETATM    9  C3  UNL     1       3.632  -0.064   1.192  1.00  0.00     0.043 C 
HETATM   10  C2  UNL     1       5.031  -0.518   0.861  1.00  0.00     0.055 C 
HETATM   11  C1  UNL     1       5.880   0.469   0.099  1.00  0.00     0.045 C 
HETATM   12  C13 UNL     1       4.440  -1.648   0.058  1.00  0.00     0.043 C 
BRANCH  10  13
HETATM   13  O1  UNL     1       5.682  -1.027   1.995  1.00  0.00    -0.390 OA
ATOM     14  H1  UNL     1       5.147  -1.649   2.475  1.00  0.00     0.210 HD
ENDBRANCH  10  13
ENDBRANCH   7   8
ENDBRANCH   1   7
BRANCH   5  15
HETATM   15  C7  UNL     1      -1.520   1.869  -0.330  1.00  0.00     0.177 C 
HETATM   16  S1  UNL     1      -2.279   3.360  -0.241  1.00  0.00    -0.041 SA
BRANCH  15  17
HETATM   17  N3  UNL     1      -2.298   0.712  -0.072  1.00  0.00    -0.339 N 
ATOM     18  H3  UNL     1      -1.850  -0.204  -0.113  1.00  0.00     0.164 HD
BRANCH  17  19
HETATM   19  C8  UNL     1      -3.710   0.790   0.248  1.00  0.00     0.291 C 
HETATM   20  C9  UNL     1      -4.620   1.366  -0.778  1.00  0.00     0.083 C 
HETATM   21  C10 UNL     1      -4.742  -0.088  -1.250  1.00  0.00     0.242 C 
HETATM   22  N4  UNL     1      -4.370  -0.484   0.092  1.00  0.00    -0.054 N 
HETATM   23  C11 UNL     1      -3.534  -1.653   0.043  1.00  0.00     0.274 C 
HETATM   24  C12 UNL     1      -5.519  -0.679   0.963  1.00  0.00     0.274 C 
ENDBRANCH  17  19
ENDBRANCH  15  17
ENDBRANCH   5  15
TORSDOF 6
