REMARK  5 active torsions:
REMARK  status: ('A' for Active; 'I' for Inactive)
REMARK    1  A    between atoms: C2_2  and  N1_4 
REMARK    2  A    between atoms: C2_2  and  C4_8 
REMARK       I    between atoms: C4_8  and  N2_10 
REMARK    3  A    between atoms: N2_10  and  C5_12 
REMARK    4  A    between atoms: C5_12  and  C6_13 
REMARK       I    between atoms: C6_13  and  N3_15 
REMARK    5  A    between atoms: N3_15  and  C7_17 
ROOT
HETATM    1  C6  UNL     1       0.621   0.060   0.152  1.00  0.00     0.235 C 
HETATM    2  O2  UNL     1       0.704   0.940   1.072  1.00  0.00    -0.272 OA
HETATM    3  N3  UNL     1      -0.643  -0.341  -0.338  1.00  0.00    -0.354 N 
ATOM      4  H3  UNL     1      -0.711  -1.045  -1.073  1.00  0.00     0.162 HD
ENDROOT
BRANCH   1   5
HETATM    5  C5  UNL     1       1.838  -0.562  -0.423  1.00  0.00     0.225 C 
BRANCH   5   6
HETATM    6  N2  UNL     1       3.005  -0.013   0.215  1.00  0.00    -0.350 N 
HETATM    7  C4  UNL     1       4.286  -0.470  -0.185  1.00  0.00     0.253 C 
HETATM    8  O1  UNL     1       4.390  -1.337  -1.080  1.00  0.00    -0.271 OA
ATOM      9  H2  UNL     1       2.912   0.694   0.944  1.00  0.00     0.163 HD
BRANCH   7  10
HETATM   10  C2  UNL     1       5.480   0.105   0.483  1.00  0.00     0.196 C 
HETATM   11  C1  UNL     1       6.227  -1.031   1.142  1.00  0.00     0.056 C 
HETATM   12  C3  UNL     1       6.310   0.778  -0.586  1.00  0.00     0.056 C 
BRANCH  10  13
HETATM   13  N1  UNL     1       5.106   1.077   1.471  1.00  0.00    -0.062 N 
ATOM     14  H13 UNL     1       4.575   0.662   2.237  1.00  0.00     0.275 HD
ATOM     15  H12 UNL     1       5.908   1.406   2.009  1.00  0.00     0.275 HD
ATOM     16  H11 UNL     1       4.602   1.844   1.026  1.00  0.00     0.275 HD
ENDBRANCH  10  13
ENDBRANCH   7  10
ENDBRANCH   5   6
ENDBRANCH   1   5
BRANCH   3  17
HETATM   17  C7  UNL     1      -1.830   0.252   0.209  1.00  0.00     0.092 C 
HETATM   18  C8  UNL     1      -2.721  -0.789   0.827  1.00  0.00     0.009 C 
HETATM   19  C9  UNL     1      -3.849  -0.107   1.578  1.00  0.00     0.011 C 
HETATM   20  C13 UNL     1      -3.357  -1.683  -0.215  1.00  0.00     0.011 C 
HETATM   21  C10 UNL     1      -4.593   0.788   0.637  1.00  0.00    -0.013 C 
HETATM   22  C11 UNL     1      -5.251  -0.082  -0.431  1.00  0.00     0.009 C 
HETATM   23  C16 UNL     1      -3.709   1.769  -0.089  1.00  0.00     0.011 C 
HETATM   24  C12 UNL     1      -4.187  -0.827  -1.174  1.00  0.00    -0.013 C 
HETATM   25  C14 UNL     1      -3.227   0.102  -1.862  1.00  0.00     0.011 C 
HETATM   26  C15 UNL     1      -2.626   1.013  -0.843  1.00  0.00     0.009 C 
ENDBRANCH   3  17
TORSDOF 5
