REMARK  4 active torsions:
REMARK  status: ('A' for Active; 'I' for Inactive)
REMARK    1  A    between atoms: C2_2  and  N1_3 
REMARK    2  A    between atoms: C2_2  and  C10_18 
REMARK       I    between atoms: N1_3  and  C3_5 
REMARK       I    between atoms: C3_5  and  N2_7 
REMARK    3  A    between atoms: N2_7  and  C4_9 
REMARK       I    between atoms: C10_18  and  N4_20 
REMARK    4  A    between atoms: N4_20  and  C11_22 
ROOT
HETATM    1  N1  UNL     1       0.045   1.260  -0.018  1.00  0.00    -0.330 N 
ATOM      2  H1  UNL     1       0.426   1.873  -0.738  1.00  0.00     0.165 HD
HETATM    3  C3  UNL     1       0.953   0.516   0.773  1.00  0.00     0.317 C 
HETATM    4  O1  UNL     1       0.456  -0.230   1.651  1.00  0.00    -0.247 OA
HETATM    5  N2  UNL     1       2.351   0.607   0.584  1.00  0.00    -0.325 N 
ATOM      6  H2  UNL     1       2.689   1.236  -0.144  1.00  0.00     0.165 HD
ENDROOT
BRANCH   1   7
HETATM    7  C2  UNL     1      -1.387   1.202   0.135  1.00  0.00     0.174 C 
HETATM    8  C1  UNL     1      -1.980   2.546   0.494  1.00  0.00     0.042 C 
BRANCH   7   9
HETATM    9  C10 UNL     1      -1.941   0.719  -1.180  1.00  0.00     0.240 C 
HETATM   10  O3  UNL     1      -1.197   0.454  -2.150  1.00  0.00    -0.271 OA
HETATM   11  N4  UNL     1      -3.342   0.569  -1.293  1.00  0.00    -0.351 N 
ATOM     12  H4  UNL     1      -3.952   0.784  -0.504  1.00  0.00     0.163 HD
BRANCH  11  13
HETATM   13  C11 UNL     1      -3.892   0.108  -2.540  1.00  0.00     0.022 C 
HETATM   14  C12 UNL     1      -3.351  -1.265  -2.892  1.00  0.00     0.037 C 
HETATM   15  C13 UNL     1      -5.386   0.061  -2.429  1.00  0.00     0.037 C 
HETATM   16  C14 UNL     1      -3.449   1.054  -3.643  1.00  0.00     0.037 C 
ENDBRANCH  11  13
ENDBRANCH   7   9
ENDBRANCH   1   7
BRANCH   5  17
HETATM   17  C4  UNL     1       3.336  -0.124   1.345  1.00  0.00     0.112 C 
HETATM   18  C5  UNL     1       4.723   0.305   0.842  1.00  0.00     0.049 C 
HETATM   19  C6  UNL     1       3.177  -1.581   1.096  1.00  0.00     0.042 C 
HETATM   20  C7  UNL     1       3.927  -2.486   2.030  1.00  0.00     0.023 C 
HETATM   21  C8  UNL     1       3.594  -2.235   3.480  1.00  0.00     0.122 C 
HETATM   22  N3  UNL     1       3.081  -0.895   3.689  1.00  0.00    -0.359 N 
HETATM   23  C9  UNL     1       3.304   0.167   2.776  1.00  0.00     0.245 C 
ATOM     24  H3  UNL     1       2.535  -0.708   4.530  1.00  0.00     0.162 HD
HETATM   25  O2  UNL     1       3.461   1.308   3.282  1.00  0.00    -0.271 OA
ENDBRANCH   5  17
TORSDOF 4
