REMARK  6 active torsions:
REMARK  status: ('A' for Active; 'I' for Inactive)
REMARK       I    between atoms: C2_2  and  N1_4 
REMARK    1  A    between atoms: N1_4  and  C3_6 
REMARK    2  A    between atoms: C3_6  and  C4_7 
REMARK    3  A    between atoms: C4_7  and  N2_8 
REMARK       I    between atoms: N2_8  and  C5_10 
REMARK       I    between atoms: C5_10  and  N5_20 
REMARK    4  A    between atoms: N3_11  and  C6_13 
REMARK    5  A    between atoms: C6_13  and  N4_15 
REMARK       I    between atoms: N4_15  and  C7_17 
REMARK    6  A    between atoms: N5_20  and  C9_22 
ROOT
HETATM    1  N2  UNL     1       0.538   0.453   0.859  1.00  0.00    -0.225 N 
ATOM      2  H2  UNL     1       0.574   0.187   1.843  1.00  0.00     0.177 HD
HETATM    3  C5  UNL     1      -0.668   0.292   0.145  1.00  0.00     0.676 C 
HETATM    4  N3  UNL     1      -1.139   1.354  -0.434  1.00  0.00    -0.166 N 
ATOM      5  H3  UNL     1      -0.631   2.235  -0.351  1.00  0.00     0.186 HD
HETATM    6  N5  UNL     1      -1.379  -0.927   0.024  1.00  0.00    -0.218 N 
ATOM      7  H5  UNL     1      -2.374  -0.905   0.246  1.00  0.00     0.178 HD
ENDROOT
BRANCH   1   8
HETATM    8  C4  UNL     1       1.707   0.979   0.235  1.00  0.00     0.157 C 
BRANCH   8   9
HETATM    9  C3  UNL     1       2.888   1.069   1.172  1.00  0.00     0.143 C 
BRANCH   9  10
HETATM   10  N1  UNL     1       4.058   1.599   0.535  1.00  0.00    -0.360 N 
HETATM   11  C2  UNL     1       5.241   1.739   1.297  1.00  0.00     0.213 C 
HETATM   12  C1  UNL     1       6.460   2.285   0.654  1.00  0.00     0.117 C 
HETATM   13  O1  UNL     1       5.307   1.419   2.508  1.00  0.00    -0.274 OA
ATOM     14  H1  UNL     1       4.037   1.870  -0.448  1.00  0.00     0.162 HD
ENDBRANCH   9  10
ENDBRANCH   8   9
ENDBRANCH   1   8
BRANCH   4  15
HETATM   15  C6  UNL     1      -2.352   1.316  -1.184  1.00  0.00     0.193 C 
HETATM   16  S1  UNL     1      -2.340   1.326  -2.812  1.00  0.00    -0.040 SA
BRANCH  15  17
HETATM   17  N4  UNL     1      -3.593   1.269  -0.511  1.00  0.00    -0.304 N 
HETATM   18  C7  UNL     1      -4.835   1.230  -1.180  1.00  0.00     0.219 C 
HETATM   19  C8  UNL     1      -6.117   1.180  -0.439  1.00  0.00     0.117 C 
HETATM   20  O2  UNL     1      -4.867   1.236  -2.433  1.00  0.00    -0.274 OA
ATOM     21  H4  UNL     1      -3.591   1.263   0.509  1.00  0.00     0.171 HD
ENDBRANCH  15  17
ENDBRANCH   4  15
BRANCH   6  22
HETATM   22  C9  UNL     1      -0.839  -2.172  -0.376  1.00  0.00     0.036 C 
HETATM   23  C10 UNL     1      -0.266  -1.995  -1.787  1.00  0.00     0.038 C 
HETATM   24  C11 UNL     1      -1.898  -3.244  -0.491  1.00  0.00     0.038 C 
HETATM   25  C12 UNL     1       0.265  -2.706   0.481  1.00  0.00     0.038 C 
ENDBRANCH   6  22
TORSDOF 6
