REMARK  7 active torsions:
REMARK  status: ('A' for Active; 'I' for Inactive)
REMARK       I    between atoms: C1_2  and  N1_3 
REMARK    1  A    between atoms: C1_2  and  C7_15 
REMARK    2  A    between atoms: N1_3  and  N2_5 
REMARK    3  A    between atoms: N2_5  and  C2_7 
REMARK    4  A    between atoms: C2_7  and  N3_9 
REMARK    5  A    between atoms: N3_9  and  C3_11 
REMARK    6  A    between atoms: C3_11  and  C4_12 
REMARK       I    between atoms: C7_15  and  N4_17 
REMARK    7  A    between atoms: N4_17  and  C8_19 
ROOT
HETATM    1  O1  UNL     1       0.311  -0.043   2.236  1.00  0.00    -0.261 OA
HETATM    2  C1  UNL     1       0.068   0.241   1.011  1.00  0.00     0.327 C 
HETATM    3  N1  UNL     1      -1.287   0.464   0.645  1.00  0.00    -0.260 N 
ATOM      4  H1  UNL     1      -1.536   0.689  -0.318  1.00  0.00     0.190 HD
ENDROOT
BRANCH   2   5
HETATM    5  C7  UNL     1       1.182   0.320   0.085  1.00  0.00     0.311 C 
HETATM    6  O2  UNL     1       0.931   0.578  -1.122  1.00  0.00    -0.262 OA
HETATM    7  N4  UNL     1       2.482   0.111   0.575  1.00  0.00    -0.348 N 
ATOM      8  H4  UNL     1       2.617  -0.102   1.563  1.00  0.00     0.163 HD
BRANCH   7   9
HETATM    9  C8  UNL     1       3.640   0.193  -0.303  1.00  0.00     0.084 C 
HETATM   10  C9  UNL     1       4.465   1.342   0.215  1.00  0.00     0.025 C 
HETATM   11  C10 UNL     1       5.829   1.490  -0.299  1.00  0.00     0.002 C 
HETATM   12  C11 UNL     1       6.545   0.228  -0.658  1.00  0.00     0.000 C 
HETATM   13  C12 UNL     1       5.655  -0.866  -1.139  1.00  0.00     0.002 C 
HETATM   14  C13 UNL     1       4.480  -1.061  -0.213  1.00  0.00     0.025 C 
ENDBRANCH   7   9
ENDBRANCH   2   5
BRANCH   3  15
HETATM   15  N2  UNL     1      -2.262   0.369   1.623  1.00  0.00    -0.273 N 
ATOM     16  H2  UNL     1      -2.056   0.712   2.561  1.00  0.00     0.189 HD
BRANCH  15  17
HETATM   17  C2  UNL     1      -3.517  -0.181   1.367  1.00  0.00     0.186 C 
HETATM   18  S1  UNL     1      -4.567  -0.240   2.656  1.00  0.00    -0.040 SA
BRANCH  17  19
HETATM   19  N3  UNL     1      -3.961  -0.701   0.125  1.00  0.00    -0.366 N 
ATOM     20  H3  UNL     1      -3.342  -0.697  -0.685  1.00  0.00     0.161 HD
BRANCH  19  21
HETATM   21  C3  UNL     1      -5.306  -1.239   0.017  1.00  0.00     0.126 C 
BRANCH  21  22
HETATM   22  C4  UNL     1      -6.348  -0.145   0.110  1.00  0.00     0.003 A 
HETATM   23  C5  UNL     1      -7.764  -0.582   0.045  1.00  0.00     0.007 A 
HETATM   24  C6  UNL     1      -7.164   0.137  -1.109  1.00  0.00     0.007 A 
ENDBRANCH  21  22
ENDBRANCH  19  21
ENDBRANCH  17  19
ENDBRANCH  15  17
ENDBRANCH   3  15
TORSDOF 7
