REMARK  6 active torsions:
REMARK  status: ('A' for Active; 'I' for Inactive)
REMARK    1  A    between atoms: C3_3  and  N1_4 
REMARK    2  A    between atoms: C5_9  and  C6_10 
REMARK    3  A    between atoms: C6_10  and  C7_11 
REMARK    4  A    between atoms: C9_15  and  N4_16 
REMARK    5  A    between atoms: C13_25  and  C14_26 
REMARK    6  A    between atoms: C14_26  and  O3_28 
ROOT
HETATM    1  C1  UNL     1      -3.021  -3.501  -2.361  1.00  0.00     0.014 C 
HETATM    2  C2  UNL     1      -3.081  -3.012  -1.261  1.00  0.00    -0.097 C 
HETATM    3  C3  UNL     1      -3.142  -2.446   0.069  1.00  0.00     0.223 C 
ENDROOT
BRANCH   3   4
HETATM    4  N1  UNL     1      -2.534  -1.131   0.057  1.00  0.00    -0.300 N 
HETATM    5  C4  UNL     1      -1.111  -1.172   0.299  1.00  0.00     0.321 C 
HETATM    6  O1  UNL     1      -0.677  -2.238   0.849  1.00  0.00    -0.247 OA
HETATM    7  N2  UNL     1      -0.114  -0.201   0.016  1.00  0.00    -0.329 N 
HETATM    8  C5  UNL     1      -0.215   1.243   0.050  1.00  0.00     0.184 C 
ATOM      9  H2  UNL     1       0.799  -0.572  -0.247  1.00  0.00     0.165 HD
HETATM   10  C12 UNL     1      -1.497   1.690   0.657  1.00  0.00     0.242 C 
HETATM   11  O2  UNL     1      -1.397   2.793   1.260  1.00  0.00    -0.271 OA
HETATM   12  N6  UNL     1      -2.782   1.130   0.688  1.00  0.00    -0.335 N 
HETATM   13  C13 UNL     1      -3.287   0.057  -0.158  1.00  0.00     0.220 C 
ATOM     14  H6  UNL     1      -3.431   1.514   1.375  1.00  0.00     0.164 HD
BRANCH   8  15
HETATM   15  C6  UNL     1       0.898   1.748   0.942  1.00  0.00     0.094 C 
BRANCH  15  16
HETATM   16  C7  UNL     1       2.244   1.396   0.491  1.00  0.00     0.045 A 
HETATM   17  C8  UNL     1       2.972   2.221  -0.374  1.00  0.00     0.131 A 
HETATM   18  N3  UNL     1       4.162   1.653  -0.610  1.00  0.00    -0.200 N 
HETATM   19  C9  UNL     1       4.200   0.487   0.088  1.00  0.00     0.679 A 
ATOM     20  H3  UNL     1       4.903   2.026  -1.204  1.00  0.00     0.183 HD
HETATM   21  N5  UNL     1       3.038   0.345   0.747  1.00  0.00    -0.194 N 
ATOM     22  H5  UNL     1       2.796  -0.441   1.350  1.00  0.00     0.184 HD
BRANCH  19  23
HETATM   23  N4  UNL     1       5.192  -0.353   0.116  1.00  0.00    -0.226 N 
HETATM   24  C10 UNL     1       6.410  -0.116  -0.629  1.00  0.00     0.168 C 
HETATM   25  C11 UNL     1       5.098  -1.548   0.897  1.00  0.00     0.168 C 
ENDBRANCH  19  23
ENDBRANCH  15  16
ENDBRANCH   8  15
BRANCH  13  26
HETATM   26  C14 UNL     1      -4.766  -0.049  -0.099  1.00  0.00     0.156 C 
HETATM   27  C15 UNL     1      -5.332   1.337  -0.445  1.00  0.00     0.043 C 
BRANCH  26  28
HETATM   28  O3  UNL     1      -5.239  -0.911  -1.062  1.00  0.00    -0.392 OA
ATOM     29  H3  UNL     1      -6.186  -0.979  -1.024  1.00  0.00     0.210 HD
ENDBRANCH  26  28
ENDBRANCH  13  26
ENDBRANCH   3   4
TORSDOF 6
