REMARK  3 active torsions:
REMARK  status: ('A' for Active; 'I' for Inactive)
REMARK    1  A    between atoms: C2_2  and  O1_3 
REMARK    2  A    between atoms: C2_2  and  C3_5 
REMARK    3  A    between atoms: C12_19  and  O3_20 
ROOT
HETATM    1  C3  UNL     1       1.261  -0.557  -0.164  1.00  0.00     0.068 C 
HETATM    2  C4  UNL     1       0.714  -1.248  -1.344  1.00  0.00     0.017 C 
HETATM    3 CL1  UNL     1       1.851  -2.036  -2.383  1.00  0.00    -0.089 Cl
HETATM    4  C5  UNL     1      -0.553  -1.324  -1.682  1.00  0.00     0.025 C 
HETATM    5  C6  UNL     1      -1.796  -0.791  -1.066  1.00  0.00     0.155 C 
HETATM    6  O2  UNL     1      -2.180  -1.390   0.127  1.00  0.00    -0.347 OA
HETATM    7  C7  UNL     1      -1.100  -1.516   0.912  1.00  0.00     0.359 A 
HETATM    8  N1  UNL     1      -0.834  -1.148   2.246  1.00  0.00    -0.033 N 
ATOM      9  H11 UNL     1      -0.179  -1.489   2.950  1.00  0.00     0.281 HD
ATOM     10  H12 UNL     1      -1.353  -1.250   3.118  1.00  0.00     0.281 HD
HETATM   11  C8  UNL     1      -0.768  -0.147   1.287  1.00  0.00     0.186 A 
HETATM   12  C9  UNL     1      -1.927   0.821   1.402  1.00  0.00     0.045 C 
HETATM   13  C10 UNL     1      -2.678   1.081   0.152  1.00  0.00     0.012 C 
HETATM   14  C11 UNL     1      -1.748   0.727  -0.987  1.00  0.00     0.048 C 
HETATM   15  C12 UNL     1      -0.380   1.242  -0.603  1.00  0.00     0.132 C 
HETATM   16  C13 UNL     1       0.295   0.390   0.466  1.00  0.00     0.067 C 
ENDROOT
BRANCH   1  17
HETATM   17  C2  UNL     1       2.631   0.072  -0.443  1.00  0.00     0.124 C 
HETATM   18  C1  UNL     1       3.109   0.753   0.803  1.00  0.00     0.040 C 
BRANCH  17  19
HETATM   19  O1  UNL     1       3.523  -0.975  -0.699  1.00  0.00    -0.395 OA
ATOM     20  H1  UNL     1       3.220  -1.407  -1.489  1.00  0.00     0.210 HD
ENDBRANCH  17  19
ENDBRANCH   1  17
BRANCH  15  21
HETATM   21  O3  UNL     1       0.388   1.515  -1.695  1.00  0.00    -0.395 OA
ATOM     22  H3  UNL     1       1.248   1.839  -1.454  1.00  0.00     0.210 HD
ENDBRANCH  15  21
TORSDOF 3
