REMARK  3 active torsions:
REMARK  status: ('A' for Active; 'I' for Inactive)
REMARK    1  A    between atoms: C5_6  and  O1_7 
REMARK    2  A    between atoms: C10_14  and  O2_15 
REMARK    3  A    between atoms: C11_17  and  O3_18 
ROOT
HETATM    1  C1  UNL     1       0.711  -3.010   0.631  1.00  0.00     0.149 C 
HETATM    2  N1  UNL     1       0.135  -1.715   0.471  1.00  0.00    -0.392 N 
HETATM    3  C2  UNL     1      -1.210  -1.771   0.125  1.00  0.00     0.063 C 
HETATM    4  C3  UNL     1      -1.746  -0.836  -0.890  1.00  0.00     0.031 C 
HETATM    5  C4  UNL     1      -3.153  -0.395  -0.487  1.00  0.00     0.042 C 
HETATM    6  C5  UNL     1      -3.034   0.994   0.034  1.00  0.00     0.119 C 
HETATM    7  C6  UNL     1      -1.893   1.583  -0.760  1.00  0.00     0.037 C 
HETATM    8  C7  UNL     1      -0.984   0.410  -1.119  1.00  0.00     0.004 C 
HETATM    9  C8  UNL     1       0.267   0.546  -0.333  1.00  0.00     0.034 C 
HETATM   10  C9  UNL     1       1.285   1.442  -1.045  1.00  0.00     0.120 C 
HETATM   11 CL1  UNL     1       0.538   2.745  -1.931  1.00  0.00    -0.122 Cl
HETATM   12  C10 UNL     1       2.205   1.932   0.074  1.00  0.00     0.165 C 
HETATM   13  C11 UNL     1       2.952   0.710   0.559  1.00  0.00     0.150 C 
HETATM   14  C12 UNL     1       2.031  -0.387   1.027  1.00  0.00     0.060 C 
HETATM   15  C13 UNL     1       0.975  -0.721  -0.030  1.00  0.00     0.091 C 
ENDROOT
BRANCH   6  16
HETATM   16  O1  UNL     1      -2.751   1.064   1.388  1.00  0.00    -0.396 OA
ATOM     17  H1  UNL     1      -2.675   1.951   1.721  1.00  0.00     0.210 HD
ENDBRANCH   6  16
BRANCH  12  18
HETATM   18  O2  UNL     1       1.447   2.527   1.077  1.00  0.00    -0.391 OA
ATOM     19  H2  UNL     1       2.019   2.831   1.772  1.00  0.00     0.210 HD
ENDBRANCH  12  18
BRANCH  13  20
HETATM   20  O3  UNL     1       3.703   0.228  -0.501  1.00  0.00    -0.393 OA
ATOM     21  H3  UNL     1       4.172  -0.540  -0.196  1.00  0.00     0.210 HD
ENDBRANCH  13  20
TORSDOF 3
