REMARK  2 active torsions:
REMARK  status: ('A' for Active; 'I' for Inactive)
REMARK    1  A    between atoms: C8_12  and  O2_13 
REMARK    2  A    between atoms: C9_15  and  O3_16 
ROOT
HETATM    1  C1  UNL     1      -0.891  -1.183   0.759  1.00  0.00     0.020 C 
HETATM    2  C2  UNL     1      -0.457  -0.376  -0.405  1.00  0.00     0.007 C 
HETATM    3  C3  UNL     1      -1.544   0.100  -1.293  1.00  0.00     0.160 C 
HETATM    4  C4  UNL     1      -2.804   0.338  -0.456  1.00  0.00     0.268 C 
HETATM    5  N1  UNL     1      -2.273   1.360   0.448  1.00  0.00    -0.046 N 
ATOM      6  H11 UNL     1      -2.144   1.029   1.404  1.00  0.00     0.280 HD
ATOM      7  H12 UNL     1      -2.942   2.100   0.662  1.00  0.00     0.280 HD
HETATM    8  C5  UNL     1      -1.053   1.844  -0.164  1.00  0.00     0.326 C 
HETATM    9  O1  UNL     1      -1.318   1.489  -1.525  1.00  0.00    -0.351 OA
HETATM   10  C6  UNL     1       0.134   0.994  -0.023  1.00  0.00     0.056 C 
HETATM   11  C7  UNL     1       0.896   0.841   1.176  1.00  0.00     0.044 C 
HETATM   12  C8  UNL     1       2.132   0.029   0.778  1.00  0.00     0.148 C 
HETATM   13  C9  UNL     1       1.949  -1.009  -0.227  1.00  0.00     0.162 C 
HETATM   14  C10 UNL     1       0.699  -1.057  -1.039  1.00  0.00     0.100 C 
HETATM   15 BR1  UNL     1       0.293  -2.938  -1.370  1.00  0.00    -0.087 Br
ENDROOT
BRANCH  12  16
HETATM   16  O2  UNL     1       3.110   0.973   0.382  1.00  0.00    -0.393 OA
ATOM     17  H2  UNL     1       3.877   0.469   0.135  1.00  0.00     0.210 HD
ENDBRANCH  12  16
BRANCH  13  18
HETATM   18  O3  UNL     1       2.225  -2.264   0.379  1.00  0.00    -0.392 OA
ATOM     19  H3  UNL     1       2.106  -2.941  -0.277  1.00  0.00     0.210 HD
ENDBRANCH  13  18
TORSDOF 2
