REMARK  9 active torsions:
REMARK  status: ('A' for Active; 'I' for Inactive)
REMARK       I    between atoms: C2_2  and  N1_4 
REMARK       I    between atoms: N3_15  and  C10_16 
REMARK    1  A    between atoms: C10_16  and  C11_18 
REMARK    2  A    between atoms: C11_18  and  N4_19 
REMARK    3  A    between atoms: C11_18  and  C19_34 
REMARK       I    between atoms: N4_19  and  C12_21 
REMARK    4  A    between atoms: C12_21  and  C13_23 
REMARK    5  A    between atoms: C13_23  and  N5_24 
REMARK    6  A    between atoms: C13_23  and  C16_31 
REMARK       I    between atoms: N5_24  and  C14_26 
REMARK    7  A    between atoms: C14_26  and  C15_28 
REMARK    8  A    between atoms: C22_37  and  O8_38 
REMARK    9  A    between atoms: O8_38  and  C23_39 
ROOT
HETATM    1  C1  UNL     1      -6.183  -0.400   0.792  1.00  0.00     0.117 C 
HETATM    2  C2  UNL     1      -5.495   0.847   0.360  1.00  0.00     0.216 C 
HETATM    3  O1  UNL     1      -6.063   1.939   0.607  1.00  0.00    -0.274 OA
HETATM    4  N1  UNL     1      -4.242   0.826  -0.308  1.00  0.00    -0.342 N 
HETATM    5  C3  UNL     1      -3.721   2.107  -0.652  1.00  0.00     0.159 C 
HETATM    6  C4  UNL     1      -2.310   2.409  -0.387  1.00  0.00     0.070 C 
HETATM    7  C5  UNL     1      -2.297   3.822   0.304  1.00  0.00     0.081 C 
HETATM    8  C6  UNL     1      -2.632   4.782  -0.789  1.00  0.00     0.264 C 
HETATM    9  F1  UNL     1      -3.905   5.285  -0.756  1.00  0.00    -0.239 F 
HETATM   10  C7  UNL     1      -2.335   4.004  -2.035  1.00  0.00     0.254 C 
HETATM   11  O2  UNL     1      -2.631   4.364  -3.216  1.00  0.00    -0.270 OA
HETATM   12  N2  UNL     1      -1.659   2.793  -1.620  1.00  0.00    -0.341 N 
HETATM   13  C8  UNL     1      -0.600   2.236  -2.400  1.00  0.00     0.153 C 
HETATM   14  C9  UNL     1      -1.514   1.583   0.541  1.00  0.00     0.161 C 
HETATM   15  N3  UNL     1      -1.466   0.171   0.395  1.00  0.00    -0.319 N 
HETATM   16  C10 UNL     1      -0.185  -0.393   0.249  1.00  0.00     0.245 C 
HETATM   17  O3  UNL     1      -0.120  -1.630  -0.104  1.00  0.00    -0.271 OA
HETATM   18  C22 UNL     1      -2.557  -0.733   0.470  1.00  0.00     0.248 C 
HETATM   19  C26 UNL     1      -3.670  -0.469  -0.542  1.00  0.00     0.132 C 
HETATM   20  C27 UNL     1      -3.146  -0.706  -1.919  1.00  0.00     0.037 C 
ENDROOT
BRANCH  16  21
HETATM   21  C11 UNL     1       1.111   0.317   0.475  1.00  0.00     0.180 C 
BRANCH  21  22
HETATM   22  N4  UNL     1       2.224  -0.532   0.008  1.00  0.00    -0.346 N 
HETATM   23  C12 UNL     1       3.297  -0.033  -0.722  1.00  0.00     0.241 C 
HETATM   24  O4  UNL     1       3.324   1.208  -0.996  1.00  0.00    -0.271 OA
ATOM     25  H4  UNL     1       2.205  -1.527   0.230  1.00  0.00     0.163 HD
BRANCH  23  26
HETATM   26  C13 UNL     1       4.413  -0.839  -1.201  1.00  0.00     0.180 C 
BRANCH  26  27
HETATM   27  N5  UNL     1       5.657  -0.063  -1.180  1.00  0.00    -0.338 N 
HETATM   28  C14 UNL     1       6.355   0.318  -2.347  1.00  0.00     0.319 C 
HETATM   29  O5  UNL     1       5.953   0.014  -3.488  1.00  0.00    -0.261 OA
ATOM     30  H5  UNL     1       6.038   0.216  -0.276  1.00  0.00     0.163 HD
BRANCH  28  31
HETATM   31  C15 UNL     1       7.597   1.097  -2.251  1.00  0.00     0.270 C 
HETATM   32  O6  UNL     1       8.027   1.438  -1.109  1.00  0.00    -0.640 OA
HETATM   33  O7  UNL     1       8.323   1.477  -3.363  1.00  0.00    -0.640 OA
ENDBRANCH  28  31
ENDBRANCH  26  27
BRANCH  26  34
HETATM   34  C16 UNL     1       4.602  -2.196  -0.616  1.00  0.00     0.009 C 
HETATM   35  C17 UNL     1       4.802  -2.227   0.861  1.00  0.00     0.012 C 
HETATM   36  C18 UNL     1       3.641  -3.249  -1.047  1.00  0.00     0.012 C 
ENDBRANCH  26  34
ENDBRANCH  23  26
ENDBRANCH  21  22
BRANCH  21  37
HETATM   37  C19 UNL     1       1.314   0.579   1.967  1.00  0.00     0.009 C 
HETATM   38  C20 UNL     1       2.595   1.311   2.190  1.00  0.00     0.012 C 
HETATM   39  C21 UNL     1       1.346  -0.719   2.747  1.00  0.00     0.012 C 
ENDBRANCH  21  37
ENDBRANCH  16  21
BRANCH  18  40
HETATM   40  O8  UNL     1      -2.304  -2.078   0.475  1.00  0.00    -0.360 OA
BRANCH  40  41
HETATM   41  C23 UNL     1      -2.834  -2.713   1.593  1.00  0.00     0.116 C 
HETATM   42  C24 UNL     1      -3.868  -3.750   1.231  1.00  0.00     0.039 C 
HETATM   43  C25 UNL     1      -1.774  -3.358   2.401  1.00  0.00     0.039 C 
ENDBRANCH  40  41
ENDBRANCH  18  40
TORSDOF 9
