REMARK  12 active torsions:
REMARK  status: ('A' for Active; 'I' for Inactive)
REMARK    1  A    between atoms: C3_3  and  N1_4 
REMARK    2  A    between atoms: C6_7  and  C7_8 
REMARK    3  A    between atoms: C14_16  and  O2_17 
REMARK    4  A    between atoms: O2_17  and  C15_18 
REMARK    5  A    between atoms: C16_20  and  C17_21 
REMARK    6  A    between atoms: C17_21  and  O4_22 
REMARK    7  A    between atoms: C19_24  and  O5_25 
REMARK    8  A    between atoms: C20_27  and  O6_28 
REMARK    9  A    between atoms: C21_30  and  C22_31 
REMARK   10  A    between atoms: N2_34  and  C23_35 
REMARK   11  A    between atoms: C23_35  and  O9_36 
REMARK   12  A    between atoms: C23_35  and  C24_38 
ROOT
HETATM    1  C1  UNL     1      -5.323   4.672   0.813  1.00  0.00     0.013 C 
HETATM    2  C2  UNL     1      -4.196   4.267   0.954  1.00  0.00    -0.089 C 
HETATM    3  C3  UNL     1      -2.838   3.756   1.140  1.00  0.00     0.330 C 
ENDROOT
BRANCH   3   4
HETATM    4  N1  UNL     1      -2.781   2.331   0.818  1.00  0.00    -0.055 N 
HETATM    5  C4  UNL     1      -3.720   1.558   1.549  1.00  0.00     0.239 C 
HETATM    6  C5  UNL     1      -4.286   0.364   0.761  1.00  0.00     0.039 C 
HETATM    7  C6  UNL     1      -3.159  -0.232  -0.131  1.00  0.00    -0.014 C 
HETATM    8  C9  UNL     1      -3.017   0.884  -1.192  1.00  0.00     0.039 C 
HETATM    9  C11 UNL     1      -1.978  -0.444   0.690  1.00  0.00     0.131 C 
HETATM   10  C10 UNL     1      -2.869   2.236  -0.615  1.00  0.00     0.239 C 
HETATM   11  C12 UNL     1      -0.988   0.697   0.511  1.00  0.00     0.175 C 
HETATM   12  N2  UNL     1      -1.174  -1.662   0.480  1.00  0.00    -0.316 N 
HETATM   13  C13 UNL     1      -1.432   1.919   1.271  1.00  0.00     0.272 C 
HETATM   14  O1  UNL     1       0.221   0.279   1.044  1.00  0.00    -0.346 OA
HETATM   15  C14 UNL     1       0.851  -0.434  -0.038  1.00  0.00     0.321 C 
HETATM   16  C21 UNL     1      -0.124  -1.470  -0.483  1.00  0.00     0.146 C 
BRANCH   7  17
HETATM   17  C7  UNL     1      -3.739  -1.432  -0.797  1.00  0.00     0.007 C 
HETATM   18  C8  UNL     1      -4.930  -1.145  -1.679  1.00  0.00     0.006 C 
ENDBRANCH   7  17
BRANCH  15  19
HETATM   19  O2  UNL     1       2.058  -0.808   0.449  1.00  0.00    -0.323 OA
BRANCH  19  20
HETATM   20  C15 UNL     1       3.117  -0.050  -0.011  1.00  0.00     0.295 C 
HETATM   21  O3  UNL     1       4.151  -0.709  -0.604  1.00  0.00    -0.348 OA
HETATM   22  C16 UNL     1       5.211   0.230  -0.529  1.00  0.00     0.179 C 
HETATM   23  C19 UNL     1       5.195   0.473   0.963  1.00  0.00     0.182 C 
HETATM   24  C20 UNL     1       3.704   0.678   1.203  1.00  0.00     0.204 C 
BRANCH  22  25
HETATM   25  C17 UNL     1       6.497  -0.358  -1.009  1.00  0.00     0.201 C 
BRANCH  25  26
HETATM   26  O4  UNL     1       6.430  -0.783  -2.334  1.00  0.00    -0.393 OA
HETATM   27  C18 UNL     1       7.681  -1.301  -2.661  1.00  0.00     0.201 C 
ENDBRANCH  25  26
ENDBRANCH  22  25
BRANCH  23  28
HETATM   28  O5  UNL     1       5.555  -0.717   1.576  1.00  0.00    -0.390 OA
ATOM     29  H5  UNL     1       5.545  -0.564   2.514  1.00  0.00     0.210 HD
ENDBRANCH  23  28
BRANCH  24  30
HETATM   30  O6  UNL     1       3.430   2.052   1.150  1.00  0.00    -0.388 OA
ATOM     31  H6  UNL     1       3.794   2.503   1.903  1.00  0.00     0.210 HD
ENDBRANCH  24  30
ENDBRANCH  19  20
ENDBRANCH  15  19
BRANCH  16  32
HETATM   32  C22 UNL     1       0.482  -2.594  -1.136  1.00  0.00     0.227 C 
HETATM   33  O7  UNL     1      -0.238  -3.396  -1.841  1.00  0.00    -0.643 OA
HETATM   34  O8  UNL     1       1.817  -2.961  -1.111  1.00  0.00    -0.643 OA
ENDBRANCH  16  32
BRANCH  12  35
HETATM   35  C23 UNL     1      -1.412  -2.776   1.237  1.00  0.00     0.128 C 
BRANCH  35  36
HETATM   36  O9  UNL     1      -2.374  -2.603   2.134  1.00  0.00    -0.349 OA
ATOM     37  H9  UNL     1      -2.539  -3.377   2.660  1.00  0.00     0.219 HD
ENDBRANCH  35  36
BRANCH  35  38
HETATM   38  C24 UNL     1      -0.874  -4.121   1.319  1.00  0.00     0.169 C 
HETATM   39 BR1  UNL     1      -1.984  -5.514   0.583  1.00  0.00    -0.088 Br
ENDBRANCH  35  38
ENDBRANCH  12  35
ENDBRANCH   3   4
TORSDOF 12
