REMARK  11 active torsions:
REMARK  status: ('A' for Active; 'I' for Inactive)
REMARK    1  A    between atoms: C3_3  and  C4_4 
REMARK    2  A    between atoms: C4_4  and  O1_5 
REMARK    3  A    between atoms: C4_4  and  C5_7 
REMARK    4  A    between atoms: C4_4  and  S2_34 
REMARK    5  A    between atoms: C5_7  and  N1_8 
REMARK    6  A    between atoms: N1_8  and  N2_9 
REMARK    7  A    between atoms: N1_8  and  C14_29 
REMARK    8  A    between atoms: C7_14  and  N4_15 
REMARK    9  A    between atoms: N4_15  and  S1_16 
REMARK   10  A    between atoms: S1_16  and  N5_19 
REMARK   11  A    between atoms: S2_34  and  N7_37 
ROOT
HETATM    1  C1  UNL     1      -5.991  -2.514  -0.116  1.00  0.00     0.112 C 
HETATM    2  C2  UNL     1      -4.955  -1.555  -0.478  1.00  0.00    -0.107 C 
HETATM    3  C3  UNL     1      -4.072  -0.753  -0.764  1.00  0.00    -0.049 C 
ENDROOT
BRANCH   3   4
HETATM    4  C4  UNL     1      -3.036   0.226  -1.096  1.00  0.00     0.262 C 
BRANCH   4   5
HETATM    5  O1  UNL     1      -3.575   0.911  -2.226  1.00  0.00    -0.362 OA
ATOM      6  H1  UNL     1      -2.903   1.546  -2.442  1.00  0.00     0.213 HD
ENDBRANCH   4   5
BRANCH   4   7
HETATM    7  C5  UNL     1      -1.784  -0.359  -1.577  1.00  0.00     0.213 C 
BRANCH   7   8
HETATM    8  N1  UNL     1      -0.948  -1.118  -0.687  1.00  0.00    -0.317 N 
BRANCH   8   9
HETATM    9  N2  UNL     1       0.239  -0.593  -0.338  1.00  0.00    -0.286 N 
HETATM   10  C6  UNL     1       1.385  -0.337  -0.683  1.00  0.00     0.146 A 
HETATM   11  N3  UNL     1       2.222   0.268   0.201  1.00  0.00    -0.299 N 
HETATM   12  C13 UNL     1       1.902  -0.641  -1.921  1.00  0.00     0.095 A 
HETATM   13  C7  UNL     1       3.516   0.585  -0.058  1.00  0.00     0.274 A 
ATOM     14  H3  UNL     1       1.852   0.500   1.123  1.00  0.00     0.171 HD
HETATM   15  N6  UNL     1       3.984   0.259  -1.311  1.00  0.00    -0.324 N 
HETATM   16  C12 UNL     1       3.224  -0.335  -2.232  1.00  0.00     0.120 A 
ATOM     17  H6  UNL     1       4.952   0.481  -1.545  1.00  0.00     0.169 HD
HETATM   18 CL1  UNL     1       0.985  -1.418  -3.190  1.00  0.00    -0.079 Cl
ATOM     19  H2  UNL     1       0.144  -0.270   0.625  1.00  0.00     0.188 HD
BRANCH  13  20
HETATM   20  N4  UNL     1       4.263   1.122   0.721  1.00  0.00    -0.273 NA
BRANCH  20  21
HETATM   21  S1  UNL     1       5.248   1.826   1.740  1.00  0.00     0.371 S 
HETATM   22  O2  UNL     1       4.999   3.329   1.985  1.00  0.00    -0.174 OA
HETATM   23  O3  UNL     1       5.116   1.221   3.153  1.00  0.00    -0.174 OA
BRANCH  21  24
HETATM   24  N5  UNL     1       6.949   1.659   1.356  1.00  0.00    -0.182 NA
HETATM   25  C8  UNL     1       7.290   2.248   0.100  1.00  0.00     0.110 C 
HETATM   26  C9  UNL     1       8.652   1.628  -0.201  1.00  0.00     0.017 C 
HETATM   27  C10 UNL     1       8.650   0.323   0.527  1.00  0.00     0.017 C 
HETATM   28  C11 UNL     1       7.297   0.270   1.210  1.00  0.00     0.110 C 
ENDBRANCH  21  24
ENDBRANCH  20  21
ENDBRANCH  13  20
ENDBRANCH   8   9
BRANCH   8  29
HETATM   29  C14 UNL     1      -1.300  -2.380  -0.112  1.00  0.00     0.102 C 
HETATM   30  C15 UNL     1      -0.151  -2.946   0.680  1.00  0.00     0.027 C 
HETATM   31  C16 UNL     1      -0.317  -4.457   0.602  1.00  0.00     0.002 C 
HETATM   32  C17 UNL     1      -1.569  -4.685  -0.173  1.00  0.00     0.002 C 
HETATM   33  C18 UNL     1      -1.584  -3.468  -1.121  1.00  0.00     0.027 C 
ENDBRANCH   8  29
ENDBRANCH   7   8
ENDBRANCH   4   7
BRANCH   4  34
HETATM   34  S2  UNL     1      -2.919   1.492   0.135  1.00  0.00     0.275 S 
HETATM   35  O4  UNL     1      -1.831   2.448  -0.250  1.00  0.00    -0.202 OA
HETATM   36  O5  UNL     1      -2.606   0.965   1.492  1.00  0.00    -0.202 OA
BRANCH  34  37
HETATM   37  N7  UNL     1      -4.455   2.239   0.189  1.00  0.00    -0.303 N 
HETATM   38  C19 UNL     1      -4.557   3.572  -0.232  1.00  0.00     0.161 C 
HETATM   39  C20 UNL     1      -5.963   4.050   0.178  1.00  0.00     0.188 C 
HETATM   40  O6  UNL     1      -6.892   3.037  -0.041  1.00  0.00    -0.388 OA
HETATM   41  C21 UNL     1      -6.729   1.923   0.746  1.00  0.00     0.188 C 
HETATM   42  C22 UNL     1      -5.287   1.913   1.284  1.00  0.00     0.161 C 
ENDBRANCH  34  37
ENDBRANCH   4  34
ENDBRANCH   3   4
TORSDOF 11
