REMARK  10 active torsions:
REMARK  status: ('A' for Active; 'I' for Inactive)
REMARK    1  A    between atoms: C2_2  and  N1_5 
REMARK       I    between atoms: N1_5  and  C5_7 
REMARK    2  A    between atoms: C5_7  and  C6_9 
REMARK    3  A    between atoms: C6_9  and  C7_11 
REMARK    4  A    between atoms: C7_11  and  C8_13 
REMARK    5  A    between atoms: C9_15  and  C10_16 
REMARK    6  A    between atoms: C14_20  and  C15_21 
REMARK    7  A    between atoms: N2_22  and  N3_24 
REMARK       I    between atoms: N3_24  and  C16_26 
REMARK    8  A    between atoms: C16_26  and  C17_28 
REMARK    9  A    between atoms: C17_28  and  C18_30 
REMARK   10  A    between atoms: C18_30  and  C19_31 
ROOT
HETATM    1  C10 UNL     1      -0.614   0.687  -1.359  1.00  0.00     0.009 C 
HETATM    2  C11 UNL     1       0.431   0.046  -1.785  1.00  0.00    -0.044 C 
HETATM    3  C12 UNL     1       1.687   0.765  -2.028  1.00  0.00     0.006 C 
HETATM    4  C13 UNL     1       2.841   0.181  -1.872  1.00  0.00    -0.001 C 
HETATM    5  C14 UNL     1       3.163  -1.174  -1.464  1.00  0.00     0.171 C 
HETATM    6  S1  UNL     1       1.771  -2.235  -1.288  1.00  0.00     0.160 S 
HETATM    7  O6  UNL     1       2.017  -3.543  -1.985  1.00  0.00    -0.227 OA
HETATM    8  O7  UNL     1       1.474  -2.538   0.151  1.00  0.00    -0.227 OA
HETATM    9  C22 UNL     1       0.403  -1.389  -2.042  1.00  0.00     0.179 C 
ENDROOT
BRANCH   5  10
HETATM   10  C15 UNL     1       4.142  -1.732  -2.421  1.00  0.00     0.104 C 
HETATM   11  N2  UNL     1       5.347  -1.364  -2.452  1.00  0.00    -0.311 N 
ATOM     12  H2  UNL     1       5.934  -1.816  -3.153  1.00  0.00     0.185 HD
BRANCH  11  13
HETATM   13  N3  UNL     1       5.961  -0.439  -1.666  1.00  0.00    -0.264 N 
HETATM   14  C16 UNL     1       6.467  -0.682  -0.368  1.00  0.00     0.306 C 
HETATM   15  O4  UNL     1       6.346  -1.849   0.135  1.00  0.00    -0.263 OA
ATOM     16  H3  UNL     1       6.065   0.503  -2.042  1.00  0.00     0.190 HD
BRANCH  14  17
HETATM   17  C17 UNL     1       7.122   0.330   0.427  1.00  0.00     0.223 C 
HETATM   18  O5  UNL     1       7.296   1.470  -0.044  1.00  0.00    -0.287 OA
BRANCH  17  19
HETATM   19  C18 UNL     1       7.587   0.027   1.792  1.00  0.00     0.147 C 
BRANCH  19  20
HETATM   20  C19 UNL     1       9.059   0.022   1.848  1.00  0.00     0.033 A 
HETATM   21  C20 UNL     1       9.865   1.106   2.051  1.00  0.00     0.114 A 
HETATM   22  N4  UNL     1      11.137   0.639   2.032  1.00  0.00    -0.360 N 
HETATM   23  C21 UNL     1      11.100  -0.699   1.822  1.00  0.00     0.180 A 
ATOM     24  H4  UNL     1      11.980   1.200   2.155  1.00  0.00     0.166 HD
HETATM   25  N5  UNL     1       9.839  -1.081   1.710  1.00  0.00    -0.354 N 
ATOM     26  H5  UNL     1       9.511  -2.033   1.549  1.00  0.00     0.166 HD
ENDBRANCH  19  20
ENDBRANCH  17  19
ENDBRANCH  14  17
ENDBRANCH  11  13
ENDBRANCH   5  10
BRANCH   1  27
HETATM   27  C9  UNL     1      -1.883   0.055  -1.098  1.00  0.00     0.024 C 
HETATM   28  C8  UNL     1      -2.898   0.821  -0.654  1.00  0.00     0.065 C 
HETATM   29 BR1  UNL     1      -2.568   2.671  -0.405  1.00  0.00    -0.047 Br
BRANCH  28  30
HETATM   30  C7  UNL     1      -4.203   0.252  -0.373  1.00  0.00     0.244 C 
HETATM   31  O3  UNL     1      -4.365  -0.991  -0.559  1.00  0.00    -0.282 OA
BRANCH  30  32
HETATM   32  C6  UNL     1      -5.305   1.070   0.108  1.00  0.00     0.290 C 
HETATM   33  O2  UNL     1      -5.121   2.290   0.303  1.00  0.00    -0.278 OA
BRANCH  32  34
HETATM   34  C5  UNL     1      -6.590   0.454   0.350  1.00  0.00     0.296 C 
HETATM   35  N1  UNL     1      -7.664   1.232   0.825  1.00  0.00    -0.346 N 
ATOM     36  H1  UNL     1      -7.516   2.227   0.992  1.00  0.00     0.163 HD
HETATM   37  O1  UNL     1      -6.799  -0.772   0.152  1.00  0.00    -0.264 OA
BRANCH  35  38
HETATM   38  C2  UNL     1      -8.975   0.663   1.084  1.00  0.00     0.022 C 
HETATM   39  C1  UNL     1      -9.895   1.752   1.586  1.00  0.00     0.037 C 
HETATM   40  C3  UNL     1      -9.598   0.074  -0.174  1.00  0.00     0.037 C 
HETATM   41  C4  UNL     1      -8.880  -0.424   2.122  1.00  0.00     0.037 C 
ENDBRANCH  35  38
ENDBRANCH  32  34
ENDBRANCH  30  32
ENDBRANCH  28  30
ENDBRANCH   1  27
TORSDOF 10
