REMARK  6 active torsions:
REMARK  status: ('A' for Active; 'I' for Inactive)
REMARK    1  A    between atoms: C1_4  and  C2_5 
REMARK    2  A    between atoms: C4_7  and  O1_8 
REMARK    3  A    between atoms: C6_11  and  O2_12 
REMARK    4  A    between atoms: C8_15  and  O3_16 
REMARK    5  A    between atoms: C11_23  and  O4_24 
REMARK    6  A    between atoms: C13_27  and  S2_28 
ROOT
HETATM    1  C2  UNL     1       2.924  -0.409  -0.004  1.00  0.00    -0.000 A 
HETATM    2  C3  UNL     1       2.546  -1.656  -0.452  1.00  0.00     0.051 A 
HETATM    3  C4  UNL     1       1.196  -1.946  -0.557  1.00  0.00     0.080 A 
HETATM    4  C5  UNL     1       0.212  -1.022  -0.227  1.00  0.00     0.046 A 
HETATM    5  C6  UNL     1      -1.136  -1.368  -0.353  1.00  0.00     0.095 A 
HETATM    6  C7  UNL     1      -2.111  -0.457  -0.027  1.00  0.00     0.065 A 
HETATM    7  C8  UNL     1      -3.488  -0.517  -0.050  1.00  0.00     0.155 A 
HETATM    8  N2  UNL     1      -3.948   0.668   0.375  1.00  0.00    -0.329 N 
ATOM      9  H2  UNL     1      -4.935   0.911   0.461  1.00  0.00     0.168 HD
HETATM   10  C9  UNL     1      -2.916   1.502   0.676  1.00  0.00     0.097 A 
HETATM   11  S1  UNL     1      -3.036   3.163   1.272  1.00  0.00    -0.032 SA
HETATM   12  C10 UNL     1      -1.750   0.821   0.432  1.00  0.00     0.050 A 
HETATM   13  C11 UNL     1      -0.409   1.144   0.550  1.00  0.00     0.092 A 
HETATM   14  C12 UNL     1       0.577   0.204   0.214  1.00  0.00     0.032 A 
HETATM   15  C13 UNL     1       1.917   0.509   0.324  1.00  0.00     0.038 A 
ENDROOT
BRANCH   1  16
HETATM   16  C1  UNL     1       4.317  -0.028   0.134  1.00  0.00     0.093 C 
HETATM   17  N1  UNL     1       5.256  -0.842  -0.156  1.00  0.00    -0.407 N 
ATOM     18  H12 UNL     1       5.006  -1.773  -0.489  1.00  0.00     0.155 HD
ATOM     19  H11 UNL     1       6.235  -0.574  -0.059  1.00  0.00     0.155 HD
ENDBRANCH   1  16
BRANCH  15  20
HETATM   20  S2  UNL     1       2.377   2.120   0.903  1.00  0.00    -0.044 SA
HETATM   21  S3  UNL     1       2.598   3.504  -0.689  1.00  0.00    -0.007 SA
ENDBRANCH  15  20
BRANCH   3  22
HETATM   22  O1  UNL     1       0.839  -3.199  -1.007  1.00  0.00    -0.360 OA
ATOM     23  H1  UNL     1      -0.087  -3.398  -1.079  1.00  0.00     0.217 HD
ENDBRANCH   3  22
BRANCH  13  24
HETATM   24  O4  UNL     1       0.061   2.359   0.987  1.00  0.00    -0.359 OA
ATOM     25  H4  UNL     1       0.981   2.581   1.068  1.00  0.00     0.217 HD
ENDBRANCH  13  24
BRANCH   5  26
HETATM   26  O2  UNL     1      -1.465  -2.630  -0.806  1.00  0.00    -0.359 OA
ATOM     27  H2  UNL     1      -2.381  -2.865  -0.892  1.00  0.00     0.217 HD
ENDBRANCH   5  26
BRANCH   7  28
HETATM   28  O3  UNL     1      -4.291  -1.585  -0.434  1.00  0.00    -0.345 OA
ATOM     29  H3  UNL     1      -5.240  -1.626  -0.450  1.00  0.00     0.219 HD
ENDBRANCH   7  28
TORSDOF 6
