REMARK  6 active torsions:
REMARK  status: ('A' for Active; 'I' for Inactive)
REMARK    1  A    between atoms: C3_3  and  N1_4 
REMARK    2  A    between atoms: C4_6  and  C5_7 
REMARK    3  A    between atoms: C7_10  and  O1_11 
REMARK    4  A    between atoms: C10_16  and  O2_17 
REMARK    5  A    between atoms: C12_20  and  O3_21 
REMARK    6  A    between atoms: C16_27  and  O4_28 
ROOT
HETATM    1  C5  UNL     1      -1.822   0.310   1.098  1.00  0.00     0.055 A 
HETATM    2  S1  UNL     1      -0.581   0.776   2.135  1.00  0.00    -0.082 SA
HETATM    3  C6  UNL     1       0.770   0.376   1.152  1.00  0.00     0.054 A 
HETATM    4  C7  UNL     1       2.156   0.480   1.343  1.00  0.00     0.097 A 
HETATM    5  C8  UNL     1       3.014   0.068   0.350  1.00  0.00     0.040 A 
HETATM    6  C9  UNL     1       4.377   0.165   0.525  1.00  0.00     0.093 A 
HETATM    7  N2  UNL     1       4.931   0.689   1.723  1.00  0.00    -0.098 NA
HETATM    8  C10 UNL     1       5.263  -0.244  -0.462  1.00  0.00     0.093 A 
HETATM    9  C11 UNL     1       4.683  -0.745  -1.607  1.00  0.00     0.076 A 
HETATM   10  C12 UNL     1       3.330  -0.848  -1.795  1.00  0.00     0.081 A 
HETATM   11  C13 UNL     1       2.449  -0.434  -0.798  1.00  0.00     0.037 A 
HETATM   12  C14 UNL     1       1.091  -0.534  -0.979  1.00  0.00     0.074 A 
HETATM   13  N3  UNL     1       0.682  -1.079  -2.233  1.00  0.00    -0.100 NA
HETATM   14  C15 UNL     1       0.187  -0.121   0.016  1.00  0.00     0.043 A 
HETATM   15  C16 UNL     1      -1.164  -0.159  -0.019  1.00  0.00     0.097 A 
ENDROOT
BRANCH   1  16
HETATM   16  C4  UNL     1      -3.266   0.401   1.364  1.00  0.00     0.109 C 
HETATM   17  N1  UNL     1      -4.120   0.019   0.507  1.00  0.00    -0.374 N 
ATOM     18  H1  UNL     1      -3.804  -0.359  -0.386  1.00  0.00     0.164 HD
BRANCH  17  19
HETATM   19  C3  UNL     1      -5.512   0.112   0.778  1.00  0.00     0.083 C 
HETATM   20  C2  UNL     1      -6.357   0.614  -0.098  1.00  0.00    -0.014 C 
HETATM   21  C1  UNL     1      -7.801   0.695   0.220  1.00  0.00     0.037 C 
ENDBRANCH  17  19
ENDBRANCH   1  16
BRANCH  15  22
HETATM   22  O4  UNL     1      -1.990  -0.622  -1.067  1.00  0.00    -0.358 OA
ATOM     23  H4  UNL     1      -1.537  -0.945  -1.837  1.00  0.00     0.217 HD
ENDBRANCH  15  22
BRANCH   4  24
HETATM   24  O1  UNL     1       2.602   0.996   2.528  1.00  0.00    -0.358 OA
ATOM     25  H1  UNL     1       3.541   1.066   2.657  1.00  0.00     0.217 HD
ENDBRANCH   4  24
BRANCH  10  26
HETATM   26  O3  UNL     1       2.821  -1.363  -2.976  1.00  0.00    -0.360 OA
ATOM     27  H3  UNL     1       1.883  -1.434  -3.106  1.00  0.00     0.217 HD
ENDBRANCH  10  26
BRANCH   8  28
HETATM   28  O2  UNL     1       6.641  -0.169  -0.341  1.00  0.00    -0.359 OA
ATOM     29  H2  UNL     1       7.247  -0.449  -1.017  1.00  0.00     0.217 HD
ENDBRANCH   8  28
TORSDOF 6
