REMARK  10 active torsions:
REMARK  status: ('A' for Active; 'I' for Inactive)
REMARK    1  A    between atoms: C2_2  and  C4_4 
REMARK    2  A    between atoms: C5_5  and  C6_6 
REMARK    3  A    between atoms: C7_7  and  O1_8 
REMARK    4  A    between atoms: C8_10  and  O2_11 
REMARK    5  A    between atoms: C11_15  and  O3_16 
REMARK    6  A    between atoms: C12_18  and  N1_19 
REMARK    7  A    between atoms: N1_19  and  O4_21 
REMARK    8  A    between atoms: C13_25  and  O5_26 
REMARK    9  A    between atoms: C15_29  and  O6_30 
REMARK   10  A    between atoms: C17_33  and  O7_34 
ROOT
HETATM    1  C6  UNL     1       1.084  -0.291   0.069  1.00  0.00     0.034 A 
HETATM    2  C7  UNL     1       0.757   1.005   0.379  1.00  0.00     0.112 A 
HETATM    3  C8  UNL     1      -0.567   1.466   0.434  1.00  0.00     0.112 A 
HETATM    4  C9  UNL     1      -1.562   0.563   0.163  1.00  0.00     0.030 A 
HETATM    5  C10 UNL     1      -2.933   0.723   0.140  1.00  0.00     0.032 A 
HETATM    6  C11 UNL     1      -3.775   1.790   0.369  1.00  0.00     0.124 A 
HETATM    7  C12 UNL     1      -5.142   1.546   0.246  1.00  0.00     0.161 A 
HETATM    8  N2  UNL     1      -5.655   0.356  -0.076  1.00  0.00    -0.319 N 
ATOM      9  H2  UNL     1      -6.668   0.262  -0.146  1.00  0.00     0.169 HD
HETATM   10  C13 UNL     1      -4.888  -0.722  -0.311  1.00  0.00     0.155 A 
HETATM   11  C14 UNL     1      -3.518  -0.569  -0.210  1.00  0.00     0.063 A 
HETATM   12  C15 UNL     1      -2.447  -1.473  -0.388  1.00  0.00     0.095 A 
HETATM   13  C16 UNL     1      -1.286  -0.761  -0.157  1.00  0.00     0.046 A 
HETATM   14  C17 UNL     1       0.020  -1.178  -0.202  1.00  0.00     0.092 A 
ENDROOT
BRANCH   1  15
HETATM   15  C5  UNL     1       2.429  -0.808   0.001  1.00  0.00     0.013 C 
HETATM   16  C4  UNL     1       3.570  -0.230   0.197  1.00  0.00    -0.022 C 
BRANCH  16  17
HETATM   17  C2  UNL     1       4.853  -1.029   0.055  1.00  0.00    -0.000 C 
HETATM   18  C1  UNL     1       5.646  -0.978   1.344  1.00  0.00     0.013 C 
HETATM   19  C3  UNL     1       5.721  -0.422  -1.023  1.00  0.00     0.013 C 
ENDBRANCH  16  17
ENDBRANCH   1  15
BRANCH   2  20
HETATM   20  O1  UNL     1       1.798   1.865   0.642  1.00  0.00    -0.357 OA
ATOM     21  H1  UNL     1       1.572   2.762   0.857  1.00  0.00     0.217 HD
ENDBRANCH   2  20
BRANCH  14  22
HETATM   22  O7  UNL     1       0.341  -2.453  -0.507  1.00  0.00    -0.359 OA
ATOM     23  H7  UNL     1      -0.375  -3.050  -0.689  1.00  0.00     0.217 HD
ENDBRANCH  14  22
BRANCH   3  24
HETATM   24  O2  UNL     1      -0.744   2.779   0.755  1.00  0.00    -0.357 OA
ATOM     25  H2  UNL     1      -1.640   3.091   0.792  1.00  0.00     0.217 HD
ENDBRANCH   3  24
BRANCH  12  26
HETATM   26  O6  UNL     1      -2.713  -2.758  -0.722  1.00  0.00    -0.359 OA
ATOM     27  H6  UNL     1      -1.993  -3.366  -0.842  1.00  0.00     0.217 HD
ENDBRANCH  12  26
BRANCH   6  28
HETATM   28  O3  UNL     1      -3.328   3.049   0.705  1.00  0.00    -0.356 OA
ATOM     29  H3  UNL     1      -3.908   3.784   0.863  1.00  0.00     0.218 HD
ENDBRANCH   6  28
BRANCH  10  30
HETATM   30  O5  UNL     1      -5.432  -1.955  -0.645  1.00  0.00    -0.345 OA
ATOM     31  H5  UNL     1      -4.890  -2.717  -0.811  1.00  0.00     0.219 HD
ENDBRANCH  10  30
BRANCH   7  32
HETATM   32  N1  UNL     1      -6.056   2.639   0.478  1.00  0.00    -0.251 N 
ATOM     33  H1  UNL     1      -6.680   2.610   1.285  1.00  0.00     0.196 HD
BRANCH  32  34
HETATM   34  O4  UNL     1      -6.095   3.618  -0.292  1.00  0.00    -0.288 OA
ATOM     35  H4  UNL     1      -6.696   4.337  -0.139  1.00  0.00     0.244 HD
ENDBRANCH  32  34
ENDBRANCH   7  32
TORSDOF 10
