REMARK  1 active torsions:
REMARK  status: ('A' for Active; 'I' for Inactive)
REMARK    1  A    between atoms: C2_2  and  C4_4 
REMARK       I    between atoms: N1_7  and  C7_8 
REMARK       I    between atoms: C7_8  and  N4_13 
ROOT
HETATM    1  C4  UNL     1      -1.522  -0.174  -0.094  1.00  0.00     0.059 C 
HETATM    2  C5  UNL     1      -0.568  -0.431  -1.226  1.00  0.00     0.248 C 
HETATM    3  C6  UNL     1       0.715   0.319  -1.114  1.00  0.00     0.177 C 
HETATM    4  N1  UNL     1       1.452  -0.046   0.105  1.00  0.00    -0.212 N 
HETATM    5  C7  UNL     1       2.843   0.157   0.214  1.00  0.00     0.695 C 
HETATM    6  N2  UNL     1       3.316   1.310   0.520  1.00  0.00    -0.125 N 
ATOM      7  H2  UNL     1       4.325   1.436   0.595  1.00  0.00     0.197 HD
HETATM    8  C8  UNL     1       2.482   2.375   0.748  1.00  0.00     0.196 C 
HETATM    9  N3  UNL     1       1.796   3.288   0.946  1.00  0.00    -0.171 NA
HETATM   10  N4  UNL     1       3.793  -0.869   0.002  1.00  0.00    -0.155 N 
ATOM     11  H4  UNL     1       3.987  -1.539   0.747  1.00  0.00     0.192 HD
HETATM   12 BR1  UNL     1       4.702  -1.012  -1.635  1.00  0.00     0.063 Br
HETATM   13  C9  UNL     1       0.625  -0.622   1.147  1.00  0.00     0.177 C 
HETATM   14  C10 UNL     1      -0.630  -1.203   0.601  1.00  0.00     0.248 C 
HETATM   15  N5  UNL     1      -0.508  -1.788  -0.712  1.00  0.00     0.097 N 
HETATM   16  C11 UNL     1       0.584  -2.598  -1.029  1.00  0.00     0.311 C 
ENDROOT
BRANCH   1  17
HETATM   17  C2  UNL     1      -1.618   1.162   0.493  1.00  0.00    -0.014 C 
HETATM   18  C1  UNL     1      -2.667   1.101   1.612  1.00  0.00     0.010 C 
HETATM   19  C3  UNL     1      -2.157   2.134  -0.531  1.00  0.00     0.010 C 
ENDBRANCH   1  17
TORSDOF 1
