REMARK  1 active torsions:
REMARK  status: ('A' for Active; 'I' for Inactive)
REMARK    1  A    between atoms: C4_4  and  C5_5 
ROOT
HETATM    1  C1  UNL     1       1.957  -2.059  -0.135  1.00  0.00     0.040 C 
HETATM    2  C2  UNL     1       0.889  -1.050   0.120  1.00  0.00     0.186 C 
HETATM    3  C3  UNL     1      -0.165  -1.031  -0.953  1.00  0.00     0.040 C 
HETATM    4  C4  UNL     1      -1.497  -1.033  -0.268  1.00  0.00     0.022 C 
HETATM    5  C6  UNL     1      -1.839   0.233   0.400  1.00  0.00     0.113 C 
HETATM    6  N1  UNL     1      -2.253   1.303  -0.442  1.00  0.00    -0.360 N 
ATOM      7  H1  UNL     1      -2.610   1.235  -1.395  1.00  0.00     0.162 HD
HETATM    8  C7  UNL     1      -2.064   2.489   0.326  1.00  0.00     0.168 C 
HETATM    9  S1  UNL     1      -2.496   4.025  -0.103  1.00  0.00    -0.041 SA
HETATM   10  N2  UNL     1      -1.420   2.107   1.560  1.00  0.00    -0.359 N 
ATOM     11  H2  UNL     1      -1.435   2.587   2.460  1.00  0.00     0.162 HD
HETATM   12  C8  UNL     1      -0.740   0.861   1.203  1.00  0.00     0.133 C 
HETATM   13  C9  UNL     1       0.442   1.284   0.409  1.00  0.00     0.264 C 
HETATM   14  N3  UNL     1       1.445   0.277   0.213  1.00  0.00    -0.069 N 
HETATM   15  C10 UNL     1       2.112   0.565  -1.046  1.00  0.00     0.272 C 
HETATM   16  C11 UNL     1       2.439   0.265   1.268  1.00  0.00     0.272 C 
ENDROOT
BRANCH   4  17
HETATM   17  C5  UNL     1      -2.624  -1.443  -1.180  1.00  0.00     0.092 C 
HETATM   18 BR1  UNL     1      -2.321  -3.231  -1.858  1.00  0.00    -0.096 Br
ENDBRANCH   4  17
TORSDOF 1
