REMARK  3 active torsions:
REMARK  status: ('A' for Active; 'I' for Inactive)
REMARK    1  A    between atoms: N1_2  and  C2_3 
REMARK    2  A    between atoms: N2_6  and  N3_7 
REMARK       I    between atoms: N3_7  and  C4_9 
REMARK       I    between atoms: C4_9  and  N4_11 
REMARK       I    between atoms: N4_11  and  C5_13 
REMARK       I    between atoms: C5_13  and  N5_15 
REMARK    3  A    between atoms: N5_15  and  N6_17 
ROOT
HETATM    1  N3  UNL     1       1.189  -0.846  -0.377  1.00  0.00    -0.165 N 
ATOM      2  H3  UNL     1       1.135  -1.619  -1.041  1.00  0.00     0.199 HD
HETATM    3  C4  UNL     1       2.577  -0.427  -0.152  1.00  0.00     0.348 C 
HETATM    4  O1  UNL     1       2.917   0.469   0.409  1.00  0.00    -0.245 OA
HETATM    5  N4  UNL     1       3.408  -1.521  -0.892  1.00  0.00    -0.258 N 
ATOM      6  H4  UNL     1       3.117  -2.316  -1.460  1.00  0.00     0.175 HD
HETATM    7  C5  UNL     1       4.976  -0.956  -0.442  1.00  0.00     0.344 C 
HETATM    8  O2  UNL     1       5.834  -1.631  -0.966  1.00  0.00    -0.245 OA
HETATM    9  N5  UNL     1       5.040   0.132   0.417  1.00  0.00    -0.237 N 
ATOM     10  H5  UNL     1       4.600   0.118   1.337  1.00  0.00     0.193 HD
ENDROOT
BRANCH   1  11
HETATM   11  N2  UNL     1      -0.036  -0.483   0.059  1.00  0.00     0.041 N 
HETATM   12  C3  UNL     1      -0.455   0.868  -0.292  1.00  0.00     0.501 C 
HETATM   13  N1  UNL     1      -1.902   0.978  -0.122  1.00  0.00    -0.028 N 
HETATM   14  C1  UNL     1      -2.459   0.889  -1.440  1.00  0.00     0.276 C 
HETATM   15  C8  UNL     1      -2.387  -0.004   0.749  1.00  0.00     0.197 C 
HETATM   16  C7  UNL     1      -2.277  -1.413   0.096  1.00  0.00     0.064 C 
HETATM   17  C9  UNL     1      -1.464  -0.109   1.934  1.00  0.00     0.064 C 
HETATM   18  C6  UNL     1      -0.903  -1.509  -0.466  1.00  0.00     0.269 C 
HETATM   19  C10 UNL     1      -0.087  -0.570   1.508  1.00  0.00     0.269 C 
BRANCH  13  20
HETATM   20  C2  UNL     1      -2.307   2.311   0.356  1.00  0.00     0.353 C 
HETATM   21 CL1  UNL     1      -4.108   2.432   0.161  1.00  0.00    -0.101 Cl
ENDBRANCH  13  20
ENDBRANCH   1  11
BRANCH   9  22
HETATM   22  N6  UNL     1       5.713   1.203  -0.030  1.00  0.00    -0.245 N 
HETATM   23  N7  UNL     1       6.845   1.772   0.000  1.00  0.00    -0.331 N 
ATOM     24  H72 UNL     1       7.452   1.191   0.578  1.00  0.00     0.178 HD
ATOM     25  H71 UNL     1       7.357   2.586  -0.340  1.00  0.00     0.178 HD
ATOM     26  H6  UNL     1       5.084   1.765  -0.604  1.00  0.00     0.208 HD
ENDBRANCH   9  22
TORSDOF 3
