REMARK  1 active torsions:
REMARK  status: ('A' for Active; 'I' for Inactive)
REMARK    1  A    between atoms: C3_3  and  N1_4 
REMARK       I    between atoms: N1_4  and  C4_6 
REMARK       I    between atoms: C4_6  and  N2_8 
ROOT
HETATM    1  C1  UNL     1       4.697  -2.716   1.838  1.00  0.00     0.015 C 
HETATM    2  C2  UNL     1       4.426  -1.792   1.113  1.00  0.00    -0.083 C 
HETATM    3  C3  UNL     1       4.111  -0.653   0.246  1.00  0.00     0.128 C 
HETATM    4  C14 UNL     1       4.788   0.608   0.800  1.00  0.00     0.050 C 
HETATM    5  C15 UNL     1       5.165   0.939  -0.631  1.00  0.00     0.044 C 
HETATM    6  C16 UNL     1       5.043  -0.539  -0.940  1.00  0.00     0.210 C 
HETATM    7  F1  UNL     1       4.468  -0.830  -2.158  1.00  0.00    -0.246 F 
ENDROOT
BRANCH   3   8
HETATM    8  N1  UNL     1       2.728  -0.451  -0.034  1.00  0.00    -0.320 N 
HETATM    9  C4  UNL     1       1.796  -0.209   0.995  1.00  0.00     0.319 C 
HETATM   10  O1  UNL     1       2.208  -0.174   2.182  1.00  0.00    -0.247 OA
HETATM   11  N2  UNL     1       0.396  -0.004   0.719  1.00  0.00    -0.331 N 
HETATM   12  C5  UNL     1      -0.548   0.243   1.788  1.00  0.00     0.155 C 
HETATM   13  C13 UNL     1      -0.120  -0.036  -0.633  1.00  0.00     0.155 C 
HETATM   14  C6  UNL     1      -1.638   1.125   1.221  1.00  0.00     0.257 C 
HETATM   15  N3  UNL     1      -2.396   0.446   0.177  1.00  0.00    -0.064 N 
HETATM   16  C7  UNL     1      -3.002   1.475  -0.635  1.00  0.00     0.237 C 
HETATM   17  C11 UNL     1      -3.482  -0.249   0.844  1.00  0.00     0.237 C 
HETATM   18  C12 UNL     1      -1.569  -0.453  -0.561  1.00  0.00     0.257 C 
HETATM   19  C8  UNL     1      -3.959   0.991  -1.645  1.00  0.00     0.028 C 
HETATM   20  C9  UNL     1      -4.751  -0.207  -1.321  1.00  0.00     0.003 C 
HETATM   21  C10 UNL     1      -4.260  -1.037  -0.178  1.00  0.00     0.028 C 
ATOM     22  H1  UNL     1       2.406  -0.482  -1.001  1.00  0.00     0.166 HD
ENDBRANCH   3   8
TORSDOF 1
