REMARK  1 active torsions:
REMARK  status: ('A' for Active; 'I' for Inactive)
REMARK    1  A    between atoms: C3_3  and  C4_4 
ROOT
HETATM    1  C1  UNL     1      -3.710   0.732   0.179  1.00  0.00     0.012 C 
HETATM    2  C2  UNL     1      -2.825   0.090  -0.336  1.00  0.00    -0.117 C 
HETATM    3  C3  UNL     1      -1.750  -0.700  -0.953  1.00  0.00     0.102 C 
ENDROOT
BRANCH   3   4
HETATM    4  C4  UNL     1      -0.517  -0.482  -0.067  1.00  0.00     0.035 C 
HETATM    5  C5  UNL     1       0.600  -1.294  -0.696  1.00  0.00     0.012 C 
HETATM    6  C6  UNL     1       1.802  -1.035   0.222  1.00  0.00     0.020 C 
HETATM    7  C7  UNL     1       2.151   0.401   0.036  1.00  0.00     0.118 C 
HETATM    8  N1  UNL     1       1.125   1.333   0.296  1.00  0.00    -0.402 N 
HETATM    9  C8  UNL     1      -0.209   0.959   0.038  1.00  0.00     0.061 C 
ATOM     10  H1  UNL     1       1.344   2.259   0.663  1.00  0.00     0.158 HD
ENDBRANCH   3   4
TORSDOF 1
