REMARK  1 active torsions:
REMARK  status: ('A' for Active; 'I' for Inactive)
REMARK    1  A    between atoms: C3_3  and  S1_4 
ROOT
HETATM    1  C1  UNL     1       3.040   0.555   0.769  1.00  0.00     0.012 C 
HETATM    2  C2  UNL     1       2.213  -0.124   0.209  1.00  0.00    -0.108 C 
HETATM    3  C3  UNL     1       1.197  -0.939  -0.496  1.00  0.00     0.159 C 
ENDROOT
BRANCH   3   4
HETATM    4  S1  UNL     1      -0.154   0.132  -0.888  1.00  0.00    -0.158 SA
HETATM    5  C4  UNL     1      -0.933   0.888   0.500  1.00  0.00     0.299 C 
HETATM    6  N1  UNL     1      -2.211   0.733  -0.214  1.00  0.00    -0.060 N 
HETATM    7  C5  UNL     1      -1.733  -0.617  -0.558  1.00  0.00     0.299 C 
ATOM      8  H12 UNL     1      -3.107   0.884   0.249  1.00  0.00     0.278 HD
ATOM      9  H11 UNL     1      -2.511   1.396  -0.929  1.00  0.00     0.278 HD
ENDBRANCH   3   4
TORSDOF 1
