REMARK  2 active torsions:
REMARK  status: ('A' for Active; 'I' for Inactive)
REMARK    1  A    between atoms: N1_2  and  N2_3 
REMARK    2  A    between atoms: N2_3  and  C2_5 
ROOT
HETATM    1  C1  UNL     1      -0.538   1.603  -1.090  1.00  0.00     0.302 C 
HETATM    2  N1  UNL     1      -0.330   0.484  -0.129  1.00  0.00     0.010 N 
HETATM    3  C3  UNL     1       0.909   0.701   0.588  1.00  0.00     0.264 C 
HETATM    4  C4  UNL     1       1.643  -0.594   0.615  1.00  0.00     0.032 C 
HETATM    5  C5  UNL     1       1.081  -1.430  -0.486  1.00  0.00     0.032 C 
HETATM    6  C6  UNL     1      -0.158  -0.713  -0.894  1.00  0.00     0.264 C 
ENDROOT
BRANCH   2   7
HETATM    7  N2  UNL     1      -1.411   0.555   0.702  1.00  0.00    -0.193 N 
ATOM      8  H2  UNL     1      -1.961   1.414   0.738  1.00  0.00     0.196 HD
BRANCH   7   9
HETATM    9  C2  UNL     1      -1.769  -0.506   1.487  1.00  0.00     0.374 C 
HETATM   10  O1  UNL     1      -1.215  -1.570   1.533  1.00  0.00    -0.282 OA
ENDBRANCH   7   9
ENDBRANCH   2   7
TORSDOF 2
