REMARK  2 active torsions:
REMARK  status: ('A' for Active; 'I' for Inactive)
REMARK    1  A    between atoms: O1_1  and  C1_3 
REMARK    2  A    between atoms: C11_17  and  C12_18 
ROOT
HETATM    1  C1  UNL     1       1.936   1.218  -0.238  1.00  0.00     0.154 C 
HETATM    2  C2  UNL     1       3.363   1.084   0.157  1.00  0.00     0.264 C 
HETATM    3  N1  UNL     1       3.981  -0.139  -0.307  1.00  0.00    -0.073 N 
ATOM      4  H11 UNL     1       4.943  -0.220   0.021  1.00  0.00     0.277 HD
ATOM      5  H12 UNL     1       4.159  -0.111  -1.311  1.00  0.00     0.277 HD
HETATM    6  C3  UNL     1       3.193  -1.302   0.062  1.00  0.00     0.233 C 
HETATM    7  C4  UNL     1       1.871  -1.205  -0.622  1.00  0.00     0.041 C 
HETATM    8  C5  UNL     1       1.115  -0.030  -0.087  1.00  0.00     0.015 C 
HETATM    9  C6  UNL     1       0.693  -0.271   1.340  1.00  0.00     0.041 C 
HETATM   10  C7  UNL     1      -0.780  -0.617   1.247  1.00  0.00     0.239 C 
HETATM   11  N2  UNL     1      -1.274  -0.080   0.037  1.00  0.00    -0.061 N 
HETATM   12  C8  UNL     1      -1.736   1.295   0.317  1.00  0.00     0.238 C 
HETATM   13  C9  UNL     1      -2.731   1.578  -0.801  1.00  0.00     0.030 C 
HETATM   14  C10 UNL     1      -3.466   0.259  -0.840  1.00  0.00     0.036 C 
HETATM   15  C11 UNL     1      -2.337  -0.722  -0.622  1.00  0.00     0.200 C 
HETATM   16  C13 UNL     1      -0.155   0.100  -0.868  1.00  0.00     0.250 C 
ENDROOT
BRANCH   1  17
HETATM   17  O1  UNL     1       1.783   1.725  -1.535  1.00  0.00    -0.393 OA
ATOM     18  H1  UNL     1       0.871   1.811  -1.787  1.00  0.00     0.210 HD
ENDBRANCH   1  17
BRANCH  15  19
HETATM   19  C12 UNL     1      -2.886  -1.968   0.010  1.00  0.00     0.118 C 
HETATM   20 BR1  UNL     1      -3.588  -1.657   1.786  1.00  0.00    -0.094 Br
ENDBRANCH  15  19
TORSDOF 2
