REMARK  3 active torsions:
REMARK  status: ('A' for Active; 'I' for Inactive)
REMARK    1  A    between atoms: N1_2  and  C2_3 
REMARK    2  A    between atoms: C5_6  and  O1_7 
REMARK    3  A    between atoms: C9_12  and  C10_13 
ROOT
HETATM    1  C2  UNL     1      -0.247  -0.075   0.083  1.00  0.00     0.197 C 
HETATM    2  C3  UNL     1       0.304  -0.010  -1.339  1.00  0.00     0.041 C 
HETATM    3  C4  UNL     1       1.728  -0.538  -1.210  1.00  0.00     0.021 C 
HETATM    4  C5  UNL     1       2.665   0.609  -1.401  1.00  0.00     0.122 C 
HETATM    5  C6  UNL     1       2.817   1.250  -0.050  1.00  0.00     0.032 C 
HETATM    6  C7  UNL     1       2.468   0.180   0.969  1.00  0.00     0.008 C 
HETATM    7  C8  UNL     1       1.896  -0.978   0.232  1.00  0.00    -0.001 C 
HETATM    8  C9  UNL     1       0.432  -1.270   0.594  1.00  0.00     0.031 C 
ENDROOT
BRANCH   1   9
HETATM    9  N1  UNL     1      -1.649  -0.047   0.018  1.00  0.00    -0.041 N 
HETATM   10  C1  UNL     1      -2.244  -1.240  -0.590  1.00  0.00     0.275 C 
HETATM   11  C11 UNL     1      -2.020   1.047  -0.902  1.00  0.00     0.267 C 
HETATM   12  C12 UNL     1      -3.303   1.615  -0.331  1.00  0.00     0.262 C 
HETATM   13  N2  UNL     1      -3.017   1.545   1.069  1.00  0.00    -0.049 N 
HETATM   14  C13 UNL     1      -2.365   0.269   1.191  1.00  0.00     0.467 C 
ATOM     15  H22 UNL     1      -2.487   2.334   1.438  1.00  0.00     0.279 HD
ATOM     16  H21 UNL     1      -3.825   1.674   1.678  1.00  0.00     0.279 HD
ENDBRANCH   1   9
BRANCH   8  17
HETATM   17  C10 UNL     1       0.390  -1.550   2.042  1.00  0.00     0.092 C 
HETATM   18 BR1  UNL     1       1.388  -3.201   2.356  1.00  0.00    -0.096 Br
ENDBRANCH   8  17
BRANCH   4  19
HETATM   19  O1  UNL     1       3.912   0.207  -1.901  1.00  0.00    -0.395 OA
ATOM     20  H1  UNL     1       4.508   0.937  -2.023  1.00  0.00     0.210 HD
ENDBRANCH   4  19
TORSDOF 3
