REMARK  4 active torsions:
REMARK  status: ('A' for Active; 'I' for Inactive)
REMARK    1  A    between atoms: N2_3  and  C2_5 
REMARK    2  A    between atoms: C2_5  and  N3_6 
REMARK    3  A    between atoms: C2_5  and  S1_12 
REMARK       I    between atoms: N3_6  and  C3_8 
REMARK    4  A    between atoms: C3_8  and  C4_10 
ROOT
HETATM    1  C1  UNL     1      -0.210   3.233  -2.731  1.00  0.00     0.258 C 
HETATM    2  N1  UNL     1       0.394   2.564  -2.010  1.00  0.00    -0.348 NA
HETATM    3  N2  UNL     1       1.129   1.817  -1.220  1.00  0.00    -0.213 N 
ATOM      4  H2  UNL     1       2.065   2.199  -1.087  1.00  0.00     0.204 HD
ENDROOT
BRANCH   3   5
HETATM    5  C2  UNL     1       0.937   0.621  -0.515  1.00  0.00     0.191 C 
BRANCH   5   6
HETATM    6  N3  UNL     1       2.031   0.148   0.197  1.00  0.00    -0.304 N 
HETATM    7  C3  UNL     1       2.340  -1.024   0.873  1.00  0.00     0.233 C 
HETATM    8  O1  UNL     1       1.589  -2.002   0.951  1.00  0.00    -0.272 OA
ATOM      9  H3  UNL     1       2.792   0.826   0.232  1.00  0.00     0.171 HD
BRANCH   7  10
HETATM   10  C4  UNL     1       3.692  -1.131   1.573  1.00  0.00     0.188 C 
HETATM   11 BR1  UNL     1       3.446  -0.500   3.377  1.00  0.00    -0.087 Br
ENDBRANCH   7  10
ENDBRANCH   5   6
BRANCH   5  12
HETATM   12  S1  UNL     1      -0.339  -0.192  -0.671  1.00  0.00     0.013 S 
HETATM   13  O2  UNL     1       0.054  -1.118  -1.802  1.00  0.00    -0.262 OA
HETATM   14  C5  UNL     1      -1.784   0.788  -1.188  1.00  0.00     0.109 C 
HETATM   15  C6  UNL     1      -2.807   0.039  -0.307  1.00  0.00    -0.001 C 
HETATM   16  C7  UNL     1      -2.151   0.184   1.084  1.00  0.00     0.022 C 
HETATM   17  C9  UNL     1      -2.447  -1.386  -0.231  1.00  0.00     0.022 C 
HETATM   18  C8  UNL     1      -1.207  -0.919   0.603  1.00  0.00     0.076 C 
ENDBRANCH   5  12
ENDBRANCH   3   5
TORSDOF 4
