REMARK  1 active torsions:
REMARK  status: ('A' for Active; 'I' for Inactive)
REMARK       I    between atoms: C1_2  and  N1_3 
REMARK       I    between atoms: C1_2  and  N2_9 
REMARK    1  A    between atoms: N1_3  and  C2_5 
ROOT
HETATM    1  O1  UNL     1       1.681  -2.241   0.135  1.00  0.00    -0.247 OA
HETATM    2  C1  UNL     1       1.363  -1.032   0.208  1.00  0.00     0.319 C 
HETATM    3  N1  UNL     1       2.326  -0.070  -0.142  1.00  0.00    -0.337 N 
ATOM      4  H1  UNL     1       2.073   0.917  -0.085  1.00  0.00     0.164 HD
HETATM    5  N2  UNL     1       0.086  -0.661   0.627  1.00  0.00    -0.328 N 
HETATM    6  C5  UNL     1      -0.779  -1.804   0.951  1.00  0.00     0.152 C 
HETATM    7  C6  UNL     1      -2.100  -1.525   0.266  1.00  0.00     0.095 C 
HETATM    8  C7  UNL     1      -1.814  -0.887  -1.058  1.00  0.00     0.031 C 
HETATM    9  C8  UNL     1      -1.939   0.592  -1.090  1.00  0.00    -0.009 C 
HETATM   10  C9  UNL     1      -3.052   1.133  -0.207  1.00  0.00     0.029 C 
HETATM   11  C10 UNL     1      -2.769   0.600   1.181  1.00  0.00     0.079 C 
HETATM   12  C11 UNL     1      -1.417   0.956   1.691  1.00  0.00     0.050 C 
HETATM   13  C12 UNL     1      -0.285   0.712   0.713  1.00  0.00     0.091 C 
HETATM   14  C13 UNL     1      -0.668   1.298  -0.608  1.00  0.00     0.030 C 
HETATM   15  N3  UNL     1      -2.914  -0.801   1.143  1.00  0.00    -0.411 N 
ATOM     16  H3  UNL     1      -3.594  -1.274   1.739  1.00  0.00     0.154 HD
ENDROOT
BRANCH   3  17
HETATM   17  C2  UNL     1       3.669  -0.421  -0.583  1.00  0.00     0.101 A 
HETATM   18  C3  UNL     1       4.736   0.493   0.002  1.00  0.00     0.044 A 
HETATM   19  C4  UNL     1       4.441   0.473  -1.452  1.00  0.00     0.082 A 
HETATM   20 BR1  UNL     1       5.796  -0.389  -2.545  1.00  0.00    -0.089 Br
ENDBRANCH   3  17
TORSDOF 1
