REMARK  2 active torsions:
REMARK  status: ('A' for Active; 'I' for Inactive)
REMARK    1  A    between atoms: C2_2  and  C3_4 
REMARK    2  A    between atoms: C6_12  and  C7_13 
ROOT
HETATM    1  C3  UNL     1       3.028  -0.735   0.255  1.00  0.00     0.110 C 
HETATM    2  C4  UNL     1       3.632  -1.059  -1.079  1.00  0.00     0.049 C 
HETATM    3  N1  UNL     1       2.637  -1.980   0.891  1.00  0.00    -0.326 N 
ATOM      4  H1  UNL     1       3.330  -2.707   1.070  1.00  0.00     0.165 HD
HETATM    5  C5  UNL     1       1.273  -2.178   1.264  1.00  0.00     0.317 C 
HETATM    6  O1  UNL     1       1.016  -2.936   2.241  1.00  0.00    -0.247 OA
HETATM    7  N2  UNL     1       0.218  -1.541   0.558  1.00  0.00    -0.331 N 
ATOM      8  H2  UNL     1      -0.760  -1.755   0.753  1.00  0.00     0.165 HD
HETATM    9  C6  UNL     1       0.592  -0.583  -0.441  1.00  0.00     0.162 C 
HETATM   10  C14 UNL     1       1.828   0.112   0.009  1.00  0.00     0.179 C 
HETATM   11  O2  UNL     1       1.924   1.306   0.188  1.00  0.00    -0.293 OA
ENDROOT
BRANCH   9  12
HETATM   12  C7  UNL     1      -0.514   0.350  -0.838  1.00  0.00     0.019 C 
HETATM   13  C8  UNL     1      -1.061   1.164   0.269  1.00  0.00     0.035 C 
HETATM   14  C9  UNL     1      -2.422   1.722   0.027  1.00  0.00     0.237 C 
HETATM   15  N3  UNL     1      -3.352   0.681  -0.355  1.00  0.00    -0.075 N 
HETATM   16  C10 UNL     1      -4.679   1.261  -0.581  1.00  0.00     0.272 C 
HETATM   17  C11 UNL     1      -3.529  -0.326   0.663  1.00  0.00     0.272 C 
HETATM   18  C12 UNL     1      -2.898   0.146  -1.617  1.00  0.00     0.237 C 
HETATM   19  C13 UNL     1      -1.538  -0.463  -1.583  1.00  0.00     0.035 C 
ENDBRANCH   9  12
BRANCH   1  20
HETATM   20  C2  UNL     1       4.010  -0.060   1.185  1.00  0.00     0.113 C 
HETATM   21  C1  UNL     1       4.537   1.234   0.652  1.00  0.00     0.030 C 
HETATM   22 CL1  UNL     1       3.316   0.100   2.814  1.00  0.00    -0.122 Cl
ENDBRANCH   1  20
TORSDOF 2
