REMARK  1 active torsions:
REMARK  status: ('A' for Active; 'I' for Inactive)
REMARK    1  A    between atoms: C2_2  and  N1_3 
ROOT
HETATM    1  N1  UNL     1       0.385  -0.411  -0.122  1.00  0.00    -0.009 N 
HETATM    2  C3  UNL     1      -0.450  -1.177  -0.990  1.00  0.00     0.250 C 
HETATM    3  C4  UNL     1      -1.822  -0.707  -1.207  1.00  0.00     0.055 C 
HETATM    4  C5  UNL     1      -2.186   0.283  -0.126  1.00  0.00     0.098 C 
HETATM    5  C6  UNL     1      -2.234  -0.523   1.176  1.00  0.00     0.145 C 
HETATM    6  N2  UNL     1      -1.032  -0.296   1.841  1.00  0.00    -0.378 N 
ATOM      7  H2  UNL     1      -1.023   0.191   2.737  1.00  0.00     0.160 HD
HETATM    8  C7  UNL     1       0.170  -0.746   1.263  1.00  0.00     0.292 C 
HETATM    9  N3  UNL     1      -1.238   1.337  -0.007  1.00  0.00    -0.385 N 
ATOM     10  H3  UNL     1      -1.508   2.280   0.272  1.00  0.00     0.156 HD
HETATM   11  C8  UNL     1       0.115   0.992  -0.303  1.00  0.00     0.197 C 
HETATM   12  C9  UNL     1       0.401   1.503  -1.682  1.00  0.00     0.071 C 
HETATM   13  C10 UNL     1       0.969   1.842   0.640  1.00  0.00     0.071 C 
ENDROOT
BRANCH   1  14
HETATM   14  C2  UNL     1       1.744  -0.761  -0.456  1.00  0.00     0.243 C 
HETATM   15  C1  UNL     1       2.612  -1.133   0.700  1.00  0.00     0.035 C 
ENDBRANCH   1  14
TORSDOF 1
