REMARK  1 active torsions:
REMARK  status: ('A' for Active; 'I' for Inactive)
REMARK    1  A    between atoms: C5_7  and  N2_8 
ROOT
HETATM    1  C1  UNL     1      -2.615   0.444   0.920  1.00  0.00     0.048 C 
HETATM    2  C2  UNL     1      -2.020  -0.135  -0.364  1.00  0.00     0.134 C 
HETATM    3  C3  UNL     1      -3.208  -0.631  -1.180  1.00  0.00     0.048 C 
HETATM    4  C4  UNL     1      -1.048  -1.230  -0.065  1.00  0.00     0.153 C 
HETATM    5  N1  UNL     1       0.193  -1.138  -0.761  1.00  0.00    -0.391 N 
ATOM      6  H1  UNL     1       0.594  -1.926  -1.270  1.00  0.00     0.155 HD
HETATM    7  C5  UNL     1       0.835   0.135  -0.695  1.00  0.00     0.309 C 
HETATM    8  C9  UNL     1      -0.107   1.290  -0.503  1.00  0.00     0.287 C 
HETATM    9  N3  UNL     1      -1.378   0.921  -1.090  1.00  0.00    -0.062 N 
ATOM     10  H31 UNL     1      -1.991   1.731  -1.184  1.00  0.00     0.278 HD
ATOM     11  H32 UNL     1      -1.274   0.682  -2.076  1.00  0.00     0.278 HD
ENDROOT
BRANCH   7  12
HETATM   12  N2  UNL     1       1.902   0.095   0.269  1.00  0.00    -0.057 N 
HETATM   13  C6  UNL     1       2.822  -0.964  -0.171  1.00  0.00     0.274 C 
HETATM   14  C7  UNL     1       1.473  -0.253   1.591  1.00  0.00     0.274 C 
HETATM   15  C8  UNL     1       2.670   1.305   0.339  1.00  0.00     0.274 C 
ENDBRANCH   7  12
TORSDOF 1
