REMARK  2 active torsions:
REMARK  status: ('A' for Active; 'I' for Inactive)
REMARK    1  A    between atoms: N1_2  and  C4_5 
REMARK    2  A    between atoms: C9_13  and  O1_14 
ROOT
HETATM    1  C4  UNL     1      -0.091   0.439   0.391  1.00  0.00     0.248 C 
HETATM    2  C5  UNL     1       0.839  -0.616   1.010  1.00  0.00     0.220 C 
HETATM    3  C6  UNL     1       2.018   0.355   1.272  1.00  0.00     0.044 C 
HETATM    4  C7  UNL     1       2.185   0.678  -0.223  1.00  0.00     0.044 C 
HETATM    5  C8  UNL     1       2.378  -0.731  -0.733  1.00  0.00     0.240 C 
HETATM    6  N2  UNL     1       1.423  -1.479   0.050  1.00  0.00    -0.068 N 
ATOM      7  H21 UNL     1       0.725  -1.945  -0.530  1.00  0.00     0.277 HD
ATOM      8  H22 UNL     1       1.834  -2.311   0.474  1.00  0.00     0.277 HD
HETATM    9  C9  UNL     1       0.762   1.065  -0.628  1.00  0.00     0.157 C 
ENDROOT
BRANCH   1  10
HETATM   10  N1  UNL     1      -1.365  -0.002   0.080  1.00  0.00    -0.070 N 
HETATM   11  C1  UNL     1      -2.334   1.071   0.395  1.00  0.00     0.272 C 
HETATM   12  C2  UNL     1      -1.807  -1.111   0.946  1.00  0.00     0.272 C 
HETATM   13  C3  UNL     1      -1.668  -0.396  -1.260  1.00  0.00     0.272 C 
ENDBRANCH   1  10
BRANCH   9  14
HETATM   14  O1  UNL     1       0.612   0.672  -1.922  1.00  0.00    -0.393 OA
ATOM     15  H1  UNL     1       1.164   1.077  -2.581  1.00  0.00     0.210 HD
ENDBRANCH   9  14
TORSDOF 2
