REMARK  2 active torsions:
REMARK  status: ('A' for Active; 'I' for Inactive)
REMARK    1  A    between atoms: C2_2  and  N1_3 
REMARK    2  A    between atoms: C8_11  and  O1_12 
ROOT
HETATM    1  N1  UNL     1      -1.052   0.299  -0.449  1.00  0.00    -0.014 N 
HETATM    2  C3  UNL     1      -1.488   1.126  -1.578  1.00  0.00     0.289 C 
HETATM    3  C4  UNL     1      -0.021   0.831   0.229  1.00  0.00     0.037 C 
HETATM    4  C5  UNL     1       0.764   1.688   1.015  1.00  0.00     0.117 C 
HETATM    5  C6  UNL     1       2.117   0.915   1.166  1.00  0.00     0.057 C 
HETATM    6  C7  UNL     1       2.473   0.027   0.069  1.00  0.00     0.059 C 
HETATM    7  N2  UNL     1       1.919  -1.169  -0.313  1.00  0.00    -0.375 N 
ATOM      8  H2  UNL     1       2.608  -1.873  -0.577  1.00  0.00     0.161 HD
HETATM    9  C8  UNL     1       0.639  -1.598  -0.408  1.00  0.00     0.244 C 
HETATM   10  C9  UNL     1      -0.501  -0.929  -1.098  1.00  0.00     0.305 C 
ENDROOT
BRANCH   1  11
HETATM   11  C2  UNL     1      -2.250  -0.002   0.273  1.00  0.00     0.248 C 
HETATM   12  C1  UNL     1      -2.049  -0.374   1.704  1.00  0.00     0.036 C 
ENDBRANCH   1  11
BRANCH   9  13
HETATM   13  O1  UNL     1       0.692  -2.850  -1.116  1.00  0.00    -0.375 OA
ATOM     14  H1  UNL     1      -0.207  -3.151  -1.183  1.00  0.00     0.212 HD
ENDBRANCH   9  13
TORSDOF 2
