REMARK  3 active torsions:
REMARK  status: ('A' for Active; 'I' for Inactive)
REMARK    1  A    between atoms: C3_3  and  O1_4 
REMARK    2  A    between atoms: C4_6  and  C5_7 
REMARK    3  A    between atoms: C8_10  and  O2_11 
ROOT
HETATM    1  C1  UNL     1      -2.334   2.461  -1.140  1.00  0.00     0.017 C 
HETATM    2  C2  UNL     1      -1.484   1.610  -1.081  1.00  0.00    -0.046 C 
HETATM    3  C3  UNL     1      -0.442   0.586  -1.031  1.00  0.00     0.335 C 
HETATM    4  C4  UNL     1       0.217   0.434   0.322  1.00  0.00     0.135 C 
HETATM    5  C8  UNL     1      -0.630  -0.789   0.411  1.00  0.00     0.275 C 
HETATM    6  C9  UNL     1      -2.036  -0.580   0.832  1.00  0.00     0.103 C 
HETATM    7  C10 UNL     1      -2.369  -0.848  -0.603  1.00  0.00     0.286 C 
HETATM    8  N1  UNL     1      -0.977  -0.753  -0.992  1.00  0.00     0.172 N 
ENDROOT
BRANCH   3   9
HETATM    9  O1  UNL     1       0.425   0.718  -2.114  1.00  0.00    -0.353 OA
ATOM     10  H1  UNL     1       1.102   0.053  -2.082  1.00  0.00     0.213 HD
ENDBRANCH   3   9
BRANCH   4  11
HETATM   11  C5  UNL     1       1.677   0.280   0.219  1.00  0.00    -0.008 C 
HETATM   12  C6  UNL     1       2.206  -0.881  -0.540  1.00  0.00     0.010 C 
HETATM   13  C7  UNL     1       2.368   0.256   1.592  1.00  0.00     0.010 C 
ENDBRANCH   4  11
BRANCH   5  14
HETATM   14  O2  UNL     1      -0.086  -1.934   0.891  1.00  0.00    -0.362 OA
ATOM     15  H2  UNL     1      -0.626  -2.714   0.948  1.00  0.00     0.212 HD
ENDBRANCH   5  14
TORSDOF 3
