REMARK  2 active torsions:
REMARK  status: ('A' for Active; 'I' for Inactive)
REMARK    1  A    between atoms: C5_9  and  C6_10 
REMARK    2  A    between atoms: C8_13  and  N3_14 
ROOT
HETATM    1  C1  UNL     1       3.843   0.041  -0.918  1.00  0.00     0.155 C 
HETATM    2  N1  UNL     1       2.544  -0.317  -0.415  1.00  0.00    -0.328 N 
HETATM    3  C2  UNL     1       2.155  -1.710  -0.513  1.00  0.00     0.319 C 
HETATM    4  O1  UNL     1       2.834  -2.471  -1.268  1.00  0.00    -0.247 OA
HETATM    5  N2  UNL     1       1.043  -2.180   0.227  1.00  0.00    -0.336 N 
ATOM      6  H2  UNL     1       0.879  -3.178   0.356  1.00  0.00     0.164 HD
HETATM    7  C3  UNL     1       0.153  -1.201   0.791  1.00  0.00     0.119 C 
HETATM    8  C4  UNL     1       1.056  -0.136   1.437  1.00  0.00     0.059 C 
HETATM    9  C5  UNL     1       1.586   0.549   0.183  1.00  0.00     0.049 C 
HETATM   10  C7  UNL     1       0.305   0.672  -0.626  1.00  0.00     0.067 C 
HETATM   11  C8  UNL     1      -0.573  -0.469  -0.316  1.00  0.00     0.215 C 
ENDROOT
BRANCH  11  12
HETATM   12  N3  UNL     1      -1.930  -0.192  -0.007  1.00  0.00    -0.065 N 
HETATM   13  C9  UNL     1      -2.636  -1.406   0.360  1.00  0.00     0.273 C 
HETATM   14  C10 UNL     1      -2.286   0.890   0.811  1.00  0.00     0.239 C 
HETATM   15  C11 UNL     1      -3.548   1.056  -0.054  1.00  0.00     0.056 C 
HETATM   16  C12 UNL     1      -2.613   0.452  -1.113  1.00  0.00     0.239 C 
ENDBRANCH  11  12
BRANCH   9  17
HETATM   17  C6  UNL     1       2.074   1.942   0.474  1.00  0.00     0.116 C 
HETATM   18 BR1  UNL     1       2.602   2.760  -1.195  1.00  0.00    -0.094 Br
ENDBRANCH   9  17
TORSDOF 2
