REMARK  3 active torsions:
REMARK  status: ('A' for Active; 'I' for Inactive)
REMARK    1  A    between atoms: C4_6  and  N2_7 
REMARK    2  A    between atoms: N2_7  and  N3_8 
REMARK    3  A    between atoms: C6_12  and  C7_13 
ROOT
HETATM    1  C1  UNL     1      -1.459  -2.053  -0.833  1.00  0.00     0.041 C 
HETATM    2  C2  UNL     1      -0.366  -1.257  -0.093  1.00  0.00     0.050 C 
HETATM    3  C3  UNL     1      -0.514  -1.708   1.368  1.00  0.00     0.041 C 
HETATM    4  N1  UNL     1       0.866  -1.800  -0.562  1.00  0.00    -0.356 N 
ATOM      5  H1  UNL     1       0.991  -2.371  -1.398  1.00  0.00     0.162 HD
HETATM    6  C4  UNL     1       1.891  -1.403   0.343  1.00  0.00     0.177 C 
HETATM    7  C5  UNL     1       2.241   0.008   0.655  1.00  0.00     0.119 C 
HETATM    8  C6  UNL     1       1.693   0.950  -0.386  1.00  0.00     0.095 C 
HETATM    9  N4  UNL     1       0.329   1.110  -0.443  1.00  0.00    -0.405 N 
ATOM     10  H4  UNL     1      -0.005   2.050  -0.654  1.00  0.00     0.154 HD
HETATM   11  C8  UNL     1      -0.633   0.158  -0.250  1.00  0.00     0.050 C 
HETATM   12  C9  UNL     1      -1.415   0.616   1.009  1.00  0.00     0.033 C 
HETATM   13  C10 UNL     1      -1.843   2.007   0.518  1.00  0.00     0.002 C 
HETATM   14  C11 UNL     1      -2.206   1.852  -0.923  1.00  0.00     0.002 C 
HETATM   15  C12 UNL     1      -1.775   0.417  -1.256  1.00  0.00     0.033 C 
ENDROOT
BRANCH   6  16
HETATM   16  N2  UNL     1       2.530  -2.317   0.903  1.00  0.00    -0.319 NA
BRANCH  16  17
HETATM   17  N3  UNL     1       3.376  -3.200   1.142  1.00  0.00    -0.279 N 
ATOM     18  H32 UNL     1       3.890  -3.074   0.270  1.00  0.00     0.191 HD
ATOM     19  H31 UNL     1       3.898  -3.947   1.600  1.00  0.00     0.191 HD
ENDBRANCH  16  17
ENDBRANCH   6  16
BRANCH   8  20
HETATM   20  C7  UNL     1       2.343   2.314  -0.099  1.00  0.00     0.110 C 
HETATM   21 BR1  UNL     1       4.261   2.198  -0.227  1.00  0.00    -0.094 Br
ENDBRANCH   8  20
TORSDOF 3
