REMARK  2 active torsions:
REMARK  status: ('A' for Active; 'I' for Inactive)
REMARK    1  A    between atoms: C3_3  and  N1_4 
REMARK    2  A    between atoms: C10_11  and  O1_12 
ROOT
HETATM    1  C1  UNL     1       3.742   0.989   0.506  1.00  0.00     0.013 C 
HETATM    2  C2  UNL     1       2.683   0.587   0.925  1.00  0.00    -0.089 C 
HETATM    3  C3  UNL     1       1.380   0.107   1.463  1.00  0.00     0.331 C 
ENDROOT
BRANCH   3   4
HETATM    4  N1  UNL     1       0.620  -0.273   0.395  1.00  0.00    -0.040 N 
HETATM    5  C4  UNL     1       1.497  -1.159  -0.366  1.00  0.00     0.241 C 
HETATM    6  C5  UNL     1       0.258  -1.611  -1.080  1.00  0.00     0.041 C 
HETATM    7  C6  UNL     1      -0.929  -0.780  -0.720  1.00  0.00     0.015 A 
HETATM    8  C7  UNL     1      -1.680  -0.519  -1.539  1.00  0.00     0.007 A 
HETATM    9  C11 UNL     1      -1.429   0.385   0.277  1.00  0.00     0.058 C 
HETATM   10  C14 UNL     1      -1.663  -1.421  -0.198  1.00  0.00     0.040 A 
HETATM   11  C13 UNL     1      -0.508  -1.120   0.855  1.00  0.00     0.147 A 
HETATM   12  C8  UNL     1      -0.559   0.542  -1.772  1.00  0.00     0.042 C 
HETATM   13  C9  UNL     1       0.373   0.808  -0.559  1.00  0.00     0.223 C 
HETATM   14  C10 UNL     1      -0.609   1.598   0.271  1.00  0.00     0.169 C 
HETATM   15 BR1  UNL     1      -3.257   0.758   0.067  1.00  0.00    -0.082 Br
HETATM   16  C12 UNL     1      -1.313  -0.250   1.675  1.00  0.00     0.065 C 
BRANCH  14  17
HETATM   17  O1  UNL     1      -1.186   2.652  -0.417  1.00  0.00    -0.392 OA
ATOM     18  H1  UNL     1      -1.804   3.149   0.106  1.00  0.00     0.210 HD
ENDBRANCH  14  17
ENDBRANCH   3   4
TORSDOF 2
