REMARK  2 active torsions:
REMARK  status: ('A' for Active; 'I' for Inactive)
REMARK    1  A    between atoms: N1_2  and  C2_3 
REMARK    2  A    between atoms: C8_12  and  O1_13 
ROOT
HETATM    1  C1  UNL     1       0.153  -1.818  -0.154  1.00  0.00     0.273 C 
HETATM    2  N1  UNL     1       0.415  -0.407   0.043  1.00  0.00    -0.062 N 
HETATM    3  C6  UNL     1       1.188   0.056  -1.073  1.00  0.00     0.240 C 
HETATM    4  C7  UNL     1       2.552   0.463  -0.527  1.00  0.00     0.061 C 
HETATM    5  C8  UNL     1       2.165   0.850   0.905  1.00  0.00     0.145 C 
HETATM    6  C9  UNL     1       1.196  -0.260   1.232  1.00  0.00     0.269 C 
ENDROOT
BRANCH   2   7
HETATM    7  C2  UNL     1      -0.791   0.381   0.123  1.00  0.00     0.217 C 
HETATM    8  C3  UNL     1      -1.446   0.589  -1.220  1.00  0.00     0.062 C 
HETATM    9  C4  UNL     1      -2.922   0.482  -0.977  1.00  0.00     0.234 C 
HETATM   10  N2  UNL     1      -3.068  -0.294   0.209  1.00  0.00    -0.073 N 
HETATM   11  C5  UNL     1      -1.857  -0.216   0.970  1.00  0.00     0.265 C 
ATOM     12  H22 UNL     1      -3.887  -0.021   0.753  1.00  0.00     0.277 HD
ATOM     13  H21 UNL     1      -3.341  -1.257   0.012  1.00  0.00     0.277 HD
ENDBRANCH   2   7
BRANCH   5  14
HETATM   14  O1  UNL     1       3.270   0.851   1.719  1.00  0.00    -0.394 OA
ATOM     15  H1  UNL     1       3.030   1.091   2.606  1.00  0.00     0.210 HD
ENDBRANCH   5  14
TORSDOF 2
