REMARK  3 active torsions:
REMARK  status: ('A' for Active; 'I' for Inactive)
REMARK    1  A    between atoms: C2_2  and  C3_3 
REMARK    2  A    between atoms: C5_5  and  O1_6 
REMARK    3  A    between atoms: C6_8  and  O2_9 
ROOT
HETATM    1  C3  UNL     1      -0.456   0.365  -0.695  1.00  0.00     0.215 C 
HETATM    2  C4  UNL     1       0.944   0.748  -0.925  1.00  0.00     0.072 C 
HETATM    3  C5  UNL     1       1.900   0.404   0.187  1.00  0.00     0.150 C 
HETATM    4  C6  UNL     1       1.640  -1.039   0.547  1.00  0.00     0.173 C 
HETATM    5  C7  UNL     1       0.240  -1.032   1.152  1.00  0.00     0.272 C 
HETATM    6  N1  UNL     1      -0.731  -0.726   0.154  1.00  0.00    -0.054 N 
HETATM    7  C8  UNL     1      -2.121  -0.847   0.577  1.00  0.00     0.266 A 
HETATM    8  C9  UNL     1      -1.534  -1.862  -0.326  1.00  0.00     0.266 A 
ENDROOT
BRANCH   1   9
HETATM    9  C2  UNL     1      -1.193   1.575  -0.170  1.00  0.00    -0.004 C 
HETATM   10  C1  UNL     1      -1.322   2.653  -0.921  1.00  0.00     0.009 C 
ENDBRANCH   1   9
BRANCH   3  11
HETATM   11  O1  UNL     1       1.625   1.214   1.292  1.00  0.00    -0.393 OA
ATOM     12  H1  UNL     1       2.228   0.997   1.993  1.00  0.00     0.210 HD
ENDBRANCH   3  11
BRANCH   4  13
HETATM   13  O2  UNL     1       1.643  -1.774  -0.648  1.00  0.00    -0.391 OA
ATOM     14  H2  UNL     1       1.479  -2.682  -0.421  1.00  0.00     0.210 HD
ENDBRANCH   4  13
TORSDOF 3
