REMARK  2 active torsions:
REMARK  status: ('A' for Active; 'I' for Inactive)
REMARK    1  A    between atoms: C9_13  and  C10_14 
REMARK    2  A    between atoms: C10_14  and  O1_15 
ROOT
HETATM    1  C1  UNL     1      -3.408  -0.745   0.644  1.00  0.00     0.131 C 
HETATM    2  C2  UNL     1      -2.313  -0.260   0.410  1.00  0.00     0.033 C 
HETATM    3  N1  UNL     1      -1.043   0.338   0.137  1.00  0.00    -0.011 N 
HETATM    4  C3  UNL     1      -1.219   1.733   0.495  1.00  0.00     0.290 C 
HETATM    5  C4  UNL     1      -0.858   0.205  -1.286  1.00  0.00     0.255 C 
HETATM    6  C5  UNL     1       0.525  -0.068  -1.737  1.00  0.00     0.062 C 
HETATM    7  C6  UNL     1       1.383  -0.837  -0.760  1.00  0.00     0.195 C 
HETATM    8  N2  UNL     1       0.695  -2.101  -0.515  1.00  0.00    -0.068 N 
ATOM      9  H21 UNL     1       1.332  -2.877  -0.334  1.00  0.00     0.277 HD
ATOM     10  H22 UNL     1       0.255  -2.488  -1.350  1.00  0.00     0.277 HD
HETATM   11  C7  UNL     1      -0.252  -1.862   0.580  1.00  0.00     0.268 C 
HETATM   12  C8  UNL     1      -0.100  -0.366   0.927  1.00  0.00     0.237 C 
HETATM   13  C9  UNL     1       1.337  -0.261   0.629  1.00  0.00     0.074 C 
ENDROOT
BRANCH  13  14
HETATM   14  C10 UNL     1       2.109   0.935   0.886  1.00  0.00     0.173 C 
BRANCH  14  15
HETATM   15  O1  UNL     1       1.831   2.070   0.139  1.00  0.00    -0.400 OA
ATOM     16  H1  UNL     1       2.338   2.855   0.308  1.00  0.00     0.209 HD
ENDBRANCH  14  15
ENDBRANCH  13  14
TORSDOF 2
