REMARK  15 active torsions:
REMARK  status: ('A' for Active; 'I' for Inactive)
REMARK    1  A    between atoms: C2_2  and  C3_3 
REMARK    2  A    between atoms: C3_3  and  C4_4 
REMARK    3  A    between atoms: C4_4  and  C5_5 
REMARK    4  A    between atoms: C6_8  and  O1_9 
REMARK    5  A    between atoms: C12_18  and  C13_19 
REMARK    6  A    between atoms: C13_19  and  C14_20 
REMARK    7  A    between atoms: C20_30  and  O3_31 
REMARK    8  A    between atoms: C21_33  and  C22_34 
REMARK    9  A    between atoms: C22_34  and  C23_35 
REMARK   10  A    between atoms: C23_35  and  C24_36 
REMARK   11  A    between atoms: C24_36  and  C25_37 
REMARK   12  A    between atoms: C25_37  and  N5_38 
REMARK   13  A    between atoms: C26_44  and  O4_45 
REMARK   14  A    between atoms: C27_47  and  C28_48 
REMARK   15  A    between atoms: C28_48  and  C29_49 
ROOT
HETATM    1  C5  UNL     1      -1.733  -2.122   0.865  1.00  0.00     0.175 C 
HETATM    2  N1  UNL     1      -0.406  -1.507   0.616  1.00  0.00    -0.359 N 
ATOM      3  H1  UNL     1      -0.374  -1.015  -0.277  1.00  0.00     0.162 HD
HETATM    4  C6  UNL     1       0.777  -1.435   1.279  1.00  0.00     0.135 C 
HETATM    5  C7  UNL     1       2.007  -2.257   1.322  1.00  0.00     0.161 C 
HETATM    6  C8  UNL     1       2.048  -3.245   2.449  1.00  0.00     0.035 C 
HETATM    7  C9  UNL     1       3.558  -3.548   2.434  1.00  0.00     0.022 C 
HETATM    8  C10 UNL     1       4.088  -2.148   2.371  1.00  0.00     0.127 C 
HETATM    9  N2  UNL     1       3.196  -1.414   1.483  1.00  0.00    -0.338 N 
HETATM   10  C11 UNL     1       3.408  -0.171   0.913  1.00  0.00     0.243 C 
HETATM   11  O2  UNL     1       4.323   0.583   1.407  1.00  0.00    -0.271 OA
HETATM   12  C12 UNL     1       2.727   0.502  -0.248  1.00  0.00     0.181 C 
HETATM   13  N4  UNL     1       2.578   1.919   0.008  1.00  0.00    -0.355 N 
ATOM     14  H4  UNL     1       3.408   2.311   0.453  1.00  0.00     0.162 HD
HETATM   15  C20 UNL     1       1.608   2.876  -0.193  1.00  0.00     0.163 C 
HETATM   16  C21 UNL     1       0.129   2.916  -0.151  1.00  0.00     0.081 C 
HETATM   17  N6  UNL     1      -0.523   1.881  -0.916  1.00  0.00    -0.336 N 
ATOM     18  H6  UNL     1       0.168   1.310  -1.403  1.00  0.00     0.168 HD
HETATM   19  C26 UNL     1      -1.800   1.430  -1.188  1.00  0.00     0.139 C 
HETATM   20  C27 UNL     1      -2.932   0.897  -0.447  1.00  0.00     0.165 C 
HETATM   21  N8  UNL     1      -2.770   0.287   0.828  1.00  0.00    -0.347 N 
ATOM     22  H8  UNL     1      -2.720   0.976   1.578  1.00  0.00     0.163 HD
HETATM   23  C35 UNL     1      -2.663  -1.017   1.307  1.00  0.00     0.241 C 
HETATM   24  O5  UNL     1      -3.445  -1.364   2.260  1.00  0.00    -0.271 OA
ENDROOT
BRANCH  12  25
HETATM   25  C13 UNL     1       3.803   0.417  -1.367  1.00  0.00     0.092 C 
BRANCH  25  26
HETATM   26  C14 UNL     1       4.143  -0.984  -1.657  1.00  0.00     0.017 A 
HETATM   27  N3  UNL     1       5.224  -1.669  -1.251  1.00  0.00    -0.363 N 
HETATM   28  C15 UNL     1       5.185  -2.928  -1.704  1.00  0.00     0.006 A 
ATOM     29  H3  UNL     1       5.973  -1.283  -0.676  1.00  0.00     0.165 HD
HETATM   30  C16 UNL     1       6.179  -4.034  -1.491  1.00  0.00     0.068 C 
HETATM   31  C17 UNL     1       4.034  -3.078  -2.437  1.00  0.00     0.033 A 
HETATM   32  C18 UNL     1       3.385  -1.850  -2.403  1.00  0.00    -0.037 A 
HETATM   33  C19 UNL     1       2.072  -1.567  -3.092  1.00  0.00     0.050 C 
ENDBRANCH  25  26
ENDBRANCH  12  25
BRANCH  15  34
HETATM   34  O3  UNL     1       2.176   4.028  -0.493  1.00  0.00    -0.345 OA
ATOM     35  H3  UNL     1       1.507   4.688  -0.632  1.00  0.00     0.219 HD
ENDBRANCH  15  34
BRANCH  16  36
HETATM   36  C22 UNL     1      -0.524   3.436   1.046  1.00  0.00     0.007 C 
BRANCH  36  37
HETATM   37  C23 UNL     1      -0.417   2.959   2.399  1.00  0.00     0.031 C 
BRANCH  37  38
HETATM   38  C24 UNL     1       0.904   3.040   3.094  1.00  0.00     0.031 C 
BRANCH  38  39
HETATM   39  C25 UNL     1       1.362   4.504   3.138  1.00  0.00     0.230 C 
BRANCH  39  40
HETATM   40  N5  UNL     1       2.637   4.617   3.819  1.00  0.00    -0.079 N 
ATOM     41  H53 UNL     1       2.608   4.201   4.750  1.00  0.00     0.274 HD
ATOM     42  H52 UNL     1       3.344   4.011   3.403  1.00  0.00     0.274 HD
ATOM     43  H51 UNL     1       2.941   5.590   3.848  1.00  0.00     0.274 HD
ENDBRANCH  39  40
ENDBRANCH  38  39
ENDBRANCH  37  38
ENDBRANCH  36  37
ENDBRANCH  16  36
BRANCH   4  44
HETATM   44  O1  UNL     1       0.948  -0.424   2.091  1.00  0.00    -0.348 OA
ATOM     45  H1  UNL     1       1.776  -0.374   2.555  1.00  0.00     0.219 HD
ENDBRANCH   4  44
BRANCH  19  46
HETATM   46  O4  UNL     1      -2.124   1.469  -2.480  1.00  0.00    -0.348 OA
ATOM     47  H4  UNL     1      -3.002   1.159  -2.667  1.00  0.00     0.219 HD
ENDBRANCH  19  46
BRANCH   1  48
HETATM   48  C4  UNL     1      -2.126  -2.707  -0.461  1.00  0.00     0.035 C 
BRANCH  48  49
HETATM   49  C3  UNL     1      -3.369  -3.445  -0.623  1.00  0.00     0.002 C 
BRANCH  49  50
HETATM   50  C2  UNL     1      -3.573  -4.746   0.046  1.00  0.00    -0.004 C 
HETATM   51  C1  UNL     1      -3.522  -4.857   1.510  1.00  0.00     0.005 C 
ENDBRANCH  49  50
ENDBRANCH  48  49
ENDBRANCH   1  48
BRANCH  20  52
HETATM   52  C28 UNL     1      -4.059   1.946  -0.373  1.00  0.00     0.090 C 
BRANCH  52  53
HETATM   53  C29 UNL     1      -4.547   2.369  -1.690  1.00  0.00     0.013 A 
HETATM   54  C30 UNL     1      -5.377   1.473  -2.373  1.00  0.00     0.025 A 
HETATM   55  C31 UNL     1      -5.922   1.795  -3.587  1.00  0.00     0.003 A 
HETATM   56  C32 UNL     1      -5.616   3.049  -4.115  1.00  0.00     0.017 A 
HETATM   57  C33 UNL     1      -4.814   3.924  -3.461  1.00  0.00     0.090 A 
HETATM   58  N7  UNL     1      -4.294   3.550  -2.244  1.00  0.00    -0.364 N 
HETATM   59  C34 UNL     1      -3.492   4.537  -1.524  1.00  0.00     0.155 C 
ENDBRANCH  52  53
ENDBRANCH  20  52
TORSDOF 15
