REMARK  14 active torsions:
REMARK  status: ('A' for Active; 'I' for Inactive)
REMARK       I    between atoms: N1_2  and  C2_4 
REMARK       I    between atoms: C2_4  and  N9_46 
REMARK    1  A    between atoms: N2_5  and  C3_7 
REMARK    2  A    between atoms: C3_7  and  C4_8 
REMARK    3  A    between atoms: C4_8  and  C5_9 
REMARK    4  A    between atoms: C5_9  and  C6_10 
REMARK    5  A    between atoms: C6_10  and  N3_11 
REMARK       I    between atoms: C7_13  and  N5_15 
REMARK    6  A    between atoms: N5_15  and  C8_17 
REMARK    7  A    between atoms: C8_17  and  C9_18 
REMARK    8  A    between atoms: C9_18  and  C10_19 
REMARK    9  A    between atoms: C10_19  and  N6_20 
REMARK   10  A    between atoms: N6_20  and  C11_22 
REMARK   11  A    between atoms: N7_25  and  C14_26 
REMARK   12  A    between atoms: C14_26  and  C15_27 
REMARK   13  A    between atoms: C27_39  and  C28_40 
REMARK   14  A    between atoms: N9_46  and  C32_48 
ROOT
HETATM    1  C9  UNL     1      -0.113  -2.279  -0.522  1.00  0.00     0.039 C 
ENDROOT
BRANCH   1   2
HETATM    2  C8  UNL     1       1.332  -2.327  -0.094  1.00  0.00     0.123 C 
BRANCH   2   3
HETATM    3  N5  UNL     1       1.960  -1.065   0.130  1.00  0.00    -0.365 N 
HETATM    4  C7  UNL     1       1.770  -0.164   1.191  1.00  0.00     0.183 C 
HETATM    5  N3  UNL     1       2.812   0.499   1.654  1.00  0.00    -0.365 N 
HETATM    6  N4  UNL     1       0.531   0.083   1.799  1.00  0.00    -0.064 NA
ATOM      7  H3  UNL     1       2.707   1.162   2.422  1.00  0.00     0.162 HD
ATOM      8  H5  UNL     1       2.638  -0.779  -0.576  1.00  0.00     0.162 HD
BRANCH   5   9
HETATM    9  C6  UNL     1       4.114   0.266   1.049  1.00  0.00     0.122 C 
BRANCH   9  10
HETATM   10  C5  UNL     1       4.421   1.257  -0.037  1.00  0.00     0.021 C 
BRANCH  10  11
HETATM   11  C4  UNL     1       5.688   0.874  -0.730  1.00  0.00     0.022 C 
BRANCH  11  12
HETATM   12  C3  UNL     1       6.882   0.894   0.193  1.00  0.00     0.138 C 
BRANCH  12  13
HETATM   13  N2  UNL     1       8.041   0.473  -0.504  1.00  0.00    -0.226 N 
HETATM   14  C2  UNL     1       9.219   0.209  -0.225  1.00  0.00     0.675 C 
HETATM   15  N1  UNL     1      10.008  -0.202  -1.408  1.00  0.00    -0.231 N 
HETATM   16  N9  UNL     1       9.865   0.279   0.960  1.00  0.00    -0.175 N 
HETATM   17  C1  UNL     1       9.515  -1.247  -2.242  1.00  0.00     0.165 C 
ATOM     18  H1  UNL     1      10.893   0.257  -1.623  1.00  0.00     0.177 HD
ATOM     19  H9  UNL     1      10.411  -0.574   1.081  1.00  0.00     0.186 HD
ATOM     20  H2  UNL     1       7.857   0.356  -1.500  1.00  0.00     0.177 HD
BRANCH  16  21
HETATM   21  C32 UNL     1      10.038   0.998   1.953  1.00  0.00     0.142 A 
HETATM   22  N10 UNL     1       9.541   2.226   2.265  1.00  0.00    -0.285 N 
HETATM   23  N11 UNL     1       9.984   2.628   3.438  1.00  0.00    -0.310 N 
ATOM     24  H10 UNL     1       8.910   2.763   1.670  1.00  0.00     0.188 HD
HETATM   25  C33 UNL     1      10.802   1.678   3.962  1.00  0.00     0.117 A 
ATOM     26  H11 UNL     1       9.750   3.515   3.884  1.00  0.00     0.186 HD
HETATM   27  C34 UNL     1      10.848   0.662   3.058  1.00  0.00     0.001 A 
HETATM   28  C35 UNL     1      11.599  -0.602   3.139  1.00  0.00     0.054 C 
ENDBRANCH  16  21
ENDBRANCH  12  13
ENDBRANCH  11  12
ENDBRANCH  10  11
ENDBRANCH   9  10
ENDBRANCH   5   9
ENDBRANCH   2   3
ENDBRANCH   1   2
BRANCH   1  29
HETATM   29  C10 UNL     1      -0.166  -1.493  -1.800  1.00  0.00     0.121 C 
BRANCH  29  30
HETATM   30  N6  UNL     1      -1.465  -1.468  -2.444  1.00  0.00    -0.389 N 
ATOM     31  H6  UNL     1      -1.620  -2.095  -3.234  1.00  0.00     0.159 HD
BRANCH  30  32
HETATM   32  C11 UNL     1      -2.400  -0.731  -2.094  1.00  0.00     0.042 A 
HETATM   33  C12 UNL     1      -2.244   0.147  -1.026  1.00  0.00     0.047 A 
HETATM   34  C13 UNL     1      -3.253   0.940  -0.588  1.00  0.00     0.093 A 
HETATM   35  N7  UNL     1      -4.477   0.941  -1.158  1.00  0.00    -0.355 N 
HETATM   36  C25 UNL     1      -4.641   0.090  -2.213  1.00  0.00     0.043 A 
HETATM   37  C26 UNL     1      -3.636  -0.766  -2.709  1.00  0.00     0.028 A 
HETATM   38  C31 UNL     1      -5.782   0.237  -2.841  1.00  0.00     0.004 C 
HETATM   39  C27 UNL     1      -3.856  -1.575  -3.714  1.00  0.00     0.022 C 
HETATM   40  C29 UNL     1      -5.303  -1.724  -4.197  1.00  0.00     0.049 C 
HETATM   41  C30 UNL     1      -6.147  -0.567  -4.003  1.00  0.00     0.034 C 
BRANCH  35  42
HETATM   42  C14 UNL     1      -5.527   1.777  -0.635  1.00  0.00     0.138 C 
BRANCH  42  43
HETATM   43  C15 UNL     1      -6.331   1.210   0.485  1.00  0.00    -0.023 C 
HETATM   44  C16 UNL     1      -7.417   2.227   0.869  1.00  0.00     0.015 C 
HETATM   45  C17 UNL     1      -8.294   1.739   1.965  1.00  0.00    -0.013 C 
HETATM   46  C18 UNL     1      -8.846   0.356   1.680  1.00  0.00     0.009 C 
HETATM   47  C22 UNL     1      -7.461   1.658   3.222  1.00  0.00     0.009 C 
HETATM   48  C19 UNL     1      -7.684  -0.584   1.534  1.00  0.00    -0.013 C 
HETATM   49  C20 UNL     1      -6.797  -0.656   2.744  1.00  0.00     0.009 C 
HETATM   50  C24 UNL     1      -6.922  -0.132   0.291  1.00  0.00     0.015 C 
HETATM   51  C21 UNL     1      -6.264   0.767   2.962  1.00  0.00    -0.013 C 
HETATM   52  C23 UNL     1      -5.468   1.127   1.763  1.00  0.00     0.015 C 
ENDBRANCH  42  43
ENDBRANCH  35  42
BRANCH  39  53
HETATM   53  C28 UNL     1      -2.934  -2.483  -4.333  1.00  0.00     0.262 C 
HETATM   54  N8  UNL     1      -3.565  -3.255  -5.468  1.00  0.00    -0.057 NA
HETATM   55  O1  UNL     1      -1.813  -2.828  -4.237  1.00  0.00    -0.271 OA
ENDBRANCH  39  53
ENDBRANCH  30  32
ENDBRANCH  29  30
ENDBRANCH   1  29
TORSDOF 14
