REMARK  13 active torsions:
REMARK  status: ('A' for Active; 'I' for Inactive)
REMARK    1  A    between atoms: C2_2  and  C3_3 
REMARK    2  A    between atoms: C3_3  and  C4_4 
REMARK    3  A    between atoms: C4_4  and  C5_5 
REMARK    4  A    between atoms: C7_10  and  C8_11 
REMARK    5  A    between atoms: N2_20  and  C17_21 
REMARK    6  A    between atoms: C17_21  and  C18_22 
REMARK    7  A    between atoms: C17_21  and  C20_24 
REMARK    8  A    between atoms: C20_24  and  C21_25 
REMARK       I    between atoms: C21_25  and  N3_27 
REMARK    9  A    between atoms: C23_34  and  O3_35 
REMARK   10  A    between atoms: C24_37  and  C25_38 
REMARK   11  A    between atoms: C29_45  and  C30_46 
REMARK   12  A    between atoms: C30_46  and  C31_47 
REMARK   13  A    between atoms: C34_52  and  O5_53 
ROOT
HETATM    1  C5  UNL     1       1.722   2.592   1.460  1.00  0.00     0.159 C 
HETATM    2  N1  UNL     1       0.241   2.341   1.475  1.00  0.00    -0.347 N 
ATOM      3  H1  UNL     1      -0.360   3.162   1.408  1.00  0.00     0.163 HD
HETATM    4  C6  UNL     1      -0.397   1.116   1.570  1.00  0.00     0.243 C 
HETATM    5  O1  UNL     1      -1.086   0.891   2.604  1.00  0.00    -0.271 OA
HETATM    6  C7  UNL     1      -0.407  -0.054   0.593  1.00  0.00     0.209 C 
HETATM    7  N6  UNL     1      -0.062  -1.258   1.271  1.00  0.00    -0.354 N 
ATOM      8  H6  UNL     1      -0.586  -1.295   2.146  1.00  0.00     0.162 HD
HETATM    9  C23 UNL     1       0.720  -2.397   1.184  1.00  0.00     0.160 C 
HETATM   10  C24 UNL     1       2.034  -2.872   0.911  1.00  0.00     0.066 C 
HETATM   11  N7  UNL     1       3.335  -2.512   1.136  1.00  0.00    -0.325 N 
ATOM     12  H7  UNL     1       3.874  -3.321   0.827  1.00  0.00     0.169 HD
HETATM   13  C28 UNL     1       4.304  -1.604   1.572  1.00  0.00     0.244 C 
HETATM   14  O4  UNL     1       5.175  -1.902   2.466  1.00  0.00    -0.271 OA
HETATM   15  C29 UNL     1       4.503  -0.161   1.092  1.00  0.00     0.176 C 
HETATM   16  N8  UNL     1       3.193   0.403   1.096  1.00  0.00    -0.359 N 
ATOM     17  H8  UNL     1       2.655  -0.048   0.356  1.00  0.00     0.162 HD
HETATM   18  C34 UNL     1       2.394   1.299   1.698  1.00  0.00     0.135 C 
ENDROOT
BRANCH   6  19
HETATM   19  C8  UNL     1      -1.628   0.075  -0.237  1.00  0.00     0.259 C 
HETATM   20  C9  UNL     1      -1.673  -0.745  -1.489  1.00  0.00     0.026 C 
HETATM   21  C10 UNL     1      -2.163  -2.095  -1.563  1.00  0.00     0.007 C 
HETATM   22  C14 UNL     1      -2.370   0.055  -2.603  1.00  0.00    -0.007 C 
HETATM   23  C11 UNL     1      -1.548  -2.693  -2.868  1.00  0.00     0.000 C 
HETATM   24  C12 UNL     1      -2.425  -2.078  -3.967  1.00  0.00     0.000 C 
HETATM   25  C13 UNL     1      -2.439  -0.595  -3.904  1.00  0.00     0.005 C 
HETATM   26  C15 UNL     1      -3.673   0.548  -2.032  1.00  0.00     0.035 C 
HETATM   27  C16 UNL     1      -3.428   1.357  -0.768  1.00  0.00     0.274 C 
HETATM   28  N2  UNL     1      -2.877   0.503   0.288  1.00  0.00     0.101 N 
BRANCH  28  29
HETATM   29  C17 UNL     1      -3.885  -0.310   0.727  1.00  0.00     0.232 C 
BRANCH  29  30
HETATM   30  C18 UNL     1      -3.751  -1.236   1.873  1.00  0.00     0.032 C 
HETATM   31  C19 UNL     1      -5.039  -1.992   2.076  1.00  0.00     0.007 C 
ENDBRANCH  29  30
BRANCH  29  32
HETATM   32  C20 UNL     1      -5.204   0.398   0.882  1.00  0.00     0.139 C 
BRANCH  32  33
HETATM   33  C21 UNL     1      -5.233   1.537   1.822  1.00  0.00     0.225 C 
HETATM   34  O2  UNL     1      -4.198   1.894   2.447  1.00  0.00    -0.273 OA
HETATM   35  N3  UNL     1      -6.358   2.326   2.122  1.00  0.00    -0.304 N 
HETATM   36  C22 UNL     1      -7.343   2.680   1.454  1.00  0.00     0.203 C 
ATOM     37  H3  UNL     1      -6.366   2.678   3.079  1.00  0.00     0.171 HD
HETATM   38  N4  UNL     1      -7.625   2.362   0.105  1.00  0.00    -0.066 NA
HETATM   39  N5  UNL     1      -8.316   3.515   2.112  1.00  0.00    -0.066 NA
ENDBRANCH  32  33
ENDBRANCH  29  32
ENDBRANCH  28  29
ENDBRANCH   6  19
BRANCH   9  40
HETATM   40  O3  UNL     1      -0.119  -3.403   1.472  1.00  0.00    -0.345 OA
ATOM     41  H3  UNL     1       0.418  -4.185   1.412  1.00  0.00     0.219 HD
ENDBRANCH   9  40
BRANCH   1  42
HETATM   42  C4  UNL     1       2.110   3.380   0.275  1.00  0.00     0.033 C 
BRANCH  42  43
HETATM   43  C3  UNL     1       3.575   3.720   0.181  1.00  0.00     0.002 C 
BRANCH  43  44
HETATM   44  C2  UNL     1       3.973   4.542   1.391  1.00  0.00    -0.004 C 
HETATM   45  C1  UNL     1       3.179   5.820   1.463  1.00  0.00     0.005 C 
ENDBRANCH  43  44
ENDBRANCH  42  43
ENDBRANCH   1  42
BRANCH  10  46
HETATM   46  C25 UNL     1       1.927  -3.454  -0.523  1.00  0.00     0.032 C 
HETATM   47  C26 UNL     1       0.961  -4.597  -0.608  1.00  0.00     0.016 C 
HETATM   48  C27 UNL     1       3.204  -3.839  -1.135  1.00  0.00     0.016 C 
ENDBRANCH  10  46
BRANCH  18  49
HETATM   49  O5  UNL     1       2.024   0.997   2.928  1.00  0.00    -0.348 OA
ATOM     50  H5  UNL     1       2.456   0.165   3.081  1.00  0.00     0.219 HD
ENDBRANCH  18  49
BRANCH  15  51
HETATM   51  C30 UNL     1       4.963  -0.161  -0.369  1.00  0.00     0.038 C 
BRANCH  51  52
HETATM   52  C31 UNL     1       6.261  -0.907  -0.540  1.00  0.00    -0.020 C 
HETATM   53  C32 UNL     1       6.608  -0.836  -2.022  1.00  0.00     0.009 C 
HETATM   54  C33 UNL     1       7.400  -0.256   0.213  1.00  0.00     0.009 C 
ENDBRANCH  51  52
ENDBRANCH  15  51
TORSDOF 13
