REMARK  11 active torsions:
REMARK  status: ('A' for Active; 'I' for Inactive)
REMARK       I    between atoms: C2_2  and  N1_4 
REMARK    1  A    between atoms: C4_7  and  C5_8 
REMARK    2  A    between atoms: C5_8  and  C6_9 
REMARK    3  A    between atoms: C6_9  and  C7_10 
REMARK    4  A    between atoms: C11_18  and  C12_19 
REMARK    5  A    between atoms: C13_20  and  C14_21 
REMARK    6  A    between atoms: C14_21  and  C15_22 
REMARK    7  A    between atoms: C15_22  and  N4_23 
REMARK    8  A    between atoms: C18_31  and  C19_32 
REMARK    9  A    between atoms: C18_31  and  N10_51 
REMARK   10  A    between atoms: C19_32  and  N6_33 
REMARK       I    between atoms: N7_36  and  C22_37 
REMARK       I    between atoms: C22_37  and  N8_39 
REMARK   11  A    between atoms: N8_39  and  C23_41 
ROOT
HETATM    1  C1  UNL     1      -6.546  -0.930  -1.627  1.00  0.00     0.117 C 
HETATM    2  C2  UNL     1      -5.515  -1.323  -0.663  1.00  0.00     0.223 C 
HETATM    3  O1  UNL     1      -5.465  -2.539  -0.280  1.00  0.00    -0.273 OA
HETATM    4  N1  UNL     1      -4.567  -0.391  -0.148  1.00  0.00    -0.280 N 
HETATM    5  C3  UNL     1      -3.533  -0.968   0.678  1.00  0.00     0.231 C 
HETATM    6  O2  UNL     1      -4.015  -1.743   1.536  1.00  0.00    -0.272 OA
HETATM    7  C4  UNL     1      -2.029  -0.749   0.608  1.00  0.00     0.088 C 
HETATM    8  C8  UNL     1      -1.675  -0.026  -0.657  1.00  0.00     0.067 C 
HETATM    9  C9  UNL     1      -2.119   1.392  -0.669  1.00  0.00     0.091 C 
HETATM   10  C10 UNL     1      -3.433   1.725  -0.019  1.00  0.00     0.055 C 
HETATM   11  C11 UNL     1      -4.640   1.012  -0.501  1.00  0.00     0.120 C 
HETATM   12  N5  UNL     1      -2.250   1.986  -1.989  1.00  0.00    -0.394 N 
ATOM     13  H5  UNL     1      -2.576   2.940  -2.143  1.00  0.00     0.159 HD
HETATM   14  C16 UNL     1      -1.888   1.127  -3.023  1.00  0.00     0.082 C 
HETATM   15  C17 UNL     1      -1.091   0.062  -2.892  1.00  0.00     0.035 C 
HETATM   16  C18 UNL     1      -0.498  -0.286  -1.507  1.00  0.00     0.187 C 
ENDROOT
BRANCH  16  17
HETATM   17  C19 UNL     1       0.673   0.597  -1.501  1.00  0.00     0.126 C 
BRANCH  17  18
HETATM   18  N6  UNL     1       1.583   0.935  -0.507  1.00  0.00    -0.193 N 
HETATM   19  C20 UNL     1       1.550   1.697   0.713  1.00  0.00     0.167 C 
HETATM   20  C21 UNL     1       2.390   0.816   1.646  1.00  0.00     0.173 C 
HETATM   21  N7  UNL     1       3.560   0.682   0.767  1.00  0.00    -0.131 N 
HETATM   22  C22 UNL     1       4.893   0.691   1.228  1.00  0.00     0.337 C 
HETATM   23  C29 UNL     1       3.007   0.551  -0.515  1.00  0.00     0.684 C 
HETATM   24  O3  UNL     1       5.088   0.809   2.485  1.00  0.00    -0.246 OA
HETATM   25  N8  UNL     1       6.061   0.585   0.448  1.00  0.00    -0.338 N 
ATOM     26  H8  UNL     1       5.960   0.492  -0.563  1.00  0.00     0.164 HD
HETATM   27  N9  UNL     1       3.691   0.149  -1.534  1.00  0.00    -0.234 N 
ATOM     28  H92 UNL     1       3.289   0.054  -2.466  1.00  0.00     0.174 HD
ATOM     29  H91 UNL     1       4.676  -0.117  -1.540  1.00  0.00     0.174 HD
BRANCH  25  30
HETATM   30  C23 UNL     1       7.400   0.601   1.007  1.00  0.00     0.086 C 
HETATM   31  C24 UNL     1       8.268  -0.509   0.471  1.00  0.00     0.025 C 
HETATM   32  C25 UNL     1       9.566  -0.567   1.229  1.00  0.00     0.002 C 
HETATM   33  C26 UNL     1       9.921   0.771   1.799  1.00  0.00     0.000 C 
HETATM   34  C27 UNL     1       9.559   1.826   0.765  1.00  0.00     0.002 C 
HETATM   35  C28 UNL     1       8.063   1.909   0.543  1.00  0.00     0.025 C 
ENDBRANCH  25  30
ENDBRANCH  17  18
ENDBRANCH  16  17
BRANCH  16  36
HETATM   36  N10 UNL     1      -0.163  -1.686  -1.753  1.00  0.00    -0.053 N 
HETATM   37  C30 UNL     1       0.579  -2.285  -0.678  1.00  0.00     0.274 C 
HETATM   38  C31 UNL     1      -1.293  -2.480  -2.112  1.00  0.00     0.239 C 
HETATM   39  C32 UNL     1      -0.983  -3.970  -2.142  1.00  0.00     0.028 C 
HETATM   40  C33 UNL     1       0.329  -4.227  -2.838  1.00  0.00     0.003 C 
HETATM   41  C34 UNL     1       0.521  -3.047  -3.736  1.00  0.00     0.028 C 
HETATM   42  C35 UNL     1       0.737  -1.816  -2.904  1.00  0.00     0.239 C 
ENDBRANCH  16  36
BRANCH   7  43
HETATM   43  C5  UNL     1      -1.632  -0.115   1.888  1.00  0.00     0.022 C 
BRANCH  43  44
HETATM   44  C6  UNL     1      -1.999  -0.765   3.149  1.00  0.00     0.073 C 
BRANCH  44  45
HETATM   45  C7  UNL     1      -1.497  -2.102   3.427  1.00  0.00     0.086 C 
HETATM   46  N2  UNL     1      -0.555  -2.639   2.769  1.00  0.00    -0.391 N 
ATOM     47  H22 UNL     1      -0.186  -2.069   2.008  1.00  0.00     0.157 HD
ATOM     48  H21 UNL     1      -0.203  -3.576   2.964  1.00  0.00     0.157 HD
HETATM   49  N3  UNL     1      -2.019  -2.907   4.503  1.00  0.00    -0.088 NA
ENDBRANCH  44  45
ENDBRANCH  43  44
ENDBRANCH   7  43
BRANCH  11  50
HETATM   50  C12 UNL     1      -5.865   1.702  -0.012  1.00  0.00    -0.005 C 
HETATM   51  C13 UNL     1      -6.243   1.739   1.385  1.00  0.00    -0.027 C 
BRANCH  51  52
HETATM   52  C14 UNL     1      -5.515   2.359   2.473  1.00  0.00     0.054 C 
BRANCH  52  53
HETATM   53  C15 UNL     1      -5.240   3.839   2.386  1.00  0.00     0.233 C 
BRANCH  53  54
HETATM   54  N4  UNL     1      -6.454   4.629   2.306  1.00  0.00    -0.079 N 
ATOM     55  H43 UNL     1      -7.042   4.320   1.532  1.00  0.00     0.274 HD
ATOM     56  H42 UNL     1      -7.080   4.418   3.083  1.00  0.00     0.274 HD
ATOM     57  H41 UNL     1      -6.268   5.630   2.247  1.00  0.00     0.274 HD
ENDBRANCH  53  54
ENDBRANCH  52  53
ENDBRANCH  51  52
ENDBRANCH  11  50
TORSDOF 11
