REMARK  11 active torsions:
REMARK  status: ('A' for Active; 'I' for Inactive)
REMARK    1  A    between atoms: N1_6  and  C6_7 
REMARK    2  A    between atoms: C6_7  and  C7_8 
REMARK    3  A    between atoms: C6_7  and  C16_24 
REMARK       I    between atoms: C7_8  and  N2_10 
REMARK       I    between atoms: N2_10  and  C8_12 
REMARK       I    between atoms: C8_12  and  N3_14 
REMARK    4  A    between atoms: N3_14  and  C9_16 
REMARK    5  A    between atoms: C16_24  and  C17_25 
REMARK    6  A    between atoms: C16_24  and  N8_34 
REMARK    7  A    between atoms: C17_25  and  C18_26 
REMARK    8  A    between atoms: C18_26  and  C19_27 
REMARK    9  A    between atoms: C19_27  and  C20_28 
REMARK   10  A    between atoms: C20_28  and  N5_29 
REMARK       I    between atoms: N8_34  and  C22_36 
REMARK   11  A    between atoms: C22_36  and  C23_38 
ROOT
HETATM    1  C16 UNL     1      -0.422   1.383   0.576  1.00  0.00     0.127 C 
ENDROOT
BRANCH   1   2
HETATM    2  C6  UNL     1       0.528   1.726  -0.508  1.00  0.00     0.337 C 
BRANCH   2   3
HETATM    3  N1  UNL     1       0.076   1.399  -1.788  1.00  0.00     0.108 N 
HETATM    4  C5  UNL     1       0.903   1.893  -2.872  1.00  0.00     0.274 C 
HETATM    5  C4  UNL     1       0.458   1.355  -4.211  1.00  0.00     0.031 C 
HETATM    6  C3  UNL     1      -0.772   0.483  -4.075  1.00  0.00     0.008 C 
HETATM    7  C2  UNL     1      -1.797   1.342  -3.382  1.00  0.00     0.014 C 
HETATM    8  C1  UNL     1      -3.067   0.559  -3.256  1.00  0.00     0.012 C 
HETATM    9  C33 UNL     1      -1.273   1.854  -2.028  1.00  0.00     0.224 C 
HETATM   10  C34 UNL     1      -1.412   3.365  -1.968  1.00  0.00     0.043 C 
ENDBRANCH   2   3
BRANCH   2  11
HETATM   11  C7  UNL     1       1.879   1.236  -0.144  1.00  0.00     0.261 C 
HETATM   12  O1  UNL     1       1.961   0.165   0.476  1.00  0.00    -0.271 OA
HETATM   13  N2  UNL     1       3.070   1.888  -0.445  1.00  0.00    -0.277 N 
HETATM   14  C8  UNL     1       4.379   1.543  -0.113  1.00  0.00     0.323 C 
ATOM     15  H2  UNL     1       2.971   2.745  -0.989  1.00  0.00     0.173 HD
HETATM   16  O2  UNL     1       5.296   2.368  -0.493  1.00  0.00    -0.247 OA
HETATM   17  N3  UNL     1       4.854   0.421   0.579  1.00  0.00    -0.338 N 
ATOM     18  H3  UNL     1       4.193  -0.282   0.910  1.00  0.00     0.164 HD
BRANCH  17  19
HETATM   19  C9  UNL     1       6.271   0.244   0.832  1.00  0.00     0.089 C 
HETATM   20  C10 UNL     1       6.510  -0.187   2.226  1.00  0.00     0.053 C 
HETATM   21  C11 UNL     1       6.533  -1.702   2.318  1.00  0.00     0.238 C 
HETATM   22  N4  UNL     1       7.585  -2.291   1.533  1.00  0.00    -0.075 N 
HETATM   23  C12 UNL     1       7.202  -3.604   1.006  1.00  0.00     0.272 C 
HETATM   24  C13 UNL     1       8.760  -2.493   2.380  1.00  0.00     0.272 C 
HETATM   25  C14 UNL     1       8.001  -1.453   0.421  1.00  0.00     0.238 C 
HETATM   26  C15 UNL     1       6.778  -0.771  -0.182  1.00  0.00     0.053 C 
ENDBRANCH  17  19
ENDBRANCH   2  11
ENDBRANCH   1   2
BRANCH   1  27
HETATM   27  C17 UNL     1       0.067   1.698   1.969  1.00  0.00     0.028 C 
BRANCH  27  28
HETATM   28  C18 UNL     1       0.414   3.080   2.298  1.00  0.00     0.004 C 
BRANCH  28  29
HETATM   29  C19 UNL     1      -0.663   4.124   2.196  1.00  0.00     0.020 C 
BRANCH  29  30
HETATM   30  C20 UNL     1      -1.839   3.894   3.085  1.00  0.00     0.122 C 
BRANCH  30  31
HETATM   31  N5  UNL     1      -2.772   4.980   2.930  1.00  0.00    -0.367 N 
HETATM   32  C21 UNL     1      -3.715   5.085   2.081  1.00  0.00     0.196 C 
HETATM   33  N6  UNL     1      -4.565   6.258   2.064  1.00  0.00    -0.067 NA
HETATM   34  N7  UNL     1      -4.035   4.111   1.097  1.00  0.00    -0.067 NA
ATOM     35  H5  UNL     1      -2.664   5.760   3.579  1.00  0.00     0.161 HD
ENDBRANCH  30  31
ENDBRANCH  29  30
ENDBRANCH  28  29
ENDBRANCH  27  28
ENDBRANCH   1  27
BRANCH   1  36
HETATM   36  N8  UNL     1      -0.774  -0.014   0.594  1.00  0.00    -0.352 N 
HETATM   37  C22 UNL     1      -2.085  -0.402   1.073  1.00  0.00     0.240 C 
HETATM   38  O3  UNL     1      -2.893   0.457   1.464  1.00  0.00    -0.271 OA
ATOM     39  H8  UNL     1      -0.110  -0.719   0.274  1.00  0.00     0.163 HD
BRANCH  37  40
HETATM   40  C23 UNL     1      -2.493  -1.836   1.110  1.00  0.00     0.176 C 
HETATM   41  C24 UNL     1      -2.547  -2.327  -0.351  1.00  0.00     0.035 C 
HETATM   42  C25 UNL     1      -3.065  -3.719  -0.473  1.00  0.00     0.012 C 
HETATM   43  C26 UNL     1      -4.522  -3.849  -0.696  1.00  0.00    -0.032 C 
HETATM   44  C27 UNL     1      -5.102  -5.086  -0.055  1.00  0.00     0.016 C 
HETATM   45  C28 UNL     1      -4.961  -3.873  -2.145  1.00  0.00     0.010 C 
HETATM   46  C31 UNL     1      -5.311  -2.631  -0.242  1.00  0.00     0.086 C 
HETATM   47  C29 UNL     1      -6.475  -3.648  -2.014  1.00  0.00     0.002 C 
HETATM   48  C30 UNL     1      -6.690  -3.036  -0.625  1.00  0.00     0.015 C 
HETATM   49  C32 UNL     1      -5.057  -2.449   1.192  1.00  0.00     0.223 C 
HETATM   50  O4  UNL     1      -5.917  -2.766   2.029  1.00  0.00    -0.273 OA
HETATM   51  N9  UNL     1      -3.829  -1.908   1.693  1.00  0.00    -0.347 N 
ATOM     52  H9  UNL     1      -3.901  -1.500   2.625  1.00  0.00     0.163 HD
ENDBRANCH  37  40
ENDBRANCH   1  36
TORSDOF 11
