REMARK  3 active torsions:
REMARK  status: ('A' for Active; 'I' for Inactive)
REMARK    1  A    between atoms: O1_2  and  C2_3 
REMARK    2  A    between atoms: C7_8  and  N1_9 
REMARK       I    between atoms: N1_9  and  C8_11 
REMARK    3  A    between atoms: C10_17  and  O2_18 
ROOT
HETATM    1  C2  UNL     1      -1.632  -0.541  -0.319  1.00  0.00     0.066 C 
HETATM    2  C3  UNL     1      -2.137   0.809  -0.858  1.00  0.00     0.043 C 
HETATM    3  C4  UNL     1      -1.218   1.914  -0.480  1.00  0.00    -0.009 C 
HETATM    4  C5  UNL     1      -0.060   1.914  -1.444  1.00  0.00     0.007 C 
HETATM    5  C6  UNL     1       1.138   1.244  -0.875  1.00  0.00     0.031 C 
HETATM    6  C7  UNL     1       0.875  -0.137  -0.318  1.00  0.00     0.038 C 
HETATM    7  C9  UNL     1       0.770  -0.018   1.173  1.00  0.00     0.069 C 
HETATM    8  C10 UNL     1      -0.554   0.588   1.551  1.00  0.00     0.063 C 
HETATM    9  C11 UNL     1      -0.809   1.924   0.956  1.00  0.00     0.042 C 
HETATM   10  C12 UNL     1      -1.625  -0.394   1.181  1.00  0.00     0.076 C 
HETATM   11  C13 UNL     1      -0.308  -0.820  -0.922  1.00  0.00     0.069 C 
ENDROOT
BRANCH   6  12
HETATM   12  N1  UNL     1       2.052  -0.926  -0.628  1.00  0.00    -0.355 N 
HETATM   13  C8  UNL     1       3.357  -0.638  -0.203  1.00  0.00     0.182 C 
HETATM   14  N2  UNL     1       4.219  -0.170  -1.021  1.00  0.00    -0.374 N 
HETATM   15  N3  UNL     1       3.725  -0.868   1.136  1.00  0.00    -0.064 NA
ATOM     16  H22 UNL     1       3.952  -0.003  -1.991  1.00  0.00     0.158 HD
ATOM     17  H21 UNL     1       5.168   0.039  -0.712  1.00  0.00     0.158 HD
ATOM     18  H1  UNL     1       1.920  -1.759  -1.202  1.00  0.00     0.163 HD
ENDBRANCH   6  12
BRANCH   8  19
HETATM   19  O2  UNL     1      -0.613   0.731   2.957  1.00  0.00    -0.390 OA
ATOM     20  H2  UNL     1      -1.449   1.114   3.196  1.00  0.00     0.210 HD
ENDBRANCH   8  19
BRANCH   1  21
HETATM   21  O1  UNL     1      -2.552  -1.445  -0.774  1.00  0.00    -0.385 OA
HETATM   22  C1  UNL     1      -2.394  -2.753  -0.454  1.00  0.00     0.202 C 
ENDBRANCH   1  21
TORSDOF 3
