REMARK  4 active torsions:
REMARK  status: ('A' for Active; 'I' for Inactive)
REMARK    1  A    between atoms: C3_5  and  N2_6 
REMARK    2  A    between atoms: C4_11  and  N4_12 
REMARK    3  A    between atoms: C5_15  and  C6_16 
REMARK    4  A    between atoms: C6_16  and  N5_17 
ROOT
HETATM    1  C1  UNL     1       2.079  -0.868  -2.309  1.00  0.00     0.069 C 
HETATM    2  C2  UNL     1       2.698  -0.509  -1.040  1.00  0.00     0.034 A 
HETATM    3  N1  UNL     1       3.949  -0.858  -0.742  1.00  0.00    -0.195 N 
ATOM      4  H1  UNL     1       4.418  -1.464  -1.415  1.00  0.00     0.184 HD
HETATM    5  C3  UNL     1       4.652  -0.515   0.315  1.00  0.00     0.677 A 
HETATM    6  N3  UNL     1       4.066   0.284   1.223  1.00  0.00    -0.177 N 
ATOM      7  H3  UNL     1       4.564   0.587   2.060  1.00  0.00     0.185 HD
HETATM    8  C4  UNL     1       2.747   0.685   0.978  1.00  0.00     0.124 A 
HETATM    9  C5  UNL     1       2.018   0.338  -0.087  1.00  0.00     0.037 A 
ENDROOT
BRANCH   9  10
HETATM   10  C6  UNL     1       0.640   0.641  -0.425  1.00  0.00     0.317 C 
BRANCH  10  11
HETATM   11  N5  UNL     1      -0.404   0.047   0.346  1.00  0.00     0.093 N 
HETATM   12  C7  UNL     1      -1.339  -0.525  -0.646  1.00  0.00     0.277 C 
HETATM   13  C8  UNL     1      -2.497  -1.253  -0.109  1.00  0.00     0.010 C 
HETATM   14  C9  UNL     1      -3.445  -1.516  -1.298  1.00  0.00     0.011 C 
HETATM   15  C10 UNL     1      -3.260  -0.492   0.930  1.00  0.00     0.012 C 
HETATM   16  C11 UNL     1      -2.562   0.729   1.396  1.00  0.00     0.010 C 
HETATM   17  C12 UNL     1      -2.971   1.968   0.593  1.00  0.00     0.011 C 
HETATM   18  C13 UNL     1      -1.055   0.687   1.379  1.00  0.00     0.277 C 
ENDBRANCH  10  11
ENDBRANCH   9  10
BRANCH   8  19
HETATM   19  N4  UNL     1       2.386   1.553   1.875  1.00  0.00    -0.385 N 
ATOM     20  H42 UNL     1       2.942   1.818   2.688  1.00  0.00     0.157 HD
ATOM     21  H41 UNL     1       1.425   1.845   1.697  1.00  0.00     0.157 HD
ENDBRANCH   8  19
BRANCH   5  22
HETATM   22  N2  UNL     1       5.869  -0.999   0.521  1.00  0.00    -0.234 N 
ATOM     23  H22 UNL     1       6.314  -1.605  -0.168  1.00  0.00     0.174 HD
ATOM     24  H21 UNL     1       6.414  -0.733   1.341  1.00  0.00     0.174 HD
ENDBRANCH   5  22
TORSDOF 4
