REMARK  5 active torsions:
REMARK  status: ('A' for Active; 'I' for Inactive)
REMARK    1  A    between atoms: C4_4  and  O1_5 
REMARK    2  A    between atoms: C7_9  and  O2_10 
REMARK    3  A    between atoms: C12_16  and  C13_17 
REMARK    4  A    between atoms: C13_17  and  C14_18 
REMARK    5  A    between atoms: C14_18  and  O3_19 
ROOT
HETATM    1  C1  UNL     1      -0.548  -0.639  -1.820  1.00  0.00     0.016 C 
HETATM    2  C2  UNL     1      -0.785  -0.455  -0.340  1.00  0.00    -0.031 C 
HETATM    3  C3  UNL     1      -1.234  -1.838   0.168  1.00  0.00     0.041 C 
HETATM    4  C4  UNL     1      -2.552  -1.687   0.824  1.00  0.00     0.119 C 
HETATM    5  C5  UNL     1      -2.689  -0.224   1.085  1.00  0.00     0.039 C 
HETATM    6  C6  UNL     1      -2.019   0.344  -0.171  1.00  0.00     0.025 C 
HETATM    7  C7  UNL     1      -1.902   1.804  -0.021  1.00  0.00     0.123 C 
HETATM    8  C8  UNL     1      -0.905   2.481  -0.920  1.00  0.00     0.032 C 
HETATM    9  C9  UNL     1       0.519   2.273  -0.543  1.00  0.00     0.007 C 
HETATM   10  C10 UNL     1       0.789   1.343   0.549  1.00  0.00    -0.009 C 
HETATM   11  C11 UNL     1       2.256   0.845   0.457  1.00  0.00     0.010 C 
HETATM   12  C12 UNL     1       1.728  -0.423  -0.164  1.00  0.00    -0.007 C 
HETATM   13  C15 UNL     1       0.391  -0.066   0.442  1.00  0.00     0.002 C 
ENDROOT
BRANCH  12  14
HETATM   14  C13 UNL     1       2.425  -1.635   0.354  1.00  0.00     0.031 C 
BRANCH  14  15
HETATM   15  C14 UNL     1       3.892  -1.554   0.021  1.00  0.00     0.164 C 
BRANCH  15  16
HETATM   16  O3  UNL     1       4.555  -0.474   0.549  1.00  0.00    -0.401 OA
ATOM     17  H3  UNL     1       5.480  -0.423   0.339  1.00  0.00     0.209 HD
ENDBRANCH  15  16
ENDBRANCH  14  15
ENDBRANCH  12  14
BRANCH   4  18
HETATM   18  O1  UNL     1      -3.622  -2.077   0.003  1.00  0.00    -0.396 OA
ATOM     19  H1  UNL     1      -4.468  -1.980   0.424  1.00  0.00     0.210 HD
ENDBRANCH   4  18
BRANCH   7  20
HETATM   20  O2  UNL     1      -1.756   2.155   1.319  1.00  0.00    -0.395 OA
ATOM     21  H2  UNL     1      -1.681   3.097   1.416  1.00  0.00     0.210 HD
ENDBRANCH   7  20
TORSDOF 5
