REMARK  4 active torsions:
REMARK  status: ('A' for Active; 'I' for Inactive)
REMARK    1  A    between atoms: C2_2  and  C3_3 
REMARK    2  A    between atoms: C3_3  and  C4_4 
REMARK    3  A    between atoms: C6_13  and  C7_14 
REMARK    4  A    between atoms: C8_15  and  C9_16 
ROOT
HETATM    1  C4  UNL     1       2.734  -0.940  -0.025  1.00  0.00     0.048 A 
HETATM    2  N1  UNL     1       3.577  -2.013   0.011  1.00  0.00    -0.302 N 
ATOM      3  H1  UNL     1       4.595  -1.956   0.032  1.00  0.00     0.186 HD
HETATM    4  N2  UNL     1       2.890  -3.124   0.015  1.00  0.00    -0.284 N 
ATOM      5  H2  UNL     1       3.280  -4.066   0.039  1.00  0.00     0.188 HD
HETATM    6  C5  UNL     1       1.585  -2.815  -0.018  1.00  0.00     0.134 A 
HETATM    7  N3  UNL     1       0.577  -3.632  -0.026  1.00  0.00    -0.383 N 
ATOM      8  H31 UNL     1      -0.415  -3.397  -0.051  1.00  0.00     0.157 HD
ATOM      9  H32 UNL     1       0.686  -4.646  -0.007  1.00  0.00     0.157 HD
HETATM   10  C6  UNL     1       1.435  -1.424  -0.044  1.00  0.00     0.086 A 
ENDROOT
BRANCH  10  11
HETATM   11  C7  UNL     1       0.204  -0.680  -0.082  1.00  0.00    -0.058 C 
HETATM   12  C8  UNL     1      -0.829  -0.054  -0.114  1.00  0.00    -0.066 C 
BRANCH  12  13
HETATM   13  C9  UNL     1      -2.106   0.694  -0.140  1.00  0.00     0.228 C 
HETATM   14  C10 UNL     1      -2.885   0.497   1.126  1.00  0.00     0.216 C 
HETATM   15  O1  UNL     1      -4.147   0.057   0.680  1.00  0.00    -0.352 OA
HETATM   16  C11 UNL     1      -4.210   0.517  -0.632  1.00  0.00     0.158 C 
HETATM   17  C12 UNL     1      -4.556   1.974  -0.617  1.00  0.00     0.078 C 
HETATM   18  C13 UNL     1      -5.302  -0.205  -1.403  1.00  0.00     0.078 C 
HETATM   19  O2  UNL     1      -2.955   0.238  -1.112  1.00  0.00    -0.336 OA
ENDBRANCH  12  13
ENDBRANCH  10  11
BRANCH   1  20
HETATM   20  C3  UNL     1       3.066   0.494  -0.042  1.00  0.00     0.060 C 
BRANCH  20  21
HETATM   21  C2  UNL     1       4.594   0.615  -0.011  1.00  0.00     0.002 C 
HETATM   22  C1  UNL     1       5.000   2.071  -0.027  1.00  0.00     0.005 C 
ENDBRANCH  20  21
ENDBRANCH   1  20
TORSDOF 4
