REMARK  5 active torsions:
REMARK  status: ('A' for Active; 'I' for Inactive)
REMARK    1  A    between atoms: C2_2  and  C3_3 
REMARK    2  A    between atoms: C2_2  and  C4_6 
REMARK    3  A    between atoms: C3_3  and  O1_4 
REMARK    4  A    between atoms: C9_11  and  O2_12 
REMARK    5  A    between atoms: C11_15  and  O3_16 
ROOT
HETATM    1  C4  UNL     1       1.196   0.030   0.263  1.00  0.00     0.021 C 
HETATM    2  C5  UNL     1       1.804   1.304  -0.271  1.00  0.00     0.010 C 
HETATM    3  C6  UNL     1       0.759   1.984  -1.071  1.00  0.00     0.013 C 
HETATM    4  C7  UNL     1      -0.519   1.195  -0.870  1.00  0.00    -0.013 C 
HETATM    5  C8  UNL     1      -1.241   1.163  -2.187  1.00  0.00     0.018 C 
HETATM    6  C9  UNL     1      -1.259   1.878   0.236  1.00  0.00     0.129 C 
HETATM    7  C10 UNL     1      -2.253   0.988   0.932  1.00  0.00     0.065 C 
HETATM    8  C11 UNL     1      -2.405  -0.322   0.251  1.00  0.00     0.128 C 
HETATM    9  C12 UNL     1      -1.066  -1.056   0.078  1.00  0.00    -0.017 C 
HETATM   10  C13 UNL     1      -1.417  -2.260  -0.780  1.00  0.00     0.018 C 
HETATM   11  C14 UNL     1      -0.714  -1.553   1.460  1.00  0.00     0.018 C 
HETATM   12  C15 UNL     1      -0.010  -0.189  -0.551  1.00  0.00     0.015 C 
ENDROOT
BRANCH   1  13
HETATM   13  C2  UNL     1       2.286  -0.981   0.123  1.00  0.00    -0.061 C 
HETATM   14  C1  UNL     1       2.320  -1.998  -0.678  1.00  0.00     0.017 C 
BRANCH  13  15
HETATM   15  C3  UNL     1       3.452  -0.791   1.061  1.00  0.00     0.198 C 
BRANCH  15  16
HETATM   16  O1  UNL     1       4.092   0.406   0.866  1.00  0.00    -0.397 OA
ATOM     17  H1  UNL     1       4.826   0.526   1.457  1.00  0.00     0.209 HD
ENDBRANCH  15  16
ENDBRANCH  13  15
ENDBRANCH   1  13
BRANCH   6  18
HETATM   18  O2  UNL     1      -0.411   2.413   1.195  1.00  0.00    -0.395 OA
ATOM     19  H2  UNL     1      -0.881   2.847   1.897  1.00  0.00     0.210 HD
ENDBRANCH   6  18
BRANCH   8  20
HETATM   20  O3  UNL     1      -3.210  -1.127   1.078  1.00  0.00    -0.395 OA
ATOM     21  H3  UNL     1      -3.307  -1.965   0.642  1.00  0.00     0.210 HD
ENDBRANCH   8  20
TORSDOF 5
