REMARK  3 active torsions:
REMARK  status: ('A' for Active; 'I' for Inactive)
REMARK    1  A    between atoms: N1_2  and  C2_4 
REMARK    2  A    between atoms: C3_7  and  N3_8 
REMARK    3  A    between atoms: C8_15  and  N5_16 
ROOT
HETATM    1  C2  UNL     1      -1.446  -1.611  -0.160  1.00  0.00     0.680 A 
HETATM    2  N2  UNL     1      -2.559  -0.833  -0.036  1.00  0.00    -0.175 N 
ATOM      3  H2  UNL     1      -3.483  -1.255   0.053  1.00  0.00     0.186 HD
HETATM    4  C3  UNL     1      -2.413   0.481  -0.034  1.00  0.00     0.145 A 
HETATM    5  C7  UNL     1      -1.176   1.039  -0.155  1.00  0.00     0.100 A 
HETATM    6  C8  UNL     1      -0.043   0.244  -0.281  1.00  0.00     0.126 A 
HETATM    7  N8  UNL     1      -0.195  -1.085  -0.281  1.00  0.00    -0.177 N 
ATOM      8  H8  UNL     1       0.616  -1.697  -0.371  1.00  0.00     0.186 HD
ENDROOT
BRANCH   6   9
HETATM    9  N5  UNL     1       1.082   0.868  -0.378  1.00  0.00    -0.327 N 
HETATM   10  C9  UNL     1       2.323   0.379  -0.512  1.00  0.00     0.123 A 
HETATM   11  C10 UNL     1       3.550  -0.104  -0.644  1.00  0.00     0.075 A 
HETATM   12  N7  UNL     1       2.803   1.088   0.928  1.00  0.00    -0.285 N 
HETATM   13  C11 UNL     1       4.518   0.077   0.189  1.00  0.00     0.025 A 
HETATM   14  C12 UNL     1       5.939  -0.389   0.183  1.00  0.00     0.070 C 
HETATM   15  N6  UNL     1       3.976   0.831   1.142  1.00  0.00    -0.304 N 
ATOM     16  H6  UNL     1       4.486   1.159   1.962  1.00  0.00     0.186 HD
ATOM     17  H7  UNL     1       2.205   1.650   1.534  1.00  0.00     0.188 HD
ATOM     18  H5  UNL     1       1.018   1.886  -0.348  1.00  0.00     0.169 HD
ENDBRANCH   6   9
BRANCH   4  19
HETATM   19  N3  UNL     1      -3.555   1.352   0.105  1.00  0.00    -0.251 N 
HETATM   20  C4  UNL     1      -3.584   2.650  -0.276  1.00  0.00     0.119 A 
HETATM   21  C5  UNL     1      -4.827   3.201   0.008  1.00  0.00     0.038 A 
HETATM   22  C6  UNL     1      -5.529   2.162   0.577  1.00  0.00     0.109 A 
HETATM   23  N4  UNL     1      -4.726   1.077   0.614  1.00  0.00    -0.304 N 
ATOM     24  H4  UNL     1      -4.997   0.168   0.988  1.00  0.00     0.186 HD
ENDBRANCH   4  19
BRANCH   1  25
HETATM   25  N1  UNL     1      -1.608  -2.872  -0.157  1.00  0.00    -0.230 N 
HETATM   26  C1  UNL     1      -0.568  -3.848  -0.276  1.00  0.00     0.165 C 
ATOM     27  H1  UNL     1      -2.563  -3.218  -0.061  1.00  0.00     0.177 HD
ENDBRANCH   1  25
TORSDOF 3
