REMARK  3 active torsions:
REMARK  status: ('A' for Active; 'I' for Inactive)
REMARK    1  A    between atoms: N4_12  and  C8_13 
REMARK    2  A    between atoms: C8_13  and  C9_14 
REMARK    3  A    between atoms: N5_19  and  O1_20 
ROOT
HETATM    1  N1  UNL     1       5.637  -0.534   1.830  1.00  0.00    -0.191 NA
HETATM    2  C1  UNL     1       4.613  -0.387   1.306  1.00  0.00     0.105 C 
HETATM    3  C2  UNL     1       3.340  -0.206   0.657  1.00  0.00     0.112 A 
HETATM    4  C3  UNL     1       2.516   0.850   0.902  1.00  0.00     0.141 A 
HETATM    5  N2  UNL     1       2.965   1.812   1.859  1.00  0.00    -0.081 NA
HETATM    6  N3  UNL     1       1.341   0.966   0.267  1.00  0.00    -0.329 N 
ATOM      7  H3  UNL     1       0.744   1.767   0.471  1.00  0.00     0.168 HD
HETATM    8  C4  UNL     1       0.925   0.045  -0.640  1.00  0.00     0.121 A 
HETATM    9  C5  UNL     1       1.735  -1.019  -0.902  1.00  0.00     0.037 A 
HETATM   10  C6  UNL     1       1.104  -1.797  -1.841  1.00  0.00     0.035 A 
HETATM   11  C7  UNL     1      -0.090  -1.192  -2.143  1.00  0.00     0.094 A 
HETATM   12  N4  UNL     1      -0.168  -0.083  -1.401  1.00  0.00    -0.337 N 
HETATM   13  C14 UNL     1       2.947  -1.156  -0.258  1.00  0.00     0.064 A 
HETATM   14  N6  UNL     1       3.674  -2.187  -0.545  1.00  0.00    -0.397 N 
ATOM     15  H61 UNL     1       3.383  -2.891  -1.223  1.00  0.00     0.156 HD
ATOM     16  H62 UNL     1       4.570  -2.288  -0.069  1.00  0.00     0.156 HD
ENDROOT
BRANCH  12  17
HETATM   17  C8  UNL     1      -1.287   0.839  -1.425  1.00  0.00     0.189 C 
BRANCH  17  18
HETATM   18  C9  UNL     1      -2.356   0.521  -0.474  1.00  0.00     0.058 A 
HETATM   19  C10 UNL     1      -2.355   1.024   0.808  1.00  0.00     0.029 A 
HETATM   20  C11 UNL     1      -3.355   0.742   1.739  1.00  0.00     0.003 A 
HETATM   21  C12 UNL     1      -4.380  -0.081   1.327  1.00  0.00     0.020 A 
HETATM   22  C13 UNL     1      -4.369  -0.573   0.054  1.00  0.00     0.123 A 
HETATM   23  N5  UNL     1      -3.391  -0.286  -0.826  1.00  0.00    -0.239 N 
BRANCH  23  24
HETATM   24  O1  UNL     1      -3.471  -0.834  -2.103  1.00  0.00    -0.283 OA
ATOM     25  H1  UNL     1      -4.195  -1.398  -2.349  1.00  0.00     0.245 HD
ENDBRANCH  23  24
ENDBRANCH  17  18
ENDBRANCH  12  17
TORSDOF 3
