REMARK  4 active torsions:
REMARK  status: ('A' for Active; 'I' for Inactive)
REMARK    1  A    between atoms: C5_5  and  N1_6 
REMARK    2  A    between atoms: C6_10  and  C7_11 
REMARK    3  A    between atoms: C8_17  and  O2_18 
REMARK    4  A    between atoms: O2_18  and  C9_19 
ROOT
HETATM    1  C1  UNL     1      -1.085  -2.170   1.679  1.00  0.00     0.015 C 
HETATM    2  C2  UNL     1      -1.649  -1.566   0.435  1.00  0.00    -0.035 C 
HETATM    3  C3  UNL     1      -2.395  -2.551  -0.411  1.00  0.00     0.015 C 
HETATM    4  C4  UNL     1      -2.402  -0.252   0.657  1.00  0.00     0.051 C 
HETATM    5  C5  UNL     1      -1.708   0.272  -0.574  1.00  0.00     0.165 C 
HETATM    6  C6  UNL     1      -0.970   1.548  -0.242  1.00  0.00     0.225 C 
HETATM    7  O1  UNL     1      -0.182   1.119   0.847  1.00  0.00    -0.346 OA
HETATM    8  C8  UNL     1       0.401  -0.065   0.390  1.00  0.00     0.271 C 
HETATM    9  C14 UNL     1      -0.671  -0.782  -0.414  1.00  0.00     0.088 C 
ENDROOT
BRANCH   8  10
HETATM   10  O2  UNL     1       1.491   0.200  -0.422  1.00  0.00    -0.327 OA
BRANCH  10  11
HETATM   11  C9  UNL     1       2.627  -0.352   0.163  1.00  0.00     0.292 A 
HETATM   12  C10 UNL     1       3.536   0.768   0.535  1.00  0.00     0.033 A 
HETATM   13  C11 UNL     1       4.784   0.829   0.104  1.00  0.00     0.003 A 
HETATM   14  C12 UNL     1       5.327  -0.202  -0.758  1.00  0.00     0.024 A 
HETATM   15  C13 UNL     1       4.563  -1.208  -1.112  1.00  0.00     0.138 A 
HETATM   16  O3  UNL     1       3.249  -1.298  -0.675  1.00  0.00    -0.329 OA
ENDBRANCH  10  11
ENDBRANCH   8  10
BRANCH   6  17
HETATM   17  C7  UNL     1      -1.926   2.595   0.173  1.00  0.00     0.118 C 
HETATM   18  N2  UNL     1      -3.183   2.336   0.206  1.00  0.00    -0.389 N 
ATOM     19  H22 UNL     1      -3.503   1.404  -0.057  1.00  0.00     0.157 HD
ATOM     20  H21 UNL     1      -3.843   3.059   0.493  1.00  0.00     0.157 HD
HETATM   21  N3  UNL     1      -1.482   3.890   0.538  1.00  0.00    -0.085 NA
ENDBRANCH   6  17
BRANCH   5  22
HETATM   22  N1  UNL     1      -2.453   0.328  -1.768  1.00  0.00    -0.067 N 
ATOM     23  H13 UNL     1      -2.841  -0.594  -1.967  1.00  0.00     0.275 HD
ATOM     24  H12 UNL     1      -3.306   0.864  -1.608  1.00  0.00     0.275 HD
ATOM     25  H11 UNL     1      -1.983   0.683  -2.601  1.00  0.00     0.275 HD
ENDBRANCH   5  22
TORSDOF 4
