REMARK  3 active torsions:
REMARK  status: ('A' for Active; 'I' for Inactive)
REMARK    1  A    between atoms: N1_1  and  N2_4 
REMARK    2  A    between atoms: C4_9  and  N3_10 
REMARK    3  A    between atoms: C5_12  and  C6_13 
ROOT
HETATM    1  N2  UNL     1      -4.119   1.300  -0.776  1.00  0.00    -0.292 N 
ATOM      2  H2  UNL     1      -5.126   1.395  -0.906  1.00  0.00     0.188 HD
HETATM    3  C1  UNL     1      -3.598   0.166  -0.449  1.00  0.00     0.120 A 
HETATM    4  C2  UNL     1      -2.216   0.069  -0.280  1.00  0.00     0.067 A 
HETATM    5  C3  UNL     1      -1.631  -1.120   0.066  1.00  0.00     0.040 A 
HETATM    6  C4  UNL     1      -0.249  -1.256   0.245  1.00  0.00     0.118 A 
HETATM    7  N5  UNL     1       0.258  -2.495   0.595  1.00  0.00    -0.338 N 
ATOM      8  H5  UNL     1       1.261  -2.623   0.731  1.00  0.00     0.168 HD
HETATM    9  C11 UNL     1      -0.576  -3.512   0.751  1.00  0.00     0.182 A 
HETATM   10  N6  UNL     1      -1.898  -3.378   0.579  1.00  0.00    -0.350 N 
ATOM     11  H6  UNL     1      -2.503  -4.189   0.709  1.00  0.00     0.166 HD
HETATM   12  C12 UNL     1      -2.442  -2.202   0.240  1.00  0.00     0.062 A 
HETATM   13  C13 UNL     1      -3.806  -2.053   0.060  1.00  0.00     0.120 A 
HETATM   14  N7  UNL     1      -4.401  -0.906  -0.278  1.00  0.00    -0.349 N 
ATOM     15  H7  UNL     1      -5.412  -0.843  -0.401  1.00  0.00     0.167 HD
ENDROOT
BRANCH   6  16
HETATM   16  N3  UNL     1       0.531  -0.342   0.109  1.00  0.00    -0.349 N 
HETATM   17  C5  UNL     1       0.921   0.927  -0.154  1.00  0.00     0.119 C 
ATOM     18  H3  UNL     1       1.421  -0.796   0.313  1.00  0.00     0.167 HD
BRANCH  17  19
HETATM   19  C6  UNL     1       2.427   1.113  -0.079  1.00  0.00     0.047 A 
HETATM   20  C7  UNL     1       3.040   1.463   1.099  1.00  0.00     0.031 A 
HETATM   21  C8  UNL     1       4.408   1.638   1.192  1.00  0.00     0.004 A 
HETATM   22  C9  UNL     1       5.186   1.456   0.069  1.00  0.00     0.017 A 
HETATM   23  C10 UNL     1       4.537   1.105  -1.096  1.00  0.00     0.088 A 
HETATM   24  N4  UNL     1       3.202   0.939  -1.165  1.00  0.00    -0.365 N 
ATOM     25  H4  UNL     1       2.773   0.678  -2.053  1.00  0.00     0.165 HD
ENDBRANCH  17  19
ENDBRANCH   6  16
BRANCH   1  26
HETATM   26  N1  UNL     1      -3.271   2.390  -0.947  1.00  0.00    -0.344 N 
ATOM     27  H12 UNL     1      -2.266   2.279  -0.814  1.00  0.00     0.176 HD
ATOM     28  H11 UNL     1      -3.683   3.287  -1.206  1.00  0.00     0.176 HD
ENDBRANCH   1  26
TORSDOF 3
