REMARK  3 active torsions:
REMARK  status: ('A' for Active; 'I' for Inactive)
REMARK    1  A    between atoms: C5_8  and  C6_9 
REMARK    2  A    between atoms: C11_16  and  N3_17 
REMARK    3  A    between atoms: N5_23  and  N6_25 
ROOT
HETATM    1  C1  UNL     1      -1.162  -3.098  -0.734  1.00  0.00     0.048 C 
HETATM    2  C2  UNL     1      -1.296  -1.765   0.034  1.00  0.00     0.140 C 
HETATM    3  C3  UNL     1      -2.742  -1.421   0.046  1.00  0.00     0.048 C 
HETATM    4  N1  UNL     1      -0.699  -2.025   1.303  1.00  0.00    -0.064 N 
ATOM      5  H11 UNL     1      -0.801  -3.002   1.579  1.00  0.00     0.278 HD
ATOM      6  H12 UNL     1      -1.224  -1.598   2.066  1.00  0.00     0.278 HD
HETATM    7  C4  UNL     1       0.666  -1.612   1.300  1.00  0.00     0.246 C 
HETATM    8  C5  UNL     1       0.939  -1.115  -0.085  1.00  0.00     0.087 C 
HETATM    9  C11 UNL     1      -0.407  -0.752  -0.650  1.00  0.00     0.154 C 
ENDROOT
BRANCH   9  10
HETATM   10  N3  UNL     1      -0.816   0.594  -0.616  1.00  0.00    -0.183 N 
HETATM   11  C12 UNL     1      -0.841   1.431  -1.710  1.00  0.00     0.127 A 
HETATM   12  C13 UNL     1      -1.287   2.673  -1.367  1.00  0.00     0.124 A 
HETATM   13  N4  UNL     1      -1.544   2.628  -0.064  1.00  0.00    -0.199 N 
HETATM   14  C14 UNL     1      -1.265   1.400   0.378  1.00  0.00     0.698 A 
ATOM     15  H4  UNL     1      -1.895   3.401   0.502  1.00  0.00     0.183 HD
HETATM   16  N5  UNL     1      -1.406   1.049   1.598  1.00  0.00    -0.138 N 
ATOM     17  H5  UNL     1      -1.162   0.089   1.843  1.00  0.00     0.205 HD
BRANCH  16  18
HETATM   18  N6  UNL     1      -1.863   1.869   2.612  1.00  0.00    -0.331 N 
ATOM     19  H62 UNL     1      -2.102   2.825   2.349  1.00  0.00     0.177 HD
ATOM     20  H61 UNL     1      -1.976   1.589   3.586  1.00  0.00     0.177 HD
ENDBRANCH  16  18
ENDBRANCH   9  10
BRANCH   8  21
HETATM   21  C6  UNL     1       2.011  -0.178  -0.292  1.00  0.00     0.016 A 
HETATM   22  C7  UNL     1       2.272   0.882   0.541  1.00  0.00     0.025 A 
HETATM   23  C8  UNL     1       3.313   1.775   0.295  1.00  0.00     0.003 A 
HETATM   24  C9  UNL     1       4.102   1.585  -0.816  1.00  0.00     0.017 A 
HETATM   25  C10 UNL     1       3.836   0.528  -1.640  1.00  0.00     0.088 A 
HETATM   26  N2  UNL     1       2.828  -0.295  -1.358  1.00  0.00    -0.369 N 
ATOM     27  H2  UNL     1       2.661  -1.073  -1.997  1.00  0.00     0.165 HD
ENDBRANCH   8  21
TORSDOF 3
