REMARK  4 active torsions:
REMARK  status: ('A' for Active; 'I' for Inactive)
REMARK    1  A    between atoms: C3_3  and  N1_4 
REMARK    2  A    between atoms: N1_4  and  C4_6 
REMARK    3  A    between atoms: C7_11  and  N3_12 
REMARK    4  A    between atoms: N3_12  and  C8_14 
ROOT
HETATM    1  C4  UNL     1      -0.206  -0.251  -0.644  1.00  0.00     0.684 A 
HETATM    2  N2  UNL     1       0.005   0.976  -0.152  1.00  0.00    -0.202 N 
ATOM      3  H2  UNL     1      -0.755   1.656  -0.161  1.00  0.00     0.183 HD
HETATM    4  C5  UNL     1       1.197   1.327   0.352  1.00  0.00     0.110 A 
HETATM    5  C6  UNL     1       2.205   0.382   0.350  1.00  0.00     0.067 A 
HETATM    6  C7  UNL     1       2.011  -0.891  -0.153  1.00  0.00     0.123 A 
HETATM    7  N6  UNL     1       0.794  -1.150  -0.634  1.00  0.00    -0.176 N 
ATOM      8  H6  UNL     1       0.612  -2.079  -1.014  1.00  0.00     0.186 HD
ENDROOT
BRANCH   1   9
HETATM    9  N1  UNL     1      -1.345  -0.614  -1.136  1.00  0.00    -0.188 N 
ATOM     10  H1  UNL     1      -1.442  -1.563  -1.496  1.00  0.00     0.184 HD
BRANCH   9  11
HETATM   11  C3  UNL     1      -2.465   0.253  -1.196  1.00  0.00     0.089 A 
HETATM   12  C2  UNL     1      -3.554   0.193  -0.350  1.00  0.00     0.052 A 
HETATM   13  C1  UNL     1      -3.717  -0.792   0.755  1.00  0.00     0.072 C 
HETATM   14  N8  UNL     1      -4.412   1.142  -0.682  1.00  0.00    -0.299 N 
HETATM   15  N7  UNL     1      -3.919   1.813  -1.710  1.00  0.00    -0.308 N 
HETATM   16  C12 UNL     1      -5.709   1.474  -0.078  1.00  0.00     0.177 C 
HETATM   17  C11 UNL     1      -2.721   1.297  -2.058  1.00  0.00     0.139 A 
ATOM     18  H7  UNL     1      -4.375   2.601  -2.170  1.00  0.00     0.186 HD
ENDBRANCH   9  11
ENDBRANCH   1   9
BRANCH   6  19
HETATM   19  N3  UNL     1       2.977  -1.737  -0.135  1.00  0.00    -0.327 N 
ATOM     20  H3  UNL     1       2.809  -2.670  -0.512  1.00  0.00     0.169 HD
BRANCH  19  21
HETATM   21  C8  UNL     1       4.263  -1.443   0.381  1.00  0.00     0.122 A 
HETATM   22  C9  UNL     1       5.423  -1.122  -0.289  1.00  0.00     0.068 A 
HETATM   23  C10 UNL     1       6.443  -0.914   0.647  1.00  0.00     0.111 A 
HETATM   24  N4  UNL     1       5.861  -1.118   1.839  1.00  0.00    -0.310 N 
HETATM   25  N5  UNL     1       4.588  -1.427   1.682  1.00  0.00    -0.286 N 
ATOM     26  H4  UNL     1       6.336  -1.045   2.739  1.00  0.00     0.186 HD
ATOM     27  H5  UNL     1       3.941  -1.626   2.445  1.00  0.00     0.188 HD
ENDBRANCH  19  21
ENDBRANCH   6  19
TORSDOF 4
