REMARK  5 active torsions:
REMARK  status: ('A' for Active; 'I' for Inactive)
REMARK    1  A    between atoms: C2_3  and  C3_4 
REMARK    2  A    between atoms: C3_4  and  N2_5 
REMARK    3  A    between atoms: N2_5  and  N3_7 
REMARK    4  A    between atoms: N3_7  and  C4_9 
REMARK    5  A    between atoms: C7_14  and  N5_15 
ROOT
HETATM    1  N2  UNL     1       0.802   0.602   0.991  1.00  0.00    -0.307 N 
ATOM      2  H2  UNL     1       0.438  -0.338   1.146  1.00  0.00     0.186 HD
ENDROOT
BRANCH   1   3
HETATM    3  C3  UNL     1       0.065   1.489   0.422  1.00  0.00     0.155 C 
BRANCH   3   4
HETATM    4  C2  UNL     1      -1.300   1.146  -0.003  1.00  0.00     0.125 A 
HETATM    5  N1  UNL     1      -1.897  -0.048   0.141  1.00  0.00    -0.335 N 
HETATM    6  C1  UNL     1      -1.314  -1.239   0.745  1.00  0.00     0.158 C 
HETATM    7  C13 UNL     1      -3.161   0.010  -0.372  1.00  0.00     0.062 A 
HETATM    8  C8  UNL     1      -3.343   1.280  -0.845  1.00  0.00     0.060 A 
HETATM    9  C12 UNL     1      -4.170  -0.933  -0.469  1.00  0.00     0.032 A 
HETATM   10  N7  UNL     1      -2.201   1.940  -0.607  1.00  0.00    -0.339 N 
HETATM   11  C9  UNL     1      -4.561   1.588  -1.419  1.00  0.00     0.032 A 
ATOM     12  H7  UNL     1      -2.037   2.916  -0.852  1.00  0.00     0.167 HD
HETATM   13  C10 UNL     1      -5.593   0.684  -1.537  1.00  0.00     0.002 A 
HETATM   14  C11 UNL     1      -5.374  -0.589  -1.048  1.00  0.00     0.002 A 
ENDBRANCH   3   4
ENDBRANCH   1   3
BRANCH   1  15
HETATM   15  N3  UNL     1       2.090   0.920   1.394  1.00  0.00    -0.285 N 
ATOM     16  H3  UNL     1       2.239   1.658   2.082  1.00  0.00     0.188 HD
BRANCH  15  17
HETATM   17  C4  UNL     1       3.096   0.289   0.904  1.00  0.00     0.136 A 
HETATM   18  C5  UNL     1       2.877  -0.699  -0.021  1.00  0.00     0.068 A 
HETATM   19  C6  UNL     1       3.918  -1.429  -0.598  1.00  0.00     0.110 A 
HETATM   20  N4  UNL     1       5.165  -1.102  -0.191  1.00  0.00    -0.202 N 
HETATM   21  C7  UNL     1       5.375  -0.122   0.726  1.00  0.00     0.677 A 
ATOM     22  H4  UNL     1       5.965  -1.601  -0.580  1.00  0.00     0.183 HD
HETATM   23  N6  UNL     1       4.362   0.569   1.270  1.00  0.00    -0.176 N 
ATOM     24  H6  UNL     1       4.549   1.301   1.956  1.00  0.00     0.186 HD
BRANCH  21  25
HETATM   25  N5  UNL     1       6.606   0.106   1.041  1.00  0.00    -0.234 N 
ATOM     26  H52 UNL     1       7.376  -0.419   0.627  1.00  0.00     0.174 HD
ATOM     27  H51 UNL     1       6.764   0.842   1.730  1.00  0.00     0.174 HD
ENDBRANCH  21  25
ENDBRANCH  15  17
ENDBRANCH   1  15
TORSDOF 5
