REMARK  4 active torsions:
REMARK  status: ('A' for Active; 'I' for Inactive)
REMARK       I    between atoms: C1_4  and  N3_6 
REMARK    1  A    between atoms: C4_9  and  N4_10 
REMARK    2  A    between atoms: N4_10  and  C5_12 
REMARK    3  A    between atoms: C13_22  and  C14_23 
REMARK    4  A    between atoms: C14_23  and  O1_24 
ROOT
HETATM    1  N1  UNL     1      -4.287  -1.280  -1.303  1.00  0.00    -0.374 N 
ATOM      2  H11 UNL     1      -3.780  -1.165  -2.180  1.00  0.00     0.158 HD
ATOM      3  H12 UNL     1      -5.122  -1.866  -1.309  1.00  0.00     0.158 HD
HETATM    4  C1  UNL     1      -3.844  -0.679  -0.243  1.00  0.00     0.184 C 
HETATM    5  N2  UNL     1      -4.550  -0.839   0.978  1.00  0.00    -0.064 NA
HETATM    6  N3  UNL     1      -2.695   0.128  -0.235  1.00  0.00    -0.345 N 
HETATM    7  C2  UNL     1      -1.981   0.922  -1.197  1.00  0.00     0.096 C 
HETATM    8  C3  UNL     1      -0.735   0.287  -1.739  1.00  0.00     0.057 C 
HETATM    9  C4  UNL     1       0.241   0.439  -0.558  1.00  0.00     0.041 C 
HETATM   10  C10 UNL     1      -0.068   1.917  -0.247  1.00  0.00     0.040 C 
HETATM   11  C11 UNL     1      -1.542   1.790  -0.047  1.00  0.00     0.034 C 
HETATM   12  C12 UNL     1      -1.713   0.527   0.738  1.00  0.00     0.102 C 
HETATM   13  C13 UNL     1      -0.383  -0.235   0.609  1.00  0.00     0.061 C 
ENDROOT
BRANCH   9  14
HETATM   14  N4  UNL     1       1.526   0.133  -0.894  1.00  0.00    -0.366 N 
ATOM     15  H4  UNL     1       1.575  -0.248  -1.839  1.00  0.00     0.162 HD
BRANCH  14  16
HETATM   16  C5  UNL     1       2.653   0.186  -0.378  1.00  0.00     0.101 A 
HETATM   17  C6  UNL     1       2.934   0.645   0.876  1.00  0.00     0.048 A 
HETATM   18  C7  UNL     1       4.221   0.677   1.394  1.00  0.00     0.005 A 
HETATM   19  C8  UNL     1       5.285   0.236   0.640  1.00  0.00     0.017 A 
HETATM   20  C9  UNL     1       4.964  -0.222  -0.625  1.00  0.00     0.089 A 
HETATM   21  N5  UNL     1       3.751  -0.253  -1.114  1.00  0.00    -0.353 N 
ATOM     22  H5  UNL     1       3.605  -0.608  -2.059  1.00  0.00     0.166 HD
ENDBRANCH  14  16
ENDBRANCH   9  14
BRANCH  13  23
HETATM   23  C14 UNL     1      -0.677  -1.710   0.395  1.00  0.00     0.173 C 
BRANCH  23  24
HETATM   24  O1  UNL     1      -1.247  -2.218   1.575  1.00  0.00    -0.400 OA
ATOM     25  H1  UNL     1      -1.431  -3.140   1.441  1.00  0.00     0.209 HD
ENDBRANCH  23  24
ENDBRANCH  13  23
TORSDOF 4
