REMARK  6 active torsions:
REMARK  status: ('A' for Active; 'I' for Inactive)
REMARK    1  A    between atoms: C2_2  and  C3_3 
REMARK    2  A    between atoms: C4_4  and  C5_5 
REMARK    3  A    between atoms: C5_5  and  N1_6 
REMARK    4  A    between atoms: C6_12  and  C7_13 
REMARK    5  A    between atoms: C7_13  and  C8_14 
REMARK    6  A    between atoms: C8_14  and  C9_15 
ROOT
HETATM    1  C3  UNL     1      -2.043  -0.651  -0.044  1.00  0.00     0.036 C 
HETATM    2  C4  UNL     1      -1.716   0.664  -0.742  1.00  0.00     0.110 C 
HETATM    3  N2  UNL     1      -0.461   0.701  -1.386  1.00  0.00    -0.410 N 
ATOM      4  H2  UNL     1      -0.371   1.103  -2.319  1.00  0.00     0.154 HD
HETATM    5  C6  UNL     1       0.685   0.167  -0.713  1.00  0.00     0.081 C 
HETATM    6  C11 UNL     1       0.264  -0.673   0.399  1.00  0.00     0.013 A 
HETATM    7  C12 UNL     1       0.113  -2.069   0.586  1.00  0.00     0.012 A 
HETATM    8  C13 UNL     1      -0.881  -1.526  -0.254  1.00  0.00     0.002 A 
ENDROOT
BRANCH   2   9
HETATM    9  C5  UNL     1      -2.008   1.858   0.142  1.00  0.00     0.254 C 
BRANCH   9  10
HETATM   10  N1  UNL     1      -3.422   1.869   0.497  1.00  0.00    -0.077 N 
ATOM     11  H13 UNL     1      -4.025   1.842  -0.325  1.00  0.00     0.274 HD
ATOM     12  H12 UNL     1      -3.718   0.992   0.925  1.00  0.00     0.274 HD
ATOM     13  H11 UNL     1      -3.619   2.673   1.093  1.00  0.00     0.274 HD
ENDBRANCH   9  10
ENDBRANCH   2   9
BRANCH   1  14
HETATM   14  C2  UNL     1      -3.287  -1.277  -0.538  1.00  0.00    -0.030 C 
HETATM   15  C1  UNL     1      -4.321  -1.531   0.240  1.00  0.00     0.007 C 
ENDBRANCH   1  14
BRANCH   5  16
HETATM   16  C7  UNL     1       1.604   1.282  -0.234  1.00  0.00     0.025 C 
BRANCH  16  17
HETATM   17  C8  UNL     1       2.809   0.746   0.473  1.00  0.00     0.002 C 
BRANCH  17  18
HETATM   18  C9  UNL     1       3.654  -0.154  -0.394  1.00  0.00    -0.004 C 
HETATM   19  C10 UNL     1       4.834  -0.627   0.430  1.00  0.00     0.005 C 
ENDBRANCH  17  18
ENDBRANCH  16  17
ENDBRANCH   5  16
TORSDOF 6
