REMARK  5 active torsions:
REMARK  status: ('A' for Active; 'I' for Inactive)
REMARK    1  A    between atoms: N1_2  and  C2_5 
REMARK    2  A    between atoms: C2_5  and  C3_6 
REMARK    3  A    between atoms: C3_6  and  C4_7 
REMARK    4  A    between atoms: C4_7  and  C5_8 
REMARK    5  A    between atoms: C10_13  and  N2_14 
ROOT
HETATM    1  C5  UNL     1       0.004  -0.425  -0.816  1.00  0.00     0.223 C 
HETATM    2  C6  UNL     1      -0.464  -1.839  -0.947  1.00  0.00     0.036 C 
HETATM    3  C7  UNL     1      -1.931  -2.015  -0.986  1.00  0.00     0.004 C 
HETATM    4  C8  UNL     1      -2.757  -0.803  -1.106  1.00  0.00     0.038 C 
HETATM    5  C9  UNL     1      -2.143   0.487  -0.739  1.00  0.00     0.253 C 
HETATM    6  C10 UNL     1      -2.969   1.233   0.308  1.00  0.00     0.218 C 
HETATM    7  C11 UNL     1      -2.614   0.426   1.547  1.00  0.00     0.065 C 
HETATM    8  C12 UNL     1      -1.194  -0.028   1.239  1.00  0.00     0.275 C 
HETATM    9  N3  UNL     1      -0.882   0.413  -0.073  1.00  0.00     0.100 N 
ENDROOT
BRANCH   1  10
HETATM   10  C4  UNL     1       1.434  -0.385  -0.309  1.00  0.00     0.037 C 
BRANCH  10  11
HETATM   11  C3  UNL     1       1.928   1.023  -0.169  1.00  0.00     0.029 C 
BRANCH  11  12
HETATM   12  C2  UNL     1       3.365   0.947   0.342  1.00  0.00     0.231 C 
BRANCH  12  13
HETATM   13  N1  UNL     1       4.112   0.204  -0.653  1.00  0.00    -0.079 N 
HETATM   14  C1  UNL     1       5.505   0.065  -0.272  1.00  0.00     0.266 C 
ATOM     15  H12 UNL     1       4.017   0.620  -1.580  1.00  0.00     0.276 HD
ATOM     16  H11 UNL     1       3.684  -0.702  -0.843  1.00  0.00     0.276 HD
ENDBRANCH  12  13
ENDBRANCH  11  12
ENDBRANCH  10  11
ENDBRANCH   1  10
BRANCH   6  17
HETATM   17  N2  UNL     1      -4.364   1.217   0.010  1.00  0.00    -0.073 N 
ATOM     18  H23 UNL     1      -4.544   1.578  -0.927  1.00  0.00     0.274 HD
ATOM     19  H22 UNL     1      -4.703   0.263  -0.115  1.00  0.00     0.274 HD
ATOM     20  H21 UNL     1      -4.915   1.715   0.709  1.00  0.00     0.274 HD
ENDBRANCH   6  17
TORSDOF 5
