REMARK  7 active torsions:
REMARK  status: ('A' for Active; 'I' for Inactive)
REMARK    1  A    between atoms: C2_2  and  C3_3 
REMARK    2  A    between atoms: C3_3  and  N1_4 
REMARK    3  A    between atoms: N1_4  and  C4_6 
REMARK    4  A    between atoms: C4_6  and  N2_8 
REMARK    5  A    between atoms: N2_8  and  N3_10 
REMARK    6  A    between atoms: C5_12  and  C6_13 
REMARK    7  A    between atoms: C7_14  and  C8_15 
ROOT
HETATM    1  N2  UNL     1      -0.870  -0.755  -0.640  1.00  0.00    -0.277 N 
ATOM      2  H2  UNL     1      -0.897  -0.471   0.339  1.00  0.00     0.189 HD
ENDROOT
BRANCH   1   3
HETATM    3  C4  UNL     1      -2.052  -0.786  -1.413  1.00  0.00     0.186 C 
HETATM    4  S1  UNL     1      -2.060  -1.233  -2.978  1.00  0.00    -0.040 SA
BRANCH   3   5
HETATM    5  N1  UNL     1      -3.285  -0.417  -0.816  1.00  0.00    -0.363 N 
ATOM      6  H1  UNL     1      -4.153  -0.431  -1.351  1.00  0.00     0.162 HD
BRANCH   5   7
HETATM    7  C3  UNL     1      -3.272  -0.022   0.569  1.00  0.00     0.148 C 
BRANCH   7   8
HETATM    8  C2  UNL     1      -4.566   0.350   1.145  1.00  0.00    -0.018 C 
HETATM    9  C1  UNL     1      -5.696   0.349   0.505  1.00  0.00     0.008 C 
ENDBRANCH   7   8
ENDBRANCH   5   7
ENDBRANCH   3   5
ENDBRANCH   1   3
BRANCH   1  10
HETATM   10  N3  UNL     1       0.321  -1.116  -1.233  1.00  0.00    -0.310 N 
HETATM   11  C5  UNL     1       1.467  -0.555  -0.970  1.00  0.00     0.107 C 
ATOM     12  H3  UNL     1       0.304  -1.869  -1.921  1.00  0.00     0.186 HD
BRANCH  11  13
HETATM   13  C6  UNL     1       1.594   0.514  -0.018  1.00  0.00     0.015 C 
HETATM   14  C7  UNL     1       2.703   1.113   0.299  1.00  0.00    -0.021 C 
BRANCH  14  15
HETATM   15  C8  UNL     1       4.008   0.748  -0.305  1.00  0.00     0.008 A 
HETATM   16  C9  UNL     1       4.448  -0.670  -0.230  1.00  0.00     0.009 A 
HETATM   17  C10 UNL     1       5.100   0.313   0.652  1.00  0.00     0.009 A 
ENDBRANCH  14  15
ENDBRANCH  11  13
ENDBRANCH   1  10
TORSDOF 7
