REMARK  5 active torsions:
REMARK  status: ('A' for Active; 'I' for Inactive)
REMARK    1  A    between atoms: C2_2  and  N1_3 
REMARK    2  A    between atoms: N1_3  and  C3_5 
REMARK    3  A    between atoms: C3_5  and  C4_6 
REMARK    4  A    between atoms: C4_6  and  N2_7 
REMARK    5  A    between atoms: N2_7  and  C5_9 
ROOT
HETATM    1  C5  UNL     1       0.988   0.090  -0.165  1.00  0.00     0.030 C 
HETATM    2  C6  UNL     1       1.088   1.217   0.834  1.00  0.00     0.035 C 
HETATM    3  C7  UNL     1       2.545   1.102   1.258  1.00  0.00    -0.011 C 
HETATM    4  C8  UNL     1       3.451   1.327   0.071  1.00  0.00     0.009 C 
HETATM    5  C9  UNL     1       3.110   0.443  -1.082  1.00  0.00    -0.011 C 
HETATM    6  C10 UNL     1       3.061  -1.032  -0.659  1.00  0.00     0.012 C 
HETATM    7  C11 UNL     1       1.927  -0.966   0.359  1.00  0.00     0.014 C 
HETATM    8  C12 UNL     1       2.565  -0.391   1.625  1.00  0.00     0.012 C 
HETATM    9  C13 UNL     1       1.628   0.616  -1.448  1.00  0.00     0.035 C 
ENDROOT
BRANCH   1  10
HETATM   10  N2  UNL     1      -0.314  -0.339  -0.450  1.00  0.00    -0.411 N 
ATOM     11  H2  UNL     1      -0.703  -0.224  -1.386  1.00  0.00     0.154 HD
BRANCH  10  12
HETATM   12  C4  UNL     1      -1.090  -0.940   0.589  1.00  0.00     0.133 C 
BRANCH  12  13
HETATM   13  C3  UNL     1      -2.519  -1.096   0.026  1.00  0.00     0.133 C 
BRANCH  13  14
HETATM   14  N1  UNL     1      -2.986   0.231  -0.285  1.00  0.00    -0.420 N 
ATOM     15  H1  UNL     1      -2.408   1.056  -0.127  1.00  0.00     0.153 HD
BRANCH  14  16
HETATM   16  C2  UNL     1      -4.293   0.325  -0.822  1.00  0.00     0.109 C 
HETATM   17  C1  UNL     1      -5.380  -0.035   0.154  1.00  0.00     0.026 C 
ENDBRANCH  14  16
ENDBRANCH  13  14
ENDBRANCH  12  13
ENDBRANCH  10  12
ENDBRANCH   1  10
TORSDOF 5
