REMARK  5 active torsions:
REMARK  status: ('A' for Active; 'I' for Inactive)
REMARK    1  A    between atoms: N1_2  and  C2_5 
REMARK    2  A    between atoms: C2_5  and  C3_6 
REMARK    3  A    between atoms: C3_6  and  C4_7 
REMARK    4  A    between atoms: C4_7  and  N2_8 
REMARK    5  A    between atoms: N2_8  and  C5_10 
ROOT
HETATM    1  C5  UNL     1      -0.659  -0.335   0.723  1.00  0.00     0.081 C 
HETATM    2  C6  UNL     1      -0.790  -0.732  -0.728  1.00  0.00     0.030 C 
HETATM    3  C7  UNL     1      -2.323  -0.708  -0.907  1.00  0.00    -0.004 C 
HETATM    4  C8  UNL     1      -2.848  -1.708   0.089  1.00  0.00     0.006 C 
HETATM    5  C9  UNL     1      -2.877  -0.990   1.443  1.00  0.00     0.008 C 
HETATM    6  C10 UNL     1      -1.986   0.233   1.121  1.00  0.00     0.017 C 
HETATM    7  C11 UNL     1      -2.627   0.581  -0.186  1.00  0.00    -0.031 A 
HETATM    8  C12 UNL     1      -4.019   1.080  -0.085  1.00  0.00     0.011 A 
HETATM    9  C13 UNL     1      -2.886   1.859  -0.757  1.00  0.00     0.011 A 
ENDROOT
BRANCH   1  10
HETATM   10  N2  UNL     1       0.457   0.489   0.978  1.00  0.00    -0.417 N 
ATOM     11  H2  UNL     1       0.319   1.453   1.282  1.00  0.00     0.153 HD
BRANCH  10  12
HETATM   12  C4  UNL     1       1.765  -0.016   0.814  1.00  0.00     0.115 C 
BRANCH  12  13
HETATM   13  C3  UNL     1       2.278  -0.296  -0.545  1.00  0.00     0.046 C 
BRANCH  13  14
HETATM   14  C2  UNL     1       3.711  -0.850  -0.451  1.00  0.00     0.233 C 
BRANCH  14  15
HETATM   15  N1  UNL     1       4.628   0.062   0.150  1.00  0.00    -0.079 N 
HETATM   16  C1  UNL     1       4.939   1.218  -0.660  1.00  0.00     0.266 C 
ATOM     17  H12 UNL     1       5.484  -0.422   0.422  1.00  0.00     0.276 HD
ATOM     18  H11 UNL     1       4.291   0.352   1.068  1.00  0.00     0.276 HD
ENDBRANCH  14  15
ENDBRANCH  13  14
ENDBRANCH  12  13
ENDBRANCH  10  12
ENDBRANCH   1  10
TORSDOF 5
