REMARK  6 active torsions:
REMARK  status: ('A' for Active; 'I' for Inactive)
REMARK    1  A    between atoms: C2_2  and  C3_3 
REMARK    2  A    between atoms: C3_3  and  C4_4 
REMARK    3  A    between atoms: C4_4  and  C5_5 
REMARK    4  A    between atoms: C5_5  and  N1_6 
REMARK    5  A    between atoms: N1_6  and  C6_8 
REMARK    6  A    between atoms: C6_8  and  C7_12 
ROOT
HETATM    1  C6  UNL     1      -0.720   0.519  -0.613  1.00  0.00     0.102 C 
HETATM    2  N2  UNL     1      -0.796   0.640  -1.882  1.00  0.00    -0.387 N 
ATOM      3  H21 UNL     1      -1.533   0.161  -2.400  1.00  0.00     0.157 HD
ATOM      4  H22 UNL     1      -0.124   1.216  -2.388  1.00  0.00     0.157 HD
ENDROOT
BRANCH   1   5
HETATM    5  N1  UNL     1       0.301   1.183   0.105  1.00  0.00    -0.378 N 
ATOM      6  H1  UNL     1       0.287   2.191   0.260  1.00  0.00     0.160 HD
BRANCH   5   7
HETATM    7  C5  UNL     1       1.385   0.329   0.614  1.00  0.00     0.121 C 
BRANCH   7   8
HETATM    8  C4  UNL     1       2.127  -0.154  -0.615  1.00  0.00     0.020 C 
BRANCH   8   9
HETATM    9  C3  UNL     1       3.279  -1.050  -0.280  1.00  0.00     0.001 C 
BRANCH   9  10
HETATM   10  C2  UNL     1       4.307  -0.371   0.589  1.00  0.00    -0.004 C 
HETATM   11  C1  UNL     1       4.895   0.848  -0.061  1.00  0.00     0.005 C 
ENDBRANCH   9  10
ENDBRANCH   8   9
ENDBRANCH   7   8
ENDBRANCH   5   7
ENDBRANCH   1   5
BRANCH   1  12
HETATM   12  C7  UNL     1      -1.686  -0.309   0.114  1.00  0.00     0.252 C 
HETATM   13  C8  UNL     1      -2.694  -0.931  -0.828  1.00  0.00     0.041 C 
HETATM   14  C9  UNL     1      -3.854  -1.410   0.032  1.00  0.00     0.004 C 
HETATM   15  C10 UNL     1      -4.573  -0.235   0.670  1.00  0.00     0.027 C 
HETATM   16  C11 UNL     1      -3.623   0.945   0.639  1.00  0.00     0.233 C 
HETATM   17  N3  UNL     1      -2.339   0.471   1.138  1.00  0.00    -0.064 N 
ATOM     18  H32 UNL     1      -2.431  -0.042   2.015  1.00  0.00     0.278 HD
ATOM     19  H31 UNL     1      -1.751   1.233   1.477  1.00  0.00     0.278 HD
ENDBRANCH   1  12
TORSDOF 6
