REMARK  5 active torsions:
REMARK  status: ('A' for Active; 'I' for Inactive)
REMARK    1  A    between atoms: N1_1  and  C1_4 
REMARK    2  A    between atoms: C3_10  and  N4_11 
REMARK    3  A    between atoms: N4_11  and  C4_13 
REMARK    4  A    between atoms: C4_13  and  C5_14 
REMARK    5  A    between atoms: C5_14  and  N5_15 
ROOT
HETATM    1  C1  UNL     1      -2.754   0.526  -0.193  1.00  0.00     0.691 A 
HETATM    2  N2  UNL     1      -3.123   0.498   1.088  1.00  0.00    -0.187 N 
ATOM      3  H2  UNL     1      -4.105   0.650   1.316  1.00  0.00     0.185 HD
HETATM    4  C2  UNL     1      -2.250   0.276   2.098  1.00  0.00     0.215 A 
HETATM    5  N3  UNL     1      -0.960   0.076   1.799  1.00  0.00    -0.187 N 
ATOM      6  H3  UNL     1      -0.284  -0.092   2.544  1.00  0.00     0.185 HD
HETATM    7  C3  UNL     1      -0.552   0.097   0.509  1.00  0.00     0.693 A 
HETATM    8  N6  UNL     1      -1.462   0.324  -0.477  1.00  0.00    -0.023 N 
ATOM      9  H6  UNL     1      -1.154   0.340  -1.449  1.00  0.00     0.203 HD
ENDROOT
BRANCH   7  10
HETATM   10  N4  UNL     1       0.684  -0.099   0.277  1.00  0.00    -0.224 N 
ATOM     11  H4  UNL     1       1.286  -0.260   1.084  1.00  0.00     0.177 HD
BRANCH  10  12
HETATM   12  C4  UNL     1       1.305  -0.115  -1.007  1.00  0.00     0.165 C 
BRANCH  12  13
HETATM   13  C5  UNL     1       2.592  -0.951  -0.999  1.00  0.00     0.249 C 
BRANCH  13  14
HETATM   14  N5  UNL     1       3.544  -0.406  -0.048  1.00  0.00    -0.078 N 
ATOM     15  H53 UNL     1       3.733   0.581  -0.223  1.00  0.00     0.274 HD
ATOM     16  H52 UNL     1       3.141  -0.320   0.885  1.00  0.00     0.274 HD
ATOM     17  H51 UNL     1       4.399  -0.962  -0.043  1.00  0.00     0.274 HD
ENDBRANCH  13  14
ENDBRANCH  12  13
ENDBRANCH  10  12
ENDBRANCH   7  10
BRANCH   1  18
HETATM   18  N1  UNL     1      -3.623   0.741  -1.122  1.00  0.00    -0.234 N 
ATOM     19  H12 UNL     1      -4.608   0.895  -0.906  1.00  0.00     0.174 HD
ATOM     20  H11 UNL     1      -3.341   0.762  -2.102  1.00  0.00     0.174 HD
ENDBRANCH   1  18
TORSDOF 5
