REMARK  5 active torsions:
REMARK  status: ('A' for Active; 'I' for Inactive)
REMARK    1  A    between atoms: N1_1  and  C1_5 
REMARK    2  A    between atoms: C1_5  and  C2_6 
REMARK    3  A    between atoms: C2_6  and  C3_7 
REMARK    4  A    between atoms: C3_7  and  N2_8 
REMARK    5  A    between atoms: N2_8  and  C4_10 
ROOT
HETATM    1  C4  UNL     1       1.848  -0.236  -0.607  1.00  0.00     0.709 A 
HETATM    2  N3  UNL     1       2.634  -0.258  -1.720  1.00  0.00    -0.115 N 
ATOM      3  H3  UNL     1       2.335  -0.494  -2.666  1.00  0.00     0.207 HD
HETATM    4  N4  UNL     1       3.856   0.084  -1.346  1.00  0.00    -0.213 N 
ATOM      5  H4  UNL     1       4.655   0.151  -1.976  1.00  0.00     0.210 HD
HETATM    6  N5  UNL     1       3.903   0.324  -0.063  1.00  0.00    -0.213 N 
ATOM      7  H5  UNL     1       4.720   0.605   0.479  1.00  0.00     0.210 HD
HETATM    8  N6  UNL     1       2.676   0.129   0.390  1.00  0.00    -0.115 N 
ATOM      9  H6  UNL     1       2.395   0.240   1.364  1.00  0.00     0.207 HD
ENDROOT
BRANCH   1  10
HETATM   10  N2  UNL     1       0.580  -0.512  -0.553  1.00  0.00    -0.223 N 
ATOM     11  H2  UNL     1       0.060  -0.778  -1.389  1.00  0.00     0.177 HD
BRANCH  10  12
HETATM   12  C3  UNL     1      -0.059  -0.428   0.725  1.00  0.00     0.140 C 
BRANCH  12  13
HETATM   13  C2  UNL     1      -1.549  -0.509   0.668  1.00  0.00     0.047 C 
BRANCH  13  14
HETATM   14  C1  UNL     1      -2.197   0.564  -0.138  1.00  0.00     0.231 C 
BRANCH  14  15
HETATM   15  N1  UNL     1      -3.639   0.332  -0.085  1.00  0.00    -0.079 N 
ATOM     16  H13 UNL     1      -3.904  -0.607  -0.383  1.00  0.00     0.274 HD
ATOM     17  H12 UNL     1      -4.000   0.274   0.867  1.00  0.00     0.274 HD
ATOM     18  H11 UNL     1      -4.083   1.066  -0.637  1.00  0.00     0.274 HD
ENDBRANCH  14  15
ENDBRANCH  13  14
ENDBRANCH  12  13
ENDBRANCH  10  12
ENDBRANCH   1  10
TORSDOF 5
