REMARK  5 active torsions:
REMARK  status: ('A' for Active; 'I' for Inactive)
REMARK    1  A    between atoms: N1_1  and  C1_5 
REMARK    2  A    between atoms: C1_5  and  C2_6 
REMARK    3  A    between atoms: C2_6  and  N2_7 
REMARK    4  A    between atoms: N2_7  and  C3_9 
REMARK    5  A    between atoms: C6_15  and  N4_16 
ROOT
HETATM    1  C3  UNL     1      -0.714  -0.197  -0.415  1.00  0.00     0.136 C 
HETATM    2  C4  UNL     1      -1.264   1.168  -0.877  1.00  0.00     0.056 C 
HETATM    3  C5  UNL     1      -1.643   1.734   0.489  1.00  0.00     0.237 C 
HETATM    4  N3  UNL     1      -2.330   0.630   1.099  1.00  0.00    -0.044 N 
ATOM      5  H31 UNL     1      -3.344   0.700   1.011  1.00  0.00     0.279 HD
ATOM      6  H32 UNL     1      -2.279   0.649   2.118  1.00  0.00     0.279 HD
HETATM    7  C6  UNL     1      -1.804  -0.592   0.537  1.00  0.00     0.402 C 
ENDROOT
BRANCH   1   8
HETATM    8  N2  UNL     1       0.533   0.089   0.199  1.00  0.00    -0.412 N 
ATOM      9  H2  UNL     1       0.781   1.024   0.522  1.00  0.00     0.153 HD
BRANCH   8  10
HETATM   10  C2  UNL     1       1.419  -1.031   0.332  1.00  0.00     0.141 C 
BRANCH  10  11
HETATM   11  C1  UNL     1       2.786  -0.444   0.723  1.00  0.00     0.248 C 
BRANCH  11  12
HETATM   12  N1  UNL     1       3.106   0.439  -0.421  1.00  0.00    -0.078 N 
ATOM     13  H13 UNL     1       3.084  -0.019  -1.332  1.00  0.00     0.274 HD
ATOM     14  H12 UNL     1       2.390   1.133  -0.637  1.00  0.00     0.274 HD
ATOM     15  H11 UNL     1       4.012   0.828  -0.162  1.00  0.00     0.274 HD
ENDBRANCH  11  12
ENDBRANCH  10  11
ENDBRANCH   8  10
ENDBRANCH   1   8
BRANCH   7  16
HETATM   16  N4  UNL     1      -1.368  -1.479   1.567  1.00  0.00    -0.048 N 
ATOM     17  H43 UNL     1      -0.922  -2.304   1.167  1.00  0.00     0.276 HD
ATOM     18  H42 UNL     1      -0.574  -1.084   2.071  1.00  0.00     0.276 HD
ATOM     19  H41 UNL     1      -2.109  -1.748   2.214  1.00  0.00     0.276 HD
ENDBRANCH   7  16
TORSDOF 5
