REMARK  8 active torsions:
REMARK  status: ('A' for Active; 'I' for Inactive)
REMARK    1  A    between atoms: C1_2  and  C2_4 
REMARK    2  A    between atoms: C2_4  and  C3_5 
REMARK    3  A    between atoms: C3_5  and  C4_6 
REMARK    4  A    between atoms: C4_6  and  C5_7 
REMARK    5  A    between atoms: C5_7  and  C6_8 
REMARK    6  A    between atoms: C6_8  and  C7_9 
REMARK    7  A    between atoms: C7_9  and  C8_10 
REMARK       I    between atoms: C8_10  and  N1_12 
REMARK    8  A    between atoms: N1_12  and  C9_14 
ROOT
HETATM    1  C8  UNL     1       0.260  -0.019  -0.144  1.00  0.00     0.217 C 
HETATM    2  O3  UNL     1       0.261   1.155   0.267  1.00  0.00    -0.274 OA
HETATM    3  N1  UNL     1      -0.965  -0.704  -0.300  1.00  0.00    -0.356 N 
ATOM      4  H1  UNL     1      -0.936  -1.666  -0.638  1.00  0.00     0.162 HD
ENDROOT
BRANCH   3   5
HETATM    5  C9  UNL     1      -2.246  -0.130  -0.012  1.00  0.00     0.092 C 
HETATM    6  C10 UNL     1      -3.055  -0.076  -1.286  1.00  0.00     0.009 C 
HETATM    7  C11 UNL     1      -4.287   0.790  -1.048  1.00  0.00     0.011 C 
HETATM    8  C15 UNL     1      -3.425  -1.457  -1.706  1.00  0.00     0.011 C 
HETATM    9  C12 UNL     1      -5.101   0.159   0.034  1.00  0.00    -0.013 C 
HETATM   10  C13 UNL     1      -5.569  -1.192  -0.481  1.00  0.00     0.009 C 
HETATM   11  C18 UNL     1      -4.285   0.026   1.282  1.00  0.00     0.011 C 
HETATM   12  C14 UNL     1      -4.351  -2.054  -0.672  1.00  0.00    -0.013 C 
HETATM   13  C16 UNL     1      -3.568  -2.183   0.605  1.00  0.00     0.011 C 
HETATM   14  C17 UNL     1      -3.046  -0.842   1.022  1.00  0.00     0.009 C 
ENDBRANCH   3   5
BRANCH   1  15
HETATM   15  C7  UNL     1       1.529  -0.688  -0.465  1.00  0.00     0.103 C 
BRANCH  15  16
HETATM   16  C6  UNL     1       2.723   0.245  -0.171  1.00  0.00     0.009 C 
BRANCH  16  17
HETATM   17  C5  UNL     1       4.010  -0.457  -0.508  1.00  0.00     0.000 C 
BRANCH  17  18
HETATM   18  C4  UNL     1       5.174   0.449  -0.248  1.00  0.00     0.001 C 
BRANCH  18  19
HETATM   19  C3  UNL     1       5.248   0.819   1.183  1.00  0.00     0.010 C 
BRANCH  19  20
HETATM   20  C2  UNL     1       6.412   1.709   1.534  1.00  0.00     0.113 C 
BRANCH  20  21
HETATM   21  C1  UNL     1       6.459   3.000   0.874  1.00  0.00     0.172 C 
HETATM   22  O1  UNL     1       7.459   3.737   1.128  1.00  0.00    -0.648 OA
HETATM   23  O2  UNL     1       5.539   3.535  -0.010  1.00  0.00    -0.648 OA
ENDBRANCH  20  21
ENDBRANCH  19  20
ENDBRANCH  18  19
ENDBRANCH  17  18
ENDBRANCH  16  17
ENDBRANCH  15  16
ENDBRANCH   1  15
TORSDOF 8
