REMARK  8 active torsions:
REMARK  status: ('A' for Active; 'I' for Inactive)
REMARK    1  A    between atoms: C2_2  and  N1_3 
REMARK    2  A    between atoms: C7_12  and  C8_13 
REMARK    3  A    between atoms: C9_14  and  C10_15 
REMARK    4  A    between atoms: C13_18  and  N4_19 
REMARK    5  A    between atoms: C15_25  and  C16_26 
REMARK    6  A    between atoms: C19_29  and  S1_30 
REMARK    7  A    between atoms: S1_30  and  N6_33 
REMARK    8  A    between atoms: N6_33  and  N7_35 
ROOT
HETATM    1  N1  UNL     1      -0.774  -3.998   0.367  1.00  0.00    -0.341 N 
HETATM    2  C3  UNL     1      -1.537  -5.100   0.584  1.00  0.00     0.185 C 
HETATM    3  N2  UNL     1      -2.896  -5.237   0.534  1.00  0.00    -0.338 N 
ATOM      4  H2  UNL     1      -3.245  -6.193   0.598  1.00  0.00     0.168 HD
HETATM    5  C4  UNL     1      -3.825  -4.292   0.413  1.00  0.00     0.119 A 
HETATM    6  N3  UNL     1      -5.152  -4.136   0.378  1.00  0.00    -0.351 N 
ATOM      7  H3  UNL     1      -5.943  -4.777   0.441  1.00  0.00     0.166 HD
HETATM    8  C5  UNL     1      -5.038  -2.812   0.228  1.00  0.00     0.106 A 
HETATM    9  C6  UNL     1      -3.672  -2.987   0.265  1.00  0.00     0.044 A 
HETATM   10  C7  UNL     1      -2.505  -2.240   0.194  1.00  0.00     0.061 C 
HETATM   11  C15 UNL     1      -1.227  -2.736   0.323  1.00  0.00     0.065 C 
ENDROOT
BRANCH  11  12
HETATM   12  C16 UNL     1      -0.201  -1.707   0.437  1.00  0.00    -0.008 A 
HETATM   13  C17 UNL     1       0.425  -1.122  -0.644  1.00  0.00     0.015 A 
HETATM   14  C18 UNL     1       1.398  -0.149  -0.454  1.00  0.00     0.023 A 
HETATM   15  C19 UNL     1       1.776   0.270   0.806  1.00  0.00     0.039 A 
HETATM   16  C22 UNL     1       1.165  -0.299   1.888  1.00  0.00     0.023 A 
HETATM   17  C23 UNL     1       0.201  -1.263   1.691  1.00  0.00     0.015 A 
BRANCH  15  18
HETATM   18  S1  UNL     1       3.003   1.494   0.918  1.00  0.00     0.066 S 
HETATM   19  C20 UNL     1       4.620   0.733   0.996  1.00  0.00     0.143 C 
HETATM   20  O1  UNL     1       2.856   2.353   2.139  1.00  0.00    -0.244 OA
BRANCH  18  21
HETATM   21  N6  UNL     1       3.008   2.454  -0.320  1.00  0.00    -0.255 N 
ATOM     22  H6  UNL     1       2.457   2.255  -1.155  1.00  0.00     0.197 HD
BRANCH  21  23
HETATM   23  N7  UNL     1       3.809   3.600  -0.222  1.00  0.00    -0.291 N 
HETATM   24  C21 UNL     1       4.634   3.955  -1.148  1.00  0.00     0.207 C 
HETATM   25  N8  UNL     1       5.390   5.139  -0.930  1.00  0.00    -0.095 NA
ATOM     26  H7  UNL     1       3.737   4.177   0.616  1.00  0.00     0.188 HD
ENDBRANCH  21  23
ENDBRANCH  18  21
ENDBRANCH  15  18
ENDBRANCH  11  12
BRANCH   1  27
HETATM   27  C2  UNL     1       0.636  -4.235   0.171  1.00  0.00     0.125 C 
HETATM   28  C1  UNL     1       0.893  -4.457  -1.305  1.00  0.00     0.027 C 
ENDBRANCH   1  27
BRANCH  10  29
HETATM   29  C8  UNL     1      -2.578  -0.831  -0.030  1.00  0.00    -0.058 C 
HETATM   30  C9  UNL     1      -2.653   0.355  -0.235  1.00  0.00    -0.060 C 
BRANCH  30  31
HETATM   31  C10 UNL     1      -2.746   1.763  -0.504  1.00  0.00     0.033 A 
HETATM   32  C11 UNL     1      -2.333   2.735   0.392  1.00  0.00     0.026 A 
HETATM   33  C12 UNL     1      -2.432   4.081   0.114  1.00  0.00     0.049 A 
HETATM   34  C13 UNL     1      -2.957   4.490  -1.091  1.00  0.00     0.098 A 
HETATM   35  N5  UNL     1      -3.356   3.555  -1.957  1.00  0.00    -0.351 N 
HETATM   36  C14 UNL     1      -3.263   2.240  -1.693  1.00  0.00     0.110 A 
ATOM     37  H5  UNL     1      -3.746   3.850  -2.852  1.00  0.00     0.166 HD
BRANCH  34  38
HETATM   38  N4  UNL     1      -3.063   5.766  -1.385  1.00  0.00    -0.385 N 
ATOM     39  H42 UNL     1      -2.758   6.480  -0.724  1.00  0.00     0.157 HD
ATOM     40  H41 UNL     1      -3.452   6.069  -2.278  1.00  0.00     0.157 HD
ENDBRANCH  34  38
ENDBRANCH  30  31
ENDBRANCH  10  29
TORSDOF 8
