REMARK  6 active torsions:
REMARK  status: ('A' for Active; 'I' for Inactive)
REMARK    1  A    between atoms: C3_3  and  O1_4 
REMARK    2  A    between atoms: C4_6  and  N1_7 
REMARK    3  A    between atoms: N1_7  and  S1_9 
REMARK    4  A    between atoms: S1_9  and  C5_12 
REMARK    5  A    between atoms: C8_15  and  N2_16 
REMARK    6  A    between atoms: N2_16  and  C9_18 
ROOT
HETATM    1  C5  UNL     1      -1.690   2.844  -1.095  1.00  0.00     0.080 A 
HETATM    2  C6  UNL     1      -0.826   1.980  -1.725  1.00  0.00     0.027 A 
HETATM    3  C7  UNL     1       0.540   1.966  -1.426  1.00  0.00     0.031 A 
HETATM    4  C8  UNL     1       1.080   2.813  -0.489  1.00  0.00     0.049 A 
HETATM    5  C18 UNL     1       0.198   3.688   0.146  1.00  0.00     0.031 A 
HETATM    6  C19 UNL     1      -1.145   3.702  -0.149  1.00  0.00     0.027 A 
ENDROOT
BRANCH   4   7
HETATM    7  N2  UNL     1       2.460   2.815  -0.167  1.00  0.00    -0.192 N 
ATOM      8  H2  UNL     1       2.908   3.727  -0.079  1.00  0.00     0.184 HD
BRANCH   7   9
HETATM    9  C9  UNL     1       3.198   1.794   0.024  1.00  0.00     0.683 A 
HETATM   10  N3  UNL     1       2.720   0.543  -0.062  1.00  0.00    -0.189 N 
HETATM   11  C10 UNL     1       3.516  -0.525   0.141  1.00  0.00     0.077 A 
ATOM     12  H3  UNL     1       1.735   0.398  -0.285  1.00  0.00     0.184 HD
HETATM   13  C11 UNL     1       3.015  -1.831   0.049  1.00  0.00     0.120 A 
HETATM   14  C16 UNL     1       4.846  -0.375   0.443  1.00  0.00     0.022 A 
HETATM   15  N4  UNL     1       3.796  -2.895   0.248  1.00  0.00    -0.349 N 
HETATM   16  C12 UNL     1       5.099  -2.750   0.545  1.00  0.00     0.116 A 
ATOM     17  H4  UNL     1       3.398  -3.831   0.174  1.00  0.00     0.167 HD
HETATM   18  N5  UNL     1       6.053  -3.663   0.780  1.00  0.00    -0.352 N 
HETATM   19  C15 UNL     1       5.629  -1.484   0.643  1.00  0.00     0.023 A 
HETATM   20  C13 UNL     1       7.181  -2.979   1.027  1.00  0.00     0.090 A 
ATOM     21  H5  UNL     1       5.943  -4.677   0.772  1.00  0.00     0.166 HD
HETATM   22  C14 UNL     1       6.977  -1.619   0.955  1.00  0.00     0.033 A 
HETATM   23  C17 UNL     1       5.331   0.907   0.531  1.00  0.00     0.121 A 
HETATM   24  N6  UNL     1       4.513   1.946   0.324  1.00  0.00    -0.201 N 
ATOM     25  H6  UNL     1       4.893   2.890   0.395  1.00  0.00     0.183 HD
ENDBRANCH   7   9
ENDBRANCH   4   7
BRANCH   1  26
HETATM   26  S1  UNL     1      -3.417   2.870  -1.446  1.00  0.00     0.264 S 
HETATM   27  O2  UNL     1      -3.849   4.331  -1.329  1.00  0.00    -0.200 OA
HETATM   28  O3  UNL     1      -3.688   2.502  -2.875  1.00  0.00    -0.200 OA
BRANCH  26  29
HETATM   29  N1  UNL     1      -4.227   1.980  -0.290  1.00  0.00    -0.262 N 
ATOM     30  H1  UNL     1      -4.548   2.545   0.496  1.00  0.00     0.180 HD
BRANCH  29  31
HETATM   31  C4  UNL     1      -4.525   0.772  -0.179  1.00  0.00     0.165 A 
HETATM   32  C3  UNL     1      -4.297  -0.317  -0.985  1.00  0.00     0.136 A 
HETATM   33  C2  UNL     1      -4.842  -1.452  -0.400  1.00  0.00     0.061 A 
HETATM   34  C1  UNL     1      -4.819  -2.831  -0.942  1.00  0.00     0.073 C 
HETATM   35  N8  UNL     1      -5.384  -1.008   0.746  1.00  0.00    -0.297 N 
HETATM   36  N7  UNL     1      -5.212   0.287   0.897  1.00  0.00    -0.281 N 
HETATM   37  C20 UNL     1      -6.078  -1.913   1.679  1.00  0.00     0.177 C 
ATOM     38  H7  UNL     1      -5.539   0.840   1.690  1.00  0.00     0.189 HD
BRANCH  32  39
HETATM   39  O1  UNL     1      -3.635  -0.295  -2.181  1.00  0.00    -0.355 OA
ATOM     40  H1  UNL     1      -3.262   0.482  -2.581  1.00  0.00     0.218 HD
ENDBRANCH  32  39
ENDBRANCH  29  31
ENDBRANCH  26  29
ENDBRANCH   1  26
TORSDOF 6
