REMARK  6 active torsions:
REMARK  status: ('A' for Active; 'I' for Inactive)
REMARK    1  A    between atoms: N1_2  and  C2_4 
REMARK    2  A    between atoms: C5_9  and  N3_10 
REMARK    3  A    between atoms: N3_10  and  C6_11 
REMARK    4  A    between atoms: C8_13  and  N4_14 
REMARK       I    between atoms: N4_14  and  C9_16 
REMARK    5  A    between atoms: C9_16  and  C10_18 
REMARK    6  A    between atoms: C12_22  and  N6_23 
ROOT
HETATM    1  C2  UNL     1      -3.990  -2.429   0.702  1.00  0.00     0.116 A 
HETATM    2  C3  UNL     1      -2.844  -2.039   0.040  1.00  0.00     0.136 A 
HETATM    3  N2  UNL     1      -2.559  -0.726  -0.027  1.00  0.00    -0.357 N 
ATOM      4  H2  UNL     1      -1.710  -0.445  -0.518  1.00  0.00     0.165 HD
HETATM    5  C4  UNL     1      -3.324   0.237   0.513  1.00  0.00     0.119 A 
HETATM    6  C5  UNL     1      -2.961   1.591   0.403  1.00  0.00     0.208 A 
HETATM    7  N8  UNL     1      -3.795   2.478   0.977  1.00  0.00    -0.338 N 
ATOM      8  H8  UNL     1      -3.576   3.473   0.924  1.00  0.00     0.168 HD
HETATM    9  C19 UNL     1      -4.897   2.089   1.612  1.00  0.00     0.116 A 
HETATM   10  C20 UNL     1      -5.259   0.775   1.726  1.00  0.00     0.089 A 
HETATM   11  C21 UNL     1      -6.442   0.360   2.406  1.00  0.00     0.103 C 
HETATM   12  N9  UNL     1      -7.385   0.009   2.957  1.00  0.00    -0.191 NA
HETATM   13  C22 UNL     1      -4.459  -0.181   1.165  1.00  0.00     0.088 A 
HETATM   14  N10 UNL     1      -4.781  -1.492   1.253  1.00  0.00    -0.338 N 
ATOM     15  H10 UNL     1      -5.631  -1.772   1.742  1.00  0.00     0.167 HD
ENDROOT
BRANCH   6  16
HETATM   16  N3  UNL     1      -1.973   1.941  -0.164  1.00  0.00    -0.385 NA
BRANCH  16  17
HETATM   17  C6  UNL     1      -0.870   2.249  -0.802  1.00  0.00     0.117 A 
HETATM   18  C7  UNL     1       0.284   1.424  -0.733  1.00  0.00     0.074 A 
HETATM   19  C8  UNL     1       1.454   1.686  -1.372  1.00  0.00     0.038 A 
HETATM   20  C15 UNL     1       1.487   2.862  -2.142  1.00  0.00     0.030 A 
HETATM   21  C16 UNL     1       0.395   3.689  -2.239  1.00  0.00     0.012 A 
HETATM   22  C17 UNL     1      -0.779   3.412  -1.589  1.00  0.00    -0.021 A 
HETATM   23  C18 UNL     1      -1.960   4.266  -1.672  1.00  0.00     0.052 C 
BRANCH  19  24
HETATM   24  N4  UNL     1       2.622   0.881  -1.352  1.00  0.00    -0.323 N 
HETATM   25  C9  UNL     1       2.824  -0.360  -0.743  1.00  0.00     0.258 C 
HETATM   26  O1  UNL     1       1.939  -0.946  -0.103  1.00  0.00    -0.267 OA
ATOM     27  H4  UNL     1       3.426   1.261  -1.852  1.00  0.00     0.169 HD
BRANCH  25  28
HETATM   28  C10 UNL     1       4.113  -1.076  -0.816  1.00  0.00     0.064 A 
HETATM   29  C11 UNL     1       4.188  -2.336  -1.422  1.00  0.00     0.124 A 
HETATM   30  N5  UNL     1       5.369  -2.932  -1.450  1.00  0.00    -0.201 N 
HETATM   31  C12 UNL     1       6.512  -2.433  -0.947  1.00  0.00     0.677 A 
ATOM     32  H5  UNL     1       5.417  -3.850  -1.892  1.00  0.00     0.183 HD
HETATM   33  N7  UNL     1       6.422  -1.197  -0.355  1.00  0.00    -0.201 N 
HETATM   34  C14 UNL     1       5.256  -0.555  -0.301  1.00  0.00     0.124 A 
ATOM     35  H7  UNL     1       7.255  -0.767   0.047  1.00  0.00     0.183 HD
BRANCH  31  36
HETATM   36  N6  UNL     1       7.635  -3.003  -0.975  1.00  0.00    -0.230 N 
HETATM   37  C13 UNL     1       8.805  -2.401  -0.414  1.00  0.00     0.165 C 
ATOM     38  H6  UNL     1       7.712  -3.922  -1.411  1.00  0.00     0.177 HD
ENDBRANCH  31  36
ENDBRANCH  25  28
ENDBRANCH  19  24
ENDBRANCH  16  17
ENDBRANCH   6  16
BRANCH   1  39
HETATM   39  N1  UNL     1      -4.263  -3.688   0.768  1.00  0.00    -0.380 N 
HETATM   40  C1  UNL     1      -5.437  -4.172   1.438  1.00  0.00     0.147 C 
ATOM     41  H1  UNL     1      -3.628  -4.357   0.333  1.00  0.00     0.160 HD
ENDBRANCH   1  39
TORSDOF 6
