REMARK  21 active torsions:
REMARK  status: ('A' for Active; 'I' for Inactive)
REMARK    1  A    between atoms: C4_4  and  C5_5 
REMARK    2  A    between atoms: C5_5  and  N1_6 
REMARK    3  A    between atoms: N3_11  and  C9_12 
REMARK    4  A    between atoms: C9_12  and  C10_13 
REMARK    5  A    between atoms: C10_13  and  N4_14 
REMARK       I    between atoms: N4_14  and  C11_16 
REMARK    6  A    between atoms: C11_16  and  C12_18 
REMARK    7  A    between atoms: C12_18  and  C13_19 
REMARK    8  A    between atoms: C12_18  and  N6_24 
REMARK    9  A    between atoms: C13_19  and  C14_20 
REMARK   10  A    between atoms: C14_20  and  C15_21 
REMARK   11  A    between atoms: N6_24  and  C16_26 
REMARK   12  A    between atoms: C16_26  and  C17_27 
REMARK   13  A    between atoms: C17_27  and  O3_28 
REMARK   14  A    between atoms: C17_27  and  C18_30 
REMARK   15  A    between atoms: C18_30  and  N7_31 
REMARK   16  A    between atoms: N7_31  and  C19_32 
REMARK   17  A    between atoms: C19_32  and  C20_33 
REMARK   18  A    between atoms: C20_33  and  C21_34 
REMARK   19  A    between atoms: C21_34  and  C22_35 
REMARK   20  A    between atoms: C22_35  and  N8_36 
REMARK   21  A    between atoms: C25_39  and  O4_40 
ROOT
HETATM    1  C12 UNL     1      -0.103  -1.823  -0.208  1.00  0.00     0.169 C 
ENDROOT
BRANCH   1   2
HETATM    2  C11 UNL     1       1.202  -1.152  -0.247  1.00  0.00     0.240 C 
HETATM    3  N4  UNL     1       2.277  -1.656  -0.999  1.00  0.00    -0.358 N 
ATOM      4  H4  UNL     1       2.141  -2.508  -1.543  1.00  0.00     0.162 HD
HETATM    5  O1  UNL     1       1.357  -0.090   0.411  1.00  0.00    -0.271 OA
BRANCH   3   6
HETATM    6  C10 UNL     1       3.579  -1.002  -1.028  1.00  0.00     0.153 C 
BRANCH   6   7
HETATM    7  C9  UNL     1       4.185  -1.002   0.320  1.00  0.00     0.287 C 
BRANCH   7   8
HETATM    8  N3  UNL     1       5.483  -0.371   0.436  1.00  0.00     0.041 N 
HETATM    9  N2  UNL     1       6.006  -0.780   1.647  1.00  0.00    -0.225 N 
HETATM   10  C7  UNL     1       7.400  -0.737   1.822  1.00  0.00     0.117 C 
HETATM   11  C8  UNL     1       5.220  -0.475   2.803  1.00  0.00     0.184 C 
HETATM   12  C6  UNL     1       8.202  -0.090   0.754  1.00  0.00     0.286 C 
HETATM   13  N1  UNL     1       7.447   0.322  -0.390  1.00  0.00    -0.032 N 
HETATM   14  C32 UNL     1       6.739   1.552  -0.111  1.00  0.00     0.270 C 
HETATM   15  C33 UNL     1       6.418  -0.702  -0.605  1.00  0.00     0.501 C 
HETATM   16  C31 UNL     1       5.383   1.076   0.337  1.00  0.00     0.295 C 
BRANCH  13  17
HETATM   17  C5  UNL     1       8.210   0.516  -1.588  1.00  0.00     0.267 C 
BRANCH  17  18
HETATM   18  C4  UNL     1       9.666   0.687  -1.378  1.00  0.00     0.003 C 
HETATM   19  C2  UNL     1      10.299   1.781  -1.732  1.00  0.00    -0.090 C 
HETATM   20  C1  UNL     1      11.759   1.899  -1.498  1.00  0.00     0.042 C 
HETATM   21  C3  UNL     1       9.562   2.896  -2.358  1.00  0.00     0.042 C 
ENDBRANCH  17  18
ENDBRANCH  13  17
ENDBRANCH   7   8
ENDBRANCH   6   7
ENDBRANCH   3   6
ENDBRANCH   1   2
BRANCH   1  22
HETATM   22  C13 UNL     1      -0.211  -2.905   0.844  1.00  0.00     0.043 C 
BRANCH  22  23
HETATM   23  C14 UNL     1       0.751  -4.010   0.635  1.00  0.00     0.102 C 
BRANCH  23  24
HETATM   24  C15 UNL     1       0.553  -4.801  -0.597  1.00  0.00     0.231 C 
HETATM   25  N5  UNL     1       1.510  -5.772  -1.025  1.00  0.00    -0.062 NA
HETATM   26  O2  UNL     1      -0.467  -4.640  -1.301  1.00  0.00    -0.277 OA
ENDBRANCH  23  24
ENDBRANCH  22  23
ENDBRANCH   1  22
BRANCH   1  27
HETATM   27  N6  UNL     1      -1.151  -0.843  -0.003  1.00  0.00    -0.407 N 
ATOM     28  H6  UNL     1      -1.819  -0.638  -0.746  1.00  0.00     0.154 HD
BRANCH  27  29
HETATM   29  C16 UNL     1      -1.236  -0.180   1.229  1.00  0.00     0.148 C 
BRANCH  29  30
HETATM   30  C17 UNL     1      -2.377   0.873   1.047  1.00  0.00     0.161 C 
BRANCH  30  31
HETATM   31  O3  UNL     1      -2.463   1.564   2.245  1.00  0.00    -0.392 OA
ATOM     32  H3  UNL     1      -3.156   2.204   2.134  1.00  0.00     0.210 HD
ENDBRANCH  30  31
BRANCH  30  33
HETATM   33  C18 UNL     1      -3.569   0.115   0.642  1.00  0.00     0.270 C 
BRANCH  33  34
HETATM   34  N7  UNL     1      -4.801   0.853   0.443  1.00  0.00    -0.065 N 
HETATM   35  C27 UNL     1      -4.612   2.103  -0.200  1.00  0.00     0.237 C 
HETATM   36  C28 UNL     1      -5.475   3.128   0.503  1.00  0.00     0.029 C 
HETATM   37  C29 UNL     1      -5.605   2.576   1.904  1.00  0.00     0.029 C 
HETATM   38  C30 UNL     1      -5.327   1.122   1.776  1.00  0.00     0.237 C 
BRANCH  34  39
HETATM   39  C19 UNL     1      -5.716  -0.039  -0.226  1.00  0.00     0.237 C 
BRANCH  39  40
HETATM   40  C20 UNL     1      -6.293   0.430  -1.517  1.00  0.00     0.030 C 
BRANCH  40  41
HETATM   41  C21 UNL     1      -7.268  -0.543  -2.109  1.00  0.00     0.032 C 
BRANCH  41  42
HETATM   42  C22 UNL     1      -8.489  -0.845  -1.337  1.00  0.00     0.272 C 
BRANCH  42  43
HETATM   43  N8  UNL     1      -9.429   0.182  -1.083  1.00  0.00     0.091 N 
HETATM   44  C23 UNL     1     -10.568  -0.504  -0.403  1.00  0.00     0.275 C 
HETATM   45  C24 UNL     1     -11.432   0.616   0.101  1.00  0.00     0.064 C 
HETATM   46  C25 UNL     1     -10.464   1.713   0.410  1.00  0.00     0.148 C 
HETATM   47  C26 UNL     1      -9.115   1.152  -0.081  1.00  0.00     0.303 C 
BRANCH  46  48
HETATM   48  O4  UNL     1     -10.360   1.967   1.787  1.00  0.00    -0.394 OA
ATOM     49  H4  UNL     1      -9.745   2.664   1.983  1.00  0.00     0.210 HD
ENDBRANCH  46  48
ENDBRANCH  42  43
ENDBRANCH  41  42
ENDBRANCH  40  41
ENDBRANCH  39  40
ENDBRANCH  34  39
ENDBRANCH  33  34
ENDBRANCH  30  33
ENDBRANCH  29  30
ENDBRANCH  27  29
ENDBRANCH   1  27
TORSDOF 21
