REMARK  23 active torsions:
REMARK  status: ('A' for Active; 'I' for Inactive)
REMARK    1  A    between atoms: C2_2  and  C3_3 
REMARK    2  A    between atoms: C3_3  and  C4_4 
REMARK    3  A    between atoms: C4_4  and  C5_5 
REMARK    4  A    between atoms: C5_5  and  C6_6 
REMARK    5  A    between atoms: C6_6  and  N1_7 
REMARK    6  A    between atoms: C6_6  and  C14_22 
REMARK    7  A    between atoms: C6_6  and  C28_46 
REMARK       I    between atoms: N1_7  and  C7_9 
REMARK    8  A    between atoms: C7_9  and  C8_11 
REMARK    9  A    between atoms: C8_11  and  N2_12 
REMARK   10  A    between atoms: C8_11  and  C9_16 
REMARK   11  A    between atoms: C9_16  and  C10_17 
REMARK   12  A    between atoms: C10_17  and  N3_18 
REMARK       I    between atoms: C14_22  and  N4_24 
REMARK   13  A    between atoms: N4_24  and  C15_26 
REMARK   14  A    between atoms: C15_26  and  O3_27 
REMARK   15  A    between atoms: C15_26  and  C16_29 
REMARK   16  A    between atoms: C16_29  and  C17_30 
REMARK   17  A    between atoms: C17_30  and  C18_31 
REMARK       I    between atoms: C18_31  and  N5_33 
REMARK   18  A    between atoms: C22_37  and  C23_38 
REMARK   19  A    between atoms: C23_38  and  C24_39 
REMARK   20  A    between atoms: C23_38  and  N6_42 
REMARK   21  A    between atoms: C24_39  and  C25_40 
REMARK       I    between atoms: N6_42  and  C27_43 
REMARK   22  A    between atoms: C28_46  and  O5_47 
REMARK   23  A    between atoms: C28_46  and  N9_49 
ROOT
HETATM    1  C6  UNL     1       2.694  -1.120  -0.114  1.00  0.00     0.179 C 
ENDROOT
BRANCH   1   2
HETATM    2  C5  UNL     1       2.692  -2.001  -1.298  1.00  0.00     0.050 C 
BRANCH   2   3
HETATM    3  C4  UNL     1       2.411  -3.434  -1.273  1.00  0.00     0.004 C 
BRANCH   3   4
HETATM    4  C3  UNL     1       2.706  -4.008  -2.712  1.00  0.00    -0.000 C 
BRANCH   4   5
HETATM    5  C2  UNL     1       2.478  -5.486  -2.627  1.00  0.00    -0.005 C 
HETATM    6  C1  UNL     1       1.102  -5.900  -2.239  1.00  0.00     0.005 C 
ENDBRANCH   4   5
ENDBRANCH   3   4
ENDBRANCH   2   3
ENDBRANCH   1   2
BRANCH   1   7
HETATM    7  N1  UNL     1       2.876   0.267  -0.653  1.00  0.00    -0.335 N 
HETATM    8  C7  UNL     1       3.914   0.759  -1.405  1.00  0.00     0.249 C 
HETATM    9  O1  UNL     1       4.880   0.005  -1.721  1.00  0.00    -0.271 OA
ATOM     10  H1  UNL     1       2.133   0.930  -0.433  1.00  0.00     0.164 HD
BRANCH   8  11
HETATM   11  C8  UNL     1       4.010   2.155  -1.895  1.00  0.00     0.276 C 
BRANCH  11  12
HETATM   12  N2  UNL     1       3.920   2.143  -3.339  1.00  0.00    -0.066 N 
ATOM     13  H23 UNL     1       4.612   1.529  -3.769  1.00  0.00     0.275 HD
ATOM     14  H22 UNL     1       3.083   1.667  -3.675  1.00  0.00     0.275 HD
ATOM     15  H21 UNL     1       3.986   3.103  -3.676  1.00  0.00     0.275 HD
ENDBRANCH  11  12
BRANCH  11  16
HETATM   16  C9  UNL     1       5.413   2.656  -1.483  1.00  0.00     0.070 C 
BRANCH  16  17
HETATM   17  C10 UNL     1       5.589   2.597   0.014  1.00  0.00     0.238 C 
BRANCH  17  18
HETATM   18  N3  UNL     1       6.908   3.044   0.406  1.00  0.00    -0.079 N 
HETATM   19  C11 UNL     1       7.843   1.945   0.238  1.00  0.00     0.271 C 
HETATM   20  C12 UNL     1       6.985   3.513   1.753  1.00  0.00     0.271 C 
HETATM   21  C13 UNL     1       7.369   4.102  -0.491  1.00  0.00     0.271 C 
ENDBRANCH  17  18
ENDBRANCH  16  17
ENDBRANCH  11  16
ENDBRANCH   8  11
ENDBRANCH   1   7
BRANCH   1  22
HETATM   22  C14 UNL     1       1.224  -1.022   0.303  1.00  0.00     0.260 C 
HETATM   23  O2  UNL     1       0.308  -1.603  -0.332  1.00  0.00    -0.270 OA
HETATM   24  N4  UNL     1       0.872  -0.247   1.404  1.00  0.00    -0.309 N 
ATOM     25  H4  UNL     1       1.641   0.128   1.959  1.00  0.00     0.170 HD
BRANCH  24  26
HETATM   26  C15 UNL     1      -0.405   0.071   1.828  1.00  0.00     0.118 C 
BRANCH  26  27
HETATM   27  O3  UNL     1      -0.411   1.013   2.773  1.00  0.00    -0.349 OA
ATOM     28  H3  UNL     1      -1.288   1.231   3.064  1.00  0.00     0.219 HD
ENDBRANCH  26  27
BRANCH  26  29
HETATM   29  C16 UNL     1      -1.749  -0.375   1.493  1.00  0.00     0.093 C 
BRANCH  29  30
HETATM   30  C17 UNL     1      -2.655   0.809   1.667  1.00  0.00     0.111 C 
BRANCH  30  31
HETATM   31  C18 UNL     1      -4.098   0.621   1.572  1.00  0.00     0.220 C 
HETATM   32  O4  UNL     1      -4.698  -0.339   2.141  1.00  0.00    -0.273 OA
HETATM   33  N5  UNL     1      -4.874   1.585   0.816  1.00  0.00    -0.344 N 
HETATM   34  C19 UNL     1      -4.214   2.527  -0.108  1.00  0.00     0.126 C 
HETATM   35  C22 UNL     1      -6.229   1.862   0.955  1.00  0.00     0.123 C 
HETATM   36  C20 UNL     1      -5.317   3.115  -0.919  1.00  0.00     0.022 C 
HETATM   37  C21 UNL     1      -6.590   2.863  -0.128  1.00  0.00     0.030 C 
BRANCH  35  38
HETATM   38  C23 UNL     1      -7.226   0.717   0.988  1.00  0.00     0.189 C 
BRANCH  38  39
HETATM   39  C24 UNL     1      -8.565   1.407   1.247  1.00  0.00     0.041 C 
BRANCH  39  40
HETATM   40  C25 UNL     1      -9.721   0.494   1.393  1.00  0.00    -0.001 C 
HETATM   41  C26 UNL     1      -9.556  -0.506   2.512  1.00  0.00     0.005 C 
ENDBRANCH  39  40
ENDBRANCH  38  39
BRANCH  38  42
HETATM   42  N6  UNL     1      -7.171  -0.148  -0.070  1.00  0.00    -0.413 NA
HETATM   43  C27 UNL     1      -7.351  -1.015  -0.850  1.00  0.00     0.270 C 
HETATM   44  N7  UNL     1      -6.518  -1.165  -2.028  1.00  0.00    -0.053 NA
HETATM   45  N8  UNL     1      -8.353  -2.030  -0.738  1.00  0.00    -0.053 NA
ENDBRANCH  38  42
ENDBRANCH  35  38
ENDBRANCH  30  31
ENDBRANCH  29  30
ENDBRANCH  26  29
ENDBRANCH  24  26
ENDBRANCH   1  22
BRANCH   1  46
HETATM   46  C28 UNL     1       3.599  -1.332   0.981  1.00  0.00     0.151 C 
BRANCH  46  47
HETATM   47  O5  UNL     1       3.532  -0.323   1.866  1.00  0.00    -0.347 OA
ATOM     48  H5  UNL     1       4.131  -0.463   2.590  1.00  0.00     0.219 HD
ENDBRANCH  46  47
BRANCH  46  49
HETATM   49  N9  UNL     1       4.527  -2.273   1.387  1.00  0.00    -0.372 N 
HETATM   50  C29 UNL     1       5.167  -3.368   0.726  1.00  0.00     0.150 C 
HETATM   51  C30 UNL     1       4.933  -2.223   2.850  1.00  0.00     0.150 C 
ENDBRANCH  46  49
ENDBRANCH   1  46
TORSDOF 23
