REMARK  21 active torsions:
REMARK  status: ('A' for Active; 'I' for Inactive)
REMARK    1  A    between atoms: C2_2  and  C3_3 
REMARK    2  A    between atoms: C3_3  and  N1_4 
REMARK       I    between atoms: N1_4  and  C4_6 
REMARK    3  A    between atoms: C4_6  and  C5_8 
REMARK    4  A    between atoms: C5_8  and  C6_9 
REMARK    5  A    between atoms: C5_8  and  N5_17 
REMARK    6  A    between atoms: C6_9  and  C7_10 
REMARK    7  A    between atoms: C7_10  and  C8_11 
REMARK    8  A    between atoms: C8_11  and  N2_12 
REMARK       I    between atoms: N5_17  and  C11_19 
REMARK    9  A    between atoms: C11_19  and  C12_21 
REMARK   10  A    between atoms: C12_21  and  C13_22 
REMARK   11  A    between atoms: C13_22  and  C14_23 
REMARK   12  A    between atoms: C14_23  and  C15_24 
REMARK   13  A    between atoms: C14_23  and  N6_28 
REMARK   14  A    between atoms: C16_25  and  C17_26 
REMARK   15  A    between atoms: N6_28  and  S1_30 
REMARK   16  A    between atoms: S1_30  and  N7_33 
REMARK   17  A    between atoms: N7_33  and  C20_35 
REMARK   18  A    between atoms: C25_40  and  C26_41 
REMARK   19  A    between atoms: C26_41  and  C27_42 
REMARK   20  A    between atoms: C27_42  and  C28_43 
REMARK   21  A    between atoms: C28_43  and  N8_44 
ROOT
HETATM    1  C14 UNL     1       0.786  -0.521   0.961  1.00  0.00     0.177 C 
ENDROOT
BRANCH   1   2
HETATM    2  C13 UNL     1      -0.234  -0.759   1.952  1.00  0.00     0.012 C 
BRANCH   2   3
HETATM    3  C12 UNL     1      -1.512  -0.097   2.128  1.00  0.00     0.073 C 
BRANCH   3   4
HETATM    4  C11 UNL     1      -2.562  -0.081   1.118  1.00  0.00     0.243 C 
HETATM    5  N5  UNL     1      -3.872  -0.600   1.443  1.00  0.00    -0.340 N 
HETATM    6  C10 UNL     1      -4.068  -1.184   2.744  1.00  0.00     0.154 C 
HETATM    7  O2  UNL     1      -2.457   0.361  -0.052  1.00  0.00    -0.268 OA
BRANCH   5   8
HETATM    8  C5  UNL     1      -4.934  -0.568   0.466  1.00  0.00     0.179 C 
BRANCH   8   9
HETATM    9  C4  UNL     1      -5.373  -1.906   0.078  1.00  0.00     0.240 C 
HETATM   10  N1  UNL     1      -6.392  -2.062  -0.908  1.00  0.00    -0.356 N 
ATOM     11  H1  UNL     1      -6.801  -1.229  -1.331  1.00  0.00     0.162 HD
HETATM   12  O1  UNL     1      -4.867  -2.923   0.600  1.00  0.00    -0.271 OA
BRANCH  10  13
HETATM   13  C3  UNL     1      -6.861  -3.353  -1.324  1.00  0.00     0.149 C 
BRANCH  13  14
HETATM   14  C2  UNL     1      -7.898  -3.272  -2.342  1.00  0.00    -0.018 C 
HETATM   15  C1  UNL     1      -8.395  -2.185  -2.869  1.00  0.00     0.008 C 
ENDBRANCH  13  14
ENDBRANCH  10  13
ENDBRANCH   8   9
BRANCH   8  16
HETATM   16  C6  UNL     1      -6.058   0.361   0.782  1.00  0.00     0.037 C 
BRANCH  16  17
HETATM   17  C7  UNL     1      -6.964  -0.037   1.895  1.00  0.00     0.022 C 
BRANCH  17  18
HETATM   18  C8  UNL     1      -8.060   1.041   2.007  1.00  0.00     0.122 C 
BRANCH  18  19
HETATM   19  N2  UNL     1      -8.802   1.139   0.789  1.00  0.00    -0.367 N 
HETATM   20  C9  UNL     1      -8.863   2.253   0.162  1.00  0.00     0.196 C 
HETATM   21  N3  UNL     1      -9.616   2.326  -1.061  1.00  0.00    -0.067 NA
HETATM   22  N4  UNL     1      -8.194   3.391   0.676  1.00  0.00    -0.067 NA
ATOM     23  H2  UNL     1      -9.284   0.320   0.419  1.00  0.00     0.161 HD
ENDBRANCH  18  19
ENDBRANCH  17  18
ENDBRANCH  16  17
ENDBRANCH   8  16
ENDBRANCH   5   8
ENDBRANCH   3   4
ENDBRANCH   2   3
ENDBRANCH   1   2
BRANCH   1  24
HETATM   24  C15 UNL     1       0.397  -0.768  -0.430  1.00  0.00    -0.082 C 
HETATM   25  C16 UNL     1       0.129  -1.000  -1.611  1.00  0.00    -0.105 C 
BRANCH  25  26
HETATM   26  C17 UNL     1      -0.190  -1.252  -3.015  1.00  0.00     0.089 C 
HETATM   27  C18 UNL     1      -0.372   0.037  -3.783  1.00  0.00     0.018 C 
ENDBRANCH  25  26
ENDBRANCH   1  24
BRANCH   1  28
HETATM   28  N6  UNL     1       1.554   0.699   1.033  1.00  0.00    -0.178 NA
HETATM   29  C19 UNL     1       1.202   1.596   2.085  1.00  0.00     0.133 C 
BRANCH  28  30
HETATM   30  S1  UNL     1       3.222   0.268   1.300  1.00  0.00     0.300 S 
HETATM   31  O3  UNL     1       3.907   1.349   2.096  1.00  0.00    -0.188 OA
HETATM   32  O4  UNL     1       3.240  -0.994   2.105  1.00  0.00    -0.188 OA
BRANCH  30  33
HETATM   33  N7  UNL     1       3.987  -0.021  -0.191  1.00  0.00    -0.302 N 
ATOM     34  H7  UNL     1       3.939  -0.920  -0.670  1.00  0.00     0.173 HD
BRANCH  33  35
HETATM   35  C20 UNL     1       4.702   1.097  -0.718  1.00  0.00     0.098 C 
HETATM   36  C21 UNL     1       3.969   1.564  -1.982  1.00  0.00     0.026 C 
HETATM   37  C22 UNL     1       4.133   0.638  -3.134  1.00  0.00     0.002 C 
HETATM   38  C23 UNL     1       4.848  -0.638  -2.857  1.00  0.00     0.001 C 
HETATM   39  C24 UNL     1       6.064  -0.531  -2.002  1.00  0.00     0.007 C 
HETATM   40  C25 UNL     1       6.076   0.708  -1.127  1.00  0.00     0.009 C 
BRANCH  40  41
HETATM   41  C26 UNL     1       7.081   0.529  -0.056  1.00  0.00     0.008 C 
BRANCH  41  42
HETATM   42  C27 UNL     1       7.385   1.709   0.797  1.00  0.00     0.020 C 
BRANCH  42  43
HETATM   43  C28 UNL     1       8.443   1.242   1.810  1.00  0.00     0.122 C 
BRANCH  43  44
HETATM   44  N8  UNL     1       9.627   0.783   1.138  1.00  0.00    -0.367 N 
HETATM   45  C29 UNL     1      10.508  -0.006   1.592  1.00  0.00     0.196 C 
HETATM   46  N9  UNL     1      11.610  -0.330   0.742  1.00  0.00    -0.067 NA
HETATM   47  N10 UNL     1      10.449  -0.574   2.891  1.00  0.00    -0.067 NA
ATOM     48  H8  UNL     1       9.775   1.131   0.191  1.00  0.00     0.161 HD
ENDBRANCH  43  44
ENDBRANCH  42  43
ENDBRANCH  41  42
ENDBRANCH  40  41
ENDBRANCH  33  35
ENDBRANCH  30  33
ENDBRANCH  28  30
ENDBRANCH   1  28
TORSDOF 21
