REMARK  18 active torsions:
REMARK  status: ('A' for Active; 'I' for Inactive)
REMARK    1  A    between atoms: C5_5  and  N1_6 
REMARK       I    between atoms: N1_6  and  C6_8 
REMARK    2  A    between atoms: C6_8  and  C7_10 
REMARK    3  A    between atoms: C7_10  and  C8_11 
REMARK    4  A    between atoms: C8_11  and  C9_12 
REMARK    5  A    between atoms: C9_12  and  C10_13 
REMARK       I    between atoms: N2_16  and  C13_17 
REMARK    6  A    between atoms: C13_17  and  C14_19 
REMARK    7  A    between atoms: C14_19  and  C15_20 
REMARK    8  A    between atoms: C14_19  and  N4_29 
REMARK    9  A    between atoms: C15_20  and  C16_21 
REMARK   10  A    between atoms: C16_21  and  C17_22 
REMARK   11  A    between atoms: C17_22  and  C18_23 
REMARK   12  A    between atoms: C18_23  and  N3_24 
REMARK       I    between atoms: N3_24  and  C19_26 
REMARK   13  A    between atoms: C21_32  and  C22_33 
REMARK   14  A    between atoms: C22_33  and  C23_34 
REMARK   15  A    between atoms: C23_34  and  C24_35 
REMARK   16  A    between atoms: C24_35  and  N6_36 
REMARK   17  A    between atoms: C27_45  and  C28_46 
REMARK   18  A    between atoms: C28_46  and  C30_48 
ROOT
HETATM    1  C1  UNL     1       2.585  -4.659   1.213  1.00  0.00     0.017 C 
HETATM    2  C2  UNL     1       3.031  -3.829   0.444  1.00  0.00    -0.087 C 
HETATM    3  C3  UNL     1       3.563  -2.865  -0.493  1.00  0.00     0.091 C 
HETATM    4  C4  UNL     1       3.078  -1.697  -0.697  1.00  0.00     0.047 C 
HETATM    5  C5  UNL     1       3.427  -0.530  -1.593  1.00  0.00     0.153 C 
HETATM    6  C12 UNL     1       1.931  -0.374  -1.582  1.00  0.00     0.164 C 
HETATM    7  N2  UNL     1       1.978  -0.916  -0.209  1.00  0.00    -0.311 N 
HETATM    8  C13 UNL     1       1.321  -0.692   1.008  1.00  0.00     0.272 C 
HETATM    9  O2  UNL     1       1.872  -1.253   2.033  1.00  0.00    -0.266 OA
ENDROOT
BRANCH   5  10
HETATM   10  N1  UNL     1       4.188   0.474  -0.925  1.00  0.00    -0.349 N 
HETATM   11  C6  UNL     1       5.612   0.531  -1.085  1.00  0.00     0.218 C 
HETATM   12  O1  UNL     1       6.122  -0.336  -1.823  1.00  0.00    -0.274 OA
ATOM     13  H1  UNL     1       3.717   1.155  -0.330  1.00  0.00     0.163 HD
BRANCH  11  14
HETATM   14  C7  UNL     1       6.350   1.590  -0.374  1.00  0.00     0.103 C 
BRANCH  14  15
HETATM   15  C8  UNL     1       7.799   1.556  -0.683  1.00  0.00     0.009 C 
BRANCH  15  16
HETATM   16  C9  UNL     1       8.071   1.823  -2.133  1.00  0.00     0.000 C 
BRANCH  16  17
HETATM   17  C10 UNL     1       9.596   1.770  -2.285  1.00  0.00    -0.005 C 
HETATM   18  C11 UNL     1       9.925   2.032  -3.715  1.00  0.00     0.005 C 
ENDBRANCH  16  17
ENDBRANCH  15  16
ENDBRANCH  14  15
ENDBRANCH  11  14
ENDBRANCH   5  10
BRANCH   8  19
HETATM   19  C14 UNL     1       0.132   0.057   1.298  1.00  0.00     0.105 C 
BRANCH  19  20
HETATM   20  C15 UNL     1      -0.493  -0.223   2.634  1.00  0.00     0.065 C 
BRANCH  20  21
HETATM   21  C16 UNL     1      -0.969  -1.560   2.999  1.00  0.00     0.008 C 
BRANCH  21  22
HETATM   22  C17 UNL     1      -1.450  -1.387   4.475  1.00  0.00     0.020 C 
BRANCH  22  23
HETATM   23  C18 UNL     1      -1.973  -2.672   5.037  1.00  0.00     0.122 C 
BRANCH  23  24
HETATM   24  N3  UNL     1      -2.392  -2.439   6.401  1.00  0.00    -0.361 N 
HETATM   25  C19 UNL     1      -2.946  -3.470   7.226  1.00  0.00     0.213 C 
HETATM   26  C20 UNL     1      -3.369  -3.187   8.621  1.00  0.00     0.117 C 
HETATM   27  O3  UNL     1      -3.055  -4.616   6.707  1.00  0.00    -0.274 OA
ATOM     28  H3  UNL     1      -2.289  -1.502   6.791  1.00  0.00     0.162 HD
ENDBRANCH  23  24
ENDBRANCH  22  23
ENDBRANCH  21  22
ENDBRANCH  20  21
ENDBRANCH  19  20
BRANCH  19  29
HETATM   29  N4  UNL     1      -0.808   0.284   0.211  1.00  0.00    -0.221 N 
HETATM   30  N5  UNL     1      -1.232   1.557   0.082  1.00  0.00    -0.313 N 
HETATM   31  C21 UNL     1      -1.542   2.227  -1.073  1.00  0.00     0.192 C 
ATOM     32  H5  UNL     1      -1.335   2.086   0.948  1.00  0.00     0.181 HD
HETATM   33  C26 UNL     1      -1.709   1.498  -2.314  1.00  0.00     0.246 C 
HETATM   34  O4  UNL     1      -1.701   2.276  -3.334  1.00  0.00    -0.271 OA
HETATM   35  N9  UNL     1      -1.876   0.136  -2.660  1.00  0.00    -0.324 N 
HETATM   36  C27 UNL     1      -2.026  -0.981  -1.805  1.00  0.00     0.086 C 
ATOM     37  H9  UNL     1      -1.890  -0.067  -3.659  1.00  0.00     0.169 HD
HETATM   38  C32 UNL     1      -1.238  -0.856  -0.545  1.00  0.00     0.289 C 
HETATM   39  O5  UNL     1      -0.863  -1.935  -0.027  1.00  0.00    -0.264 OA
BRANCH  31  40
HETATM   40  C22 UNL     1      -2.819   3.089  -0.736  1.00  0.00     0.041 C 
BRANCH  40  41
HETATM   41  C23 UNL     1      -3.920   2.187  -0.370  1.00  0.00     0.047 C 
BRANCH  41  42
HETATM   42  C24 UNL     1      -5.182   2.837   0.011  1.00  0.00     0.063 C 
BRANCH  42  43
HETATM   43  N6  UNL     1      -5.929   3.611  -0.896  1.00  0.00    -0.347 N 
HETATM   44  C25 UNL     1      -5.927   3.702  -2.149  1.00  0.00     0.200 C 
HETATM   45  N7  UNL     1      -6.875   4.652  -2.711  1.00  0.00    -0.067 NA
HETATM   46  N8  UNL     1      -5.145   2.955  -3.036  1.00  0.00    -0.067 NA
ATOM     47  H6  UNL     1      -6.610   4.222  -0.445  1.00  0.00     0.167 HD
ENDBRANCH  42  43
ENDBRANCH  41  42
ENDBRANCH  40  41
ENDBRANCH  31  40
BRANCH  36  48
HETATM   48  C28 UNL     1      -3.397  -1.539  -1.616  1.00  0.00     0.037 C 
HETATM   49  C29 UNL     1      -3.306  -2.738  -0.644  1.00  0.00     0.016 C 
BRANCH  48  50
HETATM   50  C30 UNL     1      -4.019  -2.100  -2.856  1.00  0.00     0.006 C 
HETATM   51  C31 UNL     1      -4.221  -1.165  -3.989  1.00  0.00     0.006 C 
ENDBRANCH  48  50
ENDBRANCH  36  48
ENDBRANCH  19  29
ENDBRANCH   8  19
TORSDOF 18
