REMARK  1 active torsions:
REMARK  status: ('A' for Active; 'I' for Inactive)
REMARK    1  A    between atoms: N2_4  and  N3_6 
ROOT
HETATM    1  N3  UNL     1       1.866  -0.800   0.206  1.00  0.00    -0.268 N 
ATOM      2  H3  UNL     1       1.969  -1.792   0.419  1.00  0.00     0.190 HD
HETATM    3  C1  UNL     1       0.725  -0.351  -0.198  1.00  0.00     0.159 C 
HETATM    4  C2  UNL     1      -0.372  -1.363  -0.320  1.00  0.00     0.317 C 
HETATM    5  N4  UNL     1      -1.665  -0.817  -0.056  1.00  0.00    -0.066 N 
ATOM      6  H41 UNL     1      -2.231  -1.435   0.525  1.00  0.00     0.277 HD
ATOM      7  H42 UNL     1      -2.257  -0.813  -0.887  1.00  0.00     0.277 HD
HETATM    8  C3  UNL     1      -1.529   0.504   0.524  1.00  0.00     0.259 C 
HETATM    9  C4  UNL     1      -0.867   1.373  -0.549  1.00  0.00     0.204 C 
HETATM   10  O1  UNL     1       0.515   0.990  -0.503  1.00  0.00    -0.335 OA
ENDROOT
BRANCH   1  11
HETATM   11  N2  UNL     1       2.945   0.041   0.354  1.00  0.00    -0.248 N 
HETATM   12  N1  UNL     1       2.989   1.116  -0.308  1.00  0.00    -0.331 N 
ATOM     13  H12 UNL     1       2.223   1.344  -0.942  1.00  0.00     0.178 HD
ATOM     14  H11 UNL     1       3.789   1.739  -0.198  1.00  0.00     0.178 HD
ATOM     15  H2  UNL     1       3.703  -0.201   0.993  1.00  0.00     0.207 HD
ENDBRANCH   1  11
TORSDOF 1
