REMARK  10 active torsions:
REMARK  status: ('A' for Active; 'I' for Inactive)
REMARK       I    between atoms: C2_2  and  N1_4 
REMARK    1  A    between atoms: N1_4  and  C3_6 
REMARK    2  A    between atoms: C9_12  and  C10_13 
REMARK       I    between atoms: C10_13  and  N2_15 
REMARK    3  A    between atoms: N2_15  and  C11_17 
REMARK    4  A    between atoms: C11_17  and  C12_18 
REMARK    5  A    between atoms: C12_18  and  C13_19 
REMARK    6  A    between atoms: C13_19  and  C14_20 
REMARK    7  A    between atoms: C14_20  and  C15_21 
REMARK    8  A    between atoms: C15_21  and  N3_22 
REMARK       I    between atoms: N3_22  and  C16_24 
REMARK    9  A    between atoms: C16_24  and  O4_26 
REMARK   10  A    between atoms: O4_26  and  C17_27 
ROOT
HETATM    1  C3  UNL     1      -3.920   0.419   1.538  1.00  0.00     0.097 C 
HETATM    2  C4  UNL     1      -3.089   0.003   2.714  1.00  0.00     0.005 C 
HETATM    3  C5  UNL     1      -3.273   1.080   3.796  1.00  0.00     0.012 C 
HETATM    4  C6  UNL     1      -1.615   0.007   2.399  1.00  0.00     0.007 C 
HETATM    5  C7  UNL     1      -1.239  -0.530   1.076  1.00  0.00     0.007 C 
HETATM    6  C8  UNL     1      -2.172  -0.152  -0.017  1.00  0.00     0.009 C 
HETATM    7  C9  UNL     1      -1.901  -0.898  -1.296  1.00  0.00     0.083 C 
HETATM    8  C21 UNL     1      -1.975  -2.374  -1.136  1.00  0.00     0.020 C 
HETATM    9  C22 UNL     1      -3.005  -2.837  -0.169  1.00  0.00    -0.004 A 
HETATM   10  C23 UNL     1      -3.864  -3.889  -0.885  1.00  0.00    -0.006 A 
HETATM   11  C24 UNL     1      -4.650  -3.517  -2.088  1.00  0.00     0.010 A 
HETATM   12  C25 UNL     1      -5.265  -3.518  -0.733  1.00  0.00    -0.009 A 
HETATM   13  C26 UNL     1      -5.336  -2.245   0.065  1.00  0.00     0.011 A 
HETATM   14  C27 UNL     1      -3.918  -1.853   0.436  1.00  0.00     0.001 A 
HETATM   15  C28 UNL     1      -3.640  -0.406   0.290  1.00  0.00    -0.015 C 
HETATM   16  C29 UNL     1      -4.439   0.276  -0.813  1.00  0.00     0.018 C 
ENDROOT
BRANCH   7  17
HETATM   17  C10 UNL     1      -0.700  -0.387  -1.971  1.00  0.00     0.222 C 
HETATM   18  O2  UNL     1       0.305  -1.129  -2.009  1.00  0.00    -0.273 OA
HETATM   19  N2  UNL     1      -0.656   0.885  -2.564  1.00  0.00    -0.361 N 
ATOM     20  H2  UNL     1      -1.511   1.437  -2.492  1.00  0.00     0.162 HD
BRANCH  19  21
HETATM   21  C11 UNL     1       0.418   1.503  -3.249  1.00  0.00     0.122 C 
BRANCH  21  22
HETATM   22  C12 UNL     1       1.609   1.679  -2.335  1.00  0.00     0.020 C 
BRANCH  22  23
HETATM   23  C13 UNL     1       2.740   2.326  -3.126  1.00  0.00     0.003 C 
BRANCH  23  24
HETATM   24  C14 UNL     1       3.964   2.561  -2.327  1.00  0.00     0.020 C 
BRANCH  24  25
HETATM   25  C15 UNL     1       4.561   1.318  -1.701  1.00  0.00     0.125 C 
BRANCH  25  26
HETATM   26  N3  UNL     1       5.769   1.699  -1.005  1.00  0.00    -0.337 N 
HETATM   27  C16 UNL     1       6.534   0.731  -0.281  1.00  0.00     0.361 C 
HETATM   28  O3  UNL     1       6.154  -0.460  -0.233  1.00  0.00    -0.238 OA
ATOM     29  H3  UNL     1       6.080   2.670  -1.030  1.00  0.00     0.164 HD
BRANCH  27  30
HETATM   30  O4  UNL     1       7.695   1.066   0.375  1.00  0.00    -0.294 OA
BRANCH  30  31
HETATM   31  C17 UNL     1       8.519   0.216   1.108  1.00  0.00     0.061 C 
HETATM   32  C18 UNL     1       9.681   1.087   1.611  1.00  0.00     0.046 C 
HETATM   33  C19 UNL     1       7.884  -0.396   2.325  1.00  0.00     0.046 C 
HETATM   34  C20 UNL     1       9.123  -0.888   0.288  1.00  0.00     0.046 C 
ENDBRANCH  30  31
ENDBRANCH  27  30
ENDBRANCH  25  26
ENDBRANCH  24  25
ENDBRANCH  23  24
ENDBRANCH  22  23
ENDBRANCH  21  22
ENDBRANCH  19  21
ENDBRANCH   7  17
BRANCH   1  35
HETATM   35  N1  UNL     1      -5.291   0.505   1.903  1.00  0.00    -0.356 N 
HETATM   36  C2  UNL     1      -5.940   1.764   1.978  1.00  0.00     0.213 C 
HETATM   37  C1  UNL     1      -7.376   1.946   2.350  1.00  0.00     0.117 C 
HETATM   38  O1  UNL     1      -5.309   2.847   1.723  1.00  0.00    -0.274 OA
ATOM     39  H1  UNL     1      -5.813  -0.346   2.113  1.00  0.00     0.162 HD
ENDBRANCH   1  35
TORSDOF 10
