REMARK  15 active torsions:
REMARK  status: ('A' for Active; 'I' for Inactive)
REMARK    1  A    between atoms: N1_1  and  N2_4 
REMARK    2  A    between atoms: N2_4  and  C1_6 
REMARK    3  A    between atoms: N3_7  and  C2_9 
REMARK    4  A    between atoms: C2_9  and  C3_10 
REMARK    5  A    between atoms: C3_10  and  C4_11 
REMARK    6  A    between atoms: C4_11  and  C5_12 
REMARK    7  A    between atoms: C5_12  and  C6_13 
REMARK    8  A    between atoms: C5_12  and  N4_15 
REMARK       I    between atoms: N4_15  and  C7_17 
REMARK    9  A    between atoms: C7_17  and  C8_19 
REMARK       I    between atoms: N5_23  and  C12_24 
REMARK   10  A    between atoms: C12_24  and  C13_26 
REMARK   11  A    between atoms: C13_26  and  C14_28 
REMARK   12  A    between atoms: C14_28  and  C15_29 
REMARK   13  A    between atoms: C15_29  and  C16_30 
REMARK   14  A    between atoms: C16_30  and  O5_31 
REMARK   15  A    between atoms: C16_30  and  O6_33 
ROOT
HETATM    1  N4  UNL     1       1.076  -2.257   0.337  1.00  0.00    -0.348 N 
ATOM      2  H4  UNL     1       1.130  -3.109   0.896  1.00  0.00     0.163 HD
HETATM    3  C7  UNL     1      -0.178  -1.633   0.152  1.00  0.00     0.241 C 
HETATM    4  O2  UNL     1      -0.240  -0.594  -0.536  1.00  0.00    -0.271 OA
ENDROOT
BRANCH   3   5
HETATM    5  C8  UNL     1      -1.426  -2.165   0.744  1.00  0.00     0.179 C 
HETATM    6  C9  UNL     1      -1.769  -3.556   0.332  1.00  0.00     0.037 C 
HETATM    7  C10 UNL     1      -2.780  -3.420  -0.757  1.00  0.00     0.022 C 
HETATM    8  C11 UNL     1      -2.933  -1.907  -0.988  1.00  0.00     0.127 C 
HETATM    9  N5  UNL     1      -2.577  -1.386   0.304  1.00  0.00    -0.332 N 
HETATM   10  C12 UNL     1      -3.150  -0.346   1.073  1.00  0.00     0.290 C 
HETATM   11  O3  UNL     1      -2.632  -0.093   2.218  1.00  0.00    -0.264 OA
BRANCH  10  12
HETATM   12  C13 UNL     1      -4.273   0.482   0.710  1.00  0.00     0.216 C 
HETATM   13  O4  UNL     1      -4.842   0.303  -0.415  1.00  0.00    -0.287 OA
BRANCH  12  14
HETATM   14  C14 UNL     1      -4.786   1.534   1.602  1.00  0.00     0.094 C 
BRANCH  14  15
HETATM   15  C15 UNL     1      -4.080   2.839   1.555  1.00  0.00     0.068 C 
BRANCH  15  16
HETATM   16  C16 UNL     1      -4.077   3.531   0.222  1.00  0.00     0.254 C 
BRANCH  16  17
HETATM   17  O5  UNL     1      -3.442   2.735  -0.726  1.00  0.00    -0.371 OA
ATOM     18  H5  UNL     1      -3.440   3.173  -1.569  1.00  0.00     0.212 HD
ENDBRANCH  16  17
BRANCH  16  19
HETATM   19  O6  UNL     1      -3.483   4.803   0.326  1.00  0.00    -0.371 OA
ATOM     20  H6  UNL     1      -3.481   5.241  -0.517  1.00  0.00     0.212 HD
ENDBRANCH  16  19
ENDBRANCH  15  16
ENDBRANCH  14  15
ENDBRANCH  12  14
ENDBRANCH  10  12
ENDBRANCH   3   5
BRANCH   1  21
HETATM   21  C5  UNL     1       2.290  -1.717  -0.248  1.00  0.00     0.146 C 
BRANCH  21  22
HETATM   22  C4  UNL     1       3.307  -1.365   0.809  1.00  0.00     0.034 C 
BRANCH  22  23
HETATM   23  C3  UNL     1       4.479  -0.668   0.211  1.00  0.00     0.022 C 
BRANCH  23  24
HETATM   24  C2  UNL     1       4.163   0.618  -0.486  1.00  0.00     0.120 C 
BRANCH  24  25
HETATM   25  N3  UNL     1       5.421   1.134  -0.984  1.00  0.00    -0.385 N 
HETATM   26  C1  UNL     1       5.521   2.370  -1.243  1.00  0.00     0.192 C 
ATOM     27  H3  UNL     1       6.216   0.511  -1.124  1.00  0.00     0.160 HD
BRANCH  26  28
HETATM   28  N2  UNL     1       6.719   2.962  -1.736  1.00  0.00    -0.303 N 
ATOM     29  H2  UNL     1       7.293   2.554  -2.474  1.00  0.00     0.187 HD
BRANCH  28  30
HETATM   30  N1  UNL     1       7.017   4.163  -1.094  1.00  0.00    -0.344 N 
ATOM     31  H12 UNL     1       6.434   4.559  -0.357  1.00  0.00     0.176 HD
ATOM     32  H11 UNL     1       7.875   4.587  -1.447  1.00  0.00     0.176 HD
ENDBRANCH  28  30
ENDBRANCH  26  28
ENDBRANCH  24  25
ENDBRANCH  23  24
ENDBRANCH  22  23
ENDBRANCH  21  22
BRANCH  21  33
HETATM   33  C6  UNL     1       2.833  -2.620  -1.302  1.00  0.00     0.256 C 
HETATM   34  O1  UNL     1       2.323  -3.674  -1.631  1.00  0.00    -0.305 OA
ENDBRANCH  21  33
ENDBRANCH   1  21
TORSDOF 15
