REMARK  14 active torsions:
REMARK  status: ('A' for Active; 'I' for Inactive)
REMARK    1  A    between atoms: C2_2  and  N1_3 
REMARK    2  A    between atoms: N1_3  and  C3_4 
REMARK    3  A    between atoms: N1_3  and  C8_12 
REMARK       I    between atoms: N1_3  and  C16_26 
REMARK    4  A    between atoms: C3_4  and  C4_5 
REMARK    5  A    between atoms: C4_5  and  N2_6 
REMARK    6  A    between atoms: N2_6  and  C5_9 
REMARK    7  A    between atoms: C8_12  and  C9_13 
REMARK    8  A    between atoms: C9_13  and  S1_14 
REMARK    9  A    between atoms: S1_14  and  C10_16 
REMARK   10  A    between atoms: C10_16  and  C11_17 
REMARK   11  A    between atoms: C14_21  and  C15_22 
REMARK   12  A    between atoms: C15_22  and  O2_23 
REMARK   13  A    between atoms: C16_26  and  C17_28 
REMARK   14  A    between atoms: C17_28  and  O5_29 
ROOT
HETATM    1  N1  UNL     1      -1.774   0.444   0.117  1.00  0.00    -0.001 N 
HETATM    2  C16 UNL     1      -1.915   1.182  -1.048  1.00  0.00     0.341 C 
HETATM    3  O4  UNL     1      -2.505   0.642  -2.009  1.00  0.00    -0.263 OA
ENDROOT
BRANCH   1   4
HETATM    4  C2  UNL     1      -1.954   1.070   1.376  1.00  0.00     0.243 C 
HETATM    5  C1  UNL     1      -2.742   2.312   1.480  1.00  0.00     0.035 C 
ENDBRANCH   1   4
BRANCH   1   6
HETATM    6  C3  UNL     1      -2.765  -0.653   0.062  1.00  0.00     0.274 C 
BRANCH   6   7
HETATM    7  C4  UNL     1      -4.152  -0.242   0.394  1.00  0.00     0.261 C 
BRANCH   7   8
HETATM    8  N2  UNL     1      -5.063  -1.370   0.284  1.00  0.00    -0.070 N 
ATOM      9  H22 UNL     1      -5.005  -1.801  -0.639  1.00  0.00     0.277 HD
ATOM     10  H21 UNL     1      -4.746  -2.156   0.852  1.00  0.00     0.277 HD
BRANCH   8  11
HETATM   11  C5  UNL     1      -6.419  -1.012   0.605  1.00  0.00     0.177 C 
HETATM   12  C6  UNL     1      -7.012   0.006  -0.309  1.00  0.00     0.039 C 
HETATM   13  C7  UNL     1      -7.334  -2.208   0.649  1.00  0.00     0.039 C 
ENDBRANCH   8  11
ENDBRANCH   7   8
ENDBRANCH   6   7
ENDBRANCH   1   6
BRANCH   1  14
HETATM   14  C8  UNL     1      -0.504  -0.324   0.135  1.00  0.00     0.260 C 
BRANCH  14  15
HETATM   15  C9  UNL     1       0.659   0.361  -0.436  1.00  0.00     0.137 C 
BRANCH  15  16
HETATM   16  S1  UNL     1       2.055  -0.770  -0.290  1.00  0.00     0.019 S 
HETATM   17  O1  UNL     1       2.287  -1.107   1.309  1.00  0.00    -0.258 OA
BRANCH  16  18
HETATM   18  C10 UNL     1       3.471  -0.102  -1.110  1.00  0.00     0.142 C 
BRANCH  18  19
HETATM   19  C11 UNL     1       4.671  -0.991  -1.027  1.00  0.00     0.164 C 
HETATM   20  C12 UNL     1       5.140  -1.274   0.358  1.00  0.00     0.307 C 
HETATM   21  N3  UNL     1       6.549  -1.032   0.298  1.00  0.00     0.117 N 
HETATM   22  C13 UNL     1       7.360  -2.195   0.510  1.00  0.00     0.313 C 
HETATM   23  C14 UNL     1       6.809  -0.364  -0.930  1.00  0.00     0.382 C 
HETATM   24  O3  UNL     1       5.709  -0.440  -1.734  1.00  0.00    -0.347 OA
BRANCH  23  25
HETATM   25  C15 UNL     1       7.173   1.089  -0.703  1.00  0.00     0.228 C 
BRANCH  25  26
HETATM   26  O2  UNL     1       8.315   1.152   0.093  1.00  0.00    -0.396 OA
ATOM     27  H2  UNL     1       8.543   2.063   0.235  1.00  0.00     0.209 HD
ENDBRANCH  25  26
ENDBRANCH  23  25
ENDBRANCH  18  19
ENDBRANCH  16  18
ENDBRANCH  15  16
ENDBRANCH  14  15
ENDBRANCH   1  14
BRANCH   2  28
HETATM   28  C17 UNL     1      -1.474   2.551  -1.377  1.00  0.00     0.275 C 
BRANCH  28  29
HETATM   29  O5  UNL     1      -1.789   2.916  -2.715  1.00  0.00    -0.392 OA
ATOM     30  H5  UNL     1      -1.505   3.797  -2.927  1.00  0.00     0.210 HD
ENDBRANCH  28  29
ENDBRANCH   2  28
TORSDOF 14
