REMARK  16 active torsions:
REMARK  status: ('A' for Active; 'I' for Inactive)
REMARK    1  A    between atoms: C2_2  and  C4_4 
REMARK    2  A    between atoms: C4_4  and  O1_5 
REMARK    3  A    between atoms: C4_4  and  C5_7 
REMARK    4  A    between atoms: C5_7  and  C6_8 
REMARK    5  A    between atoms: C5_7  and  N4_16 
REMARK    6  A    between atoms: C6_8  and  N1_9 
REMARK    7  A    between atoms: N1_9  and  N2_11 
REMARK    8  A    between atoms: N4_16  and  C8_18 
REMARK    9  A    between atoms: C8_18  and  C9_19 
REMARK   10  A    between atoms: C9_19  and  C10_20 
REMARK   11  A    between atoms: C10_20  and  C11_21 
REMARK   12  A    between atoms: C11_21  and  C12_22 
REMARK   13  A    between atoms: C12_22  and  C13_23 
REMARK   14  A    between atoms: C13_23  and  N5_24 
REMARK   15  A    between atoms: C14_28  and  O2_29 
REMARK   16  A    between atoms: C14_28  and  N6_31 
ROOT
HETATM    1  C8  UNL     1      -0.441  -0.063  -0.696  1.00  0.00     0.086 C 
HETATM    2  C14 UNL     1       0.406   0.991  -1.175  1.00  0.00     0.174 C 
ENDROOT
BRANCH   1   3
HETATM    3  N4  UNL     1      -1.729   0.339  -0.172  1.00  0.00    -0.347 N 
HETATM    4  C7  UNL     1      -1.742   1.071   1.034  1.00  0.00     0.156 C 
BRANCH   3   5
HETATM    5  C5  UNL     1      -2.799  -0.563  -0.271  1.00  0.00     0.064 C 
BRANCH   5   6
HETATM    6  C4  UNL     1      -3.038  -1.748   0.473  1.00  0.00     0.091 C 
BRANCH   6   7
HETATM    7  C2  UNL     1      -3.483  -2.012   1.663  1.00  0.00    -0.052 C 
HETATM    8  C1  UNL     1      -3.916  -1.045   2.690  1.00  0.00     0.046 C 
HETATM    9  C3  UNL     1      -3.589  -3.459   2.126  1.00  0.00     0.046 C 
ENDBRANCH   6   7
BRANCH   6  10
HETATM   10  O1  UNL     1      -2.720  -2.973  -0.238  1.00  0.00    -0.358 OA
ATOM     11  H1  UNL     1      -2.394  -2.780  -1.109  1.00  0.00     0.217 HD
ENDBRANCH   6  10
ENDBRANCH   5   6
BRANCH   5  12
HETATM   12  C6  UNL     1      -3.217  -0.833  -1.730  1.00  0.00     0.201 C 
BRANCH  12  13
HETATM   13  N1  UNL     1      -3.027   0.298  -2.579  1.00  0.00    -0.317 N 
ATOM     14  H1  UNL     1      -2.394   0.205  -3.373  1.00  0.00     0.182 HD
BRANCH  13  15
HETATM   15  N2  UNL     1      -3.662   1.523  -2.379  1.00  0.00    -0.254 N 
HETATM   16  N3  UNL     1      -4.890   1.681  -2.624  1.00  0.00    -0.331 N 
ATOM     17  H32 UNL     1      -5.417   0.882  -2.977  1.00  0.00     0.178 HD
ATOM     18  H31 UNL     1      -5.355   2.577  -2.478  1.00  0.00     0.178 HD
ATOM     19  H2  UNL     1      -3.120   2.312  -2.026  1.00  0.00     0.207 HD
ENDBRANCH  13  15
ENDBRANCH  12  13
ENDBRANCH   5  12
ENDBRANCH   3   5
ENDBRANCH   1   3
BRANCH   1  20
HETATM   20  C9  UNL     1       0.266  -1.107   0.074  1.00  0.00     0.030 C 
BRANCH  20  21
HETATM   21  C10 UNL     1       1.543  -1.699  -0.379  1.00  0.00    -0.024 C 
BRANCH  21  22
HETATM   22  C11 UNL     1       2.770  -0.919  -0.561  1.00  0.00     0.029 C 
BRANCH  22  23
HETATM   23  C12 UNL     1       3.957  -1.840  -0.967  1.00  0.00     0.031 C 
BRANCH  23  24
HETATM   24  C13 UNL     1       4.227  -2.875   0.070  1.00  0.00     0.230 C 
BRANCH  24  25
HETATM   25  N5  UNL     1       4.543  -2.205   1.325  1.00  0.00    -0.079 N 
ATOM     26  H53 UNL     1       5.309  -1.538   1.230  1.00  0.00     0.274 HD
ATOM     27  H52 UNL     1       3.818  -1.546   1.610  1.00  0.00     0.274 HD
ATOM     28  H51 UNL     1       4.728  -2.914   2.035  1.00  0.00     0.274 HD
ENDBRANCH  24  25
ENDBRANCH  23  24
ENDBRANCH  22  23
ENDBRANCH  21  22
ENDBRANCH  20  21
ENDBRANCH   1  20
BRANCH   2  29
HETATM   29  O2  UNL     1       0.472   0.949  -2.512  1.00  0.00    -0.344 OA
ATOM     30  H2  UNL     1       1.033   1.647  -2.829  1.00  0.00     0.219 HD
ENDBRANCH   2  29
BRANCH   2  31
HETATM   31  N6  UNL     1       1.164   2.026  -0.691  1.00  0.00    -0.269 N 
HETATM   32  C15 UNL     1       1.895   2.986  -1.575  1.00  0.00     0.367 C 
HETATM   33  N7  UNL     1       1.457   4.237  -0.961  1.00  0.00    -0.046 N 
HETATM   34  C16 UNL     1       1.747   3.979   0.447  1.00  0.00     0.275 C 
ATOM     35  H72 UNL     1       1.877   5.083  -1.346  1.00  0.00     0.280 HD
ATOM     36  H71 UNL     1       0.496   4.512  -1.166  1.00  0.00     0.280 HD
HETATM   37  C17 UNL     1       3.175   4.363   0.773  1.00  0.00     0.050 C 
HETATM   38  C18 UNL     1       1.539   2.513   0.568  1.00  0.00     0.258 C 
HETATM   39  O3  UNL     1       1.681   1.863   1.611  1.00  0.00    -0.271 OA
ENDBRANCH   2  31
TORSDOF 16
