REMARK  11 active torsions:
REMARK  status: ('A' for Active; 'I' for Inactive)
REMARK    1  A    between atoms: C2_2  and  N2_8 
REMARK    2  A    between atoms: C3_3  and  N1_4 
REMARK    3  A    between atoms: N1_4  and  C4_6 
REMARK    4  A    between atoms: N2_8  and  C6_10 
REMARK    5  A    between atoms: C6_10  and  C7_11 
REMARK    6  A    between atoms: C6_10  and  C10_16 
REMARK    7  A    between atoms: C7_11  and  N3_12 
REMARK    8  A    between atoms: N3_12  and  C9_14 
REMARK       I    between atoms: C10_16  and  N4_18 
REMARK    9  A    between atoms: C14_22  and  C15_23 
REMARK       I    between atoms: C15_23  and  N5_25 
REMARK   10  A    between atoms: N5_25  and  C16_27 
REMARK   11  A    between atoms: C16_27  and  C17_28 
ROOT
HETATM    1  C6  UNL     1      -0.683   0.068   0.097  1.00  0.00     0.098 C 
ENDROOT
BRANCH   1   2
HETATM    2  N2  UNL     1      -2.008  -0.347   0.182  1.00  0.00    -0.351 N 
HETATM    3  C5  UNL     1      -2.245  -1.723  -0.155  1.00  0.00     0.156 C 
BRANCH   2   4
HETATM    4  C2  UNL     1      -2.928   0.341   0.931  1.00  0.00     0.023 C 
HETATM    5  C1  UNL     1      -3.061  -0.358   2.359  1.00  0.00     0.070 C 
HETATM    6  C3  UNL     1      -4.230   0.876   0.606  1.00  0.00     0.115 C 
BRANCH   6   7
HETATM    7  N1  UNL     1      -5.407   0.080   0.510  1.00  0.00    -0.342 N 
ATOM      8  H1  UNL     1      -6.071   0.248   1.266  1.00  0.00     0.167 HD
BRANCH   7   9
HETATM    9  C4  UNL     1      -5.841  -0.880  -0.400  1.00  0.00     0.352 C 
HETATM   10  O1  UNL     1      -5.297  -1.302  -1.437  1.00  0.00    -0.283 OA
ENDBRANCH   7   9
ENDBRANCH   6   7
ENDBRANCH   2   4
ENDBRANCH   1   2
BRANCH   1  11
HETATM   11  C7  UNL     1      -0.240   1.228  -0.668  1.00  0.00     0.187 C 
BRANCH  11  12
HETATM   12  N3  UNL     1      -0.704   2.537  -0.360  1.00  0.00    -0.358 N 
HETATM   13  C8  UNL     1       0.019   3.249   0.703  1.00  0.00     0.152 C 
BRANCH  12  14
HETATM   14  C9  UNL     1      -1.772   3.240  -0.956  1.00  0.00     0.350 C 
HETATM   15  O2  UNL     1      -2.077   4.385  -0.592  1.00  0.00    -0.284 OA
ENDBRANCH  12  14
ENDBRANCH  11  12
ENDBRANCH   1  11
BRANCH   1  16
HETATM   16  C10 UNL     1       0.353  -0.990   0.323  1.00  0.00     0.268 C 
HETATM   17  O3  UNL     1       0.299  -1.684   1.405  1.00  0.00    -0.266 OA
HETATM   18  N4  UNL     1       1.413  -1.324  -0.542  1.00  0.00    -0.334 N 
HETATM   19  C11 UNL     1       1.825  -0.830  -1.835  1.00  0.00     0.127 C 
HETATM   20  C14 UNL     1       2.410  -2.363  -0.229  1.00  0.00     0.179 C 
HETATM   21  C12 UNL     1       2.488  -1.988  -2.525  1.00  0.00     0.022 C 
HETATM   22  C13 UNL     1       2.643  -3.079  -1.516  1.00  0.00     0.037 C 
BRANCH  20  23
HETATM   23  C15 UNL     1       3.606  -1.805   0.411  1.00  0.00     0.241 C 
HETATM   24  O4  UNL     1       4.571  -2.577   0.694  1.00  0.00    -0.271 OA
HETATM   25  N5  UNL     1       3.781  -0.439   0.750  1.00  0.00    -0.349 N 
ATOM     26  H5  UNL     1       3.023   0.208   0.535  1.00  0.00     0.163 HD
BRANCH  25  27
HETATM   27  C16 UNL     1       4.957   0.087   1.375  1.00  0.00     0.235 C 
BRANCH  27  28
HETATM   28  C17 UNL     1       4.775   1.547   1.572  1.00  0.00     0.191 C 
HETATM   29  O5  UNL     1       3.734   2.155   1.230  1.00  0.00    -0.647 OA
HETATM   30  O6  UNL     1       5.772   2.340   2.162  1.00  0.00    -0.647 OA
ENDBRANCH  27  28
ENDBRANCH  25  27
ENDBRANCH  20  23
ENDBRANCH   1  16
TORSDOF 11
