REMARK  15 active torsions:
REMARK  status: ('A' for Active; 'I' for Inactive)
REMARK    1  A    between atoms: N1_2  and  C3_4 
REMARK    2  A    between atoms: N1_2  and  C5_8 
REMARK    3  A    between atoms: C3_4  and  C4_5 
REMARK    4  A    between atoms: C4_5  and  O1_6 
REMARK    5  A    between atoms: C5_8  and  C6_9 
REMARK    6  A    between atoms: C6_9  and  C7_10 
REMARK    7  A    between atoms: C7_10  and  C8_11 
REMARK    8  A    between atoms: C8_11  and  O2_12 
REMARK    9  A    between atoms: O2_12  and  C9_13 
REMARK   10  A    between atoms: C11_15  and  O3_16 
REMARK   11  A    between atoms: C13_19  and  C14_20 
REMARK   12  A    between atoms: C14_20  and  O4_21 
REMARK   13  A    between atoms: C14_20  and  C15_23 
REMARK   14  A    between atoms: C15_23  and  O5_24 
REMARK   15  A    between atoms: O5_24  and  C16_25 
ROOT
HETATM    1  C9  UNL     1       0.419  -2.557  -1.353  1.00  0.00     0.262 C 
HETATM    2  C10 UNL     1      -0.391  -3.772  -1.746  1.00  0.00     0.092 C 
HETATM    3  C11 UNL     1      -1.458  -3.947  -0.688  1.00  0.00     0.125 C 
HETATM    4  C12 UNL     1      -1.806  -2.605  -0.043  1.00  0.00     0.066 C 
HETATM    5  C13 UNL     1      -1.678  -1.567  -1.130  1.00  0.00     0.158 C 
HETATM    6  O6  UNL     1      -0.354  -1.415  -1.535  1.00  0.00    -0.353 OA
ENDROOT
BRANCH   1   7
HETATM    7  O2  UNL     1       1.579  -2.424  -2.068  1.00  0.00    -0.361 OA
BRANCH   7   8
HETATM    8  C8  UNL     1       2.748  -2.417  -1.365  1.00  0.00     0.171 C 
BRANCH   8   9
HETATM    9  C7  UNL     1       2.825  -1.261  -0.350  1.00  0.00     0.028 C 
BRANCH   9  10
HETATM   10  C6  UNL     1       4.135  -1.345   0.357  1.00  0.00     0.030 C 
BRANCH  10  11
HETATM   11  C5  UNL     1       4.312  -0.289   1.368  1.00  0.00     0.236 C 
BRANCH  11  12
HETATM   12  N1  UNL     1       4.298   1.072   0.955  1.00  0.00    -0.073 N 
HETATM   13  C1  UNL     1       3.030   1.668   0.723  1.00  0.00     0.272 C 
HETATM   14  C2  UNL     1       4.911   1.813   2.089  1.00  0.00     0.272 C 
BRANCH  12  15
HETATM   15  C3  UNL     1       5.184   1.204  -0.187  1.00  0.00     0.262 C 
BRANCH  15  16
HETATM   16  C4  UNL     1       5.252   2.577  -0.756  1.00  0.00     0.192 C 
BRANCH  16  17
HETATM   17  O1  UNL     1       5.699   3.533   0.143  1.00  0.00    -0.399 OA
ATOM     18  H1  UNL     1       5.742   4.410  -0.220  1.00  0.00     0.209 HD
ENDBRANCH  16  17
ENDBRANCH  15  16
ENDBRANCH  12  15
ENDBRANCH  11  12
ENDBRANCH  10  11
ENDBRANCH   9  10
ENDBRANCH   8   9
ENDBRANCH   7   8
ENDBRANCH   1   7
BRANCH   3  19
HETATM   19  O3  UNL     1      -1.039  -4.780   0.352  1.00  0.00    -0.395 OA
ATOM     20  H3  UNL     1      -1.709  -4.890   1.016  1.00  0.00     0.210 HD
ENDBRANCH   3  19
BRANCH   5  21
HETATM   21  C14 UNL     1      -2.176  -0.204  -0.697  1.00  0.00     0.171 C 
BRANCH  21  22
HETATM   22  O4  UNL     1      -1.388   0.223   0.344  1.00  0.00    -0.391 OA
ATOM     23  H4  UNL     1      -1.700   1.078   0.616  1.00  0.00     0.210 HD
ENDBRANCH  21  22
BRANCH  21  24
HETATM   24  C15 UNL     1      -3.655  -0.210  -0.399  1.00  0.00     0.204 C 
BRANCH  24  25
HETATM   25  O5  UNL     1      -4.138   1.038  -0.076  1.00  0.00    -0.356 OA
BRANCH  25  26
HETATM   26  C16 UNL     1      -5.443   1.152   0.207  1.00  0.00     0.320 C 
HETATM   27  C17 UNL     1      -5.806   1.662   1.569  1.00  0.00     0.063 C 
HETATM   28  C18 UNL     1      -5.896   3.156   1.312  1.00  0.00     0.032 C 
HETATM   29  C19 UNL     1      -6.579   3.177  -0.040  1.00  0.00     0.235 C 
HETATM   30  N2  UNL     1      -6.176   2.000  -0.743  1.00  0.00    -0.049 N 
ATOM     31  H22 UNL     1      -5.643   2.204  -1.589  1.00  0.00     0.280 HD
ATOM     32  H21 UNL     1      -6.955   1.516  -1.190  1.00  0.00     0.280 HD
ENDBRANCH  25  26
ENDBRANCH  24  25
ENDBRANCH  21  24
ENDBRANCH   5  21
TORSDOF 15
