REMARK  11 active torsions:
REMARK  status: ('A' for Active; 'I' for Inactive)
REMARK    1  A    between atoms: C2_2  and  C3_3 
REMARK    2  A    between atoms: C2_2  and  N2_16 
REMARK    3  A    between atoms: C4_4  and  C5_5 
REMARK       I    between atoms: C5_5  and  N1_7 
REMARK    4  A    between atoms: N1_7  and  C6_9 
REMARK    5  A    between atoms: C6_9  and  C7_10 
REMARK    6  A    between atoms: C6_9  and  C8_13 
REMARK    7  A    between atoms: C7_10  and  O2_11 
REMARK    8  A    between atoms: C8_13  and  C9_14 
REMARK    9  A    between atoms: N2_16  and  C10_19 
REMARK   10  A    between atoms: C10_19  and  C11_20 
REMARK   11  A    between atoms: C12_21  and  C13_22 
REMARK       I    between atoms: C13_22  and  N3_24 
ROOT
HETATM    1  C1  UNL     1      -0.355   0.352  -1.397  1.00  0.00     0.044 C 
HETATM    2  C2  UNL     1      -0.521  -0.016   0.041  1.00  0.00     0.205 C 
ENDROOT
BRANCH   2   3
HETATM    3  C3  UNL     1      -1.294   1.018   0.758  1.00  0.00     0.011 C 
HETATM    4  C4  UNL     1      -2.563   1.214   0.723  1.00  0.00     0.072 C 
BRANCH   4   5
HETATM    5  C5  UNL     1      -3.522   0.444  -0.050  1.00  0.00     0.241 C 
HETATM    6  O1  UNL     1      -3.209  -0.501  -0.788  1.00  0.00    -0.269 OA
HETATM    7  N1  UNL     1      -4.917   0.766   0.018  1.00  0.00    -0.351 N 
ATOM      8  H1  UNL     1      -5.219   1.532   0.620  1.00  0.00     0.163 HD
BRANCH   7   9
HETATM    9  C6  UNL     1      -5.892   0.050  -0.727  1.00  0.00     0.114 C 
BRANCH   9  10
HETATM   10  C7  UNL     1      -5.732   0.163  -2.232  1.00  0.00     0.189 C 
BRANCH  10  11
HETATM   11  O2  UNL     1      -6.729  -0.571  -2.890  1.00  0.00    -0.399 OA
ATOM     12  H2  UNL     1      -6.629  -0.500  -3.832  1.00  0.00     0.209 HD
ENDBRANCH  10  11
ENDBRANCH   9  10
BRANCH   9  13
HETATM   13  C8  UNL     1      -6.001  -1.382  -0.271  1.00  0.00     0.096 C 
BRANCH  13  14
HETATM   14  C9  UNL     1      -6.380  -1.437   1.168  1.00  0.00     0.233 C 
HETATM   15  O3  UNL     1      -5.722  -0.780   1.957  1.00  0.00    -0.307 OA
ENDBRANCH  13  14
ENDBRANCH   9  13
ENDBRANCH   7   9
ENDBRANCH   4   5
ENDBRANCH   2   3
BRANCH   2  16
HETATM   16  N2  UNL     1       0.702  -0.293   0.725  1.00  0.00    -0.065 N 
ATOM     17  H22 UNL     1       0.513  -0.634   1.668  1.00  0.00     0.278 HD
ATOM     18  H21 UNL     1       1.152  -1.118   0.328  1.00  0.00     0.278 HD
BRANCH  16  19
HETATM   19  C10 UNL     1       1.608   0.791   0.766  1.00  0.00     0.260 C 
BRANCH  19  20
HETATM   20  C11 UNL     1       2.828   0.333   1.525  1.00  0.00     0.006 C 
HETATM   21  C12 UNL     1       3.982   0.337   0.917  1.00  0.00     0.072 C 
BRANCH  21  22
HETATM   22  C13 UNL     1       5.169  -0.104   1.644  1.00  0.00     0.244 C 
HETATM   23  O4  UNL     1       5.051  -0.478   2.863  1.00  0.00    -0.268 OA
HETATM   24  N3  UNL     1       6.406  -0.109   0.990  1.00  0.00    -0.316 N 
HETATM   25  C14 UNL     1       7.749  -0.478   1.405  1.00  0.00     0.165 C 
HETATM   26  C16 UNL     1       6.900   0.215  -0.305  1.00  0.00     0.322 A 
HETATM   27  C15 UNL     1       8.250  -0.385  -0.016  1.00  0.00     0.256 A 
HETATM   28  N4  UNL     1       7.418  -0.892  -1.085  1.00  0.00    -0.042 N 
ATOM     29  H42 UNL     1       7.569  -1.038  -2.083  1.00  0.00     0.280 HD
ATOM     30  H41 UNL     1       7.058  -1.818  -1.315  1.00  0.00     0.280 HD
ENDBRANCH  21  22
ENDBRANCH  19  20
ENDBRANCH  16  19
ENDBRANCH   2  16
TORSDOF 11
