REMARK  12 active torsions:
REMARK  status: ('A' for Active; 'I' for Inactive)
REMARK       I    between atoms: N1_2  and  C3_4 
REMARK    1  A    between atoms: C3_4  and  C4_6 
REMARK    2  A    between atoms: C4_6  and  N2_7 
REMARK    3  A    between atoms: C4_6  and  C7_16 
REMARK       I    between atoms: N2_7  and  C5_9 
REMARK    4  A    between atoms: C5_9  and  C6_11 
REMARK    5  A    between atoms: C6_11  and  N3_12 
REMARK    6  A    between atoms: N3_12  and  N4_13 
REMARK    7  A    between atoms: C7_16  and  O3_17 
REMARK    8  A    between atoms: C7_16  and  C8_19 
REMARK    9  A    between atoms: C8_19  and  C9_20 
REMARK   10  A    between atoms: C9_20  and  C10_21 
REMARK   11  A    between atoms: C9_20  and  N5_23 
REMARK       I    between atoms: N5_23  and  C11_24 
REMARK   12  A    between atoms: C11_24  and  C12_26 
ROOT
HETATM    1  C4  UNL     1      -1.595   0.103  -0.252  1.00  0.00     0.205 C 
ENDROOT
BRANCH   1   2
HETATM    2  C3  UNL     1      -2.539  -0.687  -1.124  1.00  0.00     0.244 C 
HETATM    3  N1  UNL     1      -3.454  -0.080  -2.035  1.00  0.00    -0.359 N 
HETATM    4  C1  UNL     1      -4.315  -0.937  -2.829  1.00  0.00     0.152 C 
HETATM    5  C2  UNL     1      -3.616   1.327  -2.237  1.00  0.00     0.152 C 
HETATM    6  O1  UNL     1      -2.459  -1.933  -0.982  1.00  0.00    -0.271 OA
ENDBRANCH   1   2
BRANCH   1   7
HETATM    7  N2  UNL     1      -1.556  -0.504   1.038  1.00  0.00    -0.340 N 
HETATM    8  C5  UNL     1      -2.323   0.038   2.149  1.00  0.00     0.273 C 
HETATM    9  O2  UNL     1      -3.019   1.031   1.943  1.00  0.00    -0.266 OA
ATOM     10  H2  UNL     1      -0.980  -1.333   1.184  1.00  0.00     0.163 HD
BRANCH   8  11
HETATM   11  C6  UNL     1      -2.241  -0.604   3.454  1.00  0.00     0.282 C 
BRANCH  11  12
HETATM   12  N3  UNL     1      -2.927  -1.623   3.705  1.00  0.00    -0.340 NA
BRANCH  12  13
HETATM   13  N4  UNL     1      -3.248  -2.792   4.002  1.00  0.00    -0.281 N 
ATOM     14  H42 UNL     1      -2.293  -3.134   4.109  1.00  0.00     0.191 HD
ATOM     15  H41 UNL     1      -3.806  -3.621   4.206  1.00  0.00     0.191 HD
ENDBRANCH  12  13
ENDBRANCH  11  12
ENDBRANCH   8  11
ENDBRANCH   1   7
BRANCH   1  16
HETATM   16  C7  UNL     1      -0.333   0.449  -0.965  1.00  0.00     0.153 C 
BRANCH  16  17
HETATM   17  O3  UNL     1      -0.633   0.946  -2.265  1.00  0.00    -0.393 OA
ATOM     18  H3  UNL     1       0.172   1.167  -2.720  1.00  0.00     0.210 HD
ENDBRANCH  16  17
BRANCH  16  19
HETATM   19  C8  UNL     1       0.566   1.446  -0.358  1.00  0.00     0.081 C 
BRANCH  19  20
HETATM   20  C9  UNL     1       1.258   1.083   0.959  1.00  0.00     0.230 C 
BRANCH  20  21
HETATM   21  C10 UNL     1       1.945   2.388   1.338  1.00  0.00     0.270 C 
HETATM   22  O4  UNL     1       3.052   2.532   1.602  1.00  0.00    -0.303 OA
ENDBRANCH  20  21
BRANCH  20  23
HETATM   23  N5  UNL     1       2.236   0.091   0.770  1.00  0.00    -0.402 NA
HETATM   24  C11 UNL     1       3.179  -0.864   0.588  1.00  0.00     0.291 C 
HETATM   25  O5  UNL     1       2.992  -2.044   0.291  1.00  0.00    -0.257 OA
BRANCH  24  26
HETATM   26  C12 UNL     1       4.664  -0.514   0.743  1.00  0.00     0.093 A 
HETATM   27  C13 UNL     1       5.519  -1.109  -0.358  1.00  0.00     0.016 A 
HETATM   28  C14 UNL     1       5.628  -1.636   1.025  1.00  0.00     0.016 A 
ENDBRANCH  24  26
ENDBRANCH  20  23
ENDBRANCH  19  20
ENDBRANCH  16  19
ENDBRANCH   1  16
TORSDOF 12
