REMARK  12 active torsions:
REMARK  status: ('A' for Active; 'I' for Inactive)
REMARK    1  A    between atoms: C2_2  and  C4_4 
REMARK    2  A    between atoms: C4_4  and  C5_5 
REMARK    3  A    between atoms: C4_4  and  N1_8 
REMARK    4  A    between atoms: C5_5  and  O1_6 
REMARK       I    between atoms: N1_8  and  C6_10 
REMARK    5  A    between atoms: C6_10  and  C7_12 
REMARK    6  A    between atoms: C7_12  and  C8_13 
REMARK    7  A    between atoms: C7_12  and  N2_17 
REMARK    8  A    between atoms: C8_13  and  C9_14 
REMARK       I    between atoms: N2_17  and  C12_19 
REMARK    9  A    between atoms: C12_19  and  C13_21 
REMARK   10  A    between atoms: C13_21  and  C14_23 
REMARK   11  A    between atoms: C14_23  and  N3_24 
REMARK   12  A    between atoms: N3_24  and  C16_26 
ROOT
HETATM    1  C7  UNL     1       0.085   0.201  -0.758  1.00  0.00     0.100 C 
ENDROOT
BRANCH   1   2
HETATM    2  C6  UNL     1      -0.773   0.033   0.443  1.00  0.00     0.268 C 
HETATM    3  N1  UNL     1      -2.179  -0.060   0.227  1.00  0.00    -0.349 N 
ATOM      4  H1  UNL     1      -2.532  -0.008  -0.729  1.00  0.00     0.163 HD
HETATM    5  O2  UNL     1      -0.362  -0.032   1.615  1.00  0.00    -0.266 OA
BRANCH   3   6
HETATM    6  C4  UNL     1      -3.122  -0.224   1.304  1.00  0.00     0.111 C 
BRANCH   6   7
HETATM    7  C2  UNL     1      -3.845  -1.552   1.216  1.00  0.00     0.002 C 
HETATM    8  C1  UNL     1      -4.732  -1.668   0.012  1.00  0.00     0.011 C 
HETATM    9  C3  UNL     1      -4.648  -1.819   2.473  1.00  0.00     0.011 C 
ENDBRANCH   6   7
BRANCH   6  10
HETATM   10  C5  UNL     1      -4.057   0.936   1.376  1.00  0.00     0.189 C 
BRANCH  10  11
HETATM   11  O1  UNL     1      -4.801   1.129   0.239  1.00  0.00    -0.399 OA
ATOM     12  H1  UNL     1      -5.396   1.868   0.285  1.00  0.00     0.209 HD
ENDBRANCH  10  11
ENDBRANCH   6  10
ENDBRANCH   3   6
ENDBRANCH   1   2
BRANCH   1  13
HETATM   13  C8  UNL     1      -0.431   1.114  -1.786  1.00  0.00     0.013 C 
BRANCH  13  14
HETATM   14  C9  UNL     1      -0.700   2.526  -1.509  1.00  0.00     0.010 A 
HETATM   15  C10 UNL     1       0.277   3.536  -1.058  1.00  0.00     0.009 A 
HETATM   16  C11 UNL     1      -0.944   3.127  -0.179  1.00  0.00     0.009 A 
ENDBRANCH  13  14
ENDBRANCH   1  13
BRANCH   1  17
HETATM   17  N2  UNL     1       1.480   0.307  -0.434  1.00  0.00    -0.316 N 
HETATM   18  C12 UNL     1       2.437  -0.699  -0.754  1.00  0.00     0.293 C 
HETATM   19  O3  UNL     1       2.077  -1.767  -1.359  1.00  0.00    -0.264 OA
ATOM     20  H2  UNL     1       1.802   1.145   0.050  1.00  0.00     0.169 HD
BRANCH  18  21
HETATM   21  C13 UNL     1       3.840  -0.569  -0.417  1.00  0.00     0.234 C 
HETATM   22  O4  UNL     1       4.255   0.449   0.175  1.00  0.00    -0.285 OA
BRANCH  21  23
HETATM   23  C14 UNL     1       4.787  -1.640  -0.771  1.00  0.00     0.213 C 
BRANCH  23  24
HETATM   24  N3  UNL     1       6.133  -1.367  -0.378  1.00  0.00    -0.356 N 
HETATM   25  C15 UNL     1       7.004  -0.674  -1.304  1.00  0.00     0.152 C 
BRANCH  24  26
HETATM   26  C16 UNL     1       6.588  -1.781   0.910  1.00  0.00     0.350 C 
HETATM   27  O5  UNL     1       7.759  -1.543   1.249  1.00  0.00    -0.284 OA
ENDBRANCH  24  26
ENDBRANCH  23  24
ENDBRANCH  21  23
ENDBRANCH  18  21
ENDBRANCH   1  17
TORSDOF 12
