REMARK  10 active torsions:
REMARK  status: ('A' for Active; 'I' for Inactive)
REMARK    1  A    between atoms: C2_2  and  C3_3 
REMARK    2  A    between atoms: C2_2  and  N3_15 
REMARK    3  A    between atoms: C3_3  and  C4_4 
REMARK    4  A    between atoms: C4_4  and  C5_5 
REMARK    5  A    between atoms: C4_4  and  N1_8 
REMARK    6  A    between atoms: N1_8  and  C6_9 
REMARK    7  A    between atoms: N1_8  and  C7_13 
REMARK    8  A    between atoms: N3_15  and  C8_18 
REMARK    9  A    between atoms: C8_18  and  C9_19 
REMARK       I    between atoms: C9_19  and  N4_21 
REMARK   10  A    between atoms: N4_21  and  C10_23 
ROOT
HETATM    1  N3  UNL     1      -0.478   0.180  -0.514  1.00  0.00    -0.060 N 
ATOM      2  H31 UNL     1       0.088   0.266  -1.358  1.00  0.00     0.278 HD
ATOM      3  H32 UNL     1      -0.095  -0.693  -0.152  1.00  0.00     0.278 HD
ENDROOT
BRANCH   1   4
HETATM    4  C2  UNL     1      -1.902   0.042  -0.840  1.00  0.00     0.207 C 
HETATM    5  C1  UNL     1      -2.325   1.269  -1.525  1.00  0.00     0.044 C 
BRANCH   4   6
HETATM    6  C3  UNL     1      -2.629  -0.513   0.286  1.00  0.00     0.042 C 
BRANCH   6   7
HETATM    7  C4  UNL     1      -4.022  -0.978   0.231  1.00  0.00     0.117 C 
BRANCH   7   8
HETATM    8  C5  UNL     1      -4.316  -2.062  -0.719  1.00  0.00     0.227 C 
HETATM    9  O1  UNL     1      -3.563  -3.001  -0.998  1.00  0.00    -0.643 OA
HETATM   10  O2  UNL     1      -5.558  -2.029  -1.365  1.00  0.00    -0.643 OA
ENDBRANCH   7   8
BRANCH   7  11
HETATM   11  N1  UNL     1      -5.088  -0.017   0.365  1.00  0.00    -0.280 N 
BRANCH  11  12
HETATM   12  C6  UNL     1      -5.580   0.828  -0.651  1.00  0.00     0.184 C 
HETATM   13  N2  UNL     1      -6.560   1.638  -0.373  1.00  0.00    -0.395 N 
ATOM     14  H22 UNL     1      -6.954   1.649   0.568  1.00  0.00     0.156 HD
ATOM     15  H21 UNL     1      -6.916   2.249  -1.108  1.00  0.00     0.156 HD
ENDBRANCH  11  12
BRANCH  11  16
HETATM   16  C7  UNL     1      -5.756   0.061   1.617  1.00  0.00     0.361 C 
HETATM   17  O3  UNL     1      -5.416  -0.683   2.553  1.00  0.00    -0.283 OA
ENDBRANCH  11  16
ENDBRANCH   7  11
ENDBRANCH   6   7
ENDBRANCH   4   6
ENDBRANCH   1   4
BRANCH   1  18
HETATM   18  C8  UNL     1      -0.236   1.273   0.392  1.00  0.00     0.335 C 
BRANCH  18  19
HETATM   19  C9  UNL     1       1.243   1.299   0.634  1.00  0.00     0.243 C 
HETATM   20  O4  UNL     1       1.693   2.183   1.404  1.00  0.00    -0.272 OA
HETATM   21  N4  UNL     1       2.134   0.387   0.042  1.00  0.00    -0.353 N 
ATOM     22  H4  UNL     1       1.773  -0.333  -0.584  1.00  0.00     0.163 HD
BRANCH  21  23
HETATM   23  C10 UNL     1       3.529   0.452   0.302  1.00  0.00     0.118 C 
HETATM   24  C11 UNL     1       4.350   0.665  -0.971  1.00  0.00     0.297 C 
HETATM   25  N5  UNL     1       5.463  -0.291  -0.861  1.00  0.00     0.090 N 
HETATM   26  C12 UNL     1       6.230   0.046   0.318  1.00  0.00     0.273 C 
HETATM   27  C15 UNL     1       4.694  -1.458  -0.389  1.00  0.00     0.279 C 
HETATM   28  C13 UNL     1       5.435  -0.420   1.531  1.00  0.00     0.038 C 
HETATM   29  C14 UNL     1       4.124  -0.787   0.870  1.00  0.00     0.040 C 
ENDBRANCH  21  23
ENDBRANCH  18  19
ENDBRANCH   1  18
TORSDOF 10
