REMARK  17 active torsions:
REMARK  status: ('A' for Active; 'I' for Inactive)
REMARK    1  A    between atoms: C2_2  and  C3_3 
REMARK    2  A    between atoms: C3_3  and  N1_4 
REMARK    3  A    between atoms: N1_4  and  C4_5 
REMARK       I    between atoms: N1_4  and  C5_7 
REMARK    4  A    between atoms: C5_7  and  C6_9 
REMARK    5  A    between atoms: C6_9  and  C7_10 
REMARK    6  A    between atoms: C6_9  and  N2_17 
REMARK    7  A    between atoms: C7_10  and  C8_11 
REMARK    8  A    between atoms: C8_11  and  C9_12 
REMARK    9  A    between atoms: C9_12  and  O3_13 
REMARK   10  A    between atoms: C9_12  and  O4_15 
REMARK       I    between atoms: N2_17  and  C11_19 
REMARK   11  A    between atoms: C11_19  and  C12_21 
REMARK   12  A    between atoms: C12_21  and  N3_22 
REMARK       I    between atoms: N3_22  and  C13_24 
REMARK   13  A    between atoms: C13_24  and  C14_26 
REMARK   14  A    between atoms: C14_26  and  N4_27 
REMARK   15  A    between atoms: C14_26  and  C17_32 
REMARK   16  A    between atoms: N4_27  and  C15_28 
REMARK   17  A    between atoms: C15_28  and  O7_30 
ROOT
HETATM    1  N2  UNL     1      -1.417  -0.557  -0.321  1.00  0.00    -0.346 N 
ATOM      2  H2  UNL     1      -1.193  -0.494   0.672  1.00  0.00     0.163 HD
HETATM    3  C11 UNL     1      -0.155  -0.565  -0.946  1.00  0.00     0.246 C 
HETATM    4  O5  UNL     1      -0.050  -0.598  -2.198  1.00  0.00    -0.271 OA
ENDROOT
BRANCH   3   5
HETATM    5  C12 UNL     1       0.962  -0.543   0.019  1.00  0.00     0.114 C 
HETATM    6  C20 UNL     1       0.686  -1.707   0.994  1.00  0.00     0.041 C 
HETATM    7  C21 UNL     1       0.759  -1.171   2.382  1.00  0.00     0.003 C 
HETATM    8  C22 UNL     1       0.758   0.357   2.318  1.00  0.00     0.003 C 
HETATM    9  C23 UNL     1       0.682   0.748   0.863  1.00  0.00     0.041 C 
BRANCH   5  10
HETATM   10  N3  UNL     1       2.320  -0.574  -0.266  1.00  0.00    -0.337 N 
HETATM   11  C13 UNL     1       3.215   0.356  -0.771  1.00  0.00     0.279 C 
HETATM   12  O6  UNL     1       2.760   1.494  -1.144  1.00  0.00    -0.265 OA
ATOM     13  H3  UNL     1       2.752  -1.475  -0.059  1.00  0.00     0.164 HD
BRANCH  11  14
HETATM   14  C14 UNL     1       4.717   0.203  -0.901  1.00  0.00     0.158 C 
BRANCH  14  15
HETATM   15  N4  UNL     1       5.317   1.177  -0.080  1.00  0.00    -0.384 NA
BRANCH  15  16
HETATM   16  C15 UNL     1       5.892   2.110   0.714  1.00  0.00     0.186 C 
HETATM   17  C16 UNL     1       6.582   3.420   0.331  1.00  0.00     0.114 C 
BRANCH  16  18
HETATM   18  O7  UNL     1       5.958   2.035   2.030  1.00  0.00    -0.339 OA
ATOM     19  H7  UNL     1       6.362   2.690   2.587  1.00  0.00     0.220 HD
ENDBRANCH  16  18
ENDBRANCH  15  16
ENDBRANCH  14  15
BRANCH  14  20
HETATM   20  C17 UNL     1       5.357  -1.034  -1.165  1.00  0.00     0.048 C 
HETATM   21  C18 UNL     1       6.901  -0.812  -1.116  1.00  0.00     0.017 C 
HETATM   22  C19 UNL     1       5.120  -2.329  -0.513  1.00  0.00     0.017 C 
ENDBRANCH  14  20
ENDBRANCH  11  14
ENDBRANCH   5  10
ENDBRANCH   3   5
BRANCH   1  23
HETATM   23  C6  UNL     1      -2.785  -0.589  -0.343  1.00  0.00     0.177 C 
BRANCH  23  24
HETATM   24  C5  UNL     1      -3.665  -0.975  -1.397  1.00  0.00     0.249 C 
HETATM   25  N1  UNL     1      -4.829  -1.755  -0.983  1.00  0.00    -0.290 N 
HETATM   26  O2  UNL     1      -3.554  -0.689  -2.638  1.00  0.00    -0.271 OA
BRANCH  25  27
HETATM   27  C3  UNL     1      -4.904  -2.467   0.277  1.00  0.00     0.160 C 
BRANCH  27  28
HETATM   28  C2  UNL     1      -5.625  -3.776   0.007  1.00  0.00    -0.017 C 
HETATM   29  C1  UNL     1      -6.782  -3.762   0.779  1.00  0.00     0.008 C 
ENDBRANCH  27  28
ENDBRANCH  25  27
BRANCH  25  30
HETATM   30  C4  UNL     1      -6.026  -1.446  -1.677  1.00  0.00     0.358 C 
HETATM   31  O1  UNL     1      -7.158  -1.739  -1.305  1.00  0.00    -0.283 OA
ENDBRANCH  25  30
ENDBRANCH  23  24
BRANCH  23  32
HETATM   32  C7  UNL     1      -3.271   0.823   0.108  1.00  0.00     0.039 C 
BRANCH  32  33
HETATM   33  C8  UNL     1      -3.277   1.815  -0.974  1.00  0.00     0.063 C 
BRANCH  33  34
HETATM   34  C9  UNL     1      -3.689   3.152  -0.499  1.00  0.00     0.256 C 
BRANCH  34  35
HETATM   35  O3  UNL     1      -2.740   3.994  -0.186  1.00  0.00    -0.371 OA
ATOM     36  H3  UNL     1      -3.005   4.854   0.119  1.00  0.00     0.212 HD
ENDBRANCH  34  35
BRANCH  34  37
HETATM   37  O4  UNL     1      -4.953   3.640  -0.299  1.00  0.00    -0.366 OA
HETATM   38  C10 UNL     1      -5.220   4.900   0.208  1.00  0.00     0.204 C 
ENDBRANCH  34  37
ENDBRANCH  33  34
ENDBRANCH  32  33
ENDBRANCH  23  32
ENDBRANCH   1  23
TORSDOF 17
