REMARK  5 active torsions:
REMARK  status: ('A' for Active; 'I' for Inactive)
REMARK    1  A    between atoms: C5_5  and  C6_6 
REMARK    2  A    between atoms: C6_6  and  C7_7 
REMARK    3  A    between atoms: C7_7  and  C8_8 
REMARK    4  A    between atoms: C8_8  and  N1_9 
REMARK    5  A    between atoms: N1_9  and  C9_11 
ROOT
HETATM    1  N1  UNL     1       1.965  -0.746  -1.316  1.00  0.00    -0.375 N 
ATOM      2  H1  UNL     1       1.791  -1.421  -2.061  1.00  0.00     0.160 HD
ENDROOT
BRANCH   1   3
HETATM    3  C8  UNL     1       0.910   0.057  -0.840  1.00  0.00     0.057 C 
BRANCH   3   4
HETATM    4  C7  UNL     1       0.407  -0.188   0.531  1.00  0.00     0.044 C 
BRANCH   4   5
HETATM    5  C6  UNL     1      -0.715   0.748   0.863  1.00  0.00     0.009 C 
BRANCH   5   6
HETATM    6  C5  UNL     1      -1.894   0.574  -0.063  1.00  0.00    -0.014 C 
HETATM    7  C4  UNL     1      -2.945   1.561   0.395  1.00  0.00     0.004 C 
HETATM    8  C3  UNL     1      -4.205   1.503  -0.423  1.00  0.00     0.000 C 
HETATM    9  C2  UNL     1      -5.304   0.703   0.256  1.00  0.00     0.000 C 
HETATM   10  C1  UNL     1      -4.634  -0.499   0.911  1.00  0.00     0.000 C 
HETATM   11  C14 UNL     1      -3.764  -1.117  -0.161  1.00  0.00     0.000 C 
HETATM   12  C13 UNL     1      -2.315  -0.847   0.031  1.00  0.00     0.004 C 
ENDBRANCH   5   6
ENDBRANCH   4   5
ENDBRANCH   3   4
ENDBRANCH   1   3
BRANCH   1  13
HETATM   13  C9  UNL     1       3.257  -0.625  -0.773  1.00  0.00     0.287 C 
HETATM   14  C10 UNL     1       3.895   0.754  -0.981  1.00  0.00     0.082 C 
HETATM   15  C11 UNL     1       5.227   0.665  -0.226  1.00  0.00     0.238 C 
HETATM   16  N2  UNL     1       5.658  -0.721  -0.144  1.00  0.00    -0.051 N 
HETATM   17  C12 UNL     1       4.808  -1.513   0.731  1.00  0.00     0.465 C 
ATOM     18  H22 UNL     1       5.725  -1.141  -1.071  1.00  0.00     0.279 HD
ATOM     19  H21 UNL     1       6.637  -0.786   0.136  1.00  0.00     0.279 HD
HETATM   20  N3  UNL     1       3.442  -0.970   0.599  1.00  0.00    -0.030 N 
ATOM     21  H32 UNL     1       3.257  -0.194   1.235  1.00  0.00     0.281 HD
ATOM     22  H31 UNL     1       2.724  -1.603   0.952  1.00  0.00     0.281 HD
ENDBRANCH   1  13
TORSDOF 5
