REMARK  5 active torsions:
REMARK  status: ('A' for Active; 'I' for Inactive)
REMARK    1  A    between atoms: C2_2  and  C3_3 
REMARK    2  A    between atoms: C3_3  and  N1_4 
REMARK    3  A    between atoms: N1_4  and  O1_5 
REMARK    4  A    between atoms: O1_5  and  C4_6 
REMARK    5  A    between atoms: C4_6  and  C5_7 
ROOT
HETATM    1  C5  UNL     1      -0.460  -0.061  -0.130  1.00  0.00     0.025 C 
HETATM    2  C6  UNL     1      -0.926  -1.381  -0.744  1.00  0.00     0.051 C 
HETATM    3  C7  UNL     1      -2.414  -1.440  -0.610  1.00  0.00     0.188 C 
HETATM    4  C8  UNL     1      -2.905  -1.286   0.803  1.00  0.00     0.043 C 
HETATM    5  C9  UNL     1      -2.472   0.051   1.395  1.00  0.00     0.035 C 
HETATM    6  C10 UNL     1      -3.086   1.125   0.505  1.00  0.00     0.043 C 
HETATM    7  C11 UNL     1      -2.580   0.902  -0.903  1.00  0.00     0.188 C 
HETATM    8  C12 UNL     1      -1.079   1.036  -0.970  1.00  0.00     0.051 C 
HETATM    9  N2  UNL     1      -2.989  -0.374  -1.406  1.00  0.00    -0.067 N 
ATOM     10  H21 UNL     1      -4.004  -0.451  -1.466  1.00  0.00     0.278 HD
ATOM     11  H22 UNL     1      -2.770  -0.479  -2.397  1.00  0.00     0.278 HD
HETATM   12  C13 UNL     1      -0.972   0.086   1.247  1.00  0.00    -0.005 C 
HETATM   13  N3  UNL     1      -0.258   0.233   2.274  1.00  0.00    -0.405 N 
ATOM     14  H31 UNL     1      -0.612   0.335   3.225  1.00  0.00     0.155 HD
ATOM     15  H32 UNL     1       0.757   0.257   2.174  1.00  0.00     0.155 HD
ENDROOT
BRANCH   1  16
HETATM   16  C4  UNL     1       1.036  -0.001  -0.116  1.00  0.00     0.211 C 
BRANCH  16  17
HETATM   17  O1  UNL     1       1.594  -0.088  -1.382  1.00  0.00    -0.285 OA
BRANCH  17  18
HETATM   18  N1  UNL     1       2.921  -0.036  -1.383  1.00  0.00    -0.098 NA
BRANCH  18  19
HETATM   19  C3  UNL     1       3.476   0.590  -0.201  1.00  0.00     0.169 C 
BRANCH  19  20
HETATM   20  C2  UNL     1       4.971   0.616  -0.270  1.00  0.00    -0.019 C 
HETATM   21  C1  UNL     1       5.679   0.003   0.664  1.00  0.00     0.008 C 
ENDBRANCH  19  20
ENDBRANCH  18  19
ENDBRANCH  17  18
ENDBRANCH  16  17
ENDBRANCH   1  16
TORSDOF 5
