REMARK  7 active torsions:
REMARK  status: ('A' for Active; 'I' for Inactive)
REMARK       I    between atoms: C1_2  and  N1_3 
REMARK    1  A    between atoms: C1_2  and  C8_22 
REMARK    2  A    between atoms: N1_3  and  N2_5 
REMARK    3  A    between atoms: N2_5  and  C2_7 
REMARK    4  A    between atoms: C2_7  and  N3_9 
REMARK    5  A    between atoms: N3_9  and  N4_11 
REMARK    6  A    between atoms: C3_13  and  C4_14 
REMARK    7  A    between atoms: C7_17  and  N5_18 
ROOT
HETATM    1  C2  UNL     1       0.939   1.761  -0.249  1.00  0.00     0.205 C 
HETATM    2  S1  UNL     1       2.116   2.874  -0.421  1.00  0.00    -0.038 SA
ENDROOT
BRANCH   1   3
HETATM    3  N2  UNL     1       1.245   0.390  -0.275  1.00  0.00    -0.272 N 
ATOM      4  H2  UNL     1       0.502  -0.301  -0.168  1.00  0.00     0.189 HD
BRANCH   3   5
HETATM    5  N1  UNL     1       2.588  -0.033  -0.450  1.00  0.00    -0.262 N 
HETATM    6  C1  UNL     1       3.444   0.012   0.661  1.00  0.00     0.294 C 
HETATM    7  O1  UNL     1       3.008   0.418   1.762  1.00  0.00    -0.264 OA
ATOM      8  H1  UNL     1       2.921  -0.360  -1.357  1.00  0.00     0.190 HD
BRANCH   6   9
HETATM    9  C8  UNL     1       4.836  -0.400   0.581  1.00  0.00     0.195 A 
HETATM   10  N6  UNL     1       5.737  -0.380   1.620  1.00  0.00    -0.231 N 
HETATM   11  O5  UNL     1       6.891  -0.811   1.218  1.00  0.00    -0.153 OA
ATOM     12  H6  UNL     1       5.527  -0.071   2.569  1.00  0.00     0.197 HD
HETATM   13  N7  UNL     1       6.844  -1.129  -0.038  1.00  0.00    -0.204 N 
HETATM   14  C9  UNL     1       5.573  -0.887  -0.476  1.00  0.00     0.301 A 
ATOM     15  H7  UNL     1       7.615  -1.493  -0.597  1.00  0.00     0.200 HD
HETATM   16  O6  UNL     1       5.168  -1.082  -1.646  1.00  0.00    -0.264 OA
ENDBRANCH   6   9
ENDBRANCH   3   5
ENDBRANCH   1   3
BRANCH   1  17
HETATM   17  N3  UNL     1      -0.401   2.176  -0.073  1.00  0.00    -0.275 N 
ATOM     18  H3  UNL     1      -0.617   3.173  -0.056  1.00  0.00     0.189 HD
BRANCH  17  19
HETATM   19  N4  UNL     1      -1.429   1.254   0.077  1.00  0.00    -0.307 N 
HETATM   20  C3  UNL     1      -2.640   1.475  -0.276  1.00  0.00     0.144 C 
ATOM     21  H4  UNL     1      -1.207   0.349   0.492  1.00  0.00     0.186 HD
BRANCH  20  22
HETATM   22  C4  UNL     1      -3.637   0.413  -0.063  1.00  0.00     0.095 A 
HETATM   23  C5  UNL     1      -3.413  -0.832   0.488  1.00  0.00     0.043 A 
HETATM   24  C6  UNL     1      -4.603  -1.528   0.512  1.00  0.00     0.065 A 
HETATM   25  C7  UNL     1      -5.525  -0.646  -0.043  1.00  0.00     0.215 A 
HETATM   26  O4  UNL     1      -4.917   0.461  -0.359  1.00  0.00    -0.287 OA
BRANCH  25  27
HETATM   27  N5  UNL     1      -6.919  -0.939  -0.226  1.00  0.00    -0.090 N 
HETATM   28  O2  UNL     1      -7.650  -0.074  -0.734  1.00  0.00    -0.530 OA
HETATM   29  O3  UNL     1      -7.419  -2.159   0.159  1.00  0.00    -0.530 OA
ENDBRANCH  25  27
ENDBRANCH  20  22
ENDBRANCH  17  19
ENDBRANCH   1  17
TORSDOF 7
