REMARK  8 active torsions:
REMARK  status: ('A' for Active; 'I' for Inactive)
REMARK    1  A    between atoms: C2_2  and  N1_3 
REMARK    2  A    between atoms: N1_3  and  C3_5 
REMARK    3  A    between atoms: C4_8  and  N3_9 
REMARK    4  A    between atoms: N3_9  and  C5_11 
REMARK    5  A    between atoms: C6_14  and  O1_15 
REMARK    6  A    between atoms: C11_23  and  N7_24 
REMARK    7  A    between atoms: N7_24  and  O2_26 
REMARK    8  A    between atoms: C12_28  and  N8_29 
ROOT
HETATM    1  C5  UNL     1       1.180  -0.229  -0.156  1.00  0.00     0.685 A 
HETATM    2  N4  UNL     1       2.468  -0.192  -0.537  1.00  0.00    -0.169 N 
ATOM      3  H4  UNL     1       2.788  -0.817  -1.277  1.00  0.00     0.186 HD
HETATM    4  C6  UNL     1       3.347   0.653   0.038  1.00  0.00     0.179 A 
HETATM    5  C8  UNL     1       2.945   1.514   1.045  1.00  0.00     0.112 A 
HETATM    6  C9  UNL     1       3.857   2.432   1.682  1.00  0.00     0.105 C 
HETATM    7  N5  UNL     1       4.572   3.171   2.202  1.00  0.00    -0.191 NA
HETATM    8  C10 UNL     1       1.620   1.467   1.427  1.00  0.00     0.133 A 
HETATM    9  N6  UNL     1       0.776   0.602   0.820  1.00  0.00    -0.200 N 
ATOM     10  H6  UNL     1      -0.201   0.580   1.113  1.00  0.00     0.183 HD
ENDROOT
BRANCH   4  11
HETATM   11  O1  UNL     1       4.675   0.707  -0.338  1.00  0.00    -0.339 OA
HETATM   12  C7  UNL     1       5.109  -0.164  -1.365  1.00  0.00     0.211 C 
ENDBRANCH   4  11
BRANCH   1  13
HETATM   13  N3  UNL     1       0.384  -1.065  -0.749  1.00  0.00    -0.174 N 
ATOM     14  H3  UNL     1       0.759  -1.666  -1.483  1.00  0.00     0.186 HD
BRANCH  13  15
HETATM   15  C4  UNL     1      -0.991  -1.172  -0.411  1.00  0.00     0.155 C 
HETATM   16  N2  UNL     1      -1.826  -0.193  -0.802  1.00  0.00    -0.322 N 
HETATM   17  C3  UNL     1      -3.054   0.045  -0.306  1.00  0.00     0.176 C 
ATOM     18  H2  UNL     1      -1.498   0.426  -1.543  1.00  0.00     0.169 HD
HETATM   19  C13 UNL     1      -3.845  -0.760   0.487  1.00  0.00     0.291 C 
HETATM   20  N9  UNL     1      -3.602  -2.008   0.926  1.00  0.00    -0.305 N 
HETATM   21  O3  UNL     1      -4.935  -0.229   0.831  1.00  0.00    -0.264 OA
HETATM   22  C12 UNL     1      -2.497  -2.753   0.751  1.00  0.00     0.134 C 
ATOM     23  H9  UNL     1      -4.353  -2.445   1.460  1.00  0.00     0.171 HD
HETATM   24  C11 UNL     1      -1.270  -2.329   0.309  1.00  0.00     0.142 C 
BRANCH  17  25
HETATM   25  N1  UNL     1      -3.559   1.207  -0.627  1.00  0.00    -0.349 N 
ATOM     26  H1  UNL     1      -4.487   1.466  -0.291  1.00  0.00     0.167 HD
BRANCH  25  27
HETATM   27  C2  UNL     1      -2.835   2.102  -1.430  1.00  0.00     0.079 C 
HETATM   28  C1  UNL     1      -2.389   3.261  -0.987  1.00  0.00     0.029 C 
ENDBRANCH  25  27
ENDBRANCH  17  25
BRANCH  22  29
HETATM   29  N8  UNL     1      -2.592  -4.028   1.033  1.00  0.00    -0.383 N 
ATOM     30  H82 UNL     1      -1.753  -4.593   0.900  1.00  0.00     0.157 HD
ATOM     31  H81 UNL     1      -3.505  -4.343   1.362  1.00  0.00     0.157 HD
ENDBRANCH  22  29
BRANCH  24  32
HETATM   32  N7  UNL     1      -0.157  -3.160   0.614  1.00  0.00    -0.262 N 
ATOM     33  H7  UNL     1       0.090  -3.909  -0.033  1.00  0.00     0.194 HD
BRANCH  32  34
HETATM   34  O2  UNL     1       0.530  -3.004   1.649  1.00  0.00    -0.289 OA
ATOM     35  H2  UNL     1       1.274  -3.559   1.853  1.00  0.00     0.244 HD
ENDBRANCH  32  34
ENDBRANCH  24  32
ENDBRANCH  13  15
ENDBRANCH   1  13
TORSDOF 8
