REMARK  13 active torsions:
REMARK  status: ('A' for Active; 'I' for Inactive)
REMARK    1  A    between atoms: C2_5  and  C3_6 
REMARK    2  A    between atoms: C3_6  and  N2_7 
REMARK    3  A    between atoms: N2_7  and  C4_10 
REMARK    4  A    between atoms: C4_10  and  C5_11 
REMARK    5  A    between atoms: C16_31  and  O3_32 
REMARK    6  A    between atoms: O3_32  and  C17_33 
REMARK    7  A    between atoms: C17_33  and  C18_34 
REMARK    8  A    between atoms: C18_34  and  C19_35 
REMARK    9  A    between atoms: C19_35  and  C20_36 
REMARK   10  A    between atoms: C20_36  and  C21_37 
REMARK   11  A    between atoms: C21_37  and  C22_38 
REMARK   12  A    between atoms: C22_38  and  O4_39 
REMARK   13  A    between atoms: N5_41  and  O5_43 
ROOT
HETATM    1  O1  UNL     1      -0.739  -1.559   0.367  1.00  0.00    -0.267 OA
HETATM    2  C1  UNL     1      -1.507  -0.751  -0.125  1.00  0.00     0.258 C 
HETATM    3  N1  UNL     1      -2.908  -0.761   0.237  1.00  0.00    -0.350 N 
ATOM      4  H1  UNL     1      -3.241  -1.657   0.594  1.00  0.00     0.163 HD
HETATM    5  C2  UNL     1      -3.923   0.271   0.184  1.00  0.00     0.114 C 
HETATM    6  C6  UNL     1      -4.641   0.474  -1.076  1.00  0.00     0.069 C 
HETATM    7  C7  UNL     1      -3.912   0.792  -2.312  1.00  0.00    -0.003 A 
HETATM    8  C8  UNL     1      -2.602   0.951  -2.780  1.00  0.00     0.004 A 
HETATM    9  C9  UNL     1      -2.286   1.192  -4.087  1.00  0.00     0.058 A 
HETATM   10  C10 UNL     1      -3.312   1.291  -4.996  1.00  0.00     0.142 A 
HETATM   11  F3  UNL     1      -3.025   1.530  -6.284  1.00  0.00    -0.204 F 
HETATM   12  C11 UNL     1      -4.619   1.147  -4.592  1.00  0.00     0.111 A 
HETATM   13 CL1  UNL     1      -5.917   1.283  -5.793  1.00  0.00    -0.078 Cl
HETATM   14  C12 UNL     1      -4.910   0.904  -3.288  1.00  0.00     0.148 A 
HETATM   15  F4  UNL     1      -6.200   0.756  -2.869  1.00  0.00    -0.204 F 
HETATM   16  C13 UNL     1      -1.296   0.931  -2.120  1.00  0.00     0.067 A 
HETATM   17  N3  UNL     1      -0.552   1.786  -2.798  1.00  0.00    -0.306 N 
ATOM     18  H3  UNL     1      -0.928   2.343  -3.565  1.00  0.00     0.171 HD
HETATM   19  C14 UNL     1       0.736   1.876  -2.412  1.00  0.00     0.332 A 
HETATM   20  O2  UNL     1       1.489   2.671  -3.024  1.00  0.00    -0.246 OA
HETATM   21  N4  UNL     1       1.231   1.125  -1.379  1.00  0.00    -0.255 N 
HETATM   22  C15 UNL     1       2.457   1.045  -0.835  1.00  0.00     0.159 A 
HETATM   23  C16 UNL     1       2.393   0.102   0.202  1.00  0.00     0.160 A 
HETATM   24  N6  UNL     1       1.125  -0.375   0.270  1.00  0.00    -0.321 N 
ATOM     25  H6  UNL     1       0.759  -1.072   0.919  1.00  0.00     0.169 HD
HETATM   26  C23 UNL     1       0.462   0.261  -0.691  1.00  0.00     0.136 A 
HETATM   27  C24 UNL     1      -0.830   0.158  -1.062  1.00  0.00     0.104 A 
ENDROOT
BRANCH  23  28
HETATM   28  O3  UNL     1       3.479  -0.241   0.988  1.00  0.00    -0.335 OA
BRANCH  28  29
HETATM   29  C17 UNL     1       3.319  -1.187   2.000  1.00  0.00     0.177 C 
BRANCH  29  30
HETATM   30  C18 UNL     1       4.556  -1.483   2.766  1.00  0.00     0.027 C 
BRANCH  30  31
HETATM   31  C19 UNL     1       5.639  -2.060   1.944  1.00  0.00     0.002 C 
BRANCH  31  32
HETATM   32  C20 UNL     1       6.138  -1.185   0.865  1.00  0.00     0.008 C 
BRANCH  32  33
HETATM   33  C21 UNL     1       6.707   0.120   1.377  1.00  0.00     0.086 C 
BRANCH  33  34
HETATM   34  C22 UNL     1       7.171   0.934   0.216  1.00  0.00     0.135 C 
HETATM   35  N5  UNL     1       8.417   1.248   0.150  1.00  0.00    -0.251 N 
ATOM     36  H5  UNL     1       8.747   1.804  -0.639  1.00  0.00     0.196 HD
BRANCH  34  37
HETATM   37  O4  UNL     1       6.260   1.339  -0.770  1.00  0.00    -0.348 OA
ATOM     38  H4  UNL     1       6.555   1.857  -1.509  1.00  0.00     0.219 HD
ENDBRANCH  34  37
BRANCH  35  39
HETATM   39  O5  UNL     1       9.306   0.859   1.103  1.00  0.00    -0.288 OA
ATOM     40  H5  UNL     1      10.226   1.091   1.054  1.00  0.00     0.244 HD
ENDBRANCH  35  39
ENDBRANCH  33  34
ENDBRANCH  32  33
ENDBRANCH  31  32
ENDBRANCH  30  31
ENDBRANCH  29  30
ENDBRANCH  28  29
ENDBRANCH  23  28
BRANCH   5  41
HETATM   41  C3  UNL     1      -4.875   0.126   1.372  1.00  0.00     0.257 C 
BRANCH  41  42
HETATM   42  N2  UNL     1      -5.537  -1.133   1.384  1.00  0.00    -0.068 N 
ATOM     43  H22 UNL     1      -6.010  -1.326   0.501  1.00  0.00     0.277 HD
ATOM     44  H21 UNL     1      -4.879  -1.912   1.372  1.00  0.00     0.277 HD
BRANCH  42  45
HETATM   45  C4  UNL     1      -6.437  -1.202   2.506  1.00  0.00     0.302 C 
BRANCH  45  46
HETATM   46  C5  UNL     1      -5.727  -1.254   3.835  1.00  0.00     0.378 C 
HETATM   47  F1  UNL     1      -6.672  -1.324   4.855  1.00  0.00    -0.213 F 
HETATM   48  F2  UNL     1      -4.936  -2.407   3.825  1.00  0.00    -0.213 F 
ENDBRANCH  45  46
ENDBRANCH  42  45
ENDBRANCH  41  42
ENDBRANCH   5  41
TORSDOF 13
