REMARK  17 active torsions:
REMARK  status: ('A' for Active; 'I' for Inactive)
REMARK    1  A    between atoms: N1_1  and  C1_5 
REMARK    2  A    between atoms: C1_5  and  C2_6 
REMARK       I    between atoms: C2_6  and  N2_8 
REMARK    3  A    between atoms: N2_8  and  C3_10 
REMARK    4  A    between atoms: C3_10  and  C4_11 
REMARK    5  A    between atoms: C4_11  and  C5_12 
REMARK    6  A    between atoms: C5_12  and  C6_13 
REMARK    7  A    between atoms: C6_13  and  C7_14 
REMARK    8  A    between atoms: C7_14  and  C8_15 
REMARK    9  A    between atoms: C9_17  and  N3_18 
REMARK   10  A    between atoms: N3_18  and  C10_20 
REMARK   11  A    between atoms: C15_32  and  N6_33 
REMARK   12  A    between atoms: N6_33  and  C16_35 
REMARK   13  A    between atoms: C16_35  and  C17_36 
REMARK   14  A    between atoms: C17_36  and  C18_37 
REMARK   15  A    between atoms: C18_37  and  C19_38 
REMARK   16  A    between atoms: C19_38  and  O2_39 
REMARK   17  A    between atoms: C22_43  and  O3_44 
ROOT
HETATM    1  N3  UNL     1       1.425   0.914  -2.296  1.00  0.00    -0.359 N 
ATOM      2  H3  UNL     1       1.584   0.528  -1.365  1.00  0.00     0.162 HD
ENDROOT
BRANCH   1   3
HETATM    3  C9  UNL     1       0.112   0.838  -2.834  1.00  0.00     0.180 C 
HETATM    4  S1  UNL     1      -0.741  -0.678  -2.230  1.00  0.00    -0.130 SA
HETATM    5  C8  UNL     1      -2.425   0.064  -2.045  1.00  0.00     0.124 C 
HETATM    6  C23 UNL     1      -2.178   1.374  -2.658  1.00  0.00     0.283 C 
HETATM    7  C22 UNL     1      -0.825   1.896  -2.230  1.00  0.00     0.224 C 
HETATM    8  F2  UNL     1      -2.046   1.160  -4.044  1.00  0.00    -0.202 F 
HETATM    9  F3  UNL     1      -3.176   2.299  -2.538  1.00  0.00    -0.202 F 
BRANCH   5  10
HETATM   10  C7  UNL     1      -2.823  -0.016  -0.634  1.00  0.00     0.021 C 
BRANCH  10  11
HETATM   11  C6  UNL     1      -4.126   0.507  -0.216  1.00  0.00     0.002 C 
BRANCH  11  12
HETATM   12  C5  UNL     1      -5.325  -0.133  -0.870  1.00  0.00     0.005 C 
BRANCH  12  13
HETATM   13  C4  UNL     1      -5.440  -1.607  -0.623  1.00  0.00     0.044 C 
BRANCH  13  14
HETATM   14  C3  UNL     1      -5.555  -1.935   0.821  1.00  0.00     0.064 C 
BRANCH  14  15
HETATM   15  N2  UNL     1      -6.689  -1.982   1.420  1.00  0.00    -0.339 N 
HETATM   16  C2  UNL     1      -6.816  -2.292   2.789  1.00  0.00     0.246 C 
HETATM   17  O1  UNL     1      -6.652  -3.466   3.177  1.00  0.00    -0.271 OA
ATOM     18  H2  UNL     1      -7.534  -1.787   0.883  1.00  0.00     0.167 HD
BRANCH  16  19
HETATM   19  C1  UNL     1      -7.142  -1.247   3.778  1.00  0.00     0.332 C 
BRANCH  19  20
HETATM   20  N1  UNL     1      -7.284   0.012   3.110  1.00  0.00    -0.071 N 
ATOM     21  H13 UNL     1      -6.462   0.249   2.554  1.00  0.00     0.274 HD
ATOM     22  H12 UNL     1      -7.965  -0.028   2.352  1.00  0.00     0.274 HD
ATOM     23  H11 UNL     1      -7.509   0.735   3.794  1.00  0.00     0.274 HD
ENDBRANCH  19  20
ENDBRANCH  16  19
ENDBRANCH  14  15
ENDBRANCH  13  14
ENDBRANCH  12  13
ENDBRANCH  11  12
ENDBRANCH  10  11
ENDBRANCH   5  10
BRANCH   7  24
HETATM   24  O3  UNL     1      -0.613   3.121  -2.828  1.00  0.00    -0.387 OA
ATOM     25  H3  UNL     1      -1.192   3.775  -2.455  1.00  0.00     0.210 HD
ENDBRANCH   7  24
ENDBRANCH   1   3
BRANCH   1  26
HETATM   26  C10 UNL     1       2.414   1.433  -2.902  1.00  0.00     0.117 A 
HETATM   27  N4  UNL     1       2.386   1.983  -4.123  1.00  0.00    -0.318 N 
HETATM   28  C11 UNL     1       3.476   2.511  -4.697  1.00  0.00     0.181 A 
ATOM     29  H4  UNL     1       1.504   2.001  -4.634  1.00  0.00     0.170 HD
HETATM   30 CL1  UNL     1       3.327   3.203  -6.295  1.00  0.00    -0.045 Cl
HETATM   31  N5  UNL     1       4.650   2.493  -4.029  1.00  0.00    -0.330 N 
HETATM   32  C12 UNL     1       4.749   1.956  -2.798  1.00  0.00     0.073 A 
ATOM     33  H5  UNL     1       5.479   2.895  -4.466  1.00  0.00     0.168 HD
HETATM   34  C13 UNL     1       5.964   1.941  -2.112  1.00  0.00     0.102 A 
HETATM   35  C21 UNL     1       3.630   1.412  -2.206  1.00  0.00     0.039 A 
HETATM   36 CL2  UNL     1       7.394   2.628  -2.854  1.00  0.00    -0.079 Cl
HETATM   37  C14 UNL     1       6.011   1.376  -0.845  1.00  0.00     0.166 A 
HETATM   38  F1  UNL     1       7.183   1.352  -0.164  1.00  0.00    -0.202 F 
HETATM   39  C15 UNL     1       4.908   0.826  -0.230  1.00  0.00     0.070 A 
HETATM   40  C20 UNL     1       3.713   0.858  -0.943  1.00  0.00     0.050 A 
BRANCH  39  41
HETATM   41  N6  UNL     1       4.950   0.250   1.060  1.00  0.00    -0.387 N 
ATOM     42  H6  UNL     1       5.834   0.235   1.569  1.00  0.00     0.159 HD
BRANCH  41  43
HETATM   43  C16 UNL     1       3.775  -0.317   1.674  1.00  0.00     0.120 C 
BRANCH  43  44
HETATM   44  C17 UNL     1       4.078  -0.867   3.057  1.00  0.00     0.022 C 
BRANCH  44  45
HETATM   45  C18 UNL     1       5.139  -1.961   2.977  1.00  0.00     0.028 C 
BRANCH  45  46
HETATM   46  C19 UNL     1       5.388  -2.458   4.388  1.00  0.00     0.164 C 
BRANCH  46  47
HETATM   47  O2  UNL     1       6.336  -3.456   4.431  1.00  0.00    -0.401 OA
ATOM     48  H2  UNL     1       6.492  -3.767   5.315  1.00  0.00     0.209 HD
ENDBRANCH  46  47
ENDBRANCH  45  46
ENDBRANCH  44  45
ENDBRANCH  43  44
ENDBRANCH  41  43
ENDBRANCH  39  41
ENDBRANCH   1  26
TORSDOF 17
