REMARK  16 active torsions:
REMARK  status: ('A' for Active; 'I' for Inactive)
REMARK    1  A    between atoms: C2_2  and  N1_3 
REMARK    2  A    between atoms: N1_3  and  C3_4 
REMARK    3  A    between atoms: N1_3  and  C23_43 
REMARK    4  A    between atoms: C3_4  and  C4_5 
REMARK    5  A    between atoms: C4_5  and  C5_6 
REMARK    6  A    between atoms: C5_6  and  C6_7 
REMARK    7  A    between atoms: C6_7  and  S1_8 
REMARK    8  A    between atoms: S1_8  and  C7_9 
REMARK    9  A    between atoms: C8_12  and  N3_13 
REMARK   10  A    between atoms: N3_13  and  C9_15 
REMARK   11  A    between atoms: C9_15  and  C10_16 
REMARK   12  A    between atoms: C10_16  and  C11_17 
REMARK   13  A    between atoms: C11_17  and  N4_18 
REMARK   14  A    between atoms: N4_18  and  C12_20 
REMARK   15  A    between atoms: C13_23  and  N6_24 
REMARK   16  A    between atoms: C23_43  and  C24_44 
ROOT
HETATM    1  C12 UNL     1      -6.632   0.708   0.663  1.00  0.00     0.141 A 
HETATM    2  N5  UNL     1      -6.389  -0.588   0.446  1.00  0.00    -0.176 N 
ATOM      3  H5  UNL     1      -5.491  -0.972   0.741  1.00  0.00     0.186 HD
HETATM    4  C13 UNL     1      -7.286  -1.418  -0.151  1.00  0.00     0.678 A 
HETATM    5  N7  UNL     1      -8.457  -0.911  -0.533  1.00  0.00    -0.177 N 
ATOM      6  H7  UNL     1      -9.139  -1.522  -0.982  1.00  0.00     0.185 HD
HETATM    7  C14 UNL     1      -8.770   0.402  -0.341  1.00  0.00     0.156 A 
HETATM    8  N8  UNL     1     -10.020   0.919  -0.755  1.00  0.00    -0.080 NA
HETATM    9  C15 UNL     1      -7.862   1.221   0.257  1.00  0.00     0.130 A 
HETATM   10  C16 UNL     1      -8.151   2.617   0.484  1.00  0.00     0.107 C 
HETATM   11  N9  UNL     1      -8.396   3.729   0.678  1.00  0.00    -0.191 NA
ENDROOT
BRANCH   1  12
HETATM   12  N4  UNL     1      -5.832   1.526   1.219  1.00  0.00    -0.374 N 
ATOM     13  H4  UNL     1      -6.170   2.484   1.312  1.00  0.00     0.161 HD
BRANCH  12  14
HETATM   14  C11 UNL     1      -4.536   1.281   1.725  1.00  0.00     0.123 C 
BRANCH  14  15
HETATM   15  C10 UNL     1      -3.448   2.162   1.135  1.00  0.00     0.039 C 
BRANCH  15  16
HETATM   16  C9  UNL     1      -3.357   1.947  -0.379  1.00  0.00     0.123 C 
BRANCH  16  17
HETATM   17  N3  UNL     1      -3.051   0.560  -0.666  1.00  0.00    -0.375 N 
ATOM     18  H3  UNL     1      -3.773  -0.082  -0.994  1.00  0.00     0.161 HD
BRANCH  17  19
HETATM   19  C8  UNL     1      -1.836   0.165  -0.493  1.00  0.00     0.115 A 
HETATM   20  N2  UNL     1      -0.847   0.972  -0.064  1.00  0.00    -0.322 N 
HETATM   21  C7  UNL     1       0.436   0.518   0.123  1.00  0.00     0.146 A 
ATOM     22  H2  UNL     1      -1.057   1.951   0.128  1.00  0.00     0.169 HD
HETATM   23  N10 UNL     1       0.692  -0.771  -0.133  1.00  0.00    -0.336 N 
HETATM   24  C22 UNL     1      -0.254  -1.653  -0.570  1.00  0.00     0.048 A 
ATOM     25  H10 UNL     1       1.643  -1.112   0.006  1.00  0.00     0.168 HD
HETATM   26  C17 UNL     1      -1.524  -1.155  -0.745  1.00  0.00     0.036 A 
HETATM   27  C21 UNL     1       0.065  -2.970  -0.816  1.00  0.00     0.032 A 
HETATM   28  C18 UNL     1      -2.530  -1.993  -1.182  1.00  0.00     0.041 A 
HETATM   29  C19 UNL     1      -2.204  -3.310  -1.427  1.00  0.00     0.035 A 
HETATM   30 CL1  UNL     1      -3.512  -4.342  -1.982  1.00  0.00    -0.084 Cl
HETATM   31  C20 UNL     1      -0.927  -3.814  -1.252  1.00  0.00     0.026 A 
BRANCH  21  32
HETATM   32  S1  UNL     1       1.707   1.656   0.671  1.00  0.00    -0.094 SA
BRANCH  32  33
HETATM   33  C6  UNL     1       3.313   0.825   0.629  1.00  0.00     0.082 C 
BRANCH  33  34
HETATM   34  C5  UNL     1       3.736   0.629  -0.779  1.00  0.00     0.012 C 
BRANCH  34  35
HETATM   35  C4  UNL     1       5.075  -0.129  -0.914  1.00  0.00     0.031 C 
BRANCH  35  36
HETATM   36  C3  UNL     1       6.111   0.646  -0.243  1.00  0.00     0.272 C 
BRANCH  36  37
HETATM   37  N1  UNL     1       7.489   0.199  -0.271  1.00  0.00     0.096 N 
BRANCH  37  38
HETATM   38  C2  UNL     1       8.120   1.265   0.616  1.00  0.00     0.268 C 
HETATM   39  C1  UNL     1       8.078   2.584  -0.084  1.00  0.00     0.037 C 
ENDBRANCH  37  38
BRANCH  37  40
HETATM   40  C23 UNL     1       7.794  -1.003   0.415  1.00  0.00     0.389 C 
BRANCH  40  41
HETATM   41  C24 UNL     1       7.905  -2.258  -0.395  1.00  0.00     0.413 C 
HETATM   42  F1  UNL     1       8.191  -3.342   0.466  1.00  0.00    -0.169 F 
HETATM   43  F2  UNL     1       6.941  -2.563  -1.269  1.00  0.00    -0.169 F 
HETATM   44  F3  UNL     1       9.102  -2.205  -1.172  1.00  0.00    -0.169 F 
ENDBRANCH  40  41
ENDBRANCH  37  40
ENDBRANCH  36  37
ENDBRANCH  35  36
ENDBRANCH  34  35
ENDBRANCH  33  34
ENDBRANCH  32  33
ENDBRANCH  21  32
ENDBRANCH  17  19
ENDBRANCH  16  17
ENDBRANCH  15  16
ENDBRANCH  14  15
ENDBRANCH  12  14
ENDBRANCH   1  12
BRANCH   4  45
HETATM   45  N6  UNL     1      -7.001  -2.669  -0.337  1.00  0.00    -0.234 N 
ATOM     46  H62 UNL     1      -6.104  -3.057  -0.044  1.00  0.00     0.174 HD
ATOM     47  H61 UNL     1      -7.674  -3.291  -0.785  1.00  0.00     0.174 HD
ENDBRANCH   4  45
TORSDOF 16
