REMARK  15 active torsions:
REMARK  status: ('A' for Active; 'I' for Inactive)
REMARK    1  A    between atoms: N1_1  and  C1_4 
REMARK    2  A    between atoms: C4_11  and  C5_12 
REMARK    3  A    between atoms: C5_12  and  O1_13 
REMARK    4  A    between atoms: C5_12  and  C6_15 
REMARK    5  A    between atoms: N4_24  and  C12_25 
REMARK    6  A    between atoms: C12_25  and  C13_26 
REMARK    7  A    between atoms: C17_31  and  N5_32 
REMARK    8  A    between atoms: N5_32  and  S1_34 
REMARK    9  A    between atoms: S1_34  and  C18_37 
REMARK   10  A    between atoms: C18_37  and  C19_38 
REMARK   11  A    between atoms: C19_38  and  C20_39 
REMARK   12  A    between atoms: C20_39  and  C21_40 
REMARK   13  A    between atoms: C21_40  and  C22_41 
REMARK   14  A    between atoms: C22_41  and  C23_42 
REMARK   15  A    between atoms: C23_42  and  N6_43 
ROOT
HETATM    1  C1  UNL     1      -4.421  -3.486   1.809  1.00  0.00     0.130 A 
HETATM    2  N2  UNL     1      -5.450  -3.810   1.022  1.00  0.00    -0.337 N 
ATOM      3  H2  UNL     1      -5.720  -4.790   0.932  1.00  0.00     0.168 HD
HETATM    4  C2  UNL     1      -6.142  -2.870   0.342  1.00  0.00     0.182 A 
HETATM    5  N3  UNL     1      -5.841  -1.563   0.414  1.00  0.00    -0.349 N 
ATOM      6  H3  UNL     1      -6.381  -0.875  -0.111  1.00  0.00     0.167 HD
HETATM    7  C3  UNL     1      -4.815  -1.180   1.191  1.00  0.00     0.092 A 
HETATM    8  C4  UNL     1      -4.279   0.064   1.461  1.00  0.00     0.091 A 
HETATM    9  N4  UNL     1      -3.264  -0.127   2.305  1.00  0.00    -0.286 N 
HETATM   10  N7  UNL     1      -3.158  -1.447   2.562  1.00  0.00    -0.292 N 
ATOM     11  H7  UNL     1      -2.460  -1.863   3.179  1.00  0.00     0.187 HD
HETATM   12  C25 UNL     1      -4.093  -2.137   1.898  1.00  0.00     0.120 A 
ENDROOT
BRANCH   9  13
HETATM   13  C12 UNL     1      -2.376   0.815   2.916  1.00  0.00     0.191 C 
BRANCH  13  14
HETATM   14  C13 UNL     1      -1.119   1.092   2.217  1.00  0.00     0.005 A 
HETATM   15  C14 UNL     1      -0.969   2.306   1.569  1.00  0.00     0.054 A 
HETATM   16  C15 UNL     1       0.217   2.565   0.938  1.00  0.00     0.119 A 
HETATM   17  F4  UNL     1       0.405   3.738   0.293  1.00  0.00    -0.206 F 
HETATM   18  C16 UNL     1       1.245   1.623   0.953  1.00  0.00     0.075 A 
HETATM   19  C17 UNL     1       1.119   0.420   1.587  1.00  0.00     0.084 A 
HETATM   20  C24 UNL     1      -0.092   0.174   2.221  1.00  0.00     0.151 A 
HETATM   21  F5  UNL     1      -0.187  -1.030   2.848  1.00  0.00    -0.203 F 
BRANCH  19  22
HETATM   22  N5  UNL     1       2.152  -0.527   1.580  1.00  0.00    -0.281 N 
ATOM     23  H5  UNL     1       1.890  -1.477   1.317  1.00  0.00     0.178 HD
BRANCH  22  24
HETATM   24  S1  UNL     1       3.768  -0.283   1.953  1.00  0.00     0.231 S 
HETATM   25  O2  UNL     1       3.801   0.294   3.381  1.00  0.00    -0.206 OA
HETATM   26  O3  UNL     1       4.518  -1.613   2.121  1.00  0.00    -0.206 OA
BRANCH  24  27
HETATM   27  C18 UNL     1       4.690   0.821   0.971  1.00  0.00     0.163 C 
BRANCH  27  28
HETATM   28  C19 UNL     1       4.773   0.484  -0.486  1.00  0.00     0.017 C 
BRANCH  28  29
HETATM   29  C20 UNL     1       5.404  -0.850  -0.756  1.00  0.00     0.001 C 
BRANCH  29  30
HETATM   30  C21 UNL     1       5.464  -1.135  -2.241  1.00  0.00     0.002 C 
BRANCH  30  31
HETATM   31  C22 UNL     1       6.264  -0.106  -2.999  1.00  0.00     0.027 C 
BRANCH  31  32
HETATM   32  C23 UNL     1       7.699  -0.061  -2.487  1.00  0.00     0.229 C 
BRANCH  32  33
HETATM   33  N6  UNL     1       8.286  -1.367  -2.675  1.00  0.00    -0.079 N 
ATOM     34  H63 UNL     1       7.737  -2.111  -2.243  1.00  0.00     0.274 HD
ATOM     35  H62 UNL     1       8.223  -1.692  -3.640  1.00  0.00     0.274 HD
ATOM     36  H61 UNL     1       9.246  -1.337  -2.332  1.00  0.00     0.274 HD
ENDBRANCH  32  33
ENDBRANCH  31  32
ENDBRANCH  30  31
ENDBRANCH  29  30
ENDBRANCH  28  29
ENDBRANCH  27  28
ENDBRANCH  24  27
ENDBRANCH  22  24
ENDBRANCH  19  22
ENDBRANCH  13  14
ENDBRANCH   9  13
BRANCH   8  37
HETATM   37  C5  UNL     1      -4.776   1.332   0.948  1.00  0.00     0.205 C 
BRANCH  37  38
HETATM   38  O1  UNL     1      -5.982   1.762   1.547  1.00  0.00    -0.385 OA
ATOM     39  H1  UNL     1      -6.306   2.590   1.212  1.00  0.00     0.211 HD
ENDBRANCH  37  38
BRANCH  37  40
HETATM   40  C6  UNL     1      -4.842   1.458  -0.528  1.00  0.00    -0.018 A 
HETATM   41  C7  UNL     1      -6.050   1.245  -1.166  1.00  0.00     0.055 A 
HETATM   42  C8  UNL     1      -6.173   1.334  -2.534  1.00  0.00     0.158 A 
HETATM   43  F1  UNL     1      -7.391   1.114  -3.145  1.00  0.00    -0.203 F 
HETATM   44  C9  UNL     1      -5.080   1.642  -3.309  1.00  0.00     0.193 A 
HETATM   45  F2  UNL     1      -5.206   1.730  -4.675  1.00  0.00    -0.200 F 
HETATM   46  C10 UNL     1      -3.873   1.858  -2.699  1.00  0.00     0.158 A 
HETATM   47  F3  UNL     1      -2.819   2.160  -3.498  1.00  0.00    -0.203 F 
HETATM   48  C11 UNL     1      -3.766   1.765  -1.328  1.00  0.00     0.055 A 
ENDBRANCH  37  40
ENDBRANCH   8  37
BRANCH   1  49
HETATM   49  N1  UNL     1      -3.707  -4.310   2.492  1.00  0.00    -0.383 N 
ATOM     50  H12 UNL     1      -3.947  -5.299   2.427  1.00  0.00     0.157 HD
ATOM     51  H11 UNL     1      -2.921  -4.063   3.093  1.00  0.00     0.157 HD
ENDBRANCH   1  49
TORSDOF 15
