REMARK  15 active torsions:
REMARK  status: ('A' for Active; 'I' for Inactive)
REMARK    1  A    between atoms: C2_2  and  C5_5 
REMARK    2  A    between atoms: C5_5  and  C6_6 
REMARK    3  A    between atoms: C6_6  and  C7_7 
REMARK    4  A    between atoms: C7_7  and  C8_8 
REMARK    5  A    between atoms: C8_8  and  N1_9 
REMARK    6  A    between atoms: C8_8  and  C21_38 
REMARK    7  A    between atoms: C8_8  and  C27_47 
REMARK    8  A    between atoms: N1_9  and  C9_11 
REMARK    9  A    between atoms: C9_11  and  C10_12 
REMARK   10  A    between atoms: C10_12  and  C11_13 
REMARK   11  A    between atoms: C12_15  and  C13_16 
REMARK   12  A    between atoms: C13_16  and  O2_17 
REMARK   13  A    between atoms: C14_19  and  N2_20 
REMARK   14  A    between atoms: C17_25  and  N4_26 
REMARK   15  A    between atoms: C20_35  and  O3_36 
ROOT
HETATM    1  C11 UNL     1       1.943   0.030  -1.498  1.00  0.00     0.154 C 
HETATM    2  O1  UNL     1       2.078   0.430  -0.173  1.00  0.00    -0.374 OA
HETATM    3  C12 UNL     1       3.448   0.645   0.041  1.00  0.00     0.171 C 
HETATM    4  C14 UNL     1       4.211  -0.142  -0.962  1.00  0.00     0.154 C 
HETATM    5  C20 UNL     1       3.086  -1.002  -1.560  1.00  0.00     0.173 C 
ENDROOT
BRANCH   1   6
HETATM    6  C10 UNL     1       0.695  -0.692  -1.816  1.00  0.00     0.054 C 
BRANCH   6   7
HETATM    7  C9  UNL     1      -0.591   0.121  -1.557  1.00  0.00     0.117 C 
BRANCH   7   8
HETATM    8  N1  UNL     1      -0.702   0.508  -0.220  1.00  0.00    -0.404 N 
ATOM      9  H1  UNL     1       0.146   0.553   0.345  1.00  0.00     0.154 HD
BRANCH   8  10
HETATM   10  C8  UNL     1      -1.938   0.842   0.389  1.00  0.00     0.116 C 
BRANCH  10  11
HETATM   11  C7  UNL     1      -2.888  -0.281   0.549  1.00  0.00     0.041 C 
BRANCH  11  12
HETATM   12  C6  UNL     1      -3.432  -1.053  -0.546  1.00  0.00     0.004 C 
BRANCH  12  13
HETATM   13  C5  UNL     1      -4.360  -2.146  -0.083  1.00  0.00     0.008 C 
BRANCH  13  14
HETATM   14  C2  UNL     1      -5.581  -1.854   0.654  1.00  0.00    -0.051 C 
HETATM   15  C1  UNL     1      -6.558  -0.944  -0.051  1.00  0.00     0.014 C 
HETATM   16  C3  UNL     1      -6.341  -3.254   0.670  1.00  0.00     0.014 C 
HETATM   17  C4  UNL     1      -5.464  -1.536   2.098  1.00  0.00     0.014 C 
ENDBRANCH  13  14
ENDBRANCH  12  13
ENDBRANCH  11  12
ENDBRANCH  10  11
BRANCH  10  18
HETATM   18  C21 UNL     1      -2.454   2.186   0.072  1.00  0.00     0.017 A 
HETATM   19  C22 UNL     1      -1.687   3.035  -0.695  1.00  0.00     0.016 A 
HETATM   20  C23 UNL     1      -2.126   4.327  -0.987  1.00  0.00     0.046 A 
HETATM   21  C24 UNL     1      -3.314   4.811  -0.538  1.00  0.00     0.158 A 
HETATM   22  F1  UNL     1      -3.760   6.077  -0.818  1.00  0.00    -0.203 F 
HETATM   23  C25 UNL     1      -4.089   3.979   0.229  1.00  0.00     0.193 A 
HETATM   24  F2  UNL     1      -5.271   4.458   0.680  1.00  0.00    -0.200 F 
HETATM   25  C26 UNL     1      -3.645   2.677   0.522  1.00  0.00     0.167 A 
HETATM   26  F3  UNL     1      -4.511   2.001   1.306  1.00  0.00    -0.202 F 
ENDBRANCH  10  18
BRANCH  10  27
HETATM   27  C27 UNL     1      -1.459   1.078   1.897  1.00  0.00     0.385 C 
HETATM   28  F4  UNL     1      -0.865  -0.081   2.354  1.00  0.00    -0.211 F 
HETATM   29  F5  UNL     1      -0.500   2.065   1.902  1.00  0.00    -0.211 F 
ENDBRANCH  10  27
ENDBRANCH   8  10
ENDBRANCH   7   8
ENDBRANCH   6   7
ENDBRANCH   1   6
BRANCH   5  30
HETATM   30  O3  UNL     1       2.718  -2.008  -0.653  1.00  0.00    -0.391 OA
ATOM     31  H3  UNL     1       3.423  -2.644  -0.691  1.00  0.00     0.210 HD
ENDBRANCH   5  30
BRANCH   3  32
HETATM   32  C13 UNL     1       3.652   2.131  -0.255  1.00  0.00     0.198 C 
BRANCH  32  33
HETATM   33  O2  UNL     1       2.856   2.860   0.627  1.00  0.00    -0.398 OA
ATOM     34  H2  UNL     1       2.983   3.783   0.443  1.00  0.00     0.209 HD
ENDBRANCH  32  33
ENDBRANCH   3  32
BRANCH   4  35
HETATM   35  N2  UNL     1       5.261  -0.971  -0.458  1.00  0.00    -0.317 N 
HETATM   36  C15 UNL     1       5.417  -2.275  -0.795  1.00  0.00     0.185 A 
HETATM   37  N3  UNL     1       6.499  -2.762  -0.153  1.00  0.00    -0.346 N 
HETATM   38  C16 UNL     1       7.046  -1.807   0.588  1.00  0.00     0.122 A 
ATOM     39  H3  UNL     1       6.844  -3.719  -0.226  1.00  0.00     0.167 HD
HETATM   40  C17 UNL     1       8.149  -1.761   1.426  1.00  0.00     0.131 A 
HETATM   41  C19 UNL     1       6.254  -0.673   0.390  1.00  0.00     0.141 A 
HETATM   42  N5  UNL     1       8.441  -0.609   2.040  1.00  0.00    -0.337 N 
HETATM   43  C18 UNL     1       7.675   0.476   1.844  1.00  0.00     0.183 A 
ATOM     44  H5  UNL     1       9.249  -0.555   2.660  1.00  0.00     0.168 HD
HETATM   45  N6  UNL     1       6.605   0.433   1.033  1.00  0.00    -0.336 N 
ATOM     46  H6  UNL     1       6.045   1.276   0.908  1.00  0.00     0.168 HD
BRANCH  40  47
HETATM   47  N4  UNL     1       8.841  -2.830   1.574  1.00  0.00    -0.383 N 
ATOM     48  H42 UNL     1       8.618  -3.708   1.106  1.00  0.00     0.157 HD
ATOM     49  H41 UNL     1       9.653  -2.796   2.191  1.00  0.00     0.157 HD
ENDBRANCH  40  47
ENDBRANCH   4  35
TORSDOF 15
