REMARK  4 active torsions:
REMARK  status: ('A' for Active; 'I' for Inactive)
REMARK    1  A    between atoms: C3_5  and  S1_6 
REMARK    2  A    between atoms: S1_6  and  N2_7 
REMARK    3  A    between atoms: C4_14  and  C5_15 
REMARK       I    between atoms: C5_15  and  N4_17 
REMARK    4  A    between atoms: N4_17  and  N5_19 
ROOT
HETATM    1  C1  UNL     1       1.666  -2.287  -0.579  1.00  0.00     0.071 C 
HETATM    2  C2  UNL     1       0.579  -1.312  -0.402  1.00  0.00     0.040 A 
HETATM    3  N1  UNL     1      -0.736  -1.610  -0.596  1.00  0.00    -0.333 N 
ATOM      4  H1  UNL     1      -1.126  -2.509  -0.878  1.00  0.00     0.168 HD
HETATM    5  C3  UNL     1      -1.414  -0.479  -0.341  1.00  0.00     0.224 A 
HETATM    6  N3  UNL     1      -0.542   0.490   0.001  1.00  0.00    -0.325 N 
ATOM      7  H3  UNL     1      -0.790   1.449   0.245  1.00  0.00     0.168 HD
HETATM    8  C4  UNL     1       0.707  -0.008  -0.030  1.00  0.00     0.127 A 
ENDROOT
BRANCH   8   9
HETATM    9  C5  UNL     1       1.924   0.735   0.278  1.00  0.00     0.288 C 
HETATM   10  O3  UNL     1       3.064   0.208   0.230  1.00  0.00    -0.264 OA
HETATM   11  N4  UNL     1       1.852   2.103   0.650  1.00  0.00    -0.271 N 
ATOM     12  H4  UNL     1       0.939   2.555   0.697  1.00  0.00     0.189 HD
BRANCH  11  13
HETATM   13  N5  UNL     1       2.993   2.848   0.953  1.00  0.00    -0.342 N 
ATOM     14  H52 UNL     1       3.898   2.380   0.901  1.00  0.00     0.176 HD
ATOM     15  H51 UNL     1       2.941   3.831   1.220  1.00  0.00     0.176 HD
ENDBRANCH  11  13
ENDBRANCH   8   9
BRANCH   5  16
HETATM   16  S1  UNL     1      -3.149  -0.310  -0.442  1.00  0.00     0.288 S 
HETATM   17  O1  UNL     1      -3.513   0.716  -1.496  1.00  0.00    -0.198 OA
HETATM   18  O2  UNL     1      -3.768  -1.618  -0.841  1.00  0.00    -0.198 OA
BRANCH  16  19
HETATM   19  N2  UNL     1      -3.840   0.151   1.065  1.00  0.00    -0.322 N 
ATOM     20  H22 UNL     1      -3.288   0.304   1.909  1.00  0.00     0.169 HD
ATOM     21  H21 UNL     1      -4.853   0.250   1.006  1.00  0.00     0.169 HD
ENDBRANCH  16  19
ENDBRANCH   5  16
TORSDOF 4
