REMARK  5 active torsions:
REMARK  status: ('A' for Active; 'I' for Inactive)
REMARK    1  A    between atoms: C2_2  and  N1_3 
REMARK    2  A    between atoms: N1_3  and  C3_5 
REMARK    3  A    between atoms: C6_12  and  N4_13 
REMARK       I    between atoms: N4_13  and  C7_15 
REMARK    4  A    between atoms: C7_15  and  C8_17 
REMARK    5  A    between atoms: C8_17  and  N5_19 
ROOT
HETATM    1  C3  UNL     1       2.087  -0.279  -0.248  1.00  0.00     0.694 A 
HETATM    2  N2  UNL     1       2.004   0.674  -1.193  1.00  0.00    -0.180 N 
ATOM      3  H2  UNL     1       2.793   0.814  -1.824  1.00  0.00     0.185 HD
HETATM    4  C4  UNL     1       0.908   1.452  -1.332  1.00  0.00     0.109 A 
HETATM    5  C5  UNL     1       0.792   2.511  -2.369  1.00  0.00     0.090 C 
HETATM    6  N3  UNL     1      -0.122   1.253  -0.490  1.00  0.00    -0.180 N 
ATOM      7  H3  UNL     1      -0.956   1.833  -0.582  1.00  0.00     0.185 HD
HETATM    8  C6  UNL     1      -0.084   0.312   0.470  1.00  0.00     0.700 A 
HETATM    9  N6  UNL     1       1.040  -0.453   0.578  1.00  0.00    -0.022 N 
ATOM     10  H6  UNL     1       1.087  -1.172   1.300  1.00  0.00     0.203 HD
ENDROOT
BRANCH   8  11
HETATM   11  N4  UNL     1      -1.071   0.122   1.276  1.00  0.00    -0.157 N 
HETATM   12  C7  UNL     1      -2.213   0.940   1.123  1.00  0.00     0.266 C 
HETATM   13  O1  UNL     1      -2.298   2.018   1.739  1.00  0.00    -0.270 OA
ATOM     14  H4  UNL     1      -1.029  -0.595   2.000  1.00  0.00     0.187 HD
BRANCH  12  15
HETATM   15  C8  UNL     1      -3.297   0.500   0.228  1.00  0.00     0.271 C 
HETATM   16  C9  UNL     1      -3.797  -0.847   0.764  1.00  0.00     0.050 C 
BRANCH  15  17
HETATM   17  N5  UNL     1      -4.393   1.419   0.165  1.00  0.00    -0.067 N 
ATOM     18  H53 UNL     1      -4.753   1.616   1.099  1.00  0.00     0.275 HD
ATOM     19  H52 UNL     1      -4.068   2.351  -0.092  1.00  0.00     0.275 HD
ATOM     20  H51 UNL     1      -5.144   1.114  -0.455  1.00  0.00     0.275 HD
ENDBRANCH  15  17
ENDBRANCH  12  15
ENDBRANCH   8  11
BRANCH   1  21
HETATM   21  N1  UNL     1       3.152  -0.997  -0.152  1.00  0.00    -0.226 N 
ATOM     22  H1  UNL     1       3.909  -0.813  -0.810  1.00  0.00     0.177 HD
BRANCH  21  23
HETATM   23  C2  UNL     1       3.348  -2.034   0.812  1.00  0.00     0.133 C 
HETATM   24  C1  UNL     1       4.707  -2.663   0.558  1.00  0.00     0.027 C 
ENDBRANCH  21  23
ENDBRANCH   1  21
TORSDOF 5
