REMARK  3 active torsions:
REMARK  status: ('A' for Active; 'I' for Inactive)
REMARK       I    between atoms: N1_1  and  C1_4 
REMARK       I    between atoms: C1_4  and  N3_6 
REMARK    1  A    between atoms: N3_6  and  C2_8 
REMARK    2  A    between atoms: C3_13  and  S1_14 
REMARK    3  A    between atoms: S1_14  and  N6_15 
ROOT
HETATM    1  C2  UNL     1      -0.803   0.993  -0.077  1.00  0.00     0.168 A 
HETATM    2  N4  UNL     1      -0.507  -0.312   0.007  1.00  0.00    -0.278 N 
ATOM      3  H4  UNL     1      -1.223  -1.023  -0.141  1.00  0.00     0.189 HD
HETATM    4  N5  UNL     1       0.693  -0.639   0.277  1.00  0.00    -0.281 N 
ATOM      5  H5  UNL     1       0.947  -1.624   0.347  1.00  0.00     0.188 HD
HETATM    6  C3  UNL     1       1.612   0.293   0.467  1.00  0.00     0.208 A 
HETATM    7  S2  UNL     1       0.704   1.721   0.245  1.00  0.00    -0.020 SA
ENDROOT
BRANCH   1   8
HETATM    8  N3  UNL     1      -1.973   1.529  -0.344  1.00  0.00    -0.310 N 
HETATM    9  C1  UNL     1      -3.102   0.696  -0.581  1.00  0.00     0.187 C 
HETATM   10  N1  UNL     1      -3.620   0.751  -1.758  1.00  0.00    -0.373 N 
HETATM   11  N2  UNL     1      -3.650  -0.160   0.402  1.00  0.00    -0.064 NA
ATOM     12  H12 UNL     1      -4.429   0.154  -1.928  1.00  0.00     0.158 HD
ATOM     13  H11 UNL     1      -3.225   1.368  -2.467  1.00  0.00     0.158 HD
ATOM     14  H3  UNL     1      -2.072   2.544  -0.381  1.00  0.00     0.170 HD
ENDBRANCH   1   8
BRANCH   6  15
HETATM   15  S1  UNL     1       3.331   0.083   0.850  1.00  0.00     0.280 S 
HETATM   16  O1  UNL     1       3.779   1.170   1.763  1.00  0.00    -0.199 OA
HETATM   17  O2  UNL     1       3.495  -1.234   1.570  1.00  0.00    -0.199 OA
BRANCH  15  18
HETATM   18  N6  UNL     1       4.199  -0.004  -0.610  1.00  0.00    -0.323 N 
ATOM     19  H62 UNL     1       3.786   0.056  -1.541  1.00  0.00     0.169 HD
ATOM     20  H61 UNL     1       5.188  -0.125  -0.390  1.00  0.00     0.169 HD
ENDBRANCH  15  18
ENDBRANCH   6  15
TORSDOF 3
