REMARK  4 active torsions:
REMARK  status: ('A' for Active; 'I' for Inactive)
REMARK    1  A    between atoms: N1_2  and  C3_4 
REMARK    2  A    between atoms: C3_4  and  C4_5 
REMARK       I    between atoms: C4_5  and  N2_7 
REMARK    3  A    between atoms: N2_7  and  C5_9 
REMARK    4  A    between atoms: C6_12  and  N4_13 
ROOT
HETATM    1  C5  UNL     1       1.077   0.248   1.023  1.00  0.00     0.688 A 
HETATM    2  N3  UNL     1       2.244   0.101   1.677  1.00  0.00    -0.174 N 
ATOM      3  H3  UNL     1       2.232   0.042   2.695  1.00  0.00     0.186 HD
HETATM    4  C6  UNL     1       3.430   0.029   1.037  1.00  0.00     0.146 A 
HETATM    5  C7  UNL     1       3.482   0.105  -0.333  1.00  0.00     0.136 A 
HETATM    6  N5  UNL     1       4.487   0.064  -1.226  1.00  0.00    -0.277 N 
ATOM      7  H5  UNL     1       5.481  -0.040  -1.024  1.00  0.00     0.184 HD
HETATM    8  N6  UNL     1       3.929   0.186  -2.419  1.00  0.00    -0.020 NA
HETATM    9  N7  UNL     1       2.618   0.301  -2.312  1.00  0.00    -0.267 N 
ATOM     10  H7  UNL     1       1.963   0.407  -3.087  1.00  0.00     0.186 HD
HETATM   11  C8  UNL     1       2.294   0.255  -1.015  1.00  0.00     0.165 A 
HETATM   12  N8  UNL     1       1.122   0.323  -0.320  1.00  0.00    -0.173 N 
ATOM     13  H8  UNL     1       0.249   0.435  -0.836  1.00  0.00     0.186 HD
ENDROOT
BRANCH   1  14
HETATM   14  N2  UNL     1       0.000   0.309   1.695  1.00  0.00    -0.158 N 
HETATM   15  C4  UNL     1      -1.298   0.460   1.176  1.00  0.00     0.264 C 
HETATM   16  O1  UNL     1      -1.816   1.618   1.294  1.00  0.00    -0.271 OA
ATOM     17  H2  UNL     1       0.086   0.242   2.709  1.00  0.00     0.187 HD
BRANCH  15  18
HETATM   18  C3  UNL     1      -2.079  -0.591   0.524  1.00  0.00     0.374 C 
BRANCH  18  19
HETATM   19  N1  UNL     1      -3.375  -0.091   0.109  1.00  0.00     0.088 N 
HETATM   20  C1  UNL     1      -3.237   0.881  -0.973  1.00  0.00     0.310 C 
HETATM   21  C2  UNL     1      -4.223  -1.170  -0.389  1.00  0.00     0.310 C 
ENDBRANCH  18  19
ENDBRANCH  15  18
ENDBRANCH   1  14
BRANCH   4  22
HETATM   22  N4  UNL     1       4.548  -0.113   1.674  1.00  0.00    -0.383 N 
ATOM     23  H42 UNL     1       4.509  -0.169   2.692  1.00  0.00     0.157 HD
ATOM     24  H41 UNL     1       5.444  -0.167   1.190  1.00  0.00     0.157 HD
ENDBRANCH   4  22
TORSDOF 4
