REMARK  4 active torsions:
REMARK  status: ('A' for Active; 'I' for Inactive)
REMARK    1  A    between atoms: O1_2  and  C2_3 
REMARK    2  A    between atoms: C3_6  and  N2_7 
REMARK    3  A    between atoms: C5_14  and  C6_15 
REMARK       I    between atoms: C6_15  and  N4_17 
REMARK    4  A    between atoms: N4_17  and  C7_19 
ROOT
HETATM    1  C2  UNL     1      -1.561   0.617  -0.156  1.00  0.00     0.178 A 
HETATM    2  N1  UNL     1      -2.757   0.111   0.139  1.00  0.00    -0.170 N 
ATOM      3  H1  UNL     1      -3.583   0.699   0.027  1.00  0.00     0.186 HD
HETATM    4  C3  UNL     1      -2.912  -1.149   0.579  1.00  0.00     0.680 A 
HETATM    5  N3  UNL     1      -1.856  -1.959   0.741  1.00  0.00    -0.155 N 
ATOM      6  H3  UNL     1      -1.988  -2.914   1.075  1.00  0.00     0.187 HD
HETATM    7  C4  UNL     1      -0.628  -1.507   0.461  1.00  0.00     0.279 A 
HETATM    8  O2  UNL     1       0.397  -2.253   0.606  1.00  0.00    -0.266 OA
HETATM    9  C5  UNL     1      -0.450  -0.217   0.009  1.00  0.00     0.152 A 
ENDROOT
BRANCH   9  10
HETATM   10  C6  UNL     1       0.890   0.262  -0.292  1.00  0.00     0.279 C 
HETATM   11  O3  UNL     1       1.037   1.438  -0.703  1.00  0.00    -0.266 OA
HETATM   12  N4  UNL     1       1.984  -0.588  -0.120  1.00  0.00    -0.153 N 
ATOM     13  H4  UNL     1       1.888  -1.554  -0.433  1.00  0.00     0.187 HD
BRANCH  12  14
HETATM   14  C7  UNL     1       3.110  -0.237   0.408  1.00  0.00     0.710 A 
HETATM   15  N5  UNL     1       3.501   0.953   0.897  1.00  0.00    -0.117 N 
HETATM   16  N6  UNL     1       4.746   0.877   1.347  1.00  0.00     0.006 NA
ATOM     17  H5  UNL     1       2.923   1.793   0.919  1.00  0.00     0.202 HD
HETATM   18  N7  UNL     1       5.150  -0.375   1.143  1.00  0.00     0.006 NA
HETATM   19  N8  UNL     1       4.165  -1.055   0.574  1.00  0.00    -0.117 N 
ATOM     20  H8  UNL     1       4.201  -2.038   0.306  1.00  0.00     0.202 HD
ENDBRANCH  12  14
ENDBRANCH   9  10
BRANCH   1  21
HETATM   21  O1  UNL     1      -1.326   1.896  -0.611  1.00  0.00    -0.340 OA
HETATM   22  C1  UNL     1      -2.312   2.860  -0.833  1.00  0.00     0.211 C 
ENDBRANCH   1  21
BRANCH   4  23
HETATM   23  N2  UNL     1      -4.079  -1.613   0.856  1.00  0.00    -0.234 N 
ATOM     24  H22 UNL     1      -4.882  -0.997   0.733  1.00  0.00     0.174 HD
ATOM     25  H21 UNL     1      -4.197  -2.570   1.190  1.00  0.00     0.174 HD
ENDBRANCH   4  23
TORSDOF 4
