REMARK  9 active torsions:
REMARK  status: ('A' for Active; 'I' for Inactive)
REMARK    1  A    between atoms: C2_2  and  O1_3 
REMARK    2  A    between atoms: C2_2  and  C3_5 
REMARK    3  A    between atoms: C3_5  and  C4_6 
REMARK    4  A    between atoms: C7_9  and  C8_10 
REMARK    5  A    between atoms: C11_13  and  C12_14 
REMARK    6  A    between atoms: C13_15  and  C14_16 
REMARK    7  A    between atoms: C14_16  and  O2_17 
REMARK    8  A    between atoms: C14_16  and  C15_19 
REMARK    9  A    between atoms: C15_19  and  O3_20 
ROOT
HETATM    1  C4  UNL     1      -1.127  -0.562   0.740  1.00  0.00    -0.004 C 
HETATM    2  C5  UNL     1      -2.288   0.366   0.875  1.00  0.00     0.006 C 
HETATM    3  C6  UNL     1      -1.680   1.582   1.490  1.00  0.00     0.006 C 
HETATM    4  C7  UNL     1      -0.199   1.580   1.092  1.00  0.00    -0.003 C 
HETATM    5  C11 UNL     1       0.130   0.272   0.560  1.00  0.00     0.016 C 
ENDROOT
BRANCH   5   6
HETATM    6  C12 UNL     1       0.661   0.156  -0.785  1.00  0.00    -0.023 C 
HETATM    7  C13 UNL     1       1.836  -0.379  -1.069  1.00  0.00     0.003 C 
BRANCH   7   8
HETATM    8  C14 UNL     1       2.751  -0.925  -0.043  1.00  0.00     0.164 C 
BRANCH   8   9
HETATM    9  O2  UNL     1       3.361   0.103   0.640  1.00  0.00    -0.390 OA
ATOM     10  H2  UNL     1       3.949  -0.248   1.299  1.00  0.00     0.210 HD
ENDBRANCH   8   9
BRANCH   8  11
HETATM   11  C15 UNL     1       3.858  -1.746  -0.676  1.00  0.00     0.199 C 
BRANCH  11  12
HETATM   12  O3  UNL     1       4.722  -2.265   0.266  1.00  0.00    -0.398 OA
ATOM     13  H3  UNL     1       5.415  -2.779  -0.131  1.00  0.00     0.209 HD
ENDBRANCH  11  12
ENDBRANCH   8  11
ENDBRANCH   7   8
ENDBRANCH   5   6
BRANCH   1  14
HETATM   14  C3  UNL     1      -1.341  -1.511  -0.413  1.00  0.00     0.036 C 
BRANCH  14  15
HETATM   15  C2  UNL     1      -2.604  -2.294  -0.118  1.00  0.00     0.114 C 
HETATM   16  C1  UNL     1      -2.893  -3.275  -1.233  1.00  0.00     0.039 C 
BRANCH  15  17
HETATM   17  O1  UNL     1      -2.516  -2.994   1.086  1.00  0.00    -0.396 OA
ATOM     18  H1  UNL     1      -2.335  -2.378   1.786  1.00  0.00     0.210 HD
ENDBRANCH  15  17
ENDBRANCH  14  15
ENDBRANCH   1  14
BRANCH   4  19
HETATM   19  C8  UNL     1       0.024   2.814   0.290  1.00  0.00    -0.018 C 
HETATM   20  C9  UNL     1      -0.760   2.969  -0.957  1.00  0.00     0.010 C 
HETATM   21  C10 UNL     1       1.476   3.141   0.026  1.00  0.00     0.010 C 
ENDBRANCH   4  19
TORSDOF 9
