REMARK  8 active torsions:
REMARK  status: ('A' for Active; 'I' for Inactive)
REMARK    1  A    between atoms: C2_2  and  O1_6 
REMARK    2  A    between atoms: O1_6  and  C3_7 
REMARK    3  A    between atoms: C3_7  and  C4_8 
REMARK    4  A    between atoms: C4_8  and  O2_9 
REMARK    5  A    between atoms: C4_8  and  C5_11 
REMARK    6  A    between atoms: C5_11  and  N2_12 
REMARK    7  A    between atoms: N2_12  and  C6_14 
REMARK    8  A    between atoms: C6_14  and  C9_17 
ROOT
HETATM    1  N2  UNL     1       0.355  -0.254   0.547  1.00  0.00    -0.410 N 
ATOM      2  H2  UNL     1       0.972   0.450   0.952  1.00  0.00     0.154 HD
ENDROOT
BRANCH   1   3
HETATM    3  C5  UNL     1       0.846  -0.970  -0.537  1.00  0.00     0.148 C 
BRANCH   3   4
HETATM    4  C4  UNL     1       2.356  -0.762  -0.756  1.00  0.00     0.159 C 
BRANCH   4   5
HETATM    5  C3  UNL     1       2.671   0.669  -1.116  1.00  0.00     0.210 C 
BRANCH   5   6
HETATM    6  O1  UNL     1       4.085   0.781  -1.356  1.00  0.00    -0.337 OA
BRANCH   6   7
HETATM    7  C2  UNL     1       4.999   0.482  -0.374  1.00  0.00     0.107 C 
HETATM    8  C1  UNL     1       6.305  -0.168  -0.690  1.00  0.00     0.097 C 
HETATM    9  N1  UNL     1       4.669   0.796   0.855  1.00  0.00    -0.384 N 
ATOM     10  H12 UNL     1       5.347   0.574   1.584  1.00  0.00     0.157 HD
ATOM     11  H11 UNL     1       3.777   1.240   1.071  1.00  0.00     0.157 HD
ENDBRANCH   6   7
ENDBRANCH   5   6
ENDBRANCH   4   5
BRANCH   4  12
HETATM   12  O2  UNL     1       2.758  -1.536  -1.856  1.00  0.00    -0.392 OA
ATOM     13  H2  UNL     1       2.560  -2.437  -1.629  1.00  0.00     0.210 HD
ENDBRANCH   4  12
ENDBRANCH   3   4
ENDBRANCH   1   3
BRANCH   1  14
HETATM   14  C6  UNL     1      -0.884  -0.404   1.127  1.00  0.00     0.022 C 
HETATM   15  C7  UNL     1      -1.071  -1.813   1.757  1.00  0.00     0.038 C 
HETATM   16  C8  UNL     1      -0.906   0.500   2.392  1.00  0.00     0.038 C 
BRANCH  14  17
HETATM   17  C9  UNL     1      -2.152  -0.122   0.437  1.00  0.00     0.017 C 
HETATM   18  C10 UNL     1      -2.509  -0.925  -0.775  1.00  0.00     0.012 C 
HETATM   19  C11 UNL     1      -3.460   0.083  -1.457  1.00  0.00    -0.014 C 
HETATM   20  C12 UNL     1      -4.488   0.558  -0.482  1.00  0.00     0.005 C 
HETATM   21  C15 UNL     1      -2.483   1.274  -1.451  1.00  0.00     0.010 C 
HETATM   22  C13 UNL     1      -3.825   1.646   0.379  1.00  0.00     0.005 C 
HETATM   23  C14 UNL     1      -2.355   1.326   0.077  1.00  0.00    -0.008 C 
ENDBRANCH  14  17
ENDBRANCH   1  14
TORSDOF 8
