REMARK  7 active torsions:
REMARK  status: ('A' for Active; 'I' for Inactive)
REMARK    1  A    between atoms: C2_2  and  C5_5 
REMARK    2  A    between atoms: C5_5  and  N1_6 
REMARK    3  A    between atoms: N1_6  and  C6_9 
REMARK    4  A    between atoms: C6_9  and  C7_10 
REMARK    5  A    between atoms: C7_10  and  O1_11 
REMARK    6  A    between atoms: C7_10  and  C8_13 
REMARK    7  A    between atoms: N2_14  and  C9_16 
ROOT
HETATM    1  C6  UNL     1      -0.775  -0.984  -0.330  1.00  0.00     0.270 C 
ENDROOT
BRANCH   1   2
HETATM    2  N1  UNL     1      -1.667   0.147  -0.273  1.00  0.00    -0.063 N 
ATOM      3  H12 UNL     1      -1.464   0.801  -1.029  1.00  0.00     0.278 HD
ATOM      4  H11 UNL     1      -1.446   0.737   0.529  1.00  0.00     0.278 HD
BRANCH   2   5
HETATM    5  C5  UNL     1      -3.069  -0.206  -0.271  1.00  0.00     0.132 A 
HETATM    6  C14 UNL     1      -3.658  -0.939  -1.418  1.00  0.00     0.042 A 
HETATM    7  C15 UNL     1      -3.397  -1.629  -0.124  1.00  0.00     0.042 A 
BRANCH   5   8
HETATM    8  C2  UNL     1      -3.925   0.896   0.324  1.00  0.00    -0.018 C 
HETATM    9  C1  UNL     1      -3.536   1.183   1.776  1.00  0.00     0.017 C 
HETATM   10  C3  UNL     1      -5.394   0.656   0.258  1.00  0.00     0.017 C 
HETATM   11  C4  UNL     1      -3.510   2.171  -0.431  1.00  0.00     0.017 C 
ENDBRANCH   5   8
ENDBRANCH   2   5
ENDBRANCH   1   2
BRANCH   1  12
HETATM   12  C7  UNL     1       0.639  -0.359  -0.385  1.00  0.00     0.181 C 
BRANCH  12  13
HETATM   13  O1  UNL     1       0.800   0.442   0.713  1.00  0.00    -0.389 OA
ATOM     14  H1  UNL     1       1.668   0.826   0.679  1.00  0.00     0.210 HD
ENDBRANCH  12  13
BRANCH  12  15
HETATM   15  C8  UNL     1       1.643  -1.410  -0.635  1.00  0.00     0.089 C 
HETATM   16  N2  UNL     1       2.947  -1.193  -0.935  1.00  0.00    -0.395 N 
ATOM     17  H2  UNL     1       3.253  -1.508  -1.856  1.00  0.00     0.159 HD
BRANCH  16  18
HETATM   18  C9  UNL     1       3.897  -0.606  -0.157  1.00  0.00     0.080 C 
HETATM   19  C10 UNL     1       3.925   0.896   0.027  1.00  0.00     0.025 C 
HETATM   20  C11 UNL     1       5.318   1.117   0.647  1.00  0.00     0.002 C 
HETATM   21  C12 UNL     1       6.064  -0.168   0.528  1.00  0.00     0.002 C 
HETATM   22  C13 UNL     1       5.354  -0.865  -0.634  1.00  0.00     0.025 C 
ENDBRANCH  16  18
ENDBRANCH  12  15
ENDBRANCH   1  12
TORSDOF 7
