REMARK  10 active torsions:
REMARK  status: ('A' for Active; 'I' for Inactive)
REMARK    1  A    between atoms: C2_2  and  C3_3 
REMARK    2  A    between atoms: C3_3  and  C4_4 
REMARK    3  A    between atoms: C4_4  and  N1_5 
REMARK    4  A    between atoms: C4_4  and  C11_15 
REMARK    5  A    between atoms: N1_5  and  C5_7 
REMARK    6  A    between atoms: C5_7  and  O1_8 
REMARK    7  A    between atoms: C5_7  and  C6_10 
REMARK    8  A    between atoms: C11_15  and  C12_17 
REMARK    9  A    between atoms: C12_17  and  O3_18 
REMARK   10  A    between atoms: N2_20  and  O4_22 
ROOT
HETATM    1  C4  UNL     1      -1.685   0.205  -0.247  1.00  0.00     0.069 C 
ENDROOT
BRANCH   1   2
HETATM    2  C3  UNL     1      -2.700   1.225  -0.440  1.00  0.00     0.087 C 
BRANCH   2   3
HETATM    3  C2  UNL     1      -2.319   2.517   0.263  1.00  0.00    -0.031 C 
HETATM    4  C1  UNL     1      -3.075   2.954   1.267  1.00  0.00     0.007 C 
ENDBRANCH   2   3
ENDBRANCH   1   2
BRANCH   1   5
HETATM    5  N1  UNL     1      -0.354   0.344  -0.748  1.00  0.00    -0.340 N 
ATOM      6  H1  UNL     1      -0.216   0.904  -1.589  1.00  0.00     0.167 HD
BRANCH   5   7
HETATM    7  C5  UNL     1       0.776  -0.242  -0.155  1.00  0.00     0.119 C 
BRANCH   7   8
HETATM    8  O1  UNL     1       0.560  -0.958   0.914  1.00  0.00    -0.349 OA
ATOM      9  H1  UNL     1       1.324  -1.354   1.315  1.00  0.00     0.219 HD
ENDBRANCH   7   8
BRANCH   7  10
HETATM   10  C6  UNL     1       2.159  -0.157  -0.598  1.00  0.00     0.060 C 
HETATM   11  C7  UNL     1       2.995  -1.202   0.069  1.00  0.00     0.013 C 
HETATM   12  C8  UNL     1       3.846  -0.546   1.098  1.00  0.00     0.001 C 
HETATM   13  C9  UNL     1       3.447   0.922   1.125  1.00  0.00     0.001 C 
HETATM   14  C10 UNL     1       2.849   1.130  -0.234  1.00  0.00     0.013 C 
ENDBRANCH   7  10
ENDBRANCH   5   7
ENDBRANCH   1   5
BRANCH   1  15
HETATM   15  C11 UNL     1      -2.156  -1.160  -0.158  1.00  0.00     0.246 C 
HETATM   16  O2  UNL     1      -2.293  -1.655   1.030  1.00  0.00    -0.282 OA
BRANCH  15  17
HETATM   17  C12 UNL     1      -2.487  -2.048  -1.260  1.00  0.00     0.213 C 
HETATM   18  N2  UNL     1      -2.918  -3.203  -1.139  1.00  0.00    -0.244 N 
ATOM     19  H2  UNL     1      -3.091  -3.690  -2.018  1.00  0.00     0.196 HD
BRANCH  17  20
HETATM   20  O3  UNL     1      -2.300  -1.533  -2.562  1.00  0.00    -0.342 OA
ATOM     21  H3  UNL     1      -2.516  -2.113  -3.282  1.00  0.00     0.219 HD
ENDBRANCH  17  20
BRANCH  18  22
HETATM   22  O4  UNL     1      -3.190  -3.906  -0.052  1.00  0.00    -0.288 OA
ATOM     23  H4  UNL     1      -3.521  -4.792   0.041  1.00  0.00     0.244 HD
ENDBRANCH  18  22
ENDBRANCH  15  17
ENDBRANCH   1  15
TORSDOF 10
