REMARK  12 active torsions:
REMARK  status: ('A' for Active; 'I' for Inactive)
REMARK    1  A    between atoms: C4_4  and  N1_5 
REMARK    2  A    between atoms: C5_9  and  O1_10 
REMARK    3  A    between atoms: C6_12  and  S1_13 
REMARK    4  A    between atoms: S1_13  and  C7_14 
REMARK    5  A    between atoms: C8_16  and  C9_17 
REMARK    6  A    between atoms: C9_17  and  O3_18 
REMARK    7  A    between atoms: O3_18  and  S2_19 
REMARK    8  A    between atoms: S2_19  and  N2_22 
REMARK    9  A    between atoms: N2_22  and  C10_24 
REMARK   10  A    between atoms: C15_29  and  O6_30 
REMARK   11  A    between atoms: C16_32  and  O7_33 
REMARK   12  A    between atoms: C17_35  and  O8_36 
ROOT
HETATM    1  C7  UNL     1      -0.818   1.036  -0.937  1.00  0.00     0.215 C 
HETATM    2  O2  UNL     1      -0.249   0.228   0.026  1.00  0.00    -0.363 OA
HETATM    3  C8  UNL     1       0.846  -0.352  -0.588  1.00  0.00     0.179 C 
HETATM    4  C15 UNL     1       0.571  -0.469  -2.052  1.00  0.00     0.181 C 
HETATM    5  C16 UNL     1      -0.857   0.089  -2.133  1.00  0.00     0.188 C 
ENDROOT
BRANCH   1   6
HETATM    6  S1  UNL     1      -2.400   1.730  -0.526  1.00  0.00    -0.125 SA
BRANCH   6   7
HETATM    7  C6  UNL     1      -3.711   0.488  -0.371  1.00  0.00     0.109 C 
HETATM    8  C5  UNL     1      -3.411  -0.364   0.812  1.00  0.00     0.164 C 
HETATM    9  C4  UNL     1      -4.669  -0.715   1.572  1.00  0.00     0.213 C 
HETATM   10  C3  UNL     1      -5.746  -1.004   0.569  1.00  0.00     0.042 C 
HETATM   11  C2  UNL     1      -6.189   0.329   0.003  1.00  0.00     0.013 C 
HETATM   12  C1  UNL     1      -7.117   0.139  -1.179  1.00  0.00     0.012 C 
HETATM   13  C17 UNL     1      -5.022   1.226  -0.308  1.00  0.00     0.138 C 
BRANCH   8  14
HETATM   14  O1  UNL     1      -2.568   0.266   1.732  1.00  0.00    -0.392 OA
ATOM     15  H1  UNL     1      -1.777   0.487   1.254  1.00  0.00     0.210 HD
ENDBRANCH   8  14
BRANCH   9  16
HETATM   16  N1  UNL     1      -4.447  -1.810   2.499  1.00  0.00    -0.073 N 
ATOM     17  H13 UNL     1      -5.315  -2.075   2.964  1.00  0.00     0.274 HD
ATOM     18  H12 UNL     1      -4.254  -2.677   1.998  1.00  0.00     0.274 HD
ATOM     19  H11 UNL     1      -3.715  -1.613   3.181  1.00  0.00     0.274 HD
ENDBRANCH   9  16
BRANCH  13  20
HETATM   20  O8  UNL     1      -5.244   1.783  -1.578  1.00  0.00    -0.394 OA
ATOM     21  H8  UNL     1      -4.507   2.349  -1.774  1.00  0.00     0.210 HD
ENDBRANCH  13  20
ENDBRANCH   6   7
ENDBRANCH   1   6
BRANCH   5  22
HETATM   22  O7  UNL     1      -1.014   0.770  -3.324  1.00  0.00    -0.389 OA
ATOM     23  H7  UNL     1      -1.038   0.180  -4.069  1.00  0.00     0.210 HD
ENDBRANCH   5  22
BRANCH   3  24
HETATM   24  C9  UNL     1       2.060   0.542  -0.298  1.00  0.00     0.226 C 
BRANCH  24  25
HETATM   25  O3  UNL     1       2.213   0.588   1.067  1.00  0.00    -0.257 OA
BRANCH  25  26
HETATM   26  S2  UNL     1       3.506   1.535   1.566  1.00  0.00     0.358 S 
HETATM   27  O4  UNL     1       3.039   2.961   1.535  1.00  0.00    -0.176 OA
HETATM   28  O5  UNL     1       3.808   1.104   2.995  1.00  0.00    -0.176 OA
BRANCH  26  29
HETATM   29  N2  UNL     1       4.840   1.238   0.573  1.00  0.00    -0.292 N 
ATOM     30  H2  UNL     1       5.010   1.787  -0.270  1.00  0.00     0.174 HD
BRANCH  29  31
HETATM   31  C10 UNL     1       5.710   0.194   0.964  1.00  0.00     0.095 C 
HETATM   32  C11 UNL     1       7.112   0.624   1.287  1.00  0.00     0.026 C 
HETATM   33  C12 UNL     1       8.000  -0.354   0.548  1.00  0.00     0.002 C 
HETATM   34  C13 UNL     1       7.125  -1.574   0.335  1.00  0.00     0.002 C 
HETATM   35  C14 UNL     1       5.795  -0.943  -0.018  1.00  0.00     0.026 C 
ENDBRANCH  29  31
ENDBRANCH  26  29
ENDBRANCH  25  26
ENDBRANCH  24  25
ENDBRANCH   3  24
BRANCH   4  36
HETATM   36  O6  UNL     1       0.667  -1.738  -2.561  1.00  0.00    -0.390 OA
ATOM     37  H6  UNL     1       0.492  -1.812  -3.492  1.00  0.00     0.210 HD
ENDBRANCH   4  36
TORSDOF 12
