REMARK  12 active torsions:
REMARK  status: ('A' for Active; 'I' for Inactive)
REMARK    1  A    between atoms: O1_2  and  C2_3 
REMARK    2  A    between atoms: C3_4  and  N1_5 
REMARK    3  A    between atoms: C5_10  and  O2_11 
REMARK    4  A    between atoms: O2_11  and  C6_12 
REMARK    5  A    between atoms: C7_13  and  O3_14 
REMARK    6  A    between atoms: C8_17  and  C9_18 
REMARK    7  A    between atoms: C14_23  and  N2_24 
REMARK    8  A    between atoms: N2_24  and  C15_27 
REMARK    9  A    between atoms: C15_27  and  C17_29 
REMARK   10  A    between atoms: C17_29  and  O5_30 
REMARK   11  A    between atoms: C18_32  and  O6_33 
REMARK   12  A    between atoms: C19_35  and  O7_36 
ROOT
HETATM    1  C6  UNL     1       0.968  -0.199   1.591  1.00  0.00     0.210 C 
HETATM    2  C7  UNL     1       0.412  -1.578   1.312  1.00  0.00     0.288 C 
HETATM    3  O4  UNL     1      -0.373  -1.594   0.161  1.00  0.00    -0.350 OA
HETATM    4  C8  UNL     1      -1.497  -0.743   0.318  1.00  0.00     0.162 C 
HETATM    5  C18 UNL     1      -0.873   0.656   0.206  1.00  0.00     0.179 C 
HETATM    6  C19 UNL     1      -0.092   0.867   1.496  1.00  0.00     0.183 C 
ENDROOT
BRANCH   1   7
HETATM    7  O2  UNL     1       1.927   0.080   0.624  1.00  0.00    -0.348 OA
BRANCH   7   8
HETATM    8  C5  UNL     1       3.203   0.240   1.181  1.00  0.00     0.263 C 
HETATM    9  C4  UNL     1       3.688   1.594   0.836  1.00  0.00     0.096 C 
HETATM   10  C3  UNL     1       5.158   1.723   0.613  1.00  0.00     0.219 C 
HETATM   11  C2  UNL     1       5.820   0.475   0.110  1.00  0.00     0.179 C 
HETATM   12  C20 UNL     1       5.322  -0.664   1.012  1.00  0.00     0.151 C 
HETATM   13  O8  UNL     1       3.972  -0.806   0.700  1.00  0.00    -0.354 OA
HETATM   14  C21 UNL     1       6.025  -1.920   0.540  1.00  0.00     0.042 C 
BRANCH  10  15
HETATM   15  N1  UNL     1       5.414   2.775  -0.360  1.00  0.00    -0.072 N 
ATOM     16  H13 UNL     1       6.407   2.902  -0.556  1.00  0.00     0.274 HD
ATOM     17  H12 UNL     1       5.123   2.523  -1.305  1.00  0.00     0.274 HD
ATOM     18  H11 UNL     1       4.964   3.624  -0.018  1.00  0.00     0.274 HD
ENDBRANCH  10  15
BRANCH  11  19
HETATM   19  O1  UNL     1       5.343   0.170  -1.163  1.00  0.00    -0.386 OA
HETATM   20  C1  UNL     1       6.363   0.074  -2.090  1.00  0.00     0.202 C 
ENDBRANCH  11  19
ENDBRANCH   7   8
ENDBRANCH   1   7
BRANCH   2  21
HETATM   21  O3  UNL     1      -0.252  -2.105   2.415  1.00  0.00    -0.369 OA
ATOM     22  H3  UNL     1      -0.601  -2.971   2.240  1.00  0.00     0.212 HD
ENDBRANCH   2  21
BRANCH   6  23
HETATM   23  O7  UNL     1      -0.973   0.711   2.555  1.00  0.00    -0.390 OA
ATOM     24  H7  UNL     1      -1.642   1.383   2.495  1.00  0.00     0.210 HD
ENDBRANCH   6  23
BRANCH   5  25
HETATM   25  O6  UNL     1      -0.027   0.716  -0.901  1.00  0.00    -0.390 OA
ATOM     26  H6  UNL     1       0.359   1.581  -0.970  1.00  0.00     0.210 HD
ENDBRANCH   5  25
BRANCH   4  27
HETATM   27  C9  UNL     1      -2.367  -0.963  -0.869  1.00  0.00     0.048 C 
HETATM   28  C10 UNL     1      -2.578  -2.507  -0.992  1.00  0.00     0.009 C 
HETATM   29  C11 UNL     1      -3.177  -2.716  -2.352  1.00  0.00     0.001 C 
HETATM   30  C12 UNL     1      -3.563  -1.477  -3.078  1.00  0.00     0.002 C 
HETATM   31  C13 UNL     1      -4.269  -0.436  -2.250  1.00  0.00     0.033 C 
HETATM   32  C14 UNL     1      -3.758  -0.439  -0.805  1.00  0.00     0.193 C 
BRANCH  32  33
HETATM   33  N2  UNL     1      -3.963   0.806  -0.159  1.00  0.00    -0.065 N 
ATOM     34  H22 UNL     1      -3.619   0.774   0.801  1.00  0.00     0.278 HD
ATOM     35  H21 UNL     1      -3.339   1.516  -0.541  1.00  0.00     0.278 HD
BRANCH  33  36
HETATM   36  C15 UNL     1      -5.328   1.260  -0.193  1.00  0.00     0.205 C 
HETATM   37  C16 UNL     1      -6.252   0.300   0.543  1.00  0.00     0.042 C 
BRANCH  36  38
HETATM   38  C17 UNL     1      -5.391   2.590   0.555  1.00  0.00     0.196 C 
BRANCH  38  39
HETATM   39  O5  UNL     1      -4.974   2.420   1.891  1.00  0.00    -0.399 OA
ATOM     40  H5  UNL     1      -5.013   3.247   2.356  1.00  0.00     0.209 HD
ENDBRANCH  38  39
ENDBRANCH  36  38
ENDBRANCH  33  36
ENDBRANCH  32  33
ENDBRANCH   4  27
TORSDOF 12
