REMARK  11 active torsions:
REMARK  status: ('A' for Active; 'I' for Inactive)
REMARK    1  A    between atoms: C5_5  and  O1_6 
REMARK    2  A    between atoms: O1_6  and  C6_7 
REMARK    3  A    between atoms: C7_9  and  C8_10 
REMARK    4  A    between atoms: C8_10  and  O3_11 
REMARK    5  A    between atoms: C9_13  and  O4_14 
REMARK    6  A    between atoms: C10_16  and  N1_17 
REMARK    7  A    between atoms: N1_17  and  C11_19 
REMARK    8  A    between atoms: C11_19  and  C12_20 
REMARK    9  A    between atoms: C12_20  and  O5_21 
REMARK   10  A    between atoms: C13_23  and  O6_24 
REMARK   11  A    between atoms: C17_31  and  C18_32 
ROOT
HETATM    1  C1  UNL     1      -2.147   1.578   3.094  1.00  0.00     0.047 C 
HETATM    2  C2  UNL     1      -1.953   1.154   1.635  1.00  0.00     0.068 C 
HETATM    3  C3  UNL     1      -1.113   2.150   0.877  1.00  0.00     0.041 C 
HETATM    4  C4  UNL     1       0.202   1.567   0.472  1.00  0.00     0.037 C 
HETATM    5  C5  UNL     1       0.220   0.551  -0.568  1.00  0.00     0.154 C 
HETATM    6  C13 UNL     1      -1.008   0.339  -1.388  1.00  0.00     0.160 C 
HETATM    7  C14 UNL     1      -2.175  -0.254  -0.693  1.00  0.00     0.038 C 
HETATM    8  C15 UNL     1      -2.773  -1.348  -1.561  1.00  0.00     0.024 C 
HETATM    9  C16 UNL     1      -1.858  -0.925   0.616  1.00  0.00     0.273 C 
HETATM   10  O7  UNL     1      -1.323  -0.084   1.564  1.00  0.00    -0.349 OA
HETATM   11  O8  UNL     1      -3.067  -1.407   1.121  1.00  0.00    -0.342 OA
HETATM   12  C17 UNL     1      -3.933  -0.358   1.425  1.00  0.00     0.123 C 
HETATM   13  C19 UNL     1      -5.133  -0.395   0.466  1.00  0.00     0.046 C 
HETATM   14  C20 UNL     1      -4.628   0.293  -0.768  1.00  0.00     0.009 C 
HETATM   15  C21 UNL     1      -3.235   0.787  -0.474  1.00  0.00     0.011 C 
HETATM   16  C22 UNL     1      -3.333   0.983   1.047  1.00  0.00     0.067 C 
ENDROOT
BRANCH   5  17
HETATM   17  O1  UNL     1       1.239   0.826  -1.484  1.00  0.00    -0.351 OA
BRANCH  17  18
HETATM   18  C6  UNL     1       2.176  -0.175  -1.586  1.00  0.00     0.285 C 
HETATM   19  O2  UNL     1       2.402  -0.588  -2.893  1.00  0.00    -0.349 OA
HETATM   20  C7  UNL     1       3.632  -1.209  -2.922  1.00  0.00     0.179 C 
HETATM   21  C9  UNL     1       4.426  -0.704  -1.735  1.00  0.00     0.176 C 
HETATM   22  C10 UNL     1       3.532   0.404  -1.240  1.00  0.00     0.163 C 
BRANCH  20  23
HETATM   23  C8  UNL     1       3.520  -2.717  -2.914  1.00  0.00     0.198 C 
BRANCH  23  24
HETATM   24  O3  UNL     1       2.865  -3.190  -1.782  1.00  0.00    -0.398 OA
ATOM     25  H3  UNL     1       2.795  -4.137  -1.777  1.00  0.00     0.209 HD
ENDBRANCH  23  24
ENDBRANCH  20  23
BRANCH  21  26
HETATM   26  O4  UNL     1       5.663  -0.215  -2.164  1.00  0.00    -0.391 OA
ATOM     27  H4  UNL     1       6.161   0.102  -1.420  1.00  0.00     0.210 HD
ENDBRANCH  21  26
BRANCH  22  28
HETATM   28  N1  UNL     1       3.622   0.691   0.131  1.00  0.00    -0.408 N 
ATOM     29  H1  UNL     1       3.759   1.646   0.461  1.00  0.00     0.153 HD
BRANCH  28  30
HETATM   30  C11 UNL     1       3.516  -0.387   1.038  1.00  0.00     0.140 C 
BRANCH  30  31
HETATM   31  C12 UNL     1       3.644   0.215   2.449  1.00  0.00     0.183 C 
BRANCH  31  32
HETATM   32  O5  UNL     1       4.868   0.859   2.605  1.00  0.00    -0.399 OA
ATOM     33  H5  UNL     1       4.947   1.231   3.476  1.00  0.00     0.209 HD
ENDBRANCH  31  32
ENDBRANCH  30  31
ENDBRANCH  28  30
ENDBRANCH  22  28
ENDBRANCH  17  18
ENDBRANCH   5  17
BRANCH   6  34
HETATM   34  O6  UNL     1      -1.345   1.506  -2.075  1.00  0.00    -0.392 OA
ATOM     35  H6  UNL     1      -2.127   1.371  -2.597  1.00  0.00     0.210 HD
ENDBRANCH   6  34
BRANCH  12  36
HETATM   36  C18 UNL     1      -4.414  -0.422   2.819  1.00  0.00     0.269 C 
HETATM   37  O9  UNL     1      -5.172   0.403   3.245  1.00  0.00    -0.304 OA
ENDBRANCH  12  36
TORSDOF 11
