REMARK  9 active torsions:
REMARK  status: ('A' for Active; 'I' for Inactive)
REMARK    1  A    between atoms: C4_7  and  N3_8 
REMARK    2  A    between atoms: N3_8  and  C5_10 
REMARK    3  A    between atoms: C5_10  and  C6_11 
REMARK    4  A    between atoms: C6_11  and  N4_12 
REMARK    5  A    between atoms: N4_12  and  C7_15 
REMARK    6  A    between atoms: C7_15  and  C8_16 
REMARK    7  A    between atoms: C8_16  and  N5_17 
REMARK    8  A    between atoms: C9_21  and  N6_22 
REMARK    9  A    between atoms: C10_27  and  N8_28 
ROOT
HETATM    1  C1  UNL     1      -5.738   1.101   0.409  1.00  0.00     0.158 C 
HETATM    2  N1  UNL     1      -4.291   1.302   0.453  1.00  0.00    -0.331 N 
HETATM    3  C2  UNL     1      -3.638   2.371   0.954  1.00  0.00     0.184 A 
HETATM    4  N2  UNL     1      -2.308   2.207   0.819  1.00  0.00    -0.347 N 
ATOM      5  H2  UNL     1      -1.595   2.872   1.119  1.00  0.00     0.167 HD
HETATM    6  C3  UNL     1      -2.073   1.028   0.227  1.00  0.00     0.109 A 
HETATM    7  C4  UNL     1      -0.833   0.500  -0.087  1.00  0.00     0.107 C 
HETATM    8  C9  UNL     1      -0.641  -0.513  -0.996  1.00  0.00     0.144 C 
HETATM    9  N7  UNL     1      -1.463  -1.571  -1.250  1.00  0.00    -0.175 N 
ATOM     10  H7  UNL     1      -1.028  -2.385  -1.684  1.00  0.00     0.186 HD
HETATM   11  C10 UNL     1      -2.801  -1.668  -0.991  1.00  0.00     0.679 C 
HETATM   12  N9  UNL     1      -3.636  -0.705  -0.567  1.00  0.00    -0.174 N 
ATOM     13  H9  UNL     1      -4.629  -0.896  -0.699  1.00  0.00     0.186 HD
HETATM   14  C11 UNL     1      -3.346   0.474   0.006  1.00  0.00     0.153 A 
ENDROOT
BRANCH   7  15
HETATM   15  N3  UNL     1       0.141   0.982   0.492  1.00  0.00    -0.363 N 
ATOM     16  H3  UNL     1      -0.152   1.721   1.131  1.00  0.00     0.165 HD
BRANCH  15  17
HETATM   17  C5  UNL     1       1.525   0.819   0.535  1.00  0.00     0.088 C 
BRANCH  17  18
HETATM   18  C6  UNL     1       2.035  -0.384   1.255  1.00  0.00     0.276 C 
BRANCH  18  19
HETATM   19  N4  UNL     1       3.478  -0.406   1.177  1.00  0.00    -0.069 N 
ATOM     20  H42 UNL     1       3.872   0.462   1.539  1.00  0.00     0.277 HD
ATOM     21  H41 UNL     1       3.866  -1.064   1.853  1.00  0.00     0.277 HD
BRANCH  19  22
HETATM   22  C7  UNL     1       3.977  -0.679  -0.140  1.00  0.00     0.260 C 
BRANCH  22  23
HETATM   23  C8  UNL     1       5.510  -0.695  -0.110  1.00  0.00     0.257 C 
BRANCH  23  24
HETATM   24  N5  UNL     1       5.975   0.601   0.328  1.00  0.00    -0.078 N 
ATOM     25  H53 UNL     1       5.603   1.362  -0.240  1.00  0.00     0.274 HD
ATOM     26  H52 UNL     1       5.569   0.881   1.221  1.00  0.00     0.274 HD
ATOM     27  H51 UNL     1       6.995   0.590   0.348  1.00  0.00     0.274 HD
ENDBRANCH  23  24
ENDBRANCH  22  23
ENDBRANCH  19  22
ENDBRANCH  18  19
ENDBRANCH  17  18
ENDBRANCH  15  17
ENDBRANCH   7  15
BRANCH   8  28
HETATM   28  N6  UNL     1       0.426  -0.497  -1.715  1.00  0.00    -0.383 N 
ATOM     29  H62 UNL     1       1.041   0.294  -1.525  1.00  0.00     0.157 HD
ATOM     30  H61 UNL     1       0.568  -1.249  -2.390  1.00  0.00     0.157 HD
ENDBRANCH   8  28
BRANCH  11  31
HETATM   31  N8  UNL     1      -3.313  -2.854  -1.187  1.00  0.00    -0.234 N 
ATOM     32  H82 UNL     1      -2.679  -3.585  -1.509  1.00  0.00     0.174 HD
ATOM     33  H81 UNL     1      -4.312  -2.926  -0.994  1.00  0.00     0.174 HD
ENDBRANCH  11  31
TORSDOF 9
