REMARK  10 active torsions:
REMARK  status: ('A' for Active; 'I' for Inactive)
REMARK    1  A    between atoms: C2_4  and  O1_5 
REMARK    2  A    between atoms: O1_5  and  C3_6 
REMARK    3  A    between atoms: C3_6  and  C4_7 
REMARK    4  A    between atoms: C4_7  and  N2_8 
REMARK    5  A    between atoms: N2_8  and  C5_10 
REMARK    6  A    between atoms: C6_13  and  N4_14 
REMARK    7  A    between atoms: C7_19  and  N6_20 
REMARK    8  A    between atoms: N6_20  and  C8_22 
REMARK    9  A    between atoms: C8_22  and  C9_23 
REMARK   10  A    between atoms: C9_23  and  O2_24 
ROOT
HETATM    1  C5  UNL     1      -0.341   0.277   0.159  1.00  0.00     0.707 A 
HETATM    2  N3  UNL     1      -0.574   1.102  -0.875  1.00  0.00    -0.022 N 
ATOM      3  H3  UNL     1       0.196   1.389  -1.478  1.00  0.00     0.203 HD
HETATM    4  C6  UNL     1      -1.810   1.548  -1.117  1.00  0.00     0.705 A 
HETATM    5  N5  UNL     1      -2.804   1.154  -0.310  1.00  0.00    -0.022 N 
ATOM      6  H5  UNL     1      -3.753   1.485  -0.485  1.00  0.00     0.203 HD
HETATM    7  C7  UNL     1      -2.573   0.331   0.724  1.00  0.00     0.707 A 
HETATM    8  N7  UNL     1      -1.338  -0.127   0.982  1.00  0.00    -0.022 N 
ATOM      9  H7  UNL     1      -1.158  -0.754   1.766  1.00  0.00     0.203 HD
ENDROOT
BRANCH   1  10
HETATM   10  N2  UNL     1       0.840  -0.174   0.425  1.00  0.00    -0.223 N 
ATOM     11  H2  UNL     1       0.996  -0.800   1.215  1.00  0.00     0.177 HD
BRANCH  10  12
HETATM   12  C4  UNL     1       1.927   0.229  -0.422  1.00  0.00     0.164 C 
BRANCH  12  13
HETATM   13  C3  UNL     1       3.210  -0.521  -0.051  1.00  0.00     0.196 C 
BRANCH  13  14
HETATM   14  O1  UNL     1       4.205  -0.061  -0.929  1.00  0.00    -0.345 OA
BRANCH  14  15
HETATM   15  C2  UNL     1       5.486  -0.602  -0.791  1.00  0.00     0.221 C 
HETATM   16  N1  UNL     1       5.813  -0.939   0.406  1.00  0.00    -0.385 N 
HETATM   17  C1  UNL     1       7.131  -1.505   0.602  1.00  0.00     0.147 C 
ATOM     18  H1  UNL     1       5.169  -0.813   1.187  1.00  0.00     0.160 HD
ENDBRANCH  14  15
ENDBRANCH  13  14
ENDBRANCH  12  13
ENDBRANCH  10  12
ENDBRANCH   1  10
BRANCH   4  19
HETATM   19  N4  UNL     1      -2.035   2.340  -2.110  1.00  0.00    -0.234 N 
ATOM     20  H42 UNL     1      -1.278   2.640  -2.724  1.00  0.00     0.174 HD
ATOM     21  H41 UNL     1      -2.979   2.680  -2.295  1.00  0.00     0.174 HD
ENDBRANCH   4  19
BRANCH   7  22
HETATM   22  N6  UNL     1      -3.533  -0.041   1.493  1.00  0.00    -0.223 N 
ATOM     23  H6  UNL     1      -3.298  -0.669   2.262  1.00  0.00     0.177 HD
BRANCH  22  24
HETATM   24  C8  UNL     1      -4.902   0.350   1.362  1.00  0.00     0.164 C 
BRANCH  24  25
HETATM   25  C9  UNL     1      -5.699  -0.585   0.459  1.00  0.00     0.184 C 
BRANCH  25  26
HETATM   26  O2  UNL     1      -7.009  -0.077   0.429  1.00  0.00    -0.399 OA
ATOM     27  H2  UNL     1      -7.506  -0.660  -0.134  1.00  0.00     0.209 HD
ENDBRANCH  25  26
ENDBRANCH  24  25
ENDBRANCH  22  24
ENDBRANCH   7  22
TORSDOF 10
