REMARK  10 active torsions:
REMARK  status: ('A' for Active; 'I' for Inactive)
REMARK    1  A    between atoms: O1_2  and  C2_3 
REMARK    2  A    between atoms: C5_6  and  C6_7 
REMARK    3  A    between atoms: C6_7  and  C7_8 
REMARK    4  A    between atoms: C7_8  and  N1_9 
REMARK    5  A    between atoms: N1_9  and  N2_11 
REMARK    6  A    between atoms: C8_13  and  N3_14 
REMARK    7  A    between atoms: N3_14  and  N4_16 
REMARK    8  A    between atoms: N5_19  and  C9_20 
REMARK    9  A    between atoms: C9_20  and  N6_21 
REMARK   10  A    between atoms: C10_25  and  O2_26 
ROOT
HETATM    1  C2  UNL     1       2.791  -0.741  -0.039  1.00  0.00     0.119 A 
HETATM    2  C3  UNL     1       1.996  -1.480  -0.884  1.00  0.00     0.043 A 
HETATM    3  C4  UNL     1       0.850  -0.898  -1.404  1.00  0.00     0.028 A 
HETATM    4  C5  UNL     1       0.473   0.393  -1.109  1.00  0.00     0.017 A 
HETATM    5  N5  UNL     1       1.267   1.096  -0.279  1.00  0.00    -0.305 N 
HETATM    6  C10 UNL     1       2.403   0.538   0.244  1.00  0.00     0.178 A 
ENDROOT
BRANCH   4   7
HETATM    7  C6  UNL     1      -0.739   0.975  -1.675  1.00  0.00     0.078 C 
BRANCH   7   8
HETATM    8  C7  UNL     1      -1.995   0.791  -0.903  1.00  0.00     0.145 C 
BRANCH   8   9
HETATM    9  N1  UNL     1      -2.411  -0.547  -0.675  1.00  0.00    -0.335 N 
ATOM     10  H1  UNL     1      -1.865  -1.332  -1.030  1.00  0.00     0.180 HD
BRANCH   9  11
HETATM   11  N2  UNL     1      -3.580  -0.761   0.044  1.00  0.00    -0.299 N 
HETATM   12  C8  UNL     1      -3.758  -0.482   1.267  1.00  0.00     0.212 C 
ATOM     13  H2  UNL     1      -4.364  -1.180  -0.457  1.00  0.00     0.187 HD
BRANCH  12  14
HETATM   14  N3  UNL     1      -5.019  -0.764   1.862  1.00  0.00    -0.301 N 
ATOM     15  H3  UNL     1      -5.810  -0.128   1.760  1.00  0.00     0.187 HD
BRANCH  14  16
HETATM   16  N4  UNL     1      -5.126  -1.954   2.594  1.00  0.00    -0.344 N 
ATOM     17  H42 UNL     1      -4.326  -2.580   2.687  1.00  0.00     0.176 HD
ATOM     18  H41 UNL     1      -6.030  -2.156   3.021  1.00  0.00     0.176 HD
ENDBRANCH  14  16
ENDBRANCH  12  14
ENDBRANCH   9  11
ENDBRANCH   8   9
ENDBRANCH   7   8
ENDBRANCH   4   7
BRANCH   5  19
HETATM   19  C9  UNL     1       0.981   2.455   0.093  1.00  0.00     0.360 C 
BRANCH  19  20
HETATM   20  N6  UNL     1       1.602   3.405  -0.839  1.00  0.00    -0.063 N 
ATOM     21  H63 UNL     1       2.605   3.244  -0.925  1.00  0.00     0.276 HD
ATOM     22  H62 UNL     1       1.330   3.216  -1.804  1.00  0.00     0.276 HD
ATOM     23  H61 UNL     1       1.399   4.369  -0.575  1.00  0.00     0.276 HD
ENDBRANCH  19  20
ENDBRANCH   5  19
BRANCH   6  24
HETATM   24  O2  UNL     1       3.210   1.280   1.099  1.00  0.00    -0.344 OA
ATOM     25  H2  UNL     1       2.940   2.169   1.296  1.00  0.00     0.219 HD
ENDBRANCH   6  24
BRANCH   1  26
HETATM   26  O1  UNL     1       3.941  -1.292   0.497  1.00  0.00    -0.352 OA
HETATM   27  C1  UNL     1       4.312  -2.626   0.180  1.00  0.00     0.210 C 
ENDBRANCH   1  26
TORSDOF 10
