REMARK  10 active torsions:
REMARK  status: ('A' for Active; 'I' for Inactive)
REMARK    1  A    between atoms: N1_1  and  C1_5 
REMARK    2  A    between atoms: C1_5  and  C2_6 
REMARK    3  A    between atoms: C2_6  and  C3_7 
REMARK    4  A    between atoms: C2_6  and  C4_12 
REMARK    5  A    between atoms: C2_6  and  N3_16 
REMARK    6  A    between atoms: C3_7  and  N2_8 
REMARK    7  A    between atoms: C4_12  and  C5_13 
REMARK    8  A    between atoms: C5_13  and  O1_14 
REMARK    9  A    between atoms: N3_16  and  C6_18 
REMARK   10  A    between atoms: C6_18  and  C7_19 
ROOT
HETATM    1  C2  UNL     1      -2.255   0.136  -0.135  1.00  0.00     0.075 C 
ENDROOT
BRANCH   1   2
HETATM    2  C1  UNL     1      -2.317  -0.620  -1.413  1.00  0.00     0.261 C 
BRANCH   2   3
HETATM    3  N1  UNL     1      -3.617  -1.046  -1.839  1.00  0.00    -0.077 N 
ATOM      4  H13 UNL     1      -4.061  -1.587  -1.097  1.00  0.00     0.274 HD
ATOM      5  H12 UNL     1      -4.244  -0.243  -1.884  1.00  0.00     0.274 HD
ATOM      6  H11 UNL     1      -3.660  -1.565  -2.716  1.00  0.00     0.274 HD
ENDBRANCH   2   3
ENDBRANCH   1   2
BRANCH   1   7
HETATM    7  C3  UNL     1      -2.807  -0.718   0.990  1.00  0.00     0.261 C 
BRANCH   7   8
HETATM    8  N2  UNL     1      -2.789  -0.084   2.266  1.00  0.00    -0.077 N 
ATOM      9  H23 UNL     1      -1.848   0.239   2.491  1.00  0.00     0.274 HD
ATOM     10  H22 UNL     1      -3.275   0.812   2.226  1.00  0.00     0.274 HD
ATOM     11  H21 UNL     1      -3.160  -0.658   3.023  1.00  0.00     0.274 HD
ENDBRANCH   7   8
ENDBRANCH   1   7
BRANCH   1  12
HETATM   12  C4  UNL     1      -2.894   1.484  -0.184  1.00  0.00     0.060 C 
BRANCH  12  13
HETATM   13  C5  UNL     1      -4.333   1.553  -0.514  1.00  0.00     0.166 C 
BRANCH  13  14
HETATM   14  O1  UNL     1      -4.672   2.935  -0.474  1.00  0.00    -0.401 OA
ATOM     15  H1  UNL     1      -5.597   2.979  -0.686  1.00  0.00     0.209 HD
ENDBRANCH  13  14
ENDBRANCH  12  13
ENDBRANCH   1  12
BRANCH   1  16
HETATM   16  N3  UNL     1      -0.865   0.401   0.170  1.00  0.00    -0.408 N 
ATOM     17  H3  UNL     1      -0.509   1.355   0.225  1.00  0.00     0.154 HD
BRANCH  16  18
HETATM   18  C6  UNL     1      -0.024  -0.704   0.388  1.00  0.00     0.139 C 
BRANCH  18  19
HETATM   19  C7  UNL     1       1.371  -0.122   0.690  1.00  0.00     0.094 C 
HETATM   20  C8  UNL     1       2.286  -1.267   0.923  1.00  0.00     0.028 C 
HETATM   21  C9  UNL     1       3.669  -0.812   1.338  1.00  0.00     0.029 C 
HETATM   22  C10 UNL     1       4.670  -1.085   0.265  1.00  0.00     0.232 C 
HETATM   23  N4  UNL     1       5.124   0.084  -0.432  1.00  0.00    -0.074 N 
HETATM   24  C11 UNL     1       4.115   1.090  -0.614  1.00  0.00     0.251 C 
ATOM     25  H42 UNL     1       5.943   0.479   0.030  1.00  0.00     0.277 HD
ATOM     26  H41 UNL     1       5.538  -0.173  -1.328  1.00  0.00     0.277 HD
HETATM   27  C12 UNL     1       2.812   0.501  -1.154  1.00  0.00     0.141 C 
HETATM   28  N5  UNL     1       1.773   0.855  -0.248  1.00  0.00    -0.414 N 
ATOM     29  H5  UNL     1       1.336   1.776  -0.275  1.00  0.00     0.153 HD
ENDBRANCH  18  19
ENDBRANCH  16  18
ENDBRANCH   1  16
TORSDOF 10
