REMARK  13 active torsions:
REMARK  status: ('A' for Active; 'I' for Inactive)
REMARK       I    between atoms: C1_4  and  N2_5 
REMARK       I    between atoms: C1_4  and  N9_33 
REMARK    1  A    between atoms: C3_9  and  C4_10 
REMARK    2  A    between atoms: C4_10  and  O2_11 
REMARK    3  A    between atoms: C4_10  and  C5_13 
REMARK    4  A    between atoms: C5_13  and  N3_14 
REMARK    5  A    between atoms: C6_16  and  N4_17 
REMARK    6  A    between atoms: C7_22  and  O3_23 
REMARK    7  A    between atoms: N7_27  and  C8_28 
REMARK    8  A    between atoms: C8_28  and  O4_29 
REMARK    9  A    between atoms: O4_29  and  C9_30 
REMARK   10  A    between atoms: N9_33  and  C10_35 
REMARK   11  A    between atoms: C10_35  and  S2_39 
REMARK   12  A    between atoms: S2_39  and  N11_40 
REMARK   13  A    between atoms: N11_40  and  N12_41 
ROOT
HETATM    1  N1  UNL     1       2.597   0.530   1.169  1.00  0.00    -0.234 N 
ATOM      2  H11 UNL     1       3.240   1.244   1.511  1.00  0.00     0.174 HD
ATOM      3  H12 UNL     1       2.003  -0.037   1.774  1.00  0.00     0.174 HD
HETATM    4  C1  UNL     1       2.534   0.338  -0.099  1.00  0.00     0.681 C 
HETATM    5  N2  UNL     1       1.638  -0.656  -0.575  1.00  0.00    -0.153 N 
ATOM      6  H2  UNL     1       1.949  -1.336  -1.269  1.00  0.00     0.188 HD
HETATM    7  C2  UNL     1       0.404  -0.696  -0.116  1.00  0.00     0.268 A 
HETATM    8  O1  UNL     1      -0.086   0.143   0.784  1.00  0.00    -0.260 OA
HETATM    9  C3  UNL     1      -1.353  -0.136   1.048  1.00  0.00     0.173 A 
HETATM   10  N6  UNL     1      -1.630  -1.187   0.273  1.00  0.00    -0.270 N 
ATOM     11  H6  UNL     1      -2.536  -1.654   0.236  1.00  0.00     0.189 HD
HETATM   12  N7  UNL     1      -0.557  -1.549  -0.453  1.00  0.00    -0.205 N 
HETATM   13  N9  UNL     1       3.359   1.126  -0.940  1.00  0.00    -0.170 N 
ATOM     14  H9  UNL     1       3.781   0.737  -1.783  1.00  0.00     0.186 HD
ENDROOT
BRANCH  12  15
HETATM   15  C8  UNL     1      -0.546  -2.656  -1.341  1.00  0.00     0.267 C 
BRANCH  15  16
HETATM   16  O4  UNL     1      -0.376  -3.919  -0.852  1.00  0.00    -0.257 OA
BRANCH  16  17
HETATM   17  C9  UNL     1       0.595  -4.543  -0.166  1.00  0.00     0.378 C 
HETATM   18  N8  UNL     1       0.467  -5.934   0.219  1.00  0.00    -0.032 NA
HETATM   19  O5  UNL     1       1.636  -3.941   0.161  1.00  0.00    -0.242 OA
ENDBRANCH  16  17
ENDBRANCH  15  16
ENDBRANCH  12  15
BRANCH   9  20
HETATM   20  C4  UNL     1      -2.198   0.611   2.013  1.00  0.00     0.213 C 
BRANCH  20  21
HETATM   21  O2  UNL     1      -1.867   1.975   1.883  1.00  0.00    -0.386 OA
ATOM     22  H2  UNL     1      -2.408   2.453   2.501  1.00  0.00     0.210 HD
ENDBRANCH  20  21
BRANCH  20  23
HETATM   23  C5  UNL     1      -3.647   0.378   1.810  1.00  0.00     0.181 C 
BRANCH  23  24
HETATM   24  N3  UNL     1      -4.165   0.790   0.508  1.00  0.00    -0.277 N 
HETATM   25  S1  UNL     1      -4.363  -0.103  -0.896  1.00  0.00     0.028 SA
HETATM   26  C6  UNL     1      -5.037   1.106  -1.882  1.00  0.00     0.162 A 
HETATM   27  N5  UNL     1      -5.076   2.159  -1.062  1.00  0.00    -0.301 N 
HETATM   28  C7  UNL     1      -4.630   1.999   0.163  1.00  0.00     0.232 A 
ATOM     29  H5  UNL     1      -5.440   3.058  -1.377  1.00  0.00     0.171 HD
BRANCH  26  30
HETATM   30  N4  UNL     1      -5.433   1.061  -3.138  1.00  0.00    -0.378 N 
ATOM     31  H42 UNL     1      -5.403   0.257  -3.764  1.00  0.00     0.158 HD
ATOM     32  H41 UNL     1      -5.838   1.787  -3.730  1.00  0.00     0.158 HD
ENDBRANCH  26  30
BRANCH  28  33
HETATM   33  O3  UNL     1      -4.625   2.962   1.037  1.00  0.00    -0.332 OA
ATOM     34  H3  UNL     1      -4.955   3.819   0.793  1.00  0.00     0.221 HD
ENDBRANCH  28  33
ENDBRANCH  23  24
ENDBRANCH  20  23
ENDBRANCH   9  20
BRANCH  13  35
HETATM   35  C10 UNL     1       3.576   2.476  -0.564  1.00  0.00     0.171 C 
HETATM   36  N10 UNL     1       2.577   3.233  -0.275  1.00  0.00    -0.378 N 
ATOM     37 2H10 UNL     1       1.618   2.887  -0.308  1.00  0.00     0.158 HD
ATOM     38 1H10 UNL     1       2.733   4.204  -0.005  1.00  0.00     0.158 HD
BRANCH  35  39
HETATM   39  S2  UNL     1       5.251   3.081  -0.506  1.00  0.00     0.036 SA
BRANCH  39  40
HETATM   40  N11 UNL     1       6.379   1.830  -0.947  1.00  0.00    -0.065 NA
BRANCH  40  41
HETATM   41  N12 UNL     1       6.621   0.905   0.047  1.00  0.00    -0.337 N 
ATOM     42 2H12 UNL     1       6.169   0.963   0.959  1.00  0.00     0.173 HD
ATOM     43 1H12 UNL     1       7.282   0.172  -0.211  1.00  0.00     0.173 HD
ENDBRANCH  40  41
ENDBRANCH  39  40
ENDBRANCH  35  39
ENDBRANCH  13  35
TORSDOF 13
