REMARK  11 active torsions:
REMARK  status: ('A' for Active; 'I' for Inactive)
REMARK    1  A    between atoms: N1_2  and  N2_3 
REMARK    2  A    between atoms: N1_2  and  C9_32 
REMARK       I    between atoms: N2_3  and  C2_4 
REMARK    3  A    between atoms: C2_4  and  C3_6 
REMARK    4  A    between atoms: C4_11  and  C5_12 
REMARK    5  A    between atoms: C5_12  and  C6_13 
REMARK    6  A    between atoms: C7_16  and  N6_17 
REMARK    7  A    between atoms: C8_22  and  N8_23 
REMARK    8  A    between atoms: N10_28  and  N11_29 
REMARK    9  A    between atoms: C10_35  and  C11_36 
REMARK   10  A    between atoms: C12_42  and  N15_43 
REMARK   11  A    between atoms: C13_48  and  N17_49 
ROOT
HETATM    1  N2  UNL     1       0.689   0.969  -0.865  1.00  0.00    -0.261 NA
HETATM    2  C2  UNL     1      -0.653   0.420  -0.971  1.00  0.00     0.383 C 
HETATM    3  O1  UNL     1      -1.263   0.274  -1.970  1.00  0.00    -0.246 OA
ENDROOT
BRANCH   2   4
HETATM    4  C3  UNL     1      -1.230   0.034   0.338  1.00  0.00     0.229 A 
HETATM    5  N3  UNL     1      -0.760   0.226   1.561  1.00  0.00    -0.277 N 
HETATM    6  N4  UNL     1      -1.665  -0.231   2.427  1.00  0.00    -0.285 N 
ATOM      7  H3  UNL     1       0.137   0.649   1.799  1.00  0.00     0.189 HD
HETATM    8  C4  UNL     1      -2.746  -0.728   1.754  1.00  0.00     0.126 A 
ATOM      9  H4  UNL     1      -1.565  -0.212   3.442  1.00  0.00     0.188 HD
HETATM   10  N10 UNL     1      -2.462  -0.561   0.476  1.00  0.00    -0.225 N 
BRANCH   8  11
HETATM   11  C5  UNL     1      -3.949  -1.274   2.403  1.00  0.00     0.157 C 
BRANCH  11  12
HETATM   12  C6  UNL     1      -5.200  -0.887   1.696  1.00  0.00     0.120 A 
HETATM   13  N5  UNL     1      -5.761  -1.720   0.827  1.00  0.00    -0.179 N 
HETATM   14  C7  UNL     1      -6.895  -1.418   0.153  1.00  0.00     0.691 A 
ATOM     15  H5  UNL     1      -5.319  -2.624   0.661  1.00  0.00     0.185 HD
HETATM   16  N7  UNL     1      -7.445  -0.198   0.410  1.00  0.00    -0.023 N 
HETATM   17  C8  UNL     1      -6.902   0.662   1.279  1.00  0.00     0.691 A 
ATOM     18  H7  UNL     1      -8.301   0.069  -0.077  1.00  0.00     0.203 HD
HETATM   19  N9  UNL     1      -5.795   0.313   1.908  1.00  0.00    -0.179 N 
ATOM     20  H9  UNL     1      -5.376   0.964   2.572  1.00  0.00     0.185 HD
BRANCH  14  21
HETATM   21  N6  UNL     1      -7.438  -2.191  -0.688  1.00  0.00    -0.234 N 
ATOM     22  H62 UNL     1      -7.026  -3.104  -0.880  1.00  0.00     0.174 HD
ATOM     23  H61 UNL     1      -8.293  -1.963  -1.196  1.00  0.00     0.174 HD
ENDBRANCH  14  21
BRANCH  17  24
HETATM   24  N8  UNL     1      -7.490   1.829   1.475  1.00  0.00    -0.234 N 
ATOM     25  H82 UNL     1      -8.345   2.099   0.989  1.00  0.00     0.174 HD
ATOM     26  H81 UNL     1      -7.076   2.485   2.138  1.00  0.00     0.174 HD
ENDBRANCH  17  24
ENDBRANCH  11  12
ENDBRANCH   8  11
BRANCH  10  27
HETATM   27  N11 UNL     1      -3.248  -0.922  -0.623  1.00  0.00    -0.335 N 
ATOM     28 2H11 UNL     1      -3.029  -0.793  -1.611  1.00  0.00     0.177 HD
ATOM     29 1H11 UNL     1      -4.162  -1.363  -0.521  1.00  0.00     0.177 HD
ENDBRANCH  10  27
ENDBRANCH   2   4
BRANCH   1  30
HETATM   30  N1  UNL     1       1.844   1.444  -0.786  1.00  0.00    -0.057 N 
HETATM   31  C1  UNL     1       2.164   2.886  -0.807  1.00  0.00     0.213 C 
BRANCH  30  32
HETATM   32  C9  UNL     1       3.001   0.557  -0.711  1.00  0.00     0.725 A 
HETATM   33  N12 UNL     1       4.205   1.028  -0.962  1.00  0.00    -0.171 N 
HETATM   34  C10 UNL     1       5.297   0.193  -0.914  1.00  0.00     0.169 A 
ATOM     35  H12 UNL     1       4.328   2.014  -1.192  1.00  0.00     0.186 HD
HETATM   36  N16 UNL     1       5.058  -1.063  -0.608  1.00  0.00    -0.173 N 
HETATM   37  C13 UNL     1       3.819  -1.584  -0.341  1.00  0.00     0.692 A 
ATOM     38  H16 UNL     1       5.855  -1.698  -0.566  1.00  0.00     0.186 HD
HETATM   39  N18 UNL     1       2.785  -0.760  -0.393  1.00  0.00    -0.020 N 
ATOM     40  H18 UNL     1       1.842  -1.099  -0.200  1.00  0.00     0.203 HD
BRANCH  34  41
HETATM   41  C11 UNL     1       6.596   0.760  -1.270  1.00  0.00     0.146 A 
HETATM   42  N13 UNL     1       6.808   2.062  -1.555  1.00  0.00    -0.234 N 
HETATM   43  O2  UNL     1       8.002   2.305  -1.902  1.00  0.00    -0.155 OA
ATOM     44  H13 UNL     1       6.082   2.776  -1.497  1.00  0.00     0.197 HD
HETATM   45  N14 UNL     1       8.644   1.196  -1.866  1.00  0.00    -0.224 N 
HETATM   46  C12 UNL     1       7.817   0.163  -1.477  1.00  0.00     0.154 A 
ATOM     47  H14 UNL     1       9.633   1.092  -2.094  1.00  0.00     0.198 HD
BRANCH  46  48
HETATM   48  N15 UNL     1       8.175  -1.043  -1.429  1.00  0.00    -0.382 N 
ATOM     49 2H15 UNL     1       7.563  -1.807  -1.141  1.00  0.00     0.157 HD
ATOM     50 1H15 UNL     1       9.081  -1.486  -1.583  1.00  0.00     0.157 HD
ENDBRANCH  46  48
ENDBRANCH  34  41
BRANCH  37  51
HETATM   51  N17 UNL     1       3.707  -2.843  -0.048  1.00  0.00    -0.234 N 
ATOM     52 2H17 UNL     1       4.504  -3.478  -0.008  1.00  0.00     0.174 HD
ATOM     53 1H17 UNL     1       2.785  -3.231   0.151  1.00  0.00     0.174 HD
ENDBRANCH  37  51
ENDBRANCH  30  32
ENDBRANCH   1  30
TORSDOF 11
