REMARK  11 active torsions:
REMARK  status: ('A' for Active; 'I' for Inactive)
REMARK       I    between atoms: N1_1  and  C1_4 
REMARK       I    between atoms: C1_4  and  N2_5 
REMARK    1  A    between atoms: N2_5  and  N3_7 
REMARK       I    between atoms: N4_10  and  C2_12 
REMARK    2  A    between atoms: C2_12  and  C3_14 
REMARK    3  A    between atoms: C3_14  and  C4_15 
REMARK    4  A    between atoms: C3_14  and  N5_18 
REMARK    5  A    between atoms: C4_15  and  O2_16 
REMARK    6  A    between atoms: N5_18  and  C5_20 
REMARK    7  A    between atoms: C8_25  and  C9_26 
REMARK    8  A    between atoms: C9_26  and  N7_27 
REMARK    9  A    between atoms: C11_29  and  C12_30 
REMARK   10  A    between atoms: C12_30  and  O4_31 
REMARK   11  A    between atoms: C12_30  and  O5_33 
ROOT
HETATM    1  C5  UNL     1      -0.999   0.211  -1.878  1.00  0.00     0.108 A 
HETATM    2  C6  UNL     1      -0.748   0.026  -0.552  1.00  0.00     0.123 A 
HETATM    3  C7  UNL     1       0.500  -0.356  -0.032  1.00  0.00     0.257 A 
HETATM    4  O3  UNL     1       0.571  -0.487   1.213  1.00  0.00    -0.268 OA
HETATM    5  N6  UNL     1       1.560  -0.564  -0.881  1.00  0.00    -0.260 N 
HETATM    6  C8  UNL     1       2.769  -0.929  -0.517  1.00  0.00     0.048 A 
HETATM    7  C13 UNL     1       3.687  -1.082  -1.568  1.00  0.00     0.080 A 
HETATM    8  S1  UNL     1       2.783  -0.708  -2.944  1.00  0.00    -0.063 SA
HETATM    9  C14 UNL     1       1.285  -0.373  -2.153  1.00  0.00     0.159 A 
HETATM   10  N10 UNL     1       0.071  -0.002  -2.667  1.00  0.00    -0.322 N 
ATOM     11  H10 UNL     1      -0.025   0.116  -3.676  1.00  0.00     0.169 HD
ENDROOT
BRANCH   1  12
HETATM   12  N5  UNL     1      -2.256   0.576  -2.454  1.00  0.00    -0.361 N 
ATOM     13  H5  UNL     1      -2.296   0.664  -3.469  1.00  0.00     0.162 HD
BRANCH  12  14
HETATM   14  C3  UNL     1      -3.464   0.829  -1.726  1.00  0.00     0.199 C 
BRANCH  14  15
HETATM   15  C2  UNL     1      -3.803  -0.383  -0.946  1.00  0.00     0.260 C 
HETATM   16  N4  UNL     1      -4.678  -0.315   0.243  1.00  0.00    -0.157 N 
HETATM   17  C1  UNL     1      -4.961  -1.419   0.932  1.00  0.00     0.692 C 
ATOM     18  H4  UNL     1      -5.067   0.581   0.537  1.00  0.00     0.187 HD
HETATM   19  N1  UNL     1      -5.221  -2.432   1.564  1.00  0.00    -0.233 N 
HETATM   20  N2  UNL     1      -5.884  -0.506   2.144  1.00  0.00    -0.139 N 
ATOM     21  H12 UNL     1      -5.438  -3.278   2.092  1.00  0.00     0.174 HD
ATOM     22  H11 UNL     1      -4.691  -2.956   0.868  1.00  0.00     0.174 HD
ATOM     23  H2  UNL     1      -5.541  -0.083   3.006  1.00  0.00     0.205 HD
HETATM   24  O1  UNL     1      -3.349  -1.488  -1.282  1.00  0.00    -0.270 OA
BRANCH  20  25
HETATM   25  N3  UNL     1      -7.099  -0.502   1.677  1.00  0.00    -0.331 N 
ATOM     26  H32 UNL     1      -7.430  -0.929   0.812  1.00  0.00     0.177 HD
ATOM     27  H31 UNL     1      -7.629   0.022   2.373  1.00  0.00     0.177 HD
ENDBRANCH  20  25
ENDBRANCH  14  15
BRANCH  14  28
HETATM   28  C4  UNL     1      -4.602   0.981  -2.775  1.00  0.00     0.199 C 
BRANCH  28  29
HETATM   29  O2  UNL     1      -4.355   2.028  -3.639  1.00  0.00    -0.398 OA
ATOM     30  H2  UNL     1      -5.050   2.121  -4.280  1.00  0.00     0.209 HD
ENDBRANCH  28  29
ENDBRANCH  14  28
ENDBRANCH  12  14
ENDBRANCH   1  12
BRANCH   6  31
HETATM   31  C9  UNL     1       3.312  -1.243   0.864  1.00  0.00     0.208 C 
BRANCH  31  32
HETATM   32  N7  UNL     1       4.021  -0.179   1.481  1.00  0.00    -0.281 N 
HETATM   33  C10 UNL     1       5.347   0.025   1.308  1.00  0.00     0.143 A 
HETATM   34  C11 UNL     1       5.773   1.100   2.059  1.00  0.00     0.098 A 
HETATM   35  N8  UNL     1       4.646   1.528   2.690  1.00  0.00    -0.284 N 
HETATM   36  N9  UNL     1       3.626   0.747   2.323  1.00  0.00    -0.240 N 
ATOM     37  H8  UNL     1       4.589   2.315   3.336  1.00  0.00     0.188 HD
ATOM     38  H9  UNL     1       2.667   0.856   2.653  1.00  0.00     0.208 HD
BRANCH  34  39
HETATM   39  C12 UNL     1       7.156   1.634   2.122  1.00  0.00     0.308 C 
BRANCH  39  40
HETATM   40  O4  UNL     1       7.606   1.732   3.442  1.00  0.00    -0.366 OA
ATOM     41  H4  UNL     1       8.491   2.074   3.482  1.00  0.00     0.213 HD
ENDBRANCH  39  40
BRANCH  39  42
HETATM   42  O5  UNL     1       7.984   0.791   1.358  1.00  0.00    -0.366 OA
ATOM     43  H5  UNL     1       8.869   1.133   1.398  1.00  0.00     0.213 HD
ENDBRANCH  39  42
ENDBRANCH  34  39
ENDBRANCH  31  32
ENDBRANCH   6  31
TORSDOF 11
