REMARK  12 active torsions:
REMARK  status: ('A' for Active; 'I' for Inactive)
REMARK    1  A    between atoms: C7_8  and  N1_9 
REMARK       I    between atoms: N1_9  and  C8_11 
REMARK    2  A    between atoms: N3_13  and  C9_15 
REMARK    3  A    between atoms: C9_15  and  C10_16 
REMARK    4  A    between atoms: C10_16  and  C11_17 
REMARK       I    between atoms: C11_17  and  N4_19 
REMARK    5  A    between atoms: N4_19  and  C12_20 
REMARK    6  A    between atoms: N4_19  and  C27_40 
REMARK    7  A    between atoms: C12_20  and  C13_21 
REMARK    8  A    between atoms: C13_21  and  C14_22 
REMARK    9  A    between atoms: C14_22  and  N5_23 
REMARK       I    between atoms: N5_23  and  C15_25 
REMARK   10  A    between atoms: C15_25  and  C16_27 
REMARK   11  A    between atoms: C16_27  and  C19_30 
REMARK   12  A    between atoms: C26_37  and  O3_38 
ROOT
HETATM    1  C11 UNL     1       2.209  -1.078   0.415  1.00  0.00     0.222 C 
HETATM    2  O1  UNL     1       3.018  -0.976   1.381  1.00  0.00    -0.273 OA
HETATM    3  N4  UNL     1       1.004  -0.265   0.488  1.00  0.00    -0.344 N 
ENDROOT
BRANCH   3   4
HETATM    4  C12 UNL     1       0.096  -0.426  -0.590  1.00  0.00     0.128 C 
BRANCH   4   5
HETATM    5  C13 UNL     1      -0.886  -1.508  -0.480  1.00  0.00     0.039 C 
BRANCH   5   6
HETATM    6  C14 UNL     1      -1.926  -1.417   0.563  1.00  0.00     0.124 C 
BRANCH   6   7
HETATM    7  N5  UNL     1      -2.843  -0.296   0.312  1.00  0.00    -0.360 N 
HETATM    8  C15 UNL     1      -3.911  -0.039   1.200  1.00  0.00     0.226 C 
HETATM    9  O2  UNL     1      -4.061  -0.777   2.197  1.00  0.00    -0.273 OA
ATOM     10  H5  UNL     1      -2.708   0.298  -0.506  1.00  0.00     0.162 HD
BRANCH   8  11
HETATM   11  C16 UNL     1      -4.878   1.073   1.013  1.00  0.00     0.038 C 
HETATM   12  C17 UNL     1      -5.875   1.130   2.104  1.00  0.00     0.025 C 
HETATM   13  C18 UNL     1      -4.054   2.368   1.057  1.00  0.00     0.025 C 
BRANCH  11  14
HETATM   14  C19 UNL     1      -5.419   0.985  -0.385  1.00  0.00     0.009 C 
HETATM   15  C20 UNL     1      -6.414   2.034  -0.751  1.00  0.00     0.007 C 
HETATM   16  C21 UNL     1      -7.756   1.510  -1.154  1.00  0.00     0.007 C 
HETATM   17  C22 UNL     1      -7.703   0.319  -2.072  1.00  0.00     0.015 C 
HETATM   18  C23 UNL     1      -8.199  -0.876  -1.278  1.00  0.00     0.007 C 
HETATM   19  C26 UNL     1      -6.259  -0.152  -2.298  1.00  0.00     0.126 C 
HETATM   20  C24 UNL     1      -7.093  -0.917  -0.214  1.00  0.00     0.008 C 
HETATM   21  C25 UNL     1      -5.859  -0.373  -0.826  1.00  0.00     0.020 C 
BRANCH  19  22
HETATM   22  O3  UNL     1      -6.331  -1.370  -2.955  1.00  0.00    -0.395 OA
ATOM     23  H3  UNL     1      -5.438  -1.661  -3.095  1.00  0.00     0.210 HD
ENDBRANCH  19  22
ENDBRANCH  11  14
ENDBRANCH   8  11
ENDBRANCH   6   7
ENDBRANCH   5   6
ENDBRANCH   4   5
ENDBRANCH   3   4
BRANCH   3  24
HETATM   24  C27 UNL     1       0.971   0.624   1.614  1.00  0.00     0.024 C 
HETATM   25  C28 UNL     1       2.230   1.495   1.507  1.00  0.00     0.037 C 
HETATM   26  C29 UNL     1       1.023  -0.170   2.924  1.00  0.00     0.037 C 
HETATM   27  C30 UNL     1      -0.175   1.559   1.684  1.00  0.00     0.037 C 
ENDBRANCH   3  24
BRANCH   1  28
HETATM   28  C10 UNL     1       2.527  -1.978  -0.682  1.00  0.00     0.122 C 
BRANCH  28  29
HETATM   29  C9  UNL     1       3.942  -2.572  -0.513  1.00  0.00     0.131 C 
BRANCH  29  30
HETATM   30  N3  UNL     1       4.868  -1.462  -0.510  1.00  0.00    -0.364 N 
HETATM   31  C8  UNL     1       5.906  -1.393   0.218  1.00  0.00     0.188 C 
HETATM   32  N1  UNL     1       6.750  -0.265   0.148  1.00  0.00    -0.330 N 
HETATM   33  N2  UNL     1       6.227  -2.443   1.108  1.00  0.00    -0.064 NA
ATOM     34  H1  UNL     1       6.363   0.642   0.409  1.00  0.00     0.168 HD
ATOM     35  H3  UNL     1       4.674  -0.680  -1.136  1.00  0.00     0.162 HD
BRANCH  32  36
HETATM   36  C7  UNL     1       8.099  -0.319  -0.263  1.00  0.00     0.041 A 
HETATM   37  C2  UNL     1       8.848   0.826  -0.295  1.00  0.00    -0.018 A 
HETATM   38  C1  UNL     1       8.299   2.162   0.087  1.00  0.00     0.052 C 
HETATM   39  C3  UNL     1      10.161   0.761  -0.696  1.00  0.00     0.019 A 
HETATM   40 BR1  UNL     1      11.206   2.353  -0.743  1.00  0.00    -0.051 Br
HETATM   41  C4  UNL     1      10.735  -0.432  -1.064  1.00  0.00     0.020 A 
HETATM   42  C5  UNL     1       9.986  -1.574  -1.030  1.00  0.00     0.004 A 
HETATM   43  C6  UNL     1       8.666  -1.519  -0.629  1.00  0.00     0.030 A 
ENDBRANCH  32  36
ENDBRANCH  29  30
ENDBRANCH  28  29
ENDBRANCH   1  28
TORSDOF 12
