REMARK  14 active torsions:
REMARK  status: ('A' for Active; 'I' for Inactive)
REMARK    1  A    between atoms: C2_2  and  C3_3 
REMARK    2  A    between atoms: C4_4  and  C5_5 
REMARK    3  A    between atoms: C5_5  and  N1_6 
REMARK       I    between atoms: N1_6  and  C6_8 
REMARK    4  A    between atoms: C6_8  and  C7_10 
REMARK    5  A    between atoms: C7_10  and  N2_11 
REMARK    6  A    between atoms: C7_10  and  C13_21 
REMARK    7  A    between atoms: N2_11  and  C8_13 
REMARK    8  A    between atoms: C13_21  and  N4_22 
REMARK    9  A    between atoms: C13_21  and  C32_46 
REMARK       I    between atoms: N4_22  and  C14_24 
REMARK   10  A    between atoms: C14_24  and  C15_26 
REMARK   11  A    between atoms: N5_30  and  C19_31 
REMARK   12  A    between atoms: C19_31  and  O3_32 
REMARK   13  A    between atoms: C19_31  and  C20_34 
REMARK   14  A    between atoms: C26_40  and  C27_41 
ROOT
HETATM    1  C13 UNL     1       1.287   0.287   0.841  1.00  0.00     0.119 C 
ENDROOT
BRANCH   1   2
HETATM    2  C7  UNL     1       2.694   0.283   0.327  1.00  0.00     0.198 C 
BRANCH   2   3
HETATM    3  C6  UNL     1       3.730   0.665   1.274  1.00  0.00     0.243 C 
HETATM    4  N1  UNL     1       3.775   1.932   1.911  1.00  0.00    -0.349 N 
ATOM      5  H1  UNL     1       3.037   2.599   1.686  1.00  0.00     0.163 HD
HETATM    6  O1  UNL     1       4.643  -0.143   1.562  1.00  0.00    -0.271 OA
BRANCH   4   7
HETATM    7  C5  UNL     1       4.775   2.343   2.843  1.00  0.00     0.217 C 
BRANCH   7   8
HETATM    8  C4  UNL     1       6.124   2.329   2.281  1.00  0.00    -0.087 C 
HETATM    9  C3  UNL     1       7.238   2.303   1.805  1.00  0.00    -0.105 C 
BRANCH   9  10
HETATM   10  C2  UNL     1       8.589   2.259   1.211  1.00  0.00     0.089 C 
HETATM   11  C1  UNL     1       9.409   1.242   1.975  1.00  0.00     0.018 C 
ENDBRANCH   9  10
ENDBRANCH   7   8
ENDBRANCH   4   7
ENDBRANCH   2   3
BRANCH   2  12
HETATM   12  N2  UNL     1       2.926  -1.042  -0.215  1.00  0.00    -0.361 N 
ATOM     13  H2  UNL     1       2.332  -1.803   0.114  1.00  0.00     0.162 HD
BRANCH  12  14
HETATM   14  C8  UNL     1       3.841  -1.320  -1.092  1.00  0.00     0.101 A 
HETATM   15  C9  UNL     1       4.670  -0.335  -1.570  1.00  0.00     0.050 A 
HETATM   16  C10 UNL     1       5.628  -0.663  -2.500  1.00  0.00     0.029 A 
HETATM   17  C11 UNL     1       5.767  -1.958  -2.955  1.00  0.00     0.049 A 
HETATM   18 CL1  UNL     1       7.014  -2.319  -4.147  1.00  0.00    -0.083 Cl
HETATM   19  C12 UNL     1       4.922  -2.926  -2.457  1.00  0.00     0.113 A 
HETATM   20  N3  UNL     1       4.003  -2.568  -1.555  1.00  0.00    -0.351 N 
ATOM     21  H3  UNL     1       3.383  -3.293  -1.194  1.00  0.00     0.166 HD
ENDBRANCH  12  14
ENDBRANCH   2  12
ENDBRANCH   1   2
BRANCH   1  22
HETATM   22  N4  UNL     1       0.350  -0.105  -0.205  1.00  0.00    -0.353 N 
HETATM   23  C14 UNL     1      -0.627   0.797  -0.705  1.00  0.00     0.226 C 
HETATM   24  O2  UNL     1      -0.659   1.937  -0.220  1.00  0.00    -0.273 OA
ATOM     25  H4  UNL     1       0.397  -1.050  -0.587  1.00  0.00     0.163 HD
BRANCH  23  26
HETATM   26  C15 UNL     1      -1.595   0.421  -1.774  1.00  0.00     0.041 C 
HETATM   27  C16 UNL     1      -0.680  -0.002  -2.951  1.00  0.00     0.025 C 
HETATM   28  C17 UNL     1      -2.304   1.644  -2.178  1.00  0.00     0.039 C 
HETATM   29  C18 UNL     1      -3.790   1.567  -2.241  1.00  0.00     0.127 C 
HETATM   30  N5  UNL     1      -4.219   0.851  -1.017  1.00  0.00    -0.356 N 
HETATM   31  C26 UNL     1      -3.850  -0.510  -0.980  1.00  0.00     0.095 C 
HETATM   32  C31 UNL     1      -2.391  -0.745  -1.368  1.00  0.00     0.045 C 
BRANCH  30  33
HETATM   33  C19 UNL     1      -4.883   1.604  -0.046  1.00  0.00     0.148 C 
BRANCH  33  34
HETATM   34  O3  UNL     1      -4.997   2.874  -0.442  1.00  0.00    -0.346 OA
ATOM     35  H3  UNL     1      -5.449   3.386   0.218  1.00  0.00     0.219 HD
ENDBRANCH  33  34
BRANCH  33  36
HETATM   36  C20 UNL     1      -5.457   1.365   1.238  1.00  0.00     0.015 A 
HETATM   37  C21 UNL     1      -5.961   2.478   1.960  1.00  0.00     0.016 A 
HETATM   38  C22 UNL     1      -6.538   2.360   3.196  1.00  0.00     0.001 A 
HETATM   39  C23 UNL     1      -6.658   1.140   3.799  1.00  0.00     0.000 A 
HETATM   40  C24 UNL     1      -6.196   0.043   3.157  1.00  0.00     0.001 A 
HETATM   41  C25 UNL     1      -5.617   0.186   1.911  1.00  0.00     0.016 A 
ENDBRANCH  33  36
ENDBRANCH  30  33
BRANCH  31  42
HETATM   42  C27 UNL     1      -4.730  -1.424  -1.805  1.00  0.00    -0.031 C 
HETATM   43  C28 UNL     1      -6.181  -1.406  -1.442  1.00  0.00     0.016 C 
HETATM   44  C29 UNL     1      -4.613  -1.327  -3.277  1.00  0.00     0.016 C 
HETATM   45  C30 UNL     1      -4.280  -2.893  -1.471  1.00  0.00     0.016 C 
ENDBRANCH  31  42
ENDBRANCH  23  26
ENDBRANCH   1  22
BRANCH   1  46
HETATM   46  C32 UNL     1       1.007  -0.561   2.022  1.00  0.00     0.003 C 
HETATM   47  C33 UNL     1       1.286  -2.034   1.818  1.00  0.00     0.011 C 
HETATM   48  C34 UNL     1       1.526  -0.054   3.335  1.00  0.00     0.011 C 
ENDBRANCH   1  46
TORSDOF 14
