REMARK  14 active torsions:
REMARK  status: ('A' for Active; 'I' for Inactive)
REMARK    1  A    between atoms: C2_2  and  C3_3 
REMARK    2  A    between atoms: C4_4  and  C5_5 
REMARK    3  A    between atoms: C9_9  and  C10_10 
REMARK    4  A    between atoms: C10_10  and  C11_11 
REMARK    5  A    between atoms: C11_11  and  C12_12 
REMARK    6  A    between atoms: C12_12  and  O1_13 
REMARK    7  A    between atoms: C12_12  and  N1_15 
REMARK    8  A    between atoms: C20_23  and  C21_24 
REMARK       I    between atoms: C21_24  and  N2_26 
REMARK    9  A    between atoms: N2_26  and  C22_28 
REMARK   10  A    between atoms: C22_28  and  C23_29 
REMARK   11  A    between atoms: C24_30  and  C25_31 
REMARK   12  A    between atoms: C25_31  and  C26_32 
REMARK   13  A    between atoms: C26_32  and  C27_33 
REMARK   14  A    between atoms: C27_33  and  C28_34 
REMARK       I    between atoms: C28_34  and  N3_36 
REMARK       I    between atoms: N3_36  and  C29_37 
ROOT
HETATM    1  N1  UNL     1      -1.979  -3.054   0.146  1.00  0.00    -0.326 N 
HETATM    2  C13 UNL     1      -1.806  -4.351  -0.461  1.00  0.00     0.013 C 
HETATM    3  C14 UNL     1      -2.106  -5.662   0.237  1.00  0.00     0.068 C 
HETATM    4  C15 UNL     1      -1.370  -4.278  -1.683  1.00  0.00    -0.055 C 
HETATM    5  C16 UNL     1      -1.085  -5.429  -2.586  1.00  0.00     0.046 C 
HETATM    6  C17 UNL     1      -1.213  -2.885  -2.049  1.00  0.00     0.044 C 
HETATM    7  C18 UNL     1       0.200  -2.363  -2.060  1.00  0.00     0.005 C 
HETATM    8  C19 UNL     1       1.060  -3.141  -1.087  1.00  0.00     0.011 C 
HETATM    9  C20 UNL     1      -0.006  -0.923  -1.683  1.00  0.00     0.084 C 
HETATM   10  C30 UNL     1      -1.048  -0.946  -0.637  1.00  0.00     0.041 C 
HETATM   11  C31 UNL     1      -1.951  -2.112  -0.974  1.00  0.00     0.101 C 
ENDROOT
BRANCH   1  12
HETATM   12  C12 UNL     1      -1.961  -2.794   1.524  1.00  0.00     0.142 C 
BRANCH  12  13
HETATM   13  C11 UNL     1      -2.360  -1.716   2.320  1.00  0.00     0.057 C 
BRANCH  13  14
HETATM   14  C10 UNL     1      -3.032  -0.633   2.382  1.00  0.00     0.015 C 
BRANCH  14  15
HETATM   15  C9  UNL     1      -3.886   0.180   1.566  1.00  0.00    -0.034 A 
HETATM   16  C8  UNL     1      -4.684  -0.393   0.561  1.00  0.00     0.019 A 
HETATM   17  C6  UNL     1      -5.452   0.412  -0.215  1.00  0.00    -0.041 A 
HETATM   18  C5  UNL     1      -5.503   1.783  -0.081  1.00  0.00     0.045 A 
HETATM   19  C7  UNL     1      -6.296  -0.223  -1.264  1.00  0.00     0.050 C 
HETATM   20  C33 UNL     1      -4.724   2.338   0.899  1.00  0.00     0.054 A 
HETATM   21  C32 UNL     1      -3.929   1.562   1.711  1.00  0.00     0.036 A 
HETATM   22 CL1  UNL     1      -4.779   4.095   1.062  1.00  0.00    -0.083 Cl
BRANCH  18  23
HETATM   23  C4  UNL     1      -6.350   2.558  -0.955  1.00  0.00    -0.065 C 
HETATM   24  C3  UNL     1      -7.065   3.168  -1.709  1.00  0.00    -0.101 C 
BRANCH  24  25
HETATM   25  C2  UNL     1      -7.952   3.861  -2.639  1.00  0.00     0.090 C 
HETATM   26  C1  UNL     1      -8.930   4.771  -1.895  1.00  0.00     0.018 C 
ENDBRANCH  24  25
ENDBRANCH  18  23
ENDBRANCH  14  15
ENDBRANCH  13  14
ENDBRANCH  12  13
BRANCH  12  27
HETATM   27  O1  UNL     1      -1.428  -3.816   2.195  1.00  0.00    -0.346 OA
ATOM     28  H1  UNL     1      -1.157  -4.548   1.654  1.00  0.00     0.219 HD
ENDBRANCH  12  27
ENDBRANCH   1  12
BRANCH   9  29
HETATM   29  C21 UNL     1       1.262  -0.306  -1.179  1.00  0.00     0.222 C 
HETATM   30  O2  UNL     1       2.385  -0.842  -1.320  1.00  0.00    -0.273 OA
HETATM   31  N2  UNL     1       1.183   0.930  -0.512  1.00  0.00    -0.357 N 
ATOM     32  H2  UNL     1       0.260   1.357  -0.436  1.00  0.00     0.162 HD
BRANCH  31  33
HETATM   33  C22 UNL     1       2.276   1.642   0.068  1.00  0.00     0.149 C 
BRANCH  33  34
HETATM   34  C23 UNL     1       3.388   2.080  -0.768  1.00  0.00    -0.011 C 
HETATM   35  C24 UNL     1       4.652   1.682  -0.547  1.00  0.00    -0.029 C 
BRANCH  35  36
HETATM   36  C25 UNL     1       5.783   2.123  -1.380  1.00  0.00     0.027 C 
BRANCH  36  37
HETATM   37  C26 UNL     1       6.750   2.884  -0.465  1.00  0.00     0.014 C 
BRANCH  37  38
HETATM   38  C27 UNL     1       7.191   1.960   0.627  1.00  0.00     0.120 C 
BRANCH  38  39
HETATM   39  C28 UNL     1       8.147   2.704   1.537  1.00  0.00     0.294 C 
HETATM   40  O3  UNL     1       8.534   3.849   1.132  1.00  0.00    -0.257 OA
HETATM   41  N3  UNL     1       8.573   2.212   2.700  1.00  0.00    -0.340 NA
HETATM   42  C29 UNL     1       9.023   1.788   3.699  1.00  0.00     0.278 C 
HETATM   43  N4  UNL     1      10.422   1.647   4.027  1.00  0.00    -0.052 NA
HETATM   44  N5  UNL     1       8.136   1.346   4.766  1.00  0.00    -0.052 NA
ENDBRANCH  38  39
ENDBRANCH  37  38
ENDBRANCH  36  37
ENDBRANCH  35  36
ENDBRANCH  33  34
ENDBRANCH  31  33
ENDBRANCH   9  29
TORSDOF 14
