REMARK  17 active torsions:
REMARK  status: ('A' for Active; 'I' for Inactive)
REMARK    1  A    between atoms: N1_1  and  C1_5 
REMARK    2  A    between atoms: C1_5  and  C2_6 
REMARK    3  A    between atoms: C2_6  and  C3_7 
REMARK    4  A    between atoms: C3_7  and  C4_8 
REMARK    5  A    between atoms: C4_8  and  C5_9 
REMARK    6  A    between atoms: C4_8  and  N4_22 
REMARK    7  A    between atoms: C5_9  and  N2_10 
REMARK    8  A    between atoms: C8_14  and  C9_15 
REMARK    9  A    between atoms: C9_15  and  O1_16 
REMARK   10  A    between atoms: N3_18  and  O2_20 
REMARK       I    between atoms: N4_22  and  C10_24 
REMARK   11  A    between atoms: C10_24  and  C11_26 
REMARK   12  A    between atoms: N5_30  and  C15_31 
REMARK   13  A    between atoms: C15_31  and  O4_32 
REMARK   14  A    between atoms: C15_31  and  C16_34 
REMARK   15  A    between atoms: C16_34  and  N6_42 
REMARK   16  A    between atoms: C17_35  and  C18_36 
REMARK       I    between atoms: N6_42  and  C24_43 
REMARK   17  A    between atoms: C24_43  and  C25_45 
ROOT
HETATM    1  C11 UNL     1       0.772  -1.229  -0.712  1.00  0.00     0.178 C 
HETATM    2  C12 UNL     1       1.241  -2.666  -0.214  1.00  0.00     0.037 C 
HETATM    3  C13 UNL     1       1.024  -2.464   1.315  1.00  0.00     0.022 C 
HETATM    4  C14 UNL     1       0.133  -1.298   1.429  1.00  0.00     0.126 C 
HETATM    5  N5  UNL     1      -0.359  -1.237   0.013  1.00  0.00    -0.346 N 
ENDROOT
BRANCH   1   6
HETATM    6  C10 UNL     1       1.877  -0.266  -0.339  1.00  0.00     0.241 C 
HETATM    7  N4  UNL     1       3.200  -0.673  -0.673  1.00  0.00    -0.353 N 
ATOM      8  H4  UNL     1       3.267  -1.533  -1.217  1.00  0.00     0.163 HD
HETATM    9  O3  UNL     1       1.622   0.763   0.250  1.00  0.00    -0.271 OA
BRANCH   7  10
HETATM   10  C4  UNL     1       4.478  -0.037  -0.349  1.00  0.00     0.102 C 
BRANCH  10  11
HETATM   11  C3  UNL     1       5.159  -1.240   0.407  1.00  0.00     0.028 C 
BRANCH  11  12
HETATM   12  C2  UNL     1       5.408  -2.279  -0.597  1.00  0.00     0.029 C 
BRANCH  12  13
HETATM   13  C1  UNL     1       5.691  -3.635   0.057  1.00  0.00     0.230 C 
BRANCH  13  14
HETATM   14  N1  UNL     1       5.629  -4.566  -1.055  1.00  0.00    -0.079 N 
ATOM     15  H13 UNL     1       4.762  -4.528  -1.591  1.00  0.00     0.274 HD
ATOM     16  H12 UNL     1       6.246  -4.336  -1.834  1.00  0.00     0.274 HD
ATOM     17  H11 UNL     1       5.817  -5.469  -0.620  1.00  0.00     0.274 HD
ENDBRANCH  13  14
ENDBRANCH  12  13
ENDBRANCH  11  12
ENDBRANCH  10  11
BRANCH  10  18
HETATM   18  C5  UNL     1       4.313   1.060   0.628  1.00  0.00     0.149 C 
BRANCH  18  19
HETATM   19  N2  UNL     1       5.546   1.609   1.056  1.00  0.00    -0.361 N 
HETATM   20  C6  UNL     1       6.515   1.342   2.086  1.00  0.00     0.078 C 
HETATM   21  S1  UNL     1       6.369   0.880   3.636  1.00  0.00    -0.065 SA
HETATM   22  C7  UNL     1       7.630   1.697   1.208  1.00  0.00     0.103 C 
HETATM   23  C8  UNL     1       6.538   2.599   0.596  1.00  0.00     0.167 C 
BRANCH  23  24
HETATM   24  C9  UNL     1       6.704   3.040  -0.767  1.00  0.00     0.159 C 
HETATM   25  N3  UNL     1       6.687   4.305  -1.115  1.00  0.00    -0.249 N 
ATOM     26  H3  UNL     1       6.772   4.661  -2.067  1.00  0.00     0.196 HD
BRANCH  24  27
HETATM   27  O1  UNL     1       6.909   2.161  -1.806  1.00  0.00    -0.347 OA
ATOM     28  H1  UNL     1       7.018   2.452  -2.704  1.00  0.00     0.219 HD
ENDBRANCH  24  27
BRANCH  25  29
HETATM   29  O2  UNL     1       6.532   5.093   0.048  1.00  0.00    -0.288 OA
ATOM     30  H2  UNL     1       6.520   6.009  -0.204  1.00  0.00     0.244 HD
ENDBRANCH  25  29
ENDBRANCH  23  24
ENDBRANCH  18  19
ENDBRANCH  10  18
ENDBRANCH   7  10
ENDBRANCH   1   6
BRANCH   5  31
HETATM   31  C15 UNL     1      -1.722  -1.186  -0.119  1.00  0.00     0.180 C 
BRANCH  31  32
HETATM   32  O4  UNL     1      -2.358  -2.302   0.190  1.00  0.00    -0.344 OA
ATOM     33  H4  UNL     1      -3.303  -2.267   0.098  1.00  0.00     0.219 HD
ENDBRANCH  31  32
BRANCH  31  34
HETATM   34  C16 UNL     1      -2.560   0.051  -0.511  1.00  0.00     0.158 C 
HETATM   35  C17 UNL     1      -2.348   0.634  -1.779  1.00  0.00     0.027 C 
BRANCH  35  36
HETATM   36  C18 UNL     1      -3.197   1.807  -2.094  1.00  0.00     0.011 C 
HETATM   37  C19 UNL     1      -3.055   1.969  -3.619  1.00  0.00     0.009 C 
HETATM   38  C20 UNL     1      -3.926   3.031  -4.232  1.00  0.00     0.001 C 
HETATM   39  C21 UNL     1      -5.377   2.890  -3.742  1.00  0.00     0.000 C 
HETATM   40  C22 UNL     1      -5.297   2.972  -2.231  1.00  0.00     0.001 C 
HETATM   41  C23 UNL     1      -4.577   1.767  -1.688  1.00  0.00     0.009 C 
ENDBRANCH  35  36
BRANCH  34  42
HETATM   42  N6  UNL     1      -3.045   0.212   0.710  1.00  0.00    -0.366 NA
HETATM   43  C24 UNL     1      -3.487   0.437   2.008  1.00  0.00     0.296 C 
HETATM   44  O5  UNL     1      -3.209   0.988   2.954  1.00  0.00    -0.257 OA
BRANCH  43  45
HETATM   45  C25 UNL     1      -4.776  -0.477   2.182  1.00  0.00     0.093 C 
HETATM   46  C26 UNL     1      -4.745  -1.102   3.534  1.00  0.00     0.015 C 
HETATM   47  C27 UNL     1      -6.127  -1.765   3.775  1.00  0.00     0.001 C 
HETATM   48  C28 UNL     1      -6.548  -2.328   2.439  1.00  0.00     0.000 C 
HETATM   49  C29 UNL     1      -6.859  -1.282   1.422  1.00  0.00     0.001 C 
HETATM   50  C30 UNL     1      -6.048   0.010   1.758  1.00  0.00     0.015 C 
ENDBRANCH  43  45
ENDBRANCH  34  42
ENDBRANCH  31  34
ENDBRANCH   5  31
TORSDOF 17
