REMARK  17 active torsions:
REMARK  status: ('A' for Active; 'I' for Inactive)
REMARK    1  A    between atoms: C2_2  and  N1_3 
REMARK       I    between atoms: N1_3  and  C3_4 
REMARK    2  A    between atoms: N1_3  and  C22_40 
REMARK    3  A    between atoms: C3_4  and  C4_6 
REMARK    4  A    between atoms: C4_6  and  N2_7 
REMARK    5  A    between atoms: C4_6  and  C11_17 
REMARK    6  A    between atoms: N2_7  and  C5_9 
REMARK    7  A    between atoms: C5_9  and  C6_10 
REMARK    8  A    between atoms: C5_9  and  C7_13 
REMARK    9  A    between atoms: C11_17  and  C12_18 
REMARK   10  A    between atoms: C11_17  and  C19_30 
REMARK   11  A    between atoms: C12_18  and  C13_19 
REMARK   12  A    between atoms: C13_19  and  C14_20 
REMARK   13  A    between atoms: C14_20  and  N4_21 
REMARK       I    between atoms: N4_21  and  C15_23 
REMARK       I    between atoms: C15_23  and  N5_25 
REMARK   14  A    between atoms: N5_25  and  C16_27 
REMARK   15  A    between atoms: C19_30  and  C20_31 
REMARK   16  A    between atoms: C21_34  and  O4_35 
REMARK   17  A    between atoms: C25_43  and  C26_44 
ROOT
HETATM    1  C4  UNL     1       0.162  -1.370  -0.345  1.00  0.00     0.182 C 
ENDROOT
BRANCH   1   2
HETATM    2  C3  UNL     1      -0.739  -1.173  -1.521  1.00  0.00     0.243 C 
HETATM    3  N1  UNL     1      -1.762  -0.151  -1.324  1.00  0.00    -0.346 N 
HETATM    4  O1  UNL     1      -0.629  -1.750  -2.557  1.00  0.00    -0.271 OA
BRANCH   3   5
HETATM    5  C2  UNL     1      -1.953   0.646  -2.553  1.00  0.00     0.122 C 
HETATM    6  C1  UNL     1      -2.607  -0.191  -3.585  1.00  0.00     0.026 C 
ENDBRANCH   3   5
BRANCH   3   7
HETATM    7  C22 UNL     1      -2.517   0.096  -0.130  1.00  0.00     0.087 C 
HETATM    8  C23 UNL     1      -3.975  -0.334  -0.218  1.00  0.00     0.026 C 
HETATM    9  C24 UNL     1      -4.919   0.714  -0.667  1.00  0.00     0.007 C 
HETATM   10  C25 UNL     1      -4.738   2.072  -0.043  1.00  0.00    -0.007 C 
HETATM   11  C30 UNL     1      -3.685   1.925   1.043  1.00  0.00     0.007 C 
HETATM   12  C31 UNL     1      -2.397   1.521   0.352  1.00  0.00     0.026 C 
BRANCH  10  13
HETATM   13  C26 UNL     1      -6.023   2.672   0.452  1.00  0.00    -0.048 C 
HETATM   14  C27 UNL     1      -5.701   4.070   0.947  1.00  0.00     0.015 C 
HETATM   15  C28 UNL     1      -6.957   2.782  -0.714  1.00  0.00     0.015 C 
HETATM   16  C29 UNL     1      -6.651   1.893   1.596  1.00  0.00     0.015 C 
ENDBRANCH  10  13
ENDBRANCH   3   7
ENDBRANCH   1   2
BRANCH   1  17
HETATM   17  N2  UNL     1       0.422  -2.705  -0.083  1.00  0.00    -0.375 N 
ATOM     18  H2  UNL     1       1.389  -2.996   0.060  1.00  0.00     0.160 HD
BRANCH  17  19
HETATM   19  C5  UNL     1      -0.594  -3.678  -0.006  1.00  0.00     0.079 C 
BRANCH  19  20
HETATM   20  C6  UNL     1      -0.937  -4.484  -1.201  1.00  0.00     0.277 C 
HETATM   21  N3  UNL     1       0.126  -5.159  -1.924  1.00  0.00    -0.056 NA
HETATM   22  O2  UNL     1      -2.072  -4.558  -1.675  1.00  0.00    -0.270 OA
ENDBRANCH  19  20
BRANCH  19  23
HETATM   23  C7  UNL     1      -0.786  -4.469   1.233  1.00  0.00    -0.004 C 
HETATM   24  C8  UNL     1      -1.144  -3.708   2.463  1.00  0.00     0.021 C 
HETATM   25  C9  UNL     1      -1.778  -5.580   0.995  1.00  0.00     0.021 C 
HETATM   26  C10 UNL     1       0.602  -5.168   1.427  1.00  0.00     0.021 C 
ENDBRANCH  19  23
ENDBRANCH  17  19
ENDBRANCH   1  17
BRANCH   1  27
HETATM   27  C11 UNL     1       1.453  -0.627  -0.911  1.00  0.00     0.044 C 
BRANCH  27  28
HETATM   28  C12 UNL     1       1.997   0.249   0.175  1.00  0.00     0.013 C 
BRANCH  28  29
HETATM   29  C13 UNL     1       3.036   1.235  -0.248  1.00  0.00     0.020 C 
BRANCH  29  30
HETATM   30  C14 UNL     1       4.399   0.975   0.351  1.00  0.00     0.124 C 
BRANCH  30  31
HETATM   31  N4  UNL     1       5.138   2.168   0.157  1.00  0.00    -0.343 N 
HETATM   32  C15 UNL     1       5.490   3.091   1.193  1.00  0.00     0.316 C 
HETATM   33  O3  UNL     1       5.440   2.753   2.351  1.00  0.00    -0.247 OA
HETATM   34  N5  UNL     1       5.955   4.334   0.738  1.00  0.00    -0.339 N 
ATOM     35  H5  UNL     1       5.430   4.856   0.036  1.00  0.00     0.164 HD
ATOM     36  H4  UNL     1       5.442   2.386  -0.792  1.00  0.00     0.164 HD
BRANCH  34  37
HETATM   37  C16 UNL     1       7.193   4.869   1.279  1.00  0.00     0.078 C 
HETATM   38  C17 UNL     1       8.181   4.428   0.060  1.00  0.00     0.032 C 
HETATM   39  C18 UNL     1       7.293   6.314   1.375  1.00  0.00     0.032 C 
ENDBRANCH  34  37
ENDBRANCH  30  31
ENDBRANCH  29  30
ENDBRANCH  28  29
ENDBRANCH  27  28
BRANCH  27  40
HETATM   40  C19 UNL     1       2.409  -1.557  -1.470  1.00  0.00     0.031 C 
BRANCH  40  41
HETATM   41  C20 UNL     1       3.147  -2.602  -0.838  1.00  0.00     0.126 A 
HETATM   42  N6  UNL     1       3.363  -3.837  -1.555  1.00  0.00    -0.300 N 
HETATM   43  C21 UNL     1       4.096  -4.560  -0.711  1.00  0.00     0.286 A 
ATOM     44  H6  UNL     1       3.033  -4.094  -2.485  1.00  0.00     0.171 HD
HETATM   45  O5  UNL     1       4.339  -3.935   0.391  1.00  0.00    -0.192 OA
HETATM   46  N7  UNL     1       3.764  -2.803   0.226  1.00  0.00    -0.241 N 
ATOM     47  H7  UNL     1       3.810  -2.083   0.948  1.00  0.00     0.196 HD
BRANCH  43  48
HETATM   48  O4  UNL     1       4.567  -5.756  -0.976  1.00  0.00    -0.325 OA
ATOM     49  H4  UNL     1       5.090  -6.272  -0.374  1.00  0.00     0.221 HD
ENDBRANCH  43  48
ENDBRANCH  40  41
ENDBRANCH  27  40
ENDBRANCH   1  27
TORSDOF 17
