REMARK  17 active torsions:
REMARK  status: ('A' for Active; 'I' for Inactive)
REMARK    1  A    between atoms: C2_2  and  C3_3 
REMARK    2  A    between atoms: C3_3  and  C4_4 
REMARK    3  A    between atoms: C4_4  and  C5_5 
REMARK    4  A    between atoms: C5_5  and  C6_6 
REMARK    5  A    between atoms: C6_6  and  N1_7 
REMARK    6  A    between atoms: C7_8  and  C8_9 
REMARK       I    between atoms: N3_15  and  C12_17 
REMARK       I    between atoms: C12_17  and  N4_19 
REMARK    7  A    between atoms: N4_19  and  C13_21 
REMARK    8  A    between atoms: C13_21  and  C14_22 
REMARK    9  A    between atoms: C14_22  and  C15_23 
REMARK   10  A    between atoms: C15_23  and  C16_24 
REMARK   11  A    between atoms: C16_24  and  N5_25 
REMARK   12  A    between atoms: C16_24  and  C28_44 
REMARK       I    between atoms: N5_25  and  C17_27 
REMARK       I    between atoms: C17_27  and  N6_29 
REMARK   13  A    between atoms: N6_29  and  C18_31 
REMARK   14  A    between atoms: C18_31  and  C19_32 
REMARK   15  A    between atoms: C18_31  and  C24_40 
REMARK       I    between atoms: C19_32  and  N7_34 
REMARK   16  A    between atoms: N7_34  and  C20_36 
REMARK   17  A    between atoms: C28_44  and  O5_46 
ROOT
HETATM    1  C15 UNL     1      -0.757  -0.848  -3.568  1.00  0.00     0.037 C 
ENDROOT
BRANCH   1   2
HETATM    2  C14 UNL     1       0.489  -1.668  -3.801  1.00  0.00     0.022 C 
BRANCH   2   3
HETATM    3  C13 UNL     1       1.072  -2.175  -2.494  1.00  0.00     0.124 C 
BRANCH   3   4
HETATM    4  N4  UNL     1       1.435  -1.069  -1.639  1.00  0.00    -0.343 N 
HETATM    5  C12 UNL     1       1.992  -1.259  -0.309  1.00  0.00     0.321 C 
HETATM    6  N3  UNL     1       2.336  -0.221   0.505  1.00  0.00    -0.290 N 
HETATM    7  O1  UNL     1       2.128  -2.462   0.028  1.00  0.00    -0.247 OA
HETATM    8  C11 UNL     1       3.277   0.154   1.225  1.00  0.00     0.178 A 
ATOM      9  H3  UNL     1       1.582   0.466   0.532  1.00  0.00     0.172 HD
HETATM   10  N2  UNL     1       3.108   1.352   1.869  1.00  0.00    -0.346 N 
HETATM   11  C30 UNL     1       4.442  -0.532   1.415  1.00  0.00     0.292 A 
HETATM   12  C10 UNL     1       4.081   1.794   2.647  1.00  0.00     0.115 A 
ATOM     13  H2  UNL     1       2.250   1.891   1.751  1.00  0.00     0.167 HD
HETATM   14  C7  UNL     1       5.277   1.086   2.839  1.00  0.00     0.030 A 
HETATM   15  N1  UNL     1       5.462  -0.076   2.226  1.00  0.00    -0.314 N 
HETATM   16  O6  UNL     1       4.666  -1.639   0.859  1.00  0.00    -0.264 OA
ATOM     17  H4  UNL     1       1.295  -0.118  -1.981  1.00  0.00     0.164 HD
BRANCH  14  18
HETATM   18  C8  UNL     1       6.262   1.716   3.720  1.00  0.00     0.054 C 
HETATM   19  C9  UNL     1       7.081   2.706   2.941  1.00  0.00     0.011 C 
ENDBRANCH  14  18
BRANCH  15  20
HETATM   20  C6  UNL     1       6.643  -0.856   2.424  1.00  0.00     0.132 C 
BRANCH  20  21
HETATM   21  C5  UNL     1       7.802  -0.621   1.517  1.00  0.00     0.020 C 
BRANCH  21  22
HETATM   22  C4  UNL     1       7.555  -0.842   0.059  1.00  0.00     0.002 C 
BRANCH  22  23
HETATM   23  C3  UNL     1       8.819  -0.574  -0.761  1.00  0.00    -0.000 C 
BRANCH  23  24
HETATM   24  C2  UNL     1       9.321   0.824  -0.635  1.00  0.00    -0.005 C 
HETATM   25  C1  UNL     1      10.577   0.906  -1.518  1.00  0.00     0.005 C 
ENDBRANCH  23  24
ENDBRANCH  22  23
ENDBRANCH  21  22
ENDBRANCH  20  21
ENDBRANCH  15  20
ENDBRANCH   3   4
ENDBRANCH   2   3
ENDBRANCH   1   2
BRANCH   1  26
HETATM   26  C16 UNL     1      -1.856  -1.602  -2.891  1.00  0.00     0.186 C 
BRANCH  26  27
HETATM   27  N5  UNL     1      -2.981  -0.699  -2.711  1.00  0.00    -0.329 N 
HETATM   28  C17 UNL     1      -3.524  -0.433  -1.422  1.00  0.00     0.317 C 
HETATM   29  O2  UNL     1      -2.982  -1.022  -0.441  1.00  0.00    -0.247 OA
HETATM   30  N6  UNL     1      -4.609   0.435  -1.211  1.00  0.00    -0.329 N 
ATOM     31  H6  UNL     1      -5.048   0.918  -1.995  1.00  0.00     0.165 HD
ATOM     32  H5  UNL     1      -3.391  -0.245  -3.527  1.00  0.00     0.165 HD
BRANCH  30  33
HETATM   33  C18 UNL     1      -5.103   0.636   0.166  1.00  0.00     0.185 C 
BRANCH  33  34
HETATM   34  C19 UNL     1      -6.536   0.285   0.138  1.00  0.00     0.241 C 
HETATM   35  O3  UNL     1      -7.094   0.027  -0.951  1.00  0.00    -0.271 OA
HETATM   36  N7  UNL     1      -7.289   0.232   1.328  1.00  0.00    -0.351 N 
ATOM     37  H7  UNL     1      -6.845   0.433   2.224  1.00  0.00     0.163 HD
BRANCH  36  38
HETATM   38  C20 UNL     1      -8.714  -0.114   1.273  1.00  0.00     0.022 C 
HETATM   39  C21 UNL     1      -8.849  -1.469   0.662  1.00  0.00     0.037 C 
HETATM   40  C22 UNL     1      -9.428   0.931   0.458  1.00  0.00     0.037 C 
HETATM   41  C23 UNL     1      -9.212  -0.119   2.713  1.00  0.00     0.037 C 
ENDBRANCH  36  38
ENDBRANCH  33  34
BRANCH  33  42
HETATM   42  C24 UNL     1      -4.870   2.116   0.422  1.00  0.00    -0.022 C 
HETATM   43  C25 UNL     1      -3.379   2.439   0.280  1.00  0.00     0.017 C 
HETATM   44  C26 UNL     1      -5.616   2.989  -0.540  1.00  0.00     0.017 C 
HETATM   45  C27 UNL     1      -5.234   2.512   1.831  1.00  0.00     0.017 C 
ENDBRANCH  33  42
ENDBRANCH  30  33
ENDBRANCH  26  27
BRANCH  26  46
HETATM   46  C28 UNL     1      -2.327  -2.779  -3.640  1.00  0.00     0.281 C 
HETATM   47  O4  UNL     1      -3.539  -2.815  -3.991  1.00  0.00    -0.263 OA
BRANCH  46  48
HETATM   48  O5  UNL     1      -1.563  -3.864  -4.003  1.00  0.00    -0.325 OA
HETATM   49  C29 UNL     1      -2.130  -4.952  -4.731  1.00  0.00     0.213 C 
ENDBRANCH  46  48
ENDBRANCH  26  46
ENDBRANCH   1  26
TORSDOF 17
