REMARK  14 active torsions:
REMARK  status: ('A' for Active; 'I' for Inactive)
REMARK    1  A    between atoms: C2_2  and  N1_3 
REMARK    2  A    between atoms: N1_3  and  C3_4 
REMARK    3  A    between atoms: N1_3  and  C5_6 
REMARK    4  A    between atoms: C5_6  and  C6_7 
REMARK    5  A    between atoms: C6_7  and  C7_8 
REMARK    6  A    between atoms: C7_8  and  C8_9 
REMARK    7  A    between atoms: C8_9  and  C9_10 
REMARK    8  A    between atoms: C9_10  and  N2_11 
REMARK    9  A    between atoms: C12_15  and  N3_16 
REMARK       I    between atoms: N3_16  and  C13_18 
REMARK   10  A    between atoms: C13_18  and  C14_20 
REMARK   11  A    between atoms: C14_20  and  C15_21 
REMARK       I    between atoms: C15_21  and  N4_23 
REMARK   12  A    between atoms: N4_23  and  C16_25 
REMARK       I    between atoms: N7_31  and  C19_33 
REMARK   13  A    between atoms: C19_33  and  C20_35 
REMARK   14  A    between atoms: C20_35  and  C21_36 
ROOT
HETATM    1  C15 UNL     1       1.001   1.416   0.077  1.00  0.00     0.231 C 
HETATM    2  O3  UNL     1       0.297   0.586   0.689  1.00  0.00    -0.273 OA
HETATM    3  N4  UNL     1       2.354   1.397  -0.228  1.00  0.00    -0.322 N 
ATOM      4  H4  UNL     1       2.645   2.234  -0.732  1.00  0.00     0.169 HD
ENDROOT
BRANCH   1   5
HETATM    5  C14 UNL     1       0.187   2.640  -0.397  1.00  0.00     0.205 C 
BRANCH   5   6
HETATM    6  C13 UNL     1      -1.153   2.605   0.181  1.00  0.00     0.227 C 
HETATM    7  N3  UNL     1      -2.285   3.217  -0.450  1.00  0.00    -0.349 N 
ATOM      8  H3  UNL     1      -2.156   3.692  -1.343  1.00  0.00     0.163 HD
HETATM    9  O2  UNL     1      -1.395   2.027   1.268  1.00  0.00    -0.273 OA
BRANCH   7  10
HETATM   10  C12 UNL     1      -3.592   3.182   0.134  1.00  0.00     0.155 C 
HETATM   11  C11 UNL     1      -4.481   4.316  -0.300  1.00  0.00     0.135 C 
HETATM   12  C10 UNL     1      -5.029   3.804  -1.614  1.00  0.00     0.227 C 
HETATM   13  N2  UNL     1      -5.162   2.382  -1.480  1.00  0.00    -0.310 N 
HETATM   14  O1  UNL     1      -5.297   4.499  -2.595  1.00  0.00    -0.273 OA
HETATM   15  C30 UNL     1      -4.374   1.991  -0.364  1.00  0.00     0.105 C 
HETATM   16  S1  UNL     1      -4.311   0.522   0.290  1.00  0.00    -0.063 SA
BRANCH  13  17
HETATM   17  C9  UNL     1      -5.912   1.466  -2.289  1.00  0.00     0.133 C 
BRANCH  17  18
HETATM   18  C8  UNL     1      -7.329   1.427  -1.726  1.00  0.00     0.020 C 
BRANCH  18  19
HETATM   19  C7  UNL     1      -8.190   0.452  -2.481  1.00  0.00     0.003 C 
BRANCH  19  20
HETATM   20  C6  UNL     1      -9.597   0.484  -1.965  1.00  0.00     0.030 C 
BRANCH  20  21
HETATM   21  C5  UNL     1      -9.634   0.153  -0.509  1.00  0.00     0.272 C 
BRANCH  21  22
HETATM   22  N1  UNL     1      -9.107  -1.161  -0.198  1.00  0.00     0.087 N 
BRANCH  22  23
HETATM   23  C2  UNL     1      -9.963  -2.213  -0.683  1.00  0.00     0.268 C 
HETATM   24  C1  UNL     1      -9.345  -3.558  -0.462  1.00  0.00     0.037 C 
ENDBRANCH  22  23
BRANCH  22  25
HETATM   25  C3  UNL     1      -9.000  -1.212   1.256  1.00  0.00     0.268 C 
HETATM   26  C4  UNL     1     -10.278  -0.848   1.947  1.00  0.00     0.037 C 
ENDBRANCH  22  25
ENDBRANCH  21  22
ENDBRANCH  20  21
ENDBRANCH  19  20
ENDBRANCH  18  19
ENDBRANCH  17  18
ENDBRANCH  13  17
ENDBRANCH   7  10
ENDBRANCH   5   6
ENDBRANCH   1   5
BRANCH   3  27
HETATM   27  C16 UNL     1       3.412   0.520  -0.017  1.00  0.00     0.101 A 
HETATM   28  C17 UNL     1       4.705   0.900  -0.506  1.00  0.00     0.146 A 
HETATM   29  N5  UNL     1       4.820   2.168  -1.124  1.00  0.00    -0.080 NA
HETATM   30  N6  UNL     1       5.768   0.098  -0.365  1.00  0.00    -0.329 N 
HETATM   31  C18 UNL     1       5.721  -1.096   0.225  1.00  0.00     0.117 A 
ATOM     32  H6  UNL     1       6.665   0.419  -0.730  1.00  0.00     0.168 HD
HETATM   33  N7  UNL     1       6.663  -1.899   0.409  1.00  0.00    -0.313 N 
HETATM   34  C27 UNL     1       4.468  -1.503   0.717  1.00  0.00     0.009 A 
HETATM   35  C19 UNL     1       7.991  -1.795   0.068  1.00  0.00     0.223 C 
ATOM     36  H7  UNL     1       6.406  -2.764   0.885  1.00  0.00     0.170 HD
HETATM   37  O4  UNL     1       8.452  -2.645  -0.786  1.00  0.00    -0.273 OA
HETATM   38  C28 UNL     1       4.359  -2.808   1.363  1.00  0.00     0.054 C 
HETATM   39  C29 UNL     1       3.341  -0.697   0.592  1.00  0.00     0.086 A 
HETATM   40  N8  UNL     1       2.169  -1.254   1.156  1.00  0.00    -0.099 NA
BRANCH  35  41
HETATM   41  C20 UNL     1       8.947  -0.798   0.595  1.00  0.00     0.108 C 
BRANCH  41  42
HETATM   42  C21 UNL     1      10.358  -1.289   0.227  1.00  0.00    -0.006 C 
HETATM   43  C22 UNL     1      10.547  -2.630   0.874  1.00  0.00     0.005 C 
HETATM   44  C23 UNL     1      11.589  -2.589   1.932  1.00  0.00     0.000 C 
HETATM   45  C24 UNL     1      11.379  -1.365   2.804  1.00  0.00     0.000 C 
HETATM   46  C25 UNL     1      11.583  -0.095   2.050  1.00  0.00     0.000 C 
HETATM   47  C26 UNL     1      11.417  -0.282   0.555  1.00  0.00     0.005 C 
ENDBRANCH  41  42
ENDBRANCH  35  41
ENDBRANCH   3  27
TORSDOF 14
