REMARK  16 active torsions:
REMARK  status: ('A' for Active; 'I' for Inactive)
REMARK    1  A    between atoms: C2_2  and  N1_3 
REMARK    2  A    between atoms: C2_2  and  C20_25 
REMARK    3  A    between atoms: N1_3  and  C3_5 
REMARK    4  A    between atoms: C3_5  and  C4_6 
REMARK    5  A    between atoms: C3_5  and  C7_9 
REMARK    6  A    between atoms: C7_9  and  N2_10 
REMARK    7  A    between atoms: C7_9  and  C14_19 
REMARK       I    between atoms: N2_10  and  C8_12 
REMARK    8  A    between atoms: C8_12  and  C9_14 
REMARK    9  A    between atoms: C9_14  and  C10_15 
REMARK       I    between atoms: C20_25  and  N3_27 
REMARK       I    between atoms: N3_27  and  C21_29 
REMARK   10  A    between atoms: C21_29  and  C22_31 
REMARK   11  A    between atoms: C22_31  and  C23_33 
REMARK   12  A    between atoms: C23_33  and  O5_34 
REMARK   13  A    between atoms: C23_33  and  N4_36 
REMARK   14  A    between atoms: C27_40  and  C28_41 
REMARK       I    between atoms: C28_41  and  N5_43 
REMARK   15  A    between atoms: N5_43  and  C29_45 
REMARK   16  A    between atoms: C29_45  and  C31_47 
ROOT
HETATM    1  C20 UNL     1      -1.035   1.015  -1.798  1.00  0.00     0.246 C 
HETATM    2  O2  UNL     1      -2.039   1.112  -2.598  1.00  0.00    -0.271 OA
HETATM    3  N3  UNL     1       0.137   1.656  -2.193  1.00  0.00    -0.289 N 
ATOM      4  H3  UNL     1       0.079   2.188  -3.061  1.00  0.00     0.172 HD
HETATM    5  C21 UNL     1       1.403   1.667  -1.548  1.00  0.00     0.298 C 
HETATM    6  O3  UNL     1       1.579   1.061  -0.461  1.00  0.00    -0.264 OA
ENDROOT
BRANCH   1   7
HETATM    7  C2  UNL     1      -1.253   0.224  -0.551  1.00  0.00     0.170 C 
HETATM    8  C1  UNL     1      -1.215   1.147   0.673  1.00  0.00     0.042 C 
BRANCH   7   9
HETATM    9  N1  UNL     1      -2.504  -0.461  -0.598  1.00  0.00    -0.375 N 
ATOM     10  H1  UNL     1      -3.166  -0.319  -1.360  1.00  0.00     0.160 HD
BRANCH   9  11
HETATM   11  C3  UNL     1      -2.780  -1.362   0.487  1.00  0.00     0.053 C 
BRANCH  11  12
HETATM   12  C4  UNL     1      -1.814  -2.444   0.538  1.00  0.00    -0.059 C 
HETATM   13  C5  UNL     1      -1.698  -3.324  -0.679  1.00  0.00     0.045 C 
HETATM   14  C6  UNL     1      -1.768  -3.242   1.829  1.00  0.00     0.045 C 
ENDBRANCH  11  12
BRANCH  11  15
HETATM   15  C7  UNL     1      -4.219  -1.467   0.733  1.00  0.00     0.043 C 
BRANCH  15  16
HETATM   16  N2  UNL     1      -4.812  -0.206   1.148  1.00  0.00    -0.328 N 
HETATM   17  C8  UNL     1      -5.431   0.744   0.324  1.00  0.00     0.222 C 
HETATM   18  O1  UNL     1      -5.511   0.543  -0.906  1.00  0.00    -0.273 OA
ATOM     19  H2  UNL     1      -4.773   0.010   2.144  1.00  0.00     0.168 HD
BRANCH  17  20
HETATM   20  C9  UNL     1      -5.996   1.990   0.879  1.00  0.00     0.111 C 
BRANCH  20  21
HETATM   21  C10 UNL     1      -6.550   2.892  -0.205  1.00  0.00    -0.043 C 
HETATM   22  C11 UNL     1      -5.445   3.261  -1.173  1.00  0.00     0.015 C 
HETATM   23  C12 UNL     1      -7.007   4.223   0.413  1.00  0.00     0.015 C 
HETATM   24  C13 UNL     1      -7.707   2.312  -0.944  1.00  0.00     0.015 C 
ENDBRANCH  20  21
ENDBRANCH  17  20
ENDBRANCH  15  16
BRANCH  15  25
HETATM   25  C14 UNL     1      -4.923  -2.651   1.216  1.00  0.00     0.038 C 
HETATM   26  C15 UNL     1      -4.914  -3.879   0.339  1.00  0.00     0.011 C 
HETATM   27  C16 UNL     1      -6.293  -4.532   0.278  1.00  0.00     0.001 C 
HETATM   28  C17 UNL     1      -6.931  -4.683   1.624  1.00  0.00     0.000 C 
HETATM   29  C18 UNL     1      -6.932  -3.379   2.403  1.00  0.00     0.001 C 
HETATM   30  C19 UNL     1      -6.408  -2.315   1.465  1.00  0.00     0.011 C 
ENDBRANCH  15  25
ENDBRANCH  11  15
ENDBRANCH   9  11
ENDBRANCH   7   9
ENDBRANCH   1   7
BRANCH   5  31
HETATM   31  C22 UNL     1       2.533   2.399  -2.159  1.00  0.00     0.275 C 
HETATM   32  O4  UNL     1       2.334   2.935  -3.264  1.00  0.00    -0.282 OA
BRANCH  31  33
HETATM   33  C23 UNL     1       3.806   2.469  -1.471  1.00  0.00     0.438 C 
BRANCH  33  34
HETATM   34  O5  UNL     1       3.711   1.958  -0.141  1.00  0.00    -0.362 OA
ATOM     35  H5  UNL     1       4.546   2.004   0.310  1.00  0.00     0.212 HD
ENDBRANCH  33  34
BRANCH  33  36
HETATM   36  N4  UNL     1       4.898   1.736  -2.053  1.00  0.00     0.138 N 
HETATM   37  C24 UNL     1       5.317   2.113  -3.345  1.00  0.00     0.277 C 
HETATM   38  C25 UNL     1       6.413   3.135  -3.176  1.00  0.00     0.033 C 
HETATM   39  C26 UNL     1       7.141   2.551  -1.961  1.00  0.00     0.047 C 
HETATM   40  C27 UNL     1       6.037   1.897  -1.182  1.00  0.00     0.318 C 
BRANCH  40  41
HETATM   41  C28 UNL     1       6.468   0.638  -0.522  1.00  0.00     0.251 C 
HETATM   42  O6  UNL     1       5.888  -0.452  -0.677  1.00  0.00    -0.271 OA
HETATM   43  N5  UNL     1       7.597   0.667   0.333  1.00  0.00    -0.355 N 
ATOM     44  H5  UNL     1       8.081   1.555   0.464  1.00  0.00     0.162 HD
BRANCH  43  45
HETATM   45  C29 UNL     1       8.103  -0.502   1.033  1.00  0.00     0.083 C 
HETATM   46  C30 UNL     1       8.206  -0.163   2.502  1.00  0.00     0.032 C 
BRANCH  45  47
HETATM   47  C31 UNL     1       9.499  -0.853   0.541  1.00  0.00    -0.000 C 
HETATM   48  C32 UNL     1      10.480   0.262   0.748  1.00  0.00     0.011 C 
HETATM   49  C33 UNL     1       9.947  -2.064   1.368  1.00  0.00     0.011 C 
ENDBRANCH  45  47
ENDBRANCH  43  45
ENDBRANCH  40  41
ENDBRANCH  33  36
ENDBRANCH  31  33
ENDBRANCH   5  31
TORSDOF 16
