REMARK  15 active torsions:
REMARK  status: ('A' for Active; 'I' for Inactive)
REMARK    1  A    between atoms: C2_2  and  N1_3 
REMARK    2  A    between atoms: C2_2  and  C3_7 
REMARK       I    between atoms: C3_7  and  N2_9 
REMARK    3  A    between atoms: C6_12  and  C7_13 
REMARK    4  A    between atoms: C7_13  and  C8_14 
REMARK    5  A    between atoms: C8_14  and  C9_15 
REMARK       I    between atoms: C9_15  and  N3_17 
REMARK    6  A    between atoms: N3_17  and  C10_19 
REMARK    7  A    between atoms: C10_19  and  C11_20 
REMARK    8  A    between atoms: C11_20  and  C12_21 
REMARK    9  A    between atoms: C12_21  and  C13_22 
REMARK   10  A    between atoms: C13_22  and  C14_23 
REMARK   11  A    between atoms: C14_23  and  C15_24 
REMARK   12  A    between atoms: C15_24  and  N4_25 
REMARK       I    between atoms: N4_25  and  C16_27 
REMARK       I    between atoms: C16_27  and  N5_29 
REMARK   13  A    between atoms: N5_29  and  S1_31 
REMARK   14  A    between atoms: S1_31  and  C17_34 
REMARK   15  A    between atoms: C19_40  and  C20_41 
ROOT
HETATM    1  C14 UNL     1      -1.046   0.286   0.896  1.00  0.00     0.020 C 
ENDROOT
BRANCH   1   2
HETATM    2  C13 UNL     1      -0.144  -0.897   1.100  1.00  0.00     0.002 C 
BRANCH   2   3
HETATM    3  C12 UNL     1       0.725  -1.109  -0.101  1.00  0.00     0.002 C 
BRANCH   3   4
HETATM    4  C11 UNL     1       1.609   0.104  -0.360  1.00  0.00     0.020 C 
BRANCH   4   5
HETATM    5  C10 UNL     1       2.464  -0.190  -1.553  1.00  0.00     0.123 C 
BRANCH   5   6
HETATM    6  N3  UNL     1       3.355   0.869  -1.911  1.00  0.00    -0.358 N 
HETATM    7  C9  UNL     1       4.384   1.359  -1.012  1.00  0.00     0.240 C 
HETATM    8  O2  UNL     1       4.524   0.862   0.111  1.00  0.00    -0.269 OA
ATOM      9  H3  UNL     1       3.264   1.296  -2.833  1.00  0.00     0.162 HD
BRANCH   7  10
HETATM   10  C8  UNL     1       5.207   2.452  -1.534  1.00  0.00     0.070 C 
BRANCH  10  11
HETATM   11  C7  UNL     1       6.436   2.870  -0.886  1.00  0.00    -0.017 C 
BRANCH  11  12
HETATM   12  C6  UNL     1       7.637   2.016  -0.806  1.00  0.00     0.011 C 
HETATM   13  C5  UNL     1       7.549   0.719  -0.096  1.00  0.00     0.028 C 
HETATM   14  C4  UNL     1       9.019   0.219   0.098  1.00  0.00     0.126 C 
HETATM   15  N2  UNL     1       9.504  -0.085  -1.249  1.00  0.00    -0.350 N 
HETATM   16  C3  UNL     1      10.685  -0.822  -1.419  1.00  0.00     0.250 C 
HETATM   17  C29 UNL     1       8.691   0.414  -2.365  1.00  0.00     0.126 C 
HETATM   18  O1  UNL     1      11.102  -1.080  -2.593  1.00  0.00    -0.271 OA
HETATM   19  C28 UNL     1       8.319   1.850  -2.147  1.00  0.00     0.028 C 
BRANCH  16  20
HETATM   20  C2  UNL     1      11.482  -1.322  -0.285  1.00  0.00     0.271 C 
HETATM   21  C1  UNL     1      11.943  -0.190   0.628  1.00  0.00     0.050 C 
BRANCH  20  22
HETATM   22  N1  UNL     1      12.617  -2.068  -0.792  1.00  0.00    -0.067 N 
ATOM     23  H13 UNL     1      13.292  -1.460  -1.256  1.00  0.00     0.275 HD
ATOM     24  H12 UNL     1      13.212  -2.410  -0.037  1.00  0.00     0.275 HD
ATOM     25  H11 UNL     1      12.309  -2.825  -1.402  1.00  0.00     0.275 HD
ENDBRANCH  20  22
ENDBRANCH  16  20
ENDBRANCH  11  12
ENDBRANCH  10  11
ENDBRANCH   7  10
ENDBRANCH   5   6
ENDBRANCH   4   5
ENDBRANCH   3   4
ENDBRANCH   2   3
ENDBRANCH   1   2
BRANCH   1  26
HETATM   26  C15 UNL     1      -1.928   0.527   2.104  1.00  0.00     0.124 C 
BRANCH  26  27
HETATM   27  N4  UNL     1      -2.782  -0.570   2.444  1.00  0.00    -0.342 N 
HETATM   28  C16 UNL     1      -3.778  -1.154   1.656  1.00  0.00     0.329 C 
HETATM   29  O3  UNL     1      -3.979  -0.676   0.491  1.00  0.00    -0.246 OA
HETATM   30  N5  UNL     1      -4.578  -2.231   2.054  1.00  0.00    -0.231 N 
ATOM     31  H5  UNL     1      -4.415  -2.624   2.981  1.00  0.00     0.183 HD
ATOM     32  H4  UNL     1      -2.648  -0.973   3.371  1.00  0.00     0.164 HD
BRANCH  30  33
HETATM   33  S1  UNL     1      -5.830  -2.948   1.082  1.00  0.00     0.284 S 
HETATM   34  O4  UNL     1      -5.531  -4.424   1.020  1.00  0.00    -0.199 OA
HETATM   35  O5  UNL     1      -5.695  -2.415  -0.281  1.00  0.00    -0.199 OA
BRANCH  33  36
HETATM   36  C17 UNL     1      -7.382  -2.741   1.835  1.00  0.00     0.173 A 
HETATM   37  N6  UNL     1      -7.865  -3.638   2.747  1.00  0.00    -0.340 N 
HETATM   38  C18 UNL     1      -9.043  -3.218   3.183  1.00  0.00     0.181 A 
ATOM     39  H6  UNL     1      -7.394  -4.493   3.044  1.00  0.00     0.167 HD
HETATM   40  N7  UNL     1      -9.348  -2.049   2.569  1.00  0.00    -0.353 N 
HETATM   41  C19 UNL     1      -8.333  -1.775   1.756  1.00  0.00     0.054 A 
ATOM     42  H7  UNL     1     -10.190  -1.490   2.704  1.00  0.00     0.166 HD
BRANCH  41  43
HETATM   43  C20 UNL     1      -8.281  -0.601   0.849  1.00  0.00     0.038 C 
HETATM   44  C21 UNL     1      -9.252   0.435   1.349  1.00  0.00     0.011 C 
HETATM   45  C22 UNL     1      -8.715   1.848   1.123  1.00  0.00     0.001 C 
HETATM   46  C23 UNL     1      -8.729   2.257  -0.318  1.00  0.00     0.000 C 
HETATM   47  C24 UNL     1     -10.034   1.860  -0.957  1.00  0.00     0.000 C 
HETATM   48  C25 UNL     1      -9.778   0.680  -1.828  1.00  0.00     0.000 C 
HETATM   49  C26 UNL     1      -9.864  -0.656  -1.146  1.00  0.00     0.001 C 
HETATM   50  C27 UNL     1      -8.532  -1.025  -0.564  1.00  0.00     0.011 C 
ENDBRANCH  41  43
ENDBRANCH  33  36
ENDBRANCH  30  33
ENDBRANCH  26  27
ENDBRANCH   1  26
TORSDOF 15
