REMARK  16 active torsions:
REMARK  status: ('A' for Active; 'I' for Inactive)
REMARK    1  A    between atoms: C2_2  and  C3_3 
REMARK    2  A    between atoms: C3_3  and  C4_4 
REMARK    3  A    between atoms: C4_4  and  C5_5 
REMARK    4  A    between atoms: C5_5  and  C6_6 
REMARK    5  A    between atoms: C6_6  and  C7_7 
REMARK    6  A    between atoms: C7_7  and  C8_8 
REMARK    7  A    between atoms: C8_8  and  C9_10 
REMARK    8  A    between atoms: C9_10  and  C10_11 
REMARK    9  A    between atoms: C10_11  and  C11_12 
REMARK   10  A    between atoms: C11_12  and  C12_13 
REMARK   11  A    between atoms: C12_13  and  C13_14 
REMARK   12  A    between atoms: C13_14  and  C14_15 
REMARK   13  A    between atoms: C15_18  and  O2_19 
REMARK   14  A    between atoms: N3_27  and  C19_28 
REMARK   15  A    between atoms: C28_45  and  C29_46 
REMARK   16  A    between atoms: C29_46  and  C30_47 
ROOT
HETATM    1  C14 UNL     1      -1.010   1.493   1.939  1.00  0.00     0.175 C 
HETATM    2  N1  UNL     1      -1.926   0.441   1.675  1.00  0.00    -0.359 N 
ATOM      3  H1  UNL     1      -2.827   0.812   1.373  1.00  0.00     0.162 HD
HETATM    4  C15 UNL     1      -1.951  -0.929   1.708  1.00  0.00     0.135 C 
HETATM    5  C16 UNL     1      -1.231  -1.956   0.917  1.00  0.00     0.156 C 
HETATM    6  C17 UNL     1      -1.380  -3.348   1.502  1.00  0.00     0.041 C 
HETATM    7  N2  UNL     1      -1.655  -1.916  -0.468  1.00  0.00    -0.331 N 
ATOM      8  H2  UNL     1      -1.472  -1.039  -0.956  1.00  0.00     0.165 HD
HETATM    9  C18 UNL     1      -2.275  -2.900  -1.226  1.00  0.00     0.324 C 
HETATM   10  O3  UNL     1      -1.820  -3.181  -2.398  1.00  0.00    -0.247 OA
HETATM   11  N3  UNL     1      -3.422  -3.685  -0.842  1.00  0.00    -0.288 N 
HETATM   12  C21 UNL     1      -4.546  -3.182  -0.104  1.00  0.00     0.161 C 
HETATM   13  C22 UNL     1      -5.813  -3.304  -0.928  1.00  0.00     0.188 C 
HETATM   14  O4  UNL     1      -6.951  -2.911  -0.295  1.00  0.00    -0.387 OA
HETATM   15  C23 UNL     1      -6.923  -1.771   0.448  1.00  0.00     0.193 C 
HETATM   16  C24 UNL     1      -7.386  -0.522  -0.305  1.00  0.00     0.193 C 
HETATM   17  O5  UNL     1      -6.400   0.064  -1.054  1.00  0.00    -0.387 OA
HETATM   18  C25 UNL     1      -5.502   0.842  -0.365  1.00  0.00     0.187 C 
HETATM   19  C26 UNL     1      -5.455   2.285  -0.787  1.00  0.00     0.148 C 
HETATM   20  N5  UNL     1      -5.640   3.230   0.264  1.00  0.00    -0.357 N 
ATOM     21  H5  UNL     1      -6.590   3.552   0.447  1.00  0.00     0.162 HD
HETATM   22  C27 UNL     1      -4.586   3.763   1.085  1.00  0.00     0.240 C 
HETATM   23  O6  UNL     1      -4.922   4.247   2.188  1.00  0.00    -0.271 OA
HETATM   24  C28 UNL     1      -3.185   3.751   0.682  1.00  0.00     0.177 C 
HETATM   25  N6  UNL     1      -2.281   3.752   1.820  1.00  0.00    -0.346 N 
ATOM     26  H6  UNL     1      -2.002   4.675   2.152  1.00  0.00     0.163 HD
HETATM   27  C33 UNL     1      -1.744   2.692   2.518  1.00  0.00     0.241 C 
HETATM   28  O7  UNL     1      -1.857   2.677   3.801  1.00  0.00    -0.271 OA
ENDROOT
BRANCH   1  29
HETATM   29  C13 UNL     1      -0.100   1.986   0.894  1.00  0.00     0.035 C 
BRANCH  29  30
HETATM   30  C12 UNL     1       0.907   1.073   0.307  1.00  0.00     0.002 C 
BRANCH  30  31
HETATM   31  C11 UNL     1       1.869   0.521   1.342  1.00  0.00     0.000 C 
BRANCH  31  32
HETATM   32  C10 UNL     1       2.909  -0.392   0.752  1.00  0.00     0.007 C 
BRANCH  32  33
HETATM   33  C9  UNL     1       3.765   0.295  -0.268  1.00  0.00     0.078 C 
BRANCH  33  34
HETATM   34  C8  UNL     1       4.766  -0.661  -0.801  1.00  0.00     0.127 C 
HETATM   35  O1  UNL     1       4.404  -1.463  -1.634  1.00  0.00    -0.298 OA
BRANCH  34  36
HETATM   36  C7  UNL     1       6.194  -0.632  -0.319  1.00  0.00     0.078 C 
BRANCH  36  37
HETATM   37  C6  UNL     1       7.008  -1.699  -1.020  1.00  0.00     0.007 C 
BRANCH  37  38
HETATM   38  C5  UNL     1       8.428  -1.610  -0.492  1.00  0.00     0.000 C 
BRANCH  38  39
HETATM   39  C4  UNL     1       9.269  -2.662  -1.174  1.00  0.00     0.000 C 
BRANCH  39  40
HETATM   40  C3  UNL     1      10.695  -2.627  -0.700  1.00  0.00    -0.000 C 
BRANCH  40  41
HETATM   41  C2  UNL     1      11.357  -1.291  -0.971  1.00  0.00    -0.005 C 
HETATM   42  C1  UNL     1      12.788  -1.392  -0.444  1.00  0.00     0.005 C 
ENDBRANCH  40  41
ENDBRANCH  39  40
ENDBRANCH  38  39
ENDBRANCH  37  38
ENDBRANCH  36  37
ENDBRANCH  34  36
ENDBRANCH  33  34
ENDBRANCH  32  33
ENDBRANCH  31  32
ENDBRANCH  30  31
ENDBRANCH  29  30
ENDBRANCH   1  29
BRANCH   4  43
HETATM   43  O2  UNL     1      -2.758  -1.461   2.592  1.00  0.00    -0.348 OA
ATOM     44  H2  UNL     1      -2.775  -2.411   2.615  1.00  0.00     0.219 HD
ENDBRANCH   4  43
BRANCH  24  45
HETATM   45  C29 UNL     1      -2.811   4.813  -0.275  1.00  0.00     0.038 C 
BRANCH  45  46
HETATM   46  C30 UNL     1      -2.941   6.233   0.081  1.00  0.00    -0.020 C 
HETATM   47  C31 UNL     1      -4.283   6.787   0.404  1.00  0.00     0.009 C 
HETATM   48  C32 UNL     1      -2.390   7.113  -1.070  1.00  0.00     0.009 C 
ENDBRANCH  45  46
ENDBRANCH  24  45
BRANCH  11  49
HETATM   49  C19 UNL     1      -3.376  -5.049  -1.278  1.00  0.00     0.076 C 
HETATM   50  C20 UNL     1      -3.345  -6.169  -0.329  1.00  0.00     0.089 C 
HETATM   51  N4  UNL     1      -3.363  -5.258  -2.533  1.00  0.00    -0.389 N 
ATOM     52  H42 UNL     1      -3.385  -4.480  -3.192  1.00  0.00     0.157 HD
ATOM     53  H41 UNL     1      -3.330  -6.229  -2.843  1.00  0.00     0.157 HD
ENDBRANCH  11  49
TORSDOF 16
