REMARK  17 active torsions:
REMARK  status: ('A' for Active; 'I' for Inactive)
REMARK    1  A    between atoms: C2_2  and  C3_3 
REMARK    2  A    between atoms: C3_3  and  C4_4 
REMARK       I    between atoms: N1_5  and  C5_7 
REMARK       I    between atoms: C5_7  and  N2_9 
REMARK    3  A    between atoms: N2_9  and  C6_10 
REMARK    4  A    between atoms: C6_10  and  C7_11 
REMARK    5  A    between atoms: C6_10  and  C14_18 
REMARK    6  A    between atoms: C7_11  and  C8_12 
REMARK       I    between atoms: C14_18  and  N3_20 
REMARK    7  A    between atoms: N3_20  and  C15_22 
REMARK    8  A    between atoms: C15_22  and  O3_23 
REMARK    9  A    between atoms: C15_22  and  C16_25 
REMARK   10  A    between atoms: C16_25  and  C17_26 
REMARK   11  A    between atoms: C16_25  and  C29_48 
REMARK   12  A    between atoms: C17_26  and  N4_27 
REMARK   13  A    between atoms: C21_31  and  N5_32 
REMARK   14  A    between atoms: C21_31  and  C25_42 
REMARK       I    between atoms: N5_32  and  C22_34 
REMARK       I    between atoms: C22_34  and  N6_36 
REMARK   15  A    between atoms: N6_36  and  C23_38 
REMARK   16  A    between atoms: C23_38  and  O5_40 
REMARK   17  A    between atoms: C25_42  and  O7_44 
ROOT
HETATM    1  C16 UNL     1       0.737  -1.209   0.493  1.00  0.00     0.096 C 
ENDROOT
BRANCH   1   2
HETATM    2  C15 UNL     1      -0.283  -0.292  -0.032  1.00  0.00     0.124 C 
BRANCH   2   3
HETATM    3  N3  UNL     1      -1.649  -0.532  -0.210  1.00  0.00    -0.308 N 
HETATM    4  C14 UNL     1      -2.544   0.474  -0.756  1.00  0.00     0.259 C 
HETATM    5  O2  UNL     1      -1.970   1.553  -1.132  1.00  0.00    -0.270 OA
ATOM      6  H3  UNL     1      -2.029  -1.442   0.052  1.00  0.00     0.170 HD
BRANCH   4   7
HETATM    7  C6  UNL     1      -4.001   0.301  -0.879  1.00  0.00     0.261 C 
BRANCH   7   8
HETATM    8  N2  UNL     1      -4.559   1.360  -1.569  1.00  0.00    -0.381 NA
HETATM    9  C5  UNL     1      -5.100   2.386  -2.238  1.00  0.00     0.393 C 
HETATM   10  N1  UNL     1      -4.875   3.744  -1.719  1.00  0.00    -0.311 N 
HETATM   11  O1  UNL     1      -5.817   2.424  -3.297  1.00  0.00    -0.230 OA
HETATM   12  C4  UNL     1      -5.538   4.129  -0.688  1.00  0.00     0.066 C 
ATOM     13  H1  UNL     1      -4.205   4.368  -2.169  1.00  0.00     0.170 HD
BRANCH  12  14
HETATM   14  C3  UNL     1      -6.526   3.331   0.045  1.00  0.00     0.044 C 
BRANCH  14  15
HETATM   15  C2  UNL     1      -7.933   3.852  -0.010  1.00  0.00     0.001 C 
HETATM   16  C1  UNL     1      -8.097   5.232   0.548  1.00  0.00     0.005 C 
ENDBRANCH  14  15
ENDBRANCH  12  14
ENDBRANCH   7   8
BRANCH   7  17
HETATM   17  C7  UNL     1      -4.421  -1.117  -1.252  1.00  0.00     0.054 C 
BRANCH  17  18
HETATM   18  C8  UNL     1      -5.918  -1.320  -1.059  1.00  0.00    -0.011 C 
HETATM   19  C9  UNL     1      -6.407  -1.108   0.324  1.00  0.00     0.005 C 
HETATM   20  C10 UNL     1      -7.942  -1.268   0.302  1.00  0.00     0.000 C 
HETATM   21  C11 UNL     1      -8.252  -2.699   0.025  1.00  0.00     0.000 C 
HETATM   22  C12 UNL     1      -7.611  -3.197  -1.255  1.00  0.00     0.000 C 
HETATM   23  C13 UNL     1      -6.197  -2.772  -1.444  1.00  0.00     0.005 C 
ENDBRANCH  17  18
ENDBRANCH   7  17
ENDBRANCH   4   7
ENDBRANCH   2   3
BRANCH   2  24
HETATM   24  O3  UNL     1       0.100   0.906  -0.392  1.00  0.00    -0.349 OA
ATOM     25  H3  UNL     1       1.028   1.069  -0.271  1.00  0.00     0.219 HD
ENDBRANCH   2  24
ENDBRANCH   1   2
BRANCH   1  26
HETATM   26  C17 UNL     1       2.013  -0.361   0.584  1.00  0.00     0.285 C 
BRANCH  26  27
HETATM   27  N4  UNL     1       3.174  -1.004   1.034  1.00  0.00     0.089 N 
HETATM   28  C18 UNL     1       4.126   0.019   1.453  1.00  0.00     0.272 C 
HETATM   29  C19 UNL     1       5.331  -0.756   1.936  1.00  0.00     0.033 C 
HETATM   30  C20 UNL     1       6.450  -0.773   0.974  1.00  0.00     0.043 C 
HETATM   31  C21 UNL     1       6.134  -0.580  -0.470  1.00  0.00     0.124 C 
HETATM   32  C27 UNL     1       4.729  -0.880  -0.877  1.00  0.00     0.072 C 
HETATM   33  C28 UNL     1       3.906  -1.739  -0.020  1.00  0.00     0.275 C 
BRANCH  31  34
HETATM   34  N5  UNL     1       6.406   0.798  -0.864  1.00  0.00    -0.324 N 
HETATM   35  C22 UNL     1       7.655   1.444  -0.756  1.00  0.00     0.319 C 
HETATM   36  O4  UNL     1       8.715   0.897  -0.306  1.00  0.00    -0.247 OA
HETATM   37  N6  UNL     1       7.807   2.796  -1.158  1.00  0.00    -0.317 N 
ATOM     38  H6  UNL     1       6.993   3.283  -1.533  1.00  0.00     0.166 HD
ATOM     39  H5  UNL     1       5.631   1.338  -1.248  1.00  0.00     0.165 HD
BRANCH  37  40
HETATM   40  C23 UNL     1       9.057   3.521  -1.064  1.00  0.00     0.217 C 
HETATM   41  C24 UNL     1       8.941   4.742  -0.151  1.00  0.00     0.063 C 
BRANCH  40  42
HETATM   42  O5  UNL     1       9.453   3.873  -2.361  1.00  0.00    -0.377 OA
ATOM     43  H5  UNL     1      10.273   4.349  -2.299  1.00  0.00     0.212 HD
ENDBRANCH  40  42
ENDBRANCH  37  40
ENDBRANCH  31  34
BRANCH  31  44
HETATM   44  C25 UNL     1       7.049  -1.439  -1.266  1.00  0.00     0.287 C 
HETATM   45  O6  UNL     1       7.847  -1.088  -2.129  1.00  0.00    -0.262 OA
BRANCH  44  46
HETATM   46  O7  UNL     1       6.984  -2.819  -0.988  1.00  0.00    -0.325 OA
HETATM   47  C26 UNL     1       7.818  -3.715  -1.692  1.00  0.00     0.213 C 
ENDBRANCH  44  46
ENDBRANCH  31  44
ENDBRANCH  26  27
ENDBRANCH   1  26
BRANCH   1  48
HETATM   48  C29 UNL     1       0.391  -1.795   1.810  1.00  0.00    -0.039 C 
HETATM   49  C30 UNL     1       1.497  -2.725   2.358  1.00  0.00     0.015 C 
HETATM   50  C31 UNL     1       0.037  -0.759   2.849  1.00  0.00     0.015 C 
HETATM   51  C32 UNL     1      -0.809  -2.712   1.694  1.00  0.00     0.015 C 
ENDBRANCH   1  48
TORSDOF 17
