REMARK  19 active torsions:
REMARK  status: ('A' for Active; 'I' for Inactive)
REMARK    1  A    between atoms: C2_2  and  C3_3 
REMARK    2  A    between atoms: C3_3  and  C4_4 
REMARK    3  A    between atoms: C4_4  and  O1_5 
REMARK    4  A    between atoms: O1_5  and  C5_6 
REMARK    5  A    between atoms: C5_6  and  O2_7 
REMARK    6  A    between atoms: C5_6  and  N1_9 
REMARK    7  A    between atoms: C8_12  and  O3_13 
REMARK    8  A    between atoms: C8_12  and  C9_15 
REMARK    9  A    between atoms: C9_15  and  N2_16 
REMARK       I    between atoms: N2_16  and  C10_18 
REMARK       I    between atoms: C10_18  and  N3_20 
REMARK   10  A    between atoms: N3_20  and  C11_21 
REMARK   11  A    between atoms: C11_21  and  C12_22 
REMARK   12  A    between atoms: C11_21  and  C30_48 
REMARK   13  A    between atoms: C12_22  and  N4_23 
REMARK   14  A    between atoms: N4_23  and  C13_25 
REMARK   15  A    between atoms: C13_25  and  O5_26 
REMARK   16  A    between atoms: C13_25  and  C14_28 
REMARK   17  A    between atoms: C14_28  and  N5_29 
REMARK       I    between atoms: N5_29  and  C15_30 
REMARK   18  A    between atoms: C15_30  and  C16_32 
REMARK   19  A    between atoms: C22_40  and  C23_41 
ROOT
HETATM    1  C11 UNL     1      -0.744   1.809  -1.971  1.00  0.00     0.189 C 
ENDROOT
BRANCH   1   2
HETATM    2  N3  UNL     1       0.511   1.267  -2.072  1.00  0.00    -0.389 NA
HETATM    3  C10 UNL     1       1.748   0.653  -2.185  1.00  0.00     0.392 C 
HETATM    4  N2  UNL     1       2.928   1.486  -2.378  1.00  0.00    -0.308 N 
HETATM    5  O4  UNL     1       1.973  -0.570  -2.163  1.00  0.00    -0.230 OA
ATOM      6  H2  UNL     1       2.720   2.475  -2.513  1.00  0.00     0.170 HD
BRANCH   4   7
HETATM    7  C9  UNL     1       4.265   1.189  -2.412  1.00  0.00     0.104 C 
BRANCH   7   8
HETATM    8  C8  UNL     1       5.169   0.895  -1.309  1.00  0.00     0.093 C 
HETATM    9  C7  UNL     1       4.961  -0.215  -0.355  1.00  0.00     0.063 C 
HETATM   10  C6  UNL     1       6.078  -1.248  -0.308  1.00  0.00     0.130 C 
HETATM   11  N1  UNL     1       7.401  -0.678  -0.261  1.00  0.00    -0.341 N 
HETATM   12  C34 UNL     1       7.589   0.620  -0.945  1.00  0.00     0.130 C 
HETATM   13  C33 UNL     1       6.523   0.635  -2.000  1.00  0.00     0.063 C 
BRANCH  11  14
HETATM   14  C5  UNL     1       8.481  -1.313   0.344  1.00  0.00     0.260 C 
BRANCH  14  15
HETATM   15  O1  UNL     1       9.761  -1.030   0.498  1.00  0.00    -0.317 OA
BRANCH  15  16
HETATM   16  C4  UNL     1      10.838  -1.663   1.082  1.00  0.00     0.179 C 
BRANCH  16  17
HETATM   17  C3  UNL     1      12.102  -0.869   0.971  1.00  0.00     0.026 C 
BRANCH  17  18
HETATM   18  C2  UNL     1      13.294  -1.541   1.612  1.00  0.00    -0.002 C 
HETATM   19  C1  UNL     1      13.103  -1.868   3.061  1.00  0.00     0.005 C 
ENDBRANCH  17  18
ENDBRANCH  16  17
ENDBRANCH  15  16
ENDBRANCH  14  15
BRANCH  14  20
HETATM   20  O2  UNL     1       8.163  -2.506   0.912  1.00  0.00    -0.327 OA
ATOM     21  H2  UNL     1       7.242  -2.710   0.801  1.00  0.00     0.221 HD
ENDBRANCH  14  20
ENDBRANCH  11  14
BRANCH   8  22
HETATM   22  O3  UNL     1       5.370   2.060  -0.501  1.00  0.00    -0.384 OA
ATOM     23  H3  UNL     1       5.504   2.773  -1.114  1.00  0.00     0.211 HD
ENDBRANCH   8  22
ENDBRANCH   7   8
ENDBRANCH   4   7
ENDBRANCH   1   2
BRANCH   1  24
HETATM   24  C12 UNL     1      -1.577   0.939  -0.930  1.00  0.00     0.161 C 
BRANCH  24  25
HETATM   25  N4  UNL     1      -2.888   1.483  -0.835  1.00  0.00    -0.368 N 
ATOM     26  H4  UNL     1      -3.122   2.274  -1.435  1.00  0.00     0.161 HD
BRANCH  25  27
HETATM   27  C13 UNL     1      -3.873   1.004   0.026  1.00  0.00     0.154 C 
BRANCH  27  28
HETATM   28  O5  UNL     1      -3.525  -0.025   0.742  1.00  0.00    -0.347 OA
ATOM     29  H5  UNL     1      -4.197  -0.352   1.329  1.00  0.00     0.219 HD
ENDBRANCH  27  28
BRANCH  27  30
HETATM   30  C14 UNL     1      -5.245   1.519   0.197  1.00  0.00     0.161 C 
HETATM   31  C26 UNL     1      -5.185   2.174   1.643  1.00  0.00     0.054 C 
HETATM   32  C27 UNL     1      -6.409   3.065   1.587  1.00  0.00     0.004 C 
HETATM   33  C28 UNL     1      -6.347   3.673   0.200  1.00  0.00     0.004 C 
HETATM   34  C29 UNL     1      -5.452   2.752  -0.629  1.00  0.00     0.054 C 
BRANCH  30  35
HETATM   35  N5  UNL     1      -6.264   0.610   0.174  1.00  0.00    -0.391 NA
HETATM   36  C15 UNL     1      -7.301  -0.283   0.154  1.00  0.00     0.324 C 
HETATM   37  O6  UNL     1      -8.530   0.083   0.273  1.00  0.00    -0.251 OA
BRANCH  36  38
HETATM   38  C16 UNL     1      -7.209  -1.756   0.009  1.00  0.00     0.075 A 
HETATM   39  C17 UNL     1      -6.501  -2.292  -1.024  1.00  0.00    -0.041 A 
HETATM   40  C18 UNL     1      -5.894  -1.458  -2.099  1.00  0.00     0.049 C 
HETATM   41  C19 UNL     1      -6.394  -3.652  -1.064  1.00  0.00     0.032 A 
HETATM   42  C20 UNL     1      -6.987  -4.474  -0.093  1.00  0.00     0.006 A 
HETATM   43  C21 UNL     1      -6.891  -5.961  -0.253  1.00  0.00     0.068 C 
HETATM   44  N6  UNL     1      -7.665  -3.876   0.888  1.00  0.00    -0.362 N 
HETATM   45  C22 UNL     1      -7.806  -2.487   0.985  1.00  0.00     0.030 A 
ATOM     46  H6  UNL     1      -8.102  -4.459   1.602  1.00  0.00     0.165 HD
BRANCH  45  47
HETATM   47  C23 UNL     1      -8.527  -1.894   2.111  1.00  0.00     0.028 C 
HETATM   48  C24 UNL     1      -9.141  -3.083   2.908  1.00  0.00     0.016 C 
HETATM   49  C25 UNL     1      -7.637  -1.164   3.070  1.00  0.00     0.016 C 
ENDBRANCH  45  47
ENDBRANCH  36  38
ENDBRANCH  30  35
ENDBRANCH  27  30
ENDBRANCH  25  27
ENDBRANCH  24  25
ENDBRANCH   1  24
BRANCH   1  50
HETATM   50  C30 UNL     1      -0.710   3.146  -1.227  1.00  0.00     0.015 C 
HETATM   51  C31 UNL     1      -0.151   2.988   0.183  1.00  0.00     0.012 C 
HETATM   52  C32 UNL     1       0.075   4.221  -1.882  1.00  0.00     0.012 C 
ENDBRANCH   1  50
TORSDOF 19
