REMARK  15 active torsions:
REMARK  status: ('A' for Active; 'I' for Inactive)
REMARK    1  A    between atoms: C2_2  and  C3_3 
REMARK    2  A    between atoms: C5_5  and  C6_6 
REMARK    3  A    between atoms: C6_6  and  C7_7 
REMARK    4  A    between atoms: C8_8  and  C10_10 
REMARK    5  A    between atoms: C10_10  and  C11_11 
REMARK    6  A    between atoms: C11_11  and  C12_12 
REMARK    7  A    between atoms: C16_16  and  N1_17 
REMARK    8  A    between atoms: N1_17  and  C17_19 
REMARK    9  A    between atoms: C17_19  and  C18_20 
REMARK   10  A    between atoms: C20_25  and  C21_26 
REMARK       I    between atoms: C21_26  and  N3_28 
REMARK   11  A    between atoms: C26_36  and  O4_37 
REMARK   12  A    between atoms: O4_37  and  C27_38 
REMARK   13  A    between atoms: C27_38  and  C28_40 
REMARK   14  A    between atoms: C28_40  and  C29_41 
REMARK   15  A    between atoms: C29_41  and  C30_42 
ROOT
HETATM    1  C3  UNL     1      -2.796   2.959   0.546  1.00  0.00     0.013 C 
HETATM    2  C4  UNL     1      -1.759   2.075   1.113  1.00  0.00     0.021 C 
HETATM    3  C5  UNL     1      -1.549   0.934   0.096  1.00  0.00    -0.007 C 
HETATM    4  C16 UNL     1      -0.304   1.314  -0.639  1.00  0.00     0.115 C 
HETATM    5  C26 UNL     1      -0.452   2.747  -1.150  1.00  0.00     0.155 C 
HETATM    6  C31 UNL     1      -1.786   3.048  -1.774  1.00  0.00     0.041 C 
HETATM    7  C32 UNL     1      -2.906   2.544  -0.906  1.00  0.00     0.004 C 
HETATM    8  C33 UNL     1      -2.772   1.024  -0.741  1.00  0.00    -0.033 C 
HETATM    9  C34 UNL     1      -4.024   0.578  -0.076  1.00  0.00     0.016 C 
HETATM   10  C35 UNL     1      -2.692   0.347  -2.077  1.00  0.00     0.016 C 
ENDROOT
BRANCH   4  11
HETATM   11  N1  UNL     1       0.921   1.211   0.022  1.00  0.00    -0.411 N 
ATOM     12  H1  UNL     1       1.422   2.086   0.175  1.00  0.00     0.153 HD
BRANCH  11  13
HETATM   13  C17 UNL     1       1.535   0.077   0.492  1.00  0.00     0.149 C 
BRANCH  13  14
HETATM   14  C18 UNL     1       2.999   0.307   0.950  1.00  0.00     0.196 C 
HETATM   15  C19 UNL     1       3.751   0.761  -0.227  1.00  0.00     0.243 C 
HETATM   16  O1  UNL     1       3.918   1.987  -0.306  1.00  0.00    -0.271 OA
HETATM   17  N2  UNL     1       4.311  -0.005  -1.280  1.00  0.00    -0.346 N 
HETATM   18  C20 UNL     1       4.923  -1.295  -1.239  1.00  0.00     0.185 C 
ATOM     19  H2  UNL     1       4.271   0.429  -2.202  1.00  0.00     0.163 HD
HETATM   20  C23 UNL     1       4.086  -2.348  -0.552  1.00  0.00     0.138 C 
HETATM   21  C24 UNL     1       4.080  -2.023   0.898  1.00  0.00     0.222 C 
HETATM   22  O3  UNL     1       4.657  -2.892   1.641  1.00  0.00    -0.273 OA
HETATM   23  N4  UNL     1       3.523  -0.893   1.533  1.00  0.00    -0.341 N 
HETATM   24  C25 UNL     1       3.481  -0.970   2.974  1.00  0.00     0.153 C 
BRANCH  18  25
HETATM   25  C21 UNL     1       6.237  -1.273  -0.571  1.00  0.00     0.240 C 
HETATM   26  O2  UNL     1       6.680  -0.200  -0.119  1.00  0.00    -0.271 OA
HETATM   27  N3  UNL     1       7.001  -2.457  -0.439  1.00  0.00    -0.364 N 
HETATM   28  C22 UNL     1       8.275  -2.426   0.213  1.00  0.00     0.149 C 
ATOM     29  H3  UNL     1       6.642  -3.337  -0.810  1.00  0.00     0.161 HD
ENDBRANCH  18  25
ENDBRANCH  13  14
ENDBRANCH  11  13
ENDBRANCH   4  11
BRANCH   3  30
HETATM   30  C6  UNL     1      -1.513  -0.344   0.884  1.00  0.00     0.040 C 
BRANCH  30  31
HETATM   31  C7  UNL     1      -1.369  -1.572   0.113  1.00  0.00    -0.023 C 
HETATM   32  C8  UNL     1      -2.055  -2.671   0.373  1.00  0.00    -0.087 C 
HETATM   33  C9  UNL     1      -1.744  -3.829  -0.568  1.00  0.00     0.043 C 
BRANCH  32  34
HETATM   34  C10 UNL     1      -2.980  -2.899   1.478  1.00  0.00     0.037 C 
BRANCH  34  35
HETATM   35  C11 UNL     1      -4.398  -3.204   1.196  1.00  0.00     0.031 C 
BRANCH  35  36
HETATM   36  C12 UNL     1      -4.641  -4.401   0.397  1.00  0.00    -0.024 C 
HETATM   37  C13 UNL     1      -5.321  -5.455   0.898  1.00  0.00    -0.091 C 
HETATM   38  C14 UNL     1      -5.846  -5.431   2.278  1.00  0.00     0.042 C 
HETATM   39  C15 UNL     1      -5.553  -6.661   0.061  1.00  0.00     0.042 C 
ENDBRANCH  35  36
ENDBRANCH  34  35
ENDBRANCH  32  34
ENDBRANCH  30  31
ENDBRANCH   3  30
BRANCH   5  40
HETATM   40  O4  UNL     1       0.622   3.044  -1.985  1.00  0.00    -0.314 OA
BRANCH  40  41
HETATM   41  C27 UNL     1       1.432   4.175  -1.799  1.00  0.00     0.259 C 
HETATM   42  O5  UNL     1       1.102   4.879  -0.846  1.00  0.00    -0.265 OA
BRANCH  41  43
HETATM   43  C28 UNL     1       2.579   4.531  -2.649  1.00  0.00     0.121 C 
BRANCH  43  44
HETATM   44  C29 UNL     1       3.047   5.916  -2.349  1.00  0.00     0.123 C 
BRANCH  44  45
HETATM   45  C30 UNL     1       3.558   6.160  -1.002  1.00  0.00     0.172 C 
HETATM   46  O6  UNL     1       3.725   5.277  -0.165  1.00  0.00    -0.648 OA
HETATM   47  O7  UNL     1       3.900   7.468  -0.575  1.00  0.00    -0.648 OA
ENDBRANCH  44  45
ENDBRANCH  43  44
ENDBRANCH  41  43
ENDBRANCH  40  41
ENDBRANCH   5  40
BRANCH   1  48
HETATM   48  C2  UNL     1      -2.719   4.389   0.744  1.00  0.00    -0.032 C 
HETATM   49  C1  UNL     1      -3.588   5.026   1.507  1.00  0.00     0.007 C 
ENDBRANCH   1  48
TORSDOF 15
