REMARK  18 active torsions:
REMARK  status: ('A' for Active; 'I' for Inactive)
REMARK    1  A    between atoms: C2_2  and  N1_3 
REMARK    2  A    between atoms: N1_3  and  C3_4 
REMARK    3  A    between atoms: N1_3  and  C5_6 
REMARK    4  A    between atoms: C5_6  and  C7_8 
REMARK    5  A    between atoms: C7_8  and  N2_9 
REMARK    6  A    between atoms: C7_8  and  C28_40 
REMARK    7  A    between atoms: C8_11  and  O1_12 
REMARK    8  A    between atoms: C8_11  and  N3_14 
REMARK    9  A    between atoms: N3_14  and  C9_16 
REMARK   10  A    between atoms: C9_16  and  C10_17 
REMARK   11  A    between atoms: C10_17  and  C11_18 
REMARK   12  A    between atoms: C11_18  and  C12_19 
REMARK   13  A    between atoms: C12_19  and  C14_21 
REMARK   14  A    between atoms: C20_29  and  C21_30 
REMARK   15  A    between atoms: C21_30  and  N5_31 
REMARK   16  A    between atoms: C25_35  and  O2_36 
REMARK   17  A    between atoms: C28_40  and  C29_41 
REMARK       I    between atoms: C29_41  and  N6_43 
REMARK   18  A    between atoms: N6_43  and  C30_45 
ROOT
HETATM    1  N3  UNL     1      -2.166  -0.575   0.217  1.00  0.00    -0.356 N 
ATOM      2  H3  UNL     1      -2.605  -1.131   0.951  1.00  0.00     0.163 HD
ENDROOT
BRANCH   1   3
HETATM    3  C8  UNL     1      -2.979  -0.239  -0.890  1.00  0.00     0.216 C 
HETATM    4  N2  UNL     1      -4.063   0.449  -0.771  1.00  0.00    -0.327 N 
ATOM      5  H2  UNL     1      -4.586   0.642  -1.625  1.00  0.00     0.169 HD
BRANCH   4   6
HETATM    6  C7  UNL     1      -4.595   0.962   0.439  1.00  0.00     0.030 C 
BRANCH   6   7
HETATM    7  C5  UNL     1      -4.562   2.440   0.602  1.00  0.00     0.126 C 
HETATM    8  C6  UNL     1      -3.115   2.889   0.780  1.00  0.00     0.038 C 
BRANCH   7   9
HETATM    9  N1  UNL     1      -5.215   3.279  -0.287  1.00  0.00    -0.385 N 
BRANCH   9  10
HETATM   10  C2  UNL     1      -4.836   3.436  -1.608  1.00  0.00     0.054 C 
HETATM   11  C1  UNL     1      -6.003   3.607  -2.548  1.00  0.00     0.054 C 
ENDBRANCH   9  10
BRANCH   9  12
HETATM   12  C3  UNL     1      -5.748   4.434   0.340  1.00  0.00     0.118 C 
HETATM   13  C4  UNL     1      -7.090   4.915  -0.079  1.00  0.00     0.026 C 
ENDBRANCH   9  12
ENDBRANCH   7   9
ENDBRANCH   6   7
BRANCH   6  14
HETATM   14  C28 UNL     1      -5.844   0.284   0.838  1.00  0.00     0.081 A 
HETATM   15  C34 UNL     1      -7.149   0.787   0.301  1.00  0.00     0.025 A 
HETATM   16  C35 UNL     1      -7.553   1.170   1.699  1.00  0.00     0.003 A 
HETATM   17  C36 UNL     1      -6.315   0.552   2.258  1.00  0.00     0.025 A 
BRANCH  14  18
HETATM   18  C29 UNL     1      -5.780  -1.184   0.629  1.00  0.00     0.232 C 
HETATM   19  O3  UNL     1      -5.673  -1.953   1.625  1.00  0.00    -0.272 OA
HETATM   20  N6  UNL     1      -5.840  -1.714  -0.703  1.00  0.00    -0.352 N 
ATOM     21  H6  UNL     1      -5.926  -1.058  -1.480  1.00  0.00     0.163 HD
BRANCH  20  22
HETATM   22  C30 UNL     1      -5.786  -3.116  -1.002  1.00  0.00     0.022 C 
HETATM   23  C31 UNL     1      -4.515  -3.776  -0.529  1.00  0.00     0.037 C 
HETATM   24  C32 UNL     1      -5.798  -3.323  -2.525  1.00  0.00     0.037 C 
HETATM   25  C33 UNL     1      -6.974  -3.871  -0.449  1.00  0.00     0.037 C 
ENDBRANCH  20  22
ENDBRANCH  14  18
ENDBRANCH   6  14
ENDBRANCH   4   6
BRANCH   3  26
HETATM   26  O1  UNL     1      -2.601  -0.663  -2.147  1.00  0.00    -0.333 OA
ATOM     27  H1  UNL     1      -1.802  -1.170  -2.235  1.00  0.00     0.220 HD
ENDBRANCH   3  26
ENDBRANCH   1   3
BRANCH   1  28
HETATM   28  C9  UNL     1      -0.801  -0.222   0.420  1.00  0.00     0.123 C 
BRANCH  28  29
HETATM   29  C10 UNL     1       0.134  -0.897  -0.525  1.00  0.00     0.020 C 
BRANCH  29  30
HETATM   30  C11 UNL     1       1.570  -0.543  -0.329  1.00  0.00     0.006 C 
BRANCH  30  31
HETATM   31  C12 UNL     1       2.005  -0.931   1.058  1.00  0.00    -0.014 C 
HETATM   32  C13 UNL     1       1.808  -2.430   1.202  1.00  0.00     0.010 C 
BRANCH  31  33
HETATM   33  C14 UNL     1       3.472  -0.559   1.332  1.00  0.00    -0.006 C 
HETATM   34  C15 UNL     1       3.708  -1.010   2.781  1.00  0.00     0.006 C 
HETATM   35  C16 UNL     1       4.831  -1.997   2.756  1.00  0.00     0.005 C 
HETATM   36  C17 UNL     1       5.002  -2.448   1.342  1.00  0.00    -0.008 C 
HETATM   37  C18 UNL     1       6.449  -2.499   0.890  1.00  0.00     0.030 C 
HETATM   38  C27 UNL     1       4.348  -1.360   0.478  1.00  0.00     0.002 C 
HETATM   39  C19 UNL     1       6.341  -1.966  -0.502  1.00  0.00     0.084 C 
HETATM   40  N4  UNL     1       7.515  -1.712  -1.205  1.00  0.00    -0.408 N 
HETATM   41  C26 UNL     1       5.441  -0.749  -0.288  1.00  0.00     0.041 C 
HETATM   42  C20 UNL     1       8.279  -0.570  -0.841  1.00  0.00     0.117 C 
ATOM     43  H4  UNL     1       7.818  -2.328  -1.960  1.00  0.00     0.154 HD
HETATM   44  C24 UNL     1       7.679   0.360   0.135  1.00  0.00     0.062 C 
HETATM   45  C25 UNL     1       6.174   0.409   0.204  1.00  0.00     0.126 C 
BRANCH  42  46
HETATM   46  C21 UNL     1       8.774   0.138  -2.086  1.00  0.00     0.082 C 
BRANCH  46  47
HETATM   47  N5  UNL     1       9.542   1.286  -1.853  1.00  0.00    -0.400 N 
HETATM   48  C22 UNL     1      10.823   1.177  -1.280  1.00  0.00     0.148 C 
HETATM   49  C23 UNL     1       9.346   2.426  -2.670  1.00  0.00     0.148 C 
ENDBRANCH  46  47
ENDBRANCH  42  46
BRANCH  45  50
HETATM   50  O2  UNL     1       5.895   0.832   1.506  1.00  0.00    -0.395 OA
ATOM     51  H2  UNL     1       4.946   0.863   1.549  1.00  0.00     0.210 HD
ENDBRANCH  45  50
ENDBRANCH  31  33
ENDBRANCH  30  31
ENDBRANCH  29  30
ENDBRANCH  28  29
ENDBRANCH   1  28
TORSDOF 18
