REMARK  13 active torsions:
REMARK  status: ('A' for Active; 'I' for Inactive)
REMARK    1  A    between atoms: C2_2  and  C3_3 
REMARK    2  A    between atoms: C2_2  and  C23_36 
REMARK    3  A    between atoms: C3_3  and  O1_4 
REMARK    4  A    between atoms: C3_3  and  N1_6 
REMARK    5  A    between atoms: C4_7  and  C5_8 
REMARK       I    between atoms: C5_8  and  N2_10 
REMARK    6  A    between atoms: N2_10  and  C6_12 
REMARK    7  A    between atoms: C6_12  and  C7_13 
REMARK    8  A    between atoms: C6_12  and  C14_20 
REMARK    9  A    between atoms: C7_13  and  C8_14 
REMARK   10  A    between atoms: C14_20  and  C15_22 
REMARK       I    between atoms: C15_22  and  N3_24 
REMARK   11  A    between atoms: C26_39  and  N5_40 
REMARK       I    between atoms: N5_40  and  C27_42 
REMARK   12  A    between atoms: C27_42  and  O6_44 
REMARK   13  A    between atoms: O6_44  and  C28_45 
ROOT
HETATM    1  N1  UNL     1      -0.964   2.725  -0.853  1.00  0.00    -0.313 N 
HETATM    2  C4  UNL     1      -2.295   2.119  -1.214  1.00  0.00     0.216 C 
HETATM    3  C17 UNL     1      -3.019   3.308  -1.836  1.00  0.00     0.150 C 
HETATM    4  C18 UNL     1      -2.498   3.634  -3.211  1.00  0.00     0.049 C 
HETATM    5  C19 UNL     1      -4.510   3.166  -1.821  1.00  0.00     0.049 C 
HETATM    6  N4  UNL     1      -2.641   4.358  -0.935  1.00  0.00    -0.038 N 
ATOM      7  H41 UNL     1      -3.262   4.452  -0.131  1.00  0.00     0.281 HD
ATOM      8  H42 UNL     1      -2.789   5.294  -1.311  1.00  0.00     0.281 HD
HETATM    9  C20 UNL     1      -1.237   4.079  -0.572  1.00  0.00     0.196 C 
HETATM   10  C21 UNL     1      -0.451   5.056  -1.454  1.00  0.00     0.070 C 
HETATM   11  C22 UNL     1      -1.042   4.525   0.858  1.00  0.00     0.070 C 
ENDROOT
BRANCH   1  12
HETATM   12  C3  UNL     1       0.168   1.898  -0.929  1.00  0.00     0.146 C 
BRANCH  12  13
HETATM   13  C2  UNL     1       1.549   1.998  -0.648  1.00  0.00    -0.013 C 
HETATM   14  C1  UNL     1       2.184   3.000  -0.137  1.00  0.00     0.023 C 
BRANCH  13  15
HETATM   15  C23 UNL     1       2.420   0.813  -1.026  1.00  0.00     0.022 C 
HETATM   16  C24 UNL     1       3.877   1.073  -0.905  1.00  0.00     0.011 C 
HETATM   17  C25 UNL     1       4.643  -0.156  -1.389  1.00  0.00     0.026 C 
HETATM   18  C26 UNL     1       4.444  -1.250  -0.352  1.00  0.00     0.086 C 
HETATM   19  C32 UNL     1       3.244  -0.961   0.500  1.00  0.00     0.026 C 
HETATM   20  C33 UNL     1       2.074  -0.451  -0.319  1.00  0.00     0.011 C 
BRANCH  18  21
HETATM   21  N5  UNL     1       5.594  -1.275   0.561  1.00  0.00    -0.332 N 
HETATM   22  C27 UNL     1       6.533  -2.335   0.600  1.00  0.00     0.361 C 
HETATM   23  O5  UNL     1       6.388  -3.296  -0.175  1.00  0.00    -0.238 OA
ATOM     24  H5  UNL     1       5.723  -0.490   1.199  1.00  0.00     0.165 HD
BRANCH  22  25
HETATM   25  O6  UNL     1       7.575  -2.288   1.478  1.00  0.00    -0.294 OA
BRANCH  25  26
HETATM   26  C28 UNL     1       8.559  -3.257   1.601  1.00  0.00     0.061 C 
HETATM   27  C29 UNL     1       9.313  -3.407   0.295  1.00  0.00     0.046 C 
HETATM   28  C30 UNL     1       9.568  -2.758   2.640  1.00  0.00     0.046 C 
HETATM   29  C31 UNL     1       8.060  -4.606   2.088  1.00  0.00     0.046 C 
ENDBRANCH  25  26
ENDBRANCH  22  25
ENDBRANCH  18  21
ENDBRANCH  13  15
ENDBRANCH  12  13
BRANCH  12  30
HETATM   30  O1  UNL     1      -0.114   0.650  -1.402  1.00  0.00    -0.346 OA
ATOM     31  H1  UNL     1      -1.043   0.583  -1.591  1.00  0.00     0.219 HD
ENDBRANCH  12  30
ENDBRANCH   1  12
BRANCH   2  32
HETATM   32  C5  UNL     1      -3.016   1.588  -0.065  1.00  0.00     0.243 C 
HETATM   33  O2  UNL     1      -2.854   2.049   1.082  1.00  0.00    -0.271 OA
HETATM   34  N2  UNL     1      -3.947   0.512  -0.184  1.00  0.00    -0.347 N 
ATOM     35  H2  UNL     1      -4.101   0.088  -1.099  1.00  0.00     0.163 HD
BRANCH  34  36
HETATM   36  C6  UNL     1      -4.681   0.004   0.961  1.00  0.00     0.168 C 
BRANCH  36  37
HETATM   37  C7  UNL     1      -4.171  -1.285   1.475  1.00  0.00     0.072 C 
BRANCH  37  38
HETATM   38  C8  UNL     1      -4.175  -2.448   0.594  1.00  0.00    -0.056 A 
HETATM   39  C9  UNL     1      -5.285  -3.297   0.582  1.00  0.00     0.007 A 
HETATM   40  C10 UNL     1      -5.257  -4.428  -0.255  1.00  0.00     0.001 A 
HETATM   41  C11 UNL     1      -4.190  -4.717  -1.045  1.00  0.00     0.000 A 
HETATM   42  C12 UNL     1      -3.106  -3.887  -1.033  1.00  0.00     0.001 A 
HETATM   43  C13 UNL     1      -3.125  -2.778  -0.218  1.00  0.00     0.007 A 
ENDBRANCH  37  38
ENDBRANCH  36  37
BRANCH  36  44
HETATM   44  C14 UNL     1      -6.101   0.018   0.623  1.00  0.00     0.239 C 
HETATM   45  O3  UNL     1      -6.497   0.319  -0.563  1.00  0.00    -0.285 OA
BRANCH  44  46
HETATM   46  C15 UNL     1      -7.143  -0.291   1.559  1.00  0.00     0.289 C 
HETATM   47  O4  UNL     1      -6.917  -0.582   2.753  1.00  0.00    -0.264 OA
HETATM   48  N3  UNL     1      -8.549  -0.297   1.200  1.00  0.00    -0.359 N 
HETATM   49  C16 UNL     1      -9.553  -0.622   2.168  1.00  0.00     0.149 C 
ATOM     50  H3  UNL     1      -8.826  -0.067   0.246  1.00  0.00     0.162 HD
ENDBRANCH  44  46
ENDBRANCH  36  44
ENDBRANCH  34  36
ENDBRANCH   2  32
TORSDOF 13
