REMARK  13 active torsions:
REMARK  status: ('A' for Active; 'I' for Inactive)
REMARK    1  A    between atoms: C2_2  and  C3_3 
REMARK    2  A    between atoms: C3_3  and  C5_5 
REMARK    3  A    between atoms: C5_5  and  N1_6 
REMARK    4  A    between atoms: C5_5  and  C17_24 
REMARK       I    between atoms: N1_6  and  C6_8 
REMARK    5  A    between atoms: C6_8  and  C7_10 
REMARK    6  A    between atoms: C7_10  and  N2_11 
REMARK    7  A    between atoms: C7_10  and  C13_20 
REMARK       I    between atoms: N2_11  and  C8_13 
REMARK    8  A    between atoms: C8_13  and  O3_15 
REMARK    9  A    between atoms: O3_15  and  C9_16 
REMARK       I    between atoms: C17_24  and  N3_26 
REMARK   10  A    between atoms: C23_32  and  C24_33 
REMARK   11  A    between atoms: C26_40  and  C27_41 
REMARK   12  A    between atoms: C27_41  and  O8_43 
REMARK   13  A    between atoms: O8_43  and  C28_44 
ROOT
HETATM    1  C17 UNL     1      -0.559  -0.609  -0.381  1.00  0.00     0.243 C 
HETATM    2  O4  UNL     1      -0.311  -1.304   0.639  1.00  0.00    -0.271 OA
HETATM    3  N3  UNL     1      -1.774   0.084  -0.420  1.00  0.00    -0.334 N 
HETATM    4  C18 UNL     1      -2.242   0.956  -1.460  1.00  0.00     0.129 C 
HETATM    5  C19 UNL     1      -2.795   2.131  -0.674  1.00  0.00     0.061 C 
HETATM    6  C20 UNL     1      -3.536   1.393   0.440  1.00  0.00     0.157 C 
HETATM    7  C21 UNL     1      -4.973   1.325   0.036  1.00  0.00     0.042 C 
HETATM    8  C22 UNL     1      -5.471   2.733  -0.228  1.00  0.00     0.019 C 
HETATM    9  C23 UNL     1      -4.883   3.752   0.702  1.00  0.00     0.112 C 
HETATM   10  C25 UNL     1      -4.458   3.023   1.969  1.00  0.00     0.248 C 
HETATM   11  N4  UNL     1      -3.336   2.191   1.640  1.00  0.00    -0.063 N 
ATOM     12  H41 UNL     1      -2.484   2.747   1.566  1.00  0.00     0.278 HD
ATOM     13  H42 UNL     1      -3.083   1.597   2.430  1.00  0.00     0.278 HD
HETATM   14  C26 UNL     1      -2.846   0.086   0.594  1.00  0.00     0.223 C 
ENDROOT
BRANCH   1  15
HETATM   15  C5  UNL     1       0.435  -0.565  -1.451  1.00  0.00     0.180 C 
BRANCH  15  16
HETATM   16  C3  UNL     1      -0.024  -1.132  -2.731  1.00  0.00     0.013 C 
HETATM   17  C4  UNL     1       0.628  -0.544  -3.947  1.00  0.00     0.012 C 
BRANCH  16  18
HETATM   18  C2  UNL     1      -0.158  -2.642  -2.812  1.00  0.00     0.002 C 
HETATM   19  C1  UNL     1       1.152  -3.354  -2.971  1.00  0.00     0.005 C 
ENDBRANCH  16  18
ENDBRANCH  15  16
BRANCH  15  20
HETATM   20  N1  UNL     1       1.743  -1.032  -1.015  1.00  0.00    -0.346 N 
HETATM   21  C6  UNL     1       2.865  -0.230  -0.828  1.00  0.00     0.242 C 
HETATM   22  O1  UNL     1       2.713   1.010  -1.046  1.00  0.00    -0.271 OA
ATOM     23  H1  UNL     1       1.846  -2.030  -0.831  1.00  0.00     0.163 HD
BRANCH  21  24
HETATM   24  C7  UNL     1       4.192  -0.674  -0.404  1.00  0.00     0.186 C 
BRANCH  24  25
HETATM   25  N2  UNL     1       4.957   0.360   0.295  1.00  0.00    -0.323 N 
HETATM   26  C8  UNL     1       6.081   1.025  -0.200  1.00  0.00     0.362 C 
HETATM   27  O2  UNL     1       6.595   0.826  -1.328  1.00  0.00    -0.238 OA
ATOM     28  H2  UNL     1       4.640   0.619   1.229  1.00  0.00     0.165 HD
BRANCH  26  29
HETATM   29  O3  UNL     1       6.698   1.983   0.595  1.00  0.00    -0.294 OA
BRANCH  29  30
HETATM   30  C9  UNL     1       7.840   2.705   0.170  1.00  0.00     0.061 C 
HETATM   31  C10 UNL     1       9.014   1.841  -0.152  1.00  0.00     0.046 C 
HETATM   32  C11 UNL     1       7.543   3.652  -0.965  1.00  0.00     0.046 C 
HETATM   33  C12 UNL     1       8.241   3.568   1.376  1.00  0.00     0.046 C 
ENDBRANCH  29  30
ENDBRANCH  26  29
ENDBRANCH  24  25
BRANCH  24  34
HETATM   34  C13 UNL     1       4.335  -1.947   0.325  1.00  0.00    -0.022 C 
HETATM   35  C14 UNL     1       3.507  -1.953   1.603  1.00  0.00     0.017 C 
HETATM   36  C15 UNL     1       4.108  -3.208  -0.410  1.00  0.00     0.017 C 
HETATM   37  C16 UNL     1       5.824  -2.010   0.802  1.00  0.00     0.017 C 
ENDBRANCH  24  34
ENDBRANCH  21  24
ENDBRANCH  15  20
ENDBRANCH   1  15
BRANCH  14  38
HETATM   38  C27 UNL     1      -3.688  -1.112   0.473  1.00  0.00     0.284 C 
HETATM   39  O7  UNL     1      -3.524  -2.005  -0.436  1.00  0.00    -0.263 OA
BRANCH  38  40
HETATM   40  O8  UNL     1      -4.732  -1.377   1.340  1.00  0.00    -0.314 OA
BRANCH  40  41
HETATM   41  C28 UNL     1      -5.549  -2.539   1.237  1.00  0.00     0.132 C 
HETATM   42  C29 UNL     1      -5.533  -3.341   2.517  1.00  0.00     0.032 C 
HETATM   43  C30 UNL     1      -6.937  -3.376   3.038  1.00  0.00     0.002 C 
HETATM   44  C31 UNL     1      -7.837  -2.741   2.029  1.00  0.00     0.002 C 
HETATM   45  C32 UNL     1      -6.955  -2.113   0.978  1.00  0.00     0.032 C 
ENDBRANCH  40  41
ENDBRANCH  38  40
ENDBRANCH  14  38
BRANCH   9  46
HETATM   46  C24 UNL     1      -5.904   4.747   1.104  1.00  0.00     0.178 C 
HETATM   47  O5  UNL     1      -5.722   5.952   0.820  1.00  0.00    -0.648 OA
HETATM   48  O6  UNL     1      -7.066   4.368   1.793  1.00  0.00    -0.648 OA
ENDBRANCH   9  46
TORSDOF 13
