REMARK  13 active torsions:
REMARK  status: ('A' for Active; 'I' for Inactive)
REMARK    1  A    between atoms: C2_2  and  C3_3 
REMARK    2  A    between atoms: C3_3  and  C6_6 
REMARK       I    between atoms: C6_6  and  N1_8 
REMARK    3  A    between atoms: C7_10  and  C8_11 
REMARK    4  A    between atoms: C7_10  and  C11_20 
REMARK    5  A    between atoms: C8_11  and  C9_12 
REMARK    6  A    between atoms: C9_12  and  C10_13 
REMARK       I    between atoms: C10_13  and  N2_15 
REMARK    7  A    between atoms: N2_15  and  N3_17 
REMARK    8  A    between atoms: C16_25  and  O3_26 
REMARK    9  A    between atoms: C24_35  and  O4_36 
REMARK   10  A    between atoms: C27_40  and  O5_41 
REMARK   11  A    between atoms: O5_41  and  C28_42 
REMARK   12  A    between atoms: C28_42  and  C29_44 
REMARK   13  A    between atoms: C29_44  and  N4_45 
ROOT
HETATM    1  C11 UNL     1       2.698   0.803  -0.324  1.00  0.00     0.032 C 
HETATM    2  C12 UNL     1       2.276   1.576   0.916  1.00  0.00     0.011 C 
HETATM    3  C13 UNL     1       0.814   1.774   0.620  1.00  0.00     0.013 C 
HETATM    4  C14 UNL     1       0.365   0.535  -0.177  1.00  0.00    -0.009 C 
HETATM    5  C15 UNL     1       1.633  -0.168  -0.601  1.00  0.00     0.023 C 
HETATM    6  C16 UNL     1      -0.455   1.066  -1.319  1.00  0.00     0.128 C 
HETATM    7  C17 UNL     1      -1.814   0.392  -1.289  1.00  0.00     0.042 C 
HETATM    8  C18 UNL     1      -1.744  -0.670  -0.273  1.00  0.00    -0.027 C 
HETATM    9  C19 UNL     1      -1.400  -1.920  -1.014  1.00  0.00     0.016 C 
HETATM   10  C20 UNL     1      -0.591  -0.226   0.615  1.00  0.00     0.005 C 
HETATM   11  C21 UNL     1      -0.198  -1.486   1.298  1.00  0.00     0.007 C 
HETATM   12  C22 UNL     1      -1.286  -1.759   2.322  1.00  0.00     0.008 C 
HETATM   13  C23 UNL     1      -2.697  -1.679   1.833  1.00  0.00     0.026 C 
HETATM   14  C24 UNL     1      -3.258  -3.058   1.848  1.00  0.00     0.123 C 
HETATM   15  C25 UNL     1      -4.310  -3.396   0.867  1.00  0.00     0.034 C 
HETATM   16  C26 UNL     1      -4.448  -2.552  -0.321  1.00  0.00     0.036 C 
HETATM   17  C27 UNL     1      -4.166  -1.081  -0.133  1.00  0.00     0.141 C 
HETATM   18  C33 UNL     1      -2.933  -0.784   0.657  1.00  0.00    -0.004 C 
HETATM   19  C34 UNL     1      -3.128   0.639   1.221  1.00  0.00     0.019 C 
ENDROOT
BRANCH   6  20
HETATM   20  O3  UNL     1       0.237   0.887  -2.494  1.00  0.00    -0.395 OA
ATOM     21  H3  UNL     1      -0.281   1.223  -3.216  1.00  0.00     0.210 HD
ENDBRANCH   6  20
BRANCH   1  22
HETATM   22  C7  UNL     1       4.074   0.410  -0.181  1.00  0.00    -0.006 C 
HETATM   23  N1  UNL     1       4.854   0.736  -1.204  1.00  0.00    -0.333 N 
HETATM   24  C6  UNL     1       6.211   0.470  -1.301  1.00  0.00     0.229 C 
ATOM     25  H1  UNL     1       4.418   1.224  -1.986  1.00  0.00     0.168 HD
HETATM   26  O1  UNL     1       6.589  -0.712  -1.560  1.00  0.00    -0.272 OA
BRANCH  24  27
HETATM   27  C3  UNL     1       7.267   1.493  -1.119  1.00  0.00     0.034 C 
HETATM   28  C4  UNL     1       7.148   2.293   0.135  1.00  0.00     0.025 C 
HETATM   29  C5  UNL     1       7.137   2.449  -2.313  1.00  0.00     0.025 C 
BRANCH  27  30
HETATM   30  C2  UNL     1       8.658   0.873  -1.206  1.00  0.00     0.014 C 
HETATM   31  C1  UNL     1       9.731   1.915  -1.213  1.00  0.00     0.006 C 
ENDBRANCH  27  30
ENDBRANCH  24  27
BRANCH  22  32
HETATM   32  C8  UNL     1       4.754  -0.292   0.913  1.00  0.00     0.062 C 
BRANCH  32  33
HETATM   33  C9  UNL     1       4.119  -1.636   1.145  1.00  0.00     0.110 C 
BRANCH  33  34
HETATM   34  C10 UNL     1       4.842  -2.396   2.214  1.00  0.00     0.235 C 
HETATM   35  O2  UNL     1       5.830  -1.837   2.744  1.00  0.00    -0.272 OA
HETATM   36  N2  UNL     1       4.407  -3.682   2.584  1.00  0.00    -0.277 N 
ATOM     37  H2  UNL     1       3.595  -4.082   2.114  1.00  0.00     0.189 HD
BRANCH  36  38
HETATM   38  N3  UNL     1       5.044  -4.422   3.565  1.00  0.00    -0.343 N 
ATOM     39  H32 UNL     1       5.854  -4.007   4.025  1.00  0.00     0.176 HD
ATOM     40  H31 UNL     1       4.729  -5.354   3.833  1.00  0.00     0.176 HD
ENDBRANCH  36  38
ENDBRANCH  33  34
ENDBRANCH  32  33
ENDBRANCH  22  32
ENDBRANCH   1  22
BRANCH  17  41
HETATM   41  O5  UNL     1      -5.290  -0.328   0.176  1.00  0.00    -0.314 OA
BRANCH  41  42
HETATM   42  C28 UNL     1      -5.972   0.561  -0.628  1.00  0.00     0.285 C 
HETATM   43  O6  UNL     1      -5.477   0.661  -1.764  1.00  0.00    -0.263 OA
BRANCH  42  44
HETATM   44  C29 UNL     1      -7.141   1.264  -0.112  1.00  0.00     0.346 C 
BRANCH  44  45
HETATM   45  N4  UNL     1      -7.843   2.105  -1.015  1.00  0.00    -0.070 N 
HETATM   46  C30 UNL     1      -8.849   1.255  -1.679  1.00  0.00     0.272 C 
HETATM   47  C31 UNL     1      -7.085   2.707  -2.065  1.00  0.00     0.272 C 
HETATM   48  C32 UNL     1      -8.604   3.148  -0.341  1.00  0.00     0.272 C 
ENDBRANCH  44  45
ENDBRANCH  42  44
ENDBRANCH  41  42
ENDBRANCH  17  41
BRANCH  14  49
HETATM   49  O4  UNL     1      -2.251  -4.066   1.934  1.00  0.00    -0.395 OA
ATOM     50  H4  UNL     1      -2.609  -4.946   1.944  1.00  0.00     0.210 HD
ENDBRANCH  14  49
TORSDOF 13
