REMARK  13 active torsions:
REMARK  status: ('A' for Active; 'I' for Inactive)
REMARK       I    between atoms: N1_2  and  C2_4 
REMARK       I    between atoms: C2_4  and  N2_6 
REMARK    1  A    between atoms: N2_6  and  C3_8 
REMARK    2  A    between atoms: C5_10  and  C6_11 
REMARK    3  A    between atoms: C6_11  and  O2_12 
REMARK    4  A    between atoms: C6_11  and  N3_14 
REMARK    5  A    between atoms: N3_14  and  C7_16 
REMARK    6  A    between atoms: C16_26  and  N4_27 
REMARK    7  A    between atoms: N4_27  and  C17_29 
REMARK    8  A    between atoms: C17_29  and  C18_30 
REMARK    9  A    between atoms: C18_30  and  O4_31 
REMARK   10  A    between atoms: C21_34  and  N5_35 
REMARK   11  A    between atoms: N6_40  and  C26_41 
REMARK   12  A    between atoms: C26_41  and  O5_42 
REMARK   13  A    between atoms: C26_41  and  N7_44 
ROOT
HETATM    1  C6  UNL     1       0.214  -0.373  -0.552  1.00  0.00     0.121 C 
ENDROOT
BRANCH   1   2
HETATM    2  C5  UNL     1       1.411   0.390  -0.760  1.00  0.00     0.080 C 
HETATM    3  C4  UNL     1       2.077  -0.227  -1.995  1.00  0.00     0.041 C 
HETATM    4  C3  UNL     1       3.568  -0.180  -1.957  1.00  0.00     0.105 C 
HETATM    5  C33 UNL     1       4.080   1.096  -1.362  1.00  0.00     0.151 C 
HETATM    6  N6  UNL     1       3.629   1.138  -0.002  1.00  0.00    -0.345 N 
HETATM    7  C25 UNL     1       2.310   0.561   0.370  1.00  0.00     0.139 C 
BRANCH   4   8
HETATM    8  N2  UNL     1       4.210  -1.345  -1.401  1.00  0.00    -0.337 N 
HETATM    9  C2  UNL     1       4.131  -2.609  -2.030  1.00  0.00     0.316 C 
HETATM   10  N1  UNL     1       4.766  -3.778  -1.598  1.00  0.00    -0.347 N 
HETATM   11  O1  UNL     1       3.416  -2.692  -3.084  1.00  0.00    -0.247 OA
HETATM   12  C1  UNL     1       4.488  -5.027  -2.277  1.00  0.00     0.151 C 
ATOM     13  H1  UNL     1       5.418  -3.751  -0.814  1.00  0.00     0.163 HD
ATOM     14  H2  UNL     1       4.735  -1.255  -0.531  1.00  0.00     0.164 HD
ENDBRANCH   4   8
BRANCH   6  15
HETATM   15  C26 UNL     1       4.345   1.769   1.019  1.00  0.00     0.218 C 
BRANCH  15  16
HETATM   16  O5  UNL     1       3.717   1.859   2.185  1.00  0.00    -0.332 OA
ATOM     17  H5  UNL     1       4.204   2.288   2.879  1.00  0.00     0.220 HD
ENDBRANCH  15  16
BRANCH  15  18
HETATM   18  N7  UNL     1       5.622   2.347   1.068  1.00  0.00    -0.339 N 
HETATM   19  C27 UNL     1       6.698   2.406   0.125  1.00  0.00     0.084 C 
HETATM   20  C28 UNL     1       7.491   1.089   0.019  1.00  0.00     0.032 C 
HETATM   21  C29 UNL     1       7.746   3.381   0.702  1.00  0.00     0.027 C 
HETATM   22  C30 UNL     1       7.544   3.114   2.187  1.00  0.00     0.027 C 
HETATM   23  C31 UNL     1       6.048   3.125   2.255  1.00  0.00     0.084 C 
HETATM   24  C32 UNL     1       5.584   4.564   1.988  1.00  0.00     0.032 C 
ENDBRANCH  15  18
ENDBRANCH   6  15
ENDBRANCH   1   2
BRANCH   1  25
HETATM   25  O2  UNL     1      -0.327  -0.702  -1.758  1.00  0.00    -0.349 OA
ATOM     26  H2  UNL     1      -1.120  -1.207  -1.620  1.00  0.00     0.219 HD
ENDBRANCH   1  25
BRANCH   1  27
HETATM   27  N3  UNL     1      -0.543  -0.867   0.536  1.00  0.00    -0.343 N 
ATOM     28  H3  UNL     1      -0.233  -0.672   1.488  1.00  0.00     0.167 HD
BRANCH  27  29
HETATM   29  C7  UNL     1      -1.694  -1.608   0.339  1.00  0.00     0.028 C 
HETATM   30  C8  UNL     1      -1.606  -2.993   0.921  1.00  0.00     0.096 C 
HETATM   31  C9  UNL     1      -2.345  -3.983   0.025  1.00  0.00     0.066 C 
HETATM   32  C10 UNL     1      -1.316  -4.978  -0.470  1.00  0.00     0.046 C 
HETATM   33  C11 UNL     1      -3.447  -4.668   0.802  1.00  0.00     0.046 C 
HETATM   34  O3  UNL     1      -2.952  -3.301  -1.060  1.00  0.00    -0.339 OA
HETATM   35  C12 UNL     1      -3.653  -2.127  -0.848  1.00  0.00     0.089 A 
HETATM   36  C13 UNL     1      -4.851  -1.855  -1.474  1.00  0.00    -0.025 A 
HETATM   37  C24 UNL     1      -3.036  -1.229   0.076  1.00  0.00     0.034 A 
HETATM   38  C14 UNL     1      -5.491  -2.783  -2.438  1.00  0.00     0.051 C 
HETATM   39  C15 UNL     1      -5.448  -0.667  -1.180  1.00  0.00     0.039 A 
HETATM   40  C16 UNL     1      -4.867   0.220  -0.278  1.00  0.00     0.041 A 
HETATM   41  C20 UNL     1      -3.639  -0.069   0.371  1.00  0.00     0.021 A 
HETATM   42  C21 UNL     1      -3.128   0.899   1.281  1.00  0.00     0.103 C 
BRANCH  40  43
HETATM   43  N4  UNL     1      -5.528   1.463  -0.064  1.00  0.00    -0.387 N 
ATOM     44  H4  UNL     1      -5.144   2.144   0.591  1.00  0.00     0.159 HD
BRANCH  43  45
HETATM   45  C17 UNL     1      -6.768   1.755  -0.796  1.00  0.00     0.146 C 
BRANCH  45  46
HETATM   46  C18 UNL     1      -7.205   3.172  -0.560  1.00  0.00     0.186 C 
BRANCH  46  47
HETATM   47  O4  UNL     1      -8.376   3.470  -1.241  1.00  0.00    -0.394 OA
HETATM   48  C19 UNL     1      -8.758   4.805  -1.019  1.00  0.00     0.201 C 
ENDBRANCH  46  47
ENDBRANCH  45  46
ENDBRANCH  43  45
ENDBRANCH  40  43
BRANCH  42  49
HETATM   49  N5  UNL     1      -3.012   0.638   2.660  1.00  0.00    -0.380 N 
HETATM   50  C22 UNL     1      -2.409  -0.277   3.426  1.00  0.00     0.120 C 
HETATM   51  C23 UNL     1      -4.226   1.177   3.362  1.00  0.00     0.153 C 
ENDBRANCH  42  49
ENDBRANCH  27  29
ENDBRANCH   1  27
TORSDOF 13
