REMARK  12 active torsions:
REMARK  status: ('A' for Active; 'I' for Inactive)
REMARK    1  A    between atoms: C2_2  and  C3_3 
REMARK    2  A    between atoms: C3_3  and  O2_5 
REMARK    3  A    between atoms: O2_5  and  C4_6 
REMARK    4  A    between atoms: C12_14  and  C13_15 
REMARK    5  A    between atoms: C13_15  and  C14_16 
REMARK    6  A    between atoms: C14_16  and  C15_17 
REMARK       I    between atoms: C15_17  and  N1_19 
REMARK    7  A    between atoms: C19_23  and  C20_24 
REMARK       I    between atoms: C20_24  and  N2_26 
REMARK    8  A    between atoms: N2_26  and  C21_28 
REMARK    9  A    between atoms: C21_28  and  C22_29 
REMARK   10  A    between atoms: C21_28  and  C24_33 
REMARK   11  A    between atoms: C22_29  and  C23_30 
REMARK   12  A    between atoms: C26_37  and  O9_38 
ROOT
HETATM    1  C4  UNL     1      -4.590  -1.199  -0.640  1.00  0.00     0.144 C 
HETATM    2  C5  UNL     1      -3.197  -0.763  -0.178  1.00  0.00     0.026 C 
HETATM    3  C6  UNL     1      -2.583  -1.827   0.626  1.00  0.00     0.009 C 
HETATM    4  C7  UNL     1      -2.381  -1.678   2.082  1.00  0.00     0.010 C 
HETATM    5  C8  UNL     1      -1.123  -0.890   2.326  1.00  0.00    -0.038 C 
HETATM    6  C9  UNL     1       0.051  -1.809   1.965  1.00  0.00     0.015 C 
HETATM    7  C10 UNL     1      -0.983  -0.430   3.737  1.00  0.00     0.010 C 
HETATM    8  C11 UNL     1      -0.308   0.926   3.711  1.00  0.00     0.006 C 
HETATM    9  C12 UNL     1      -0.101   1.207   2.263  1.00  0.00    -0.007 C 
HETATM   10  C25 UNL     1      -1.012   0.344   1.465  1.00  0.00     0.027 C 
HETATM   11  C26 UNL     1      -2.357   1.031   1.406  1.00  0.00     0.132 C 
HETATM   12  C27 UNL     1      -3.222   0.625   0.252  1.00  0.00    -0.012 C 
HETATM   13  C28 UNL     1      -2.784   1.521  -0.931  1.00  0.00     0.018 C 
HETATM   14  C29 UNL     1      -4.613   1.176   0.591  1.00  0.00     0.013 C 
HETATM   15  C30 UNL     1      -5.512   0.183   1.216  1.00  0.00     0.012 C 
HETATM   16  C31 UNL     1      -5.673  -1.023   0.343  1.00  0.00    -0.021 C 
HETATM   17  C32 UNL     1      -5.939  -2.243   1.200  1.00  0.00     0.017 C 
HETATM   18  C33 UNL     1      -6.965  -0.801  -0.463  1.00  0.00     0.017 C 
ENDROOT
BRANCH   9  19
HETATM   19  C13 UNL     1       1.351   1.151   1.910  1.00  0.00     0.014 C 
BRANCH  19  20
HETATM   20  C14 UNL     1       1.641   1.415   0.474  1.00  0.00     0.103 C 
BRANCH  20  21
HETATM   21  C15 UNL     1       3.108   1.347   0.250  1.00  0.00     0.220 C 
HETATM   22  O3  UNL     1       3.875   1.184   1.265  1.00  0.00    -0.273 OA
HETATM   23  N1  UNL     1       3.668   1.459  -1.050  1.00  0.00    -0.339 N 
HETATM   24  C16 UNL     1       2.875   1.634  -2.251  1.00  0.00     0.127 C 
HETATM   25  C19 UNL     1       5.053   1.428  -1.394  1.00  0.00     0.179 C 
HETATM   26  C17 UNL     1       3.743   0.909  -3.268  1.00  0.00     0.022 C 
HETATM   27  C18 UNL     1       5.107   1.495  -2.925  1.00  0.00     0.037 C 
BRANCH  25  28
HETATM   28  C20 UNL     1       5.764   0.199  -0.985  1.00  0.00     0.241 C 
HETATM   29  O4  UNL     1       5.164  -0.763  -0.410  1.00  0.00    -0.271 OA
HETATM   30  N2  UNL     1       7.158   0.038  -1.218  1.00  0.00    -0.344 N 
ATOM     31  H2  UNL     1       7.665   0.792  -1.681  1.00  0.00     0.163 HD
BRANCH  30  32
HETATM   32  C21 UNL     1       7.892  -1.154  -0.825  1.00  0.00     0.195 C 
BRANCH  32  33
HETATM   33  C22 UNL     1       9.137  -0.750  -0.107  1.00  0.00     0.149 C 
BRANCH  33  34
HETATM   34  C23 UNL     1       8.898   0.040   1.109  1.00  0.00     0.175 C 
HETATM   35  O5  UNL     1       9.889   0.445   1.783  1.00  0.00    -0.648 OA
HETATM   36  O6  UNL     1       7.635   0.372   1.569  1.00  0.00    -0.648 OA
ENDBRANCH  33  34
ENDBRANCH  32  33
BRANCH  32  37
HETATM   37  C24 UNL     1       8.330  -1.912  -2.039  1.00  0.00     0.197 C 
HETATM   38  O7  UNL     1       8.042  -1.478  -3.166  1.00  0.00    -0.646 OA
HETATM   39  O8  UNL     1       9.042  -3.073  -1.889  1.00  0.00    -0.646 OA
ENDBRANCH  32  37
ENDBRANCH  30  32
ENDBRANCH  25  28
ENDBRANCH  20  21
ENDBRANCH  19  20
ENDBRANCH   9  19
BRANCH  11  40
HETATM   40  O9  UNL     1      -3.023   1.026   2.639  1.00  0.00    -0.394 OA
ATOM     41  H9  UNL     1      -3.868   1.458   2.602  1.00  0.00     0.210 HD
ENDBRANCH  11  40
BRANCH   1  42
HETATM   42  O2  UNL     1      -4.884  -0.458  -1.805  1.00  0.00    -0.315 OA
BRANCH  42  43
HETATM   43  C3  UNL     1      -5.050  -1.015  -3.046  1.00  0.00     0.258 C 
HETATM   44  O1  UNL     1      -4.934  -2.253  -3.166  1.00  0.00    -0.265 OA
BRANCH  43  45
HETATM   45  C2  UNL     1      -5.360  -0.128  -4.192  1.00  0.00     0.106 C 
HETATM   46  C1  UNL     1      -5.482   1.311  -3.808  1.00  0.00     0.015 C 
ENDBRANCH  43  45
ENDBRANCH  42  43
ENDBRANCH   1  42
TORSDOF 12
