REMARK  15 active torsions:
REMARK  status: ('A' for Active; 'I' for Inactive)
REMARK    1  A    between atoms: C2_2  and  C4_4 
REMARK    2  A    between atoms: C4_4  and  C5_5 
REMARK    3  A    between atoms: C5_5  and  N1_6 
REMARK    4  A    between atoms: C5_5  and  C32_47 
REMARK    5  A    between atoms: N1_6  and  C6_8 
REMARK    6  A    between atoms: C6_8  and  O1_9 
REMARK    7  A    between atoms: C6_8  and  C7_11 
REMARK    8  A    between atoms: C12_17  and  N2_18 
REMARK       I    between atoms: N2_18  and  C13_20 
REMARK    9  A    between atoms: C13_20  and  C14_22 
REMARK   10  A    between atoms: N3_26  and  C18_27 
REMARK   11  A    between atoms: C18_27  and  O4_28 
REMARK   12  A    between atoms: C19_30  and  N4_31 
REMARK   13  A    between atoms: C19_30  and  C25_40 
REMARK       I    between atoms: N4_31  and  C20_33 
REMARK   14  A    between atoms: C20_33  and  O6_35 
REMARK   15  A    between atoms: O6_35  and  C21_36 
ROOT
HETATM    1  N2  UNL     1      -1.254   0.482   2.071  1.00  0.00    -0.351 N 
ATOM      2  H2  UNL     1      -1.672  -0.403   2.359  1.00  0.00     0.163 HD
HETATM    3  C13 UNL     1       0.178   0.538   2.010  1.00  0.00     0.241 C 
HETATM    4  O3  UNL     1       0.644   1.637   1.634  1.00  0.00    -0.271 OA
ENDROOT
BRANCH   1   5
HETATM    5  C12 UNL     1      -2.122   1.522   1.774  1.00  0.00     0.136 C 
HETATM    6  C7  UNL     1      -3.350   1.502   0.982  1.00  0.00     0.154 C 
HETATM    7  O2  UNL     1      -3.640   2.946   0.977  1.00  0.00    -0.358 OA
HETATM    8  C29 UNL     1      -4.135   1.133   2.173  1.00  0.00     0.002 C 
HETATM    9  C8  UNL     1      -3.348   3.358   2.268  1.00  0.00     0.062 C 
HETATM   10  C9  UNL     1      -2.084   4.244   2.277  1.00  0.00     0.046 C 
HETATM   11  C10 UNL     1      -4.382   4.153   2.980  1.00  0.00     0.046 C 
HETATM   12  C11 UNL     1      -3.089   2.001   2.857  1.00  0.00     0.057 C 
HETATM   13  C30 UNL     1      -4.247  -0.240   2.697  1.00  0.00     0.019 C 
HETATM   14  C31 UNL     1      -5.526   1.729   2.041  1.00  0.00     0.019 C 
BRANCH   6  15
HETATM   15  C6  UNL     1      -3.499   0.926  -0.307  1.00  0.00     0.150 C 
BRANCH  15  16
HETATM   16  N1  UNL     1      -3.499  -0.403  -0.767  1.00  0.00    -0.357 N 
ATOM     17  H1  UNL     1      -3.370  -1.149  -0.084  1.00  0.00     0.162 HD
BRANCH  16  18
HETATM   18  C5  UNL     1      -3.673  -0.772  -2.161  1.00  0.00     0.184 C 
BRANCH  18  19
HETATM   19  C4  UNL     1      -5.093  -1.111  -2.493  1.00  0.00     0.040 C 
BRANCH  19  20
HETATM   20  C2  UNL     1      -5.696  -2.236  -1.725  1.00  0.00    -0.020 C 
HETATM   21  C1  UNL     1      -5.042  -3.564  -1.855  1.00  0.00     0.009 C 
HETATM   22  C3  UNL     1      -7.159  -2.405  -2.134  1.00  0.00     0.009 C 
ENDBRANCH  19  20
ENDBRANCH  18  19
BRANCH  18  23
HETATM   23  C32 UNL     1      -2.677  -1.765  -2.541  1.00  0.00     0.196 C 
HETATM   24  O7  UNL     1      -1.860  -2.273  -1.713  1.00  0.00    -0.646 OA
HETATM   25  O8  UNL     1      -2.543  -2.230  -3.846  1.00  0.00    -0.646 OA
ENDBRANCH  18  23
ENDBRANCH  16  18
ENDBRANCH  15  16
BRANCH  15  26
HETATM   26  O1  UNL     1      -3.678   1.780  -1.274  1.00  0.00    -0.347 OA
ATOM     27  H1  UNL     1      -3.678   2.678  -0.963  1.00  0.00     0.219 HD
ENDBRANCH  15  26
ENDBRANCH   6  15
ENDBRANCH   1   5
BRANCH   3  28
HETATM   28  C14 UNL     1       1.107  -0.546   2.343  1.00  0.00     0.178 C 
HETATM   29  C15 UNL     1       0.924  -0.971   3.824  1.00  0.00     0.037 C 
HETATM   30  C16 UNL     1       1.837  -0.031   4.527  1.00  0.00     0.022 C 
HETATM   31  C17 UNL     1       2.775   0.527   3.523  1.00  0.00     0.126 C 
HETATM   32  N3  UNL     1       2.485  -0.193   2.226  1.00  0.00    -0.347 N 
BRANCH  32  33
HETATM   33  C18 UNL     1       3.513  -0.309   1.293  1.00  0.00     0.163 C 
HETATM   34  C19 UNL     1       3.705  -0.793  -0.032  1.00  0.00     0.072 C 
BRANCH  33  35
HETATM   35  O4  UNL     1       4.671   0.192   1.812  1.00  0.00    -0.345 OA
ATOM     36  H4  UNL     1       5.372   0.113   1.176  1.00  0.00     0.219 HD
ENDBRANCH  33  35
BRANCH  34  37
HETATM   37  N4  UNL     1       5.126  -0.759  -0.419  1.00  0.00    -0.301 N 
HETATM   38  C20 UNL     1       5.642   0.099  -1.412  1.00  0.00     0.365 C 
HETATM   39  O5  UNL     1       4.889   0.916  -2.047  1.00  0.00    -0.238 OA
ATOM     40  H4  UNL     1       5.771  -1.390   0.057  1.00  0.00     0.171 HD
BRANCH  38  41
HETATM   41  O6  UNL     1       6.977   0.120  -1.767  1.00  0.00    -0.294 OA
BRANCH  41  42
HETATM   42  C21 UNL     1       7.462   0.991  -2.758  1.00  0.00     0.061 C 
HETATM   43  C22 UNL     1       6.809   0.783  -4.114  1.00  0.00     0.046 C 
HETATM   44  C23 UNL     1       7.271   2.442  -2.387  1.00  0.00     0.046 C 
HETATM   45  C24 UNL     1       8.975   0.754  -2.866  1.00  0.00     0.046 C 
ENDBRANCH  41  42
ENDBRANCH  38  41
ENDBRANCH  34  37
BRANCH  34  46
HETATM   46  C25 UNL     1       3.038  -1.970  -0.612  1.00  0.00    -0.004 C 
HETATM   47  C26 UNL     1       3.623  -2.236  -2.045  1.00  0.00     0.021 C 
HETATM   48  C27 UNL     1       1.563  -1.676  -0.962  1.00  0.00     0.021 C 
HETATM   49  C28 UNL     1       3.096  -3.247   0.125  1.00  0.00     0.021 C 
ENDBRANCH  34  46
ENDBRANCH  32  33
ENDBRANCH   3  28
TORSDOF 15
