REMARK  11 active torsions:
REMARK  status: ('A' for Active; 'I' for Inactive)
REMARK    1  A    between atoms: C2_2  and  C4_4 
REMARK    2  A    between atoms: C4_4  and  N1_5 
REMARK    3  A    between atoms: N1_5  and  N2_7 
REMARK    4  A    between atoms: N2_7  and  C5_8 
REMARK    5  A    between atoms: N2_7  and  S1_43 
REMARK    6  A    between atoms: C5_8  and  C6_9 
REMARK    7  A    between atoms: C10_13  and  O1_14 
REMARK    8  A    between atoms: C12_16  and  O2_17 
REMARK    9  A    between atoms: C18_24  and  O3_25 
REMARK   10  A    between atoms: C21_29  and  O4_30 
REMARK   11  A    between atoms: S1_43  and  C33_46 
ROOT
HETATM    1  C6  UNL     1       2.223  -0.007  -1.562  1.00  0.00     0.010 C 
HETATM    2  C7  UNL     1       1.765  -1.453  -1.728  1.00  0.00    -0.010 C 
HETATM    3  C8  UNL     1       2.380  -2.032  -2.974  1.00  0.00     0.010 C 
HETATM    4  C9  UNL     1       0.292  -1.653  -1.634  1.00  0.00     0.039 C 
HETATM    5  C10 UNL     1      -0.151  -3.059  -1.477  1.00  0.00     0.154 C 
HETATM    6  C12 UNL     1      -1.164  -3.226  -0.321  1.00  0.00     0.175 C 
HETATM    7  C13 UNL     1      -2.536  -2.851  -0.727  1.00  0.00    -0.056 C 
HETATM    8  C14 UNL     1      -2.896  -3.040  -2.173  1.00  0.00     0.046 C 
HETATM    9  C15 UNL     1      -3.463  -2.375   0.080  1.00  0.00    -0.015 C 
HETATM   10  C16 UNL     1      -3.315  -2.128   1.534  1.00  0.00     0.033 C 
HETATM   11  C17 UNL     1      -4.526  -2.724   2.216  1.00  0.00     0.017 C 
HETATM   12  C18 UNL     1      -3.134  -0.666   1.888  1.00  0.00     0.131 C 
HETATM   13  C19 UNL     1      -4.324   0.196   1.559  1.00  0.00     0.040 C 
HETATM   14  C20 UNL     1      -5.105   0.646   2.760  1.00  0.00     0.015 C 
HETATM   15  C21 UNL     1      -4.052   1.277   0.578  1.00  0.00     0.131 C 
HETATM   16  C22 UNL     1      -3.624   2.611   1.109  1.00  0.00     0.033 C 
HETATM   17  C23 UNL     1      -3.620   3.565  -0.059  1.00  0.00     0.017 C 
HETATM   18  C24 UNL     1      -2.452   2.644   1.964  1.00  0.00    -0.020 C 
HETATM   19  C25 UNL     1      -1.281   3.224   1.889  1.00  0.00    -0.004 C 
HETATM   20  C26 UNL     1      -0.709   4.078   0.870  1.00  0.00    -0.004 C 
HETATM   21  C27 UNL     1      -0.145   3.784  -0.283  1.00  0.00    -0.022 C 
HETATM   22  C28 UNL     1       0.027   2.450  -0.796  1.00  0.00     0.012 C 
HETATM   23  C29 UNL     1       0.988   1.560   0.038  1.00  0.00     0.014 C 
HETATM   24  C30 UNL     1       1.122   0.864  -1.297  1.00  0.00    -0.004 C 
HETATM   25  C31 UNL     1       1.191   2.314  -1.821  1.00  0.00    -0.007 C 
HETATM   26  C32 UNL     1       0.767   2.459  -3.242  1.00  0.00     0.011 C 
ENDROOT
BRANCH   1  27
HETATM   27  C5  UNL     1       3.394  -0.063  -0.641  1.00  0.00     0.137 C 
BRANCH  27  28
HETATM   28  N2  UNL     1       4.062   1.126  -0.303  1.00  0.00    -0.118 NA
BRANCH  28  29
HETATM   29  N1  UNL     1       4.523   1.256   0.995  1.00  0.00    -0.337 N 
ATOM     30  H1  UNL     1       5.059   2.074   1.284  1.00  0.00     0.175 HD
BRANCH  29  31
HETATM   31  C4  UNL     1       4.227   0.216   1.908  1.00  0.00     0.167 C 
BRANCH  31  32
HETATM   32  C2  UNL     1       4.789   0.474   3.274  1.00  0.00    -0.074 C 
HETATM   33  C1  UNL     1       5.656  -0.339   3.843  1.00  0.00     0.015 C 
HETATM   34  C3  UNL     1       4.361   1.680   4.017  1.00  0.00     0.044 C 
ENDBRANCH  31  32
ENDBRANCH  29  31
ENDBRANCH  28  29
BRANCH  28  35
HETATM   35  S1  UNL     1       5.348   1.522  -1.398  1.00  0.00     0.285 S 
HETATM   36  O5  UNL     1       5.961   2.808  -0.892  1.00  0.00    -0.202 OA
HETATM   37  O6  UNL     1       6.424   0.492  -1.393  1.00  0.00    -0.202 OA
BRANCH  35  38
HETATM   38  C33 UNL     1       4.819   1.782  -3.024  1.00  0.00     0.385 C 
HETATM   39  O7  UNL     1       5.324   1.226  -3.998  1.00  0.00    -0.289 OA
ENDBRANCH  35  38
ENDBRANCH  28  35
ENDBRANCH  27  28
ENDBRANCH   1  27
BRANCH   5  40
HETATM   40  O1  UNL     1       0.849  -4.013  -1.365  1.00  0.00    -0.388 OA
HETATM   41  C11 UNL     1       0.786  -5.024  -2.299  1.00  0.00     0.202 C 
ENDBRANCH   5  40
BRANCH   6  42
HETATM   42  O2  UNL     1      -1.170  -4.626  -0.098  1.00  0.00    -0.389 OA
ATOM     43  H2  UNL     1      -1.792  -4.729   0.612  1.00  0.00     0.210 HD
ENDBRANCH   6  42
BRANCH  12  44
HETATM   44  O3  UNL     1      -1.985  -0.270   1.229  1.00  0.00    -0.394 OA
ATOM     45  H3  UNL     1      -1.872   0.647   1.451  1.00  0.00     0.210 HD
ENDBRANCH  12  44
BRANCH  15  46
HETATM   46  O4  UNL     1      -3.313   0.802  -0.486  1.00  0.00    -0.394 OA
ATOM     47  H4  UNL     1      -3.139   1.494  -1.114  1.00  0.00     0.210 HD
ENDBRANCH  15  46
TORSDOF 11
