REMARK  5 active torsions:
REMARK  status: ('A' for Active; 'I' for Inactive)
REMARK    1  A    between atoms: C10_12  and  N2_13 
REMARK    2  A    between atoms: N2_13  and  N3_14 
REMARK    3  A    between atoms: N4_19  and  C12_20 
REMARK    4  A    between atoms: C12_20  and  C14_22 
REMARK    5  A    between atoms: C14_22  and  C15_23 
ROOT
HETATM    1  C1  UNL     1      -2.743   0.278  -2.394  1.00  0.00     0.022 C 
HETATM    2  C2  UNL     1      -2.574   0.034  -1.116  1.00  0.00    -0.031 C 
HETATM    3  C3  UNL     1      -3.484   0.657  -0.123  1.00  0.00     0.002 A 
HETATM    4  C4  UNL     1      -4.665   1.361   0.037  1.00  0.00    -0.034 A 
HETATM    5  C5  UNL     1      -5.570   1.821  -1.054  1.00  0.00     0.050 C 
HETATM    6  C6  UNL     1      -4.861   1.563   1.385  1.00  0.00     0.095 A 
HETATM    7  N1  UNL     1      -3.843   1.008   2.018  1.00  0.00    -0.368 N 
ATOM      8  H1  UNL     1      -3.720   1.002   3.031  1.00  0.00     0.165 HD
HETATM    9  C7  UNL     1      -2.994   0.453   1.140  1.00  0.00     0.027 A 
HETATM   10  C8  UNL     1      -1.745  -0.264   1.045  1.00  0.00     0.071 C 
HETATM   11  C9  UNL     1      -1.547  -1.451   1.919  1.00  0.00     0.094 C 
HETATM   12  C10 UNL     1      -0.294  -2.148   1.457  1.00  0.00     0.176 C 
HETATM   13  C11 UNL     1       0.383  -1.786   0.220  1.00  0.00     0.287 C 
HETATM   14  O1  UNL     1       1.465  -2.347  -0.045  1.00  0.00    -0.265 OA
HETATM   15  N4  UNL     1      -0.242  -0.789  -0.645  1.00  0.00    -0.309 N 
HETATM   16  C20 UNL     1      -1.661  -0.786  -0.409  1.00  0.00     0.136 C 
ENDROOT
BRANCH  15  17
HETATM   17  C12 UNL     1       0.559  -0.014  -1.491  1.00  0.00    -0.005 C 
HETATM   18  C13 UNL     1       1.274  -0.748  -2.607  1.00  0.00     0.064 C 
BRANCH  17  19
HETATM   19  C14 UNL     1       1.406   1.056  -0.874  1.00  0.00     0.111 C 
BRANCH  19  20
HETATM   20  C15 UNL     1       2.406   0.731   0.105  1.00  0.00     0.033 A 
HETATM   21  C16 UNL     1       2.258   0.729   1.477  1.00  0.00     0.115 A 
HETATM   22  N5  UNL     1       3.384   0.394   2.096  1.00  0.00    -0.354 N 
HETATM   23  C17 UNL     1       4.288   0.170   1.126  1.00  0.00     0.079 A 
ATOM     24  H5  UNL     1       3.533   0.321   3.102  1.00  0.00     0.166 HD
HETATM   25  C18 UNL     1       5.706  -0.236   1.360  1.00  0.00     0.089 C 
HETATM   26  N6  UNL     1       3.709   0.371  -0.082  1.00  0.00    -0.343 N 
HETATM   27  C19 UNL     1       4.409   0.219  -1.342  1.00  0.00     0.157 C 
ENDBRANCH  19  20
ENDBRANCH  17  19
ENDBRANCH  15  17
BRANCH  12  28
HETATM   28  N2  UNL     1       0.140  -3.073   2.212  1.00  0.00    -0.332 NA
BRANCH  28  29
HETATM   29  N3  UNL     1       0.344  -4.169   2.770  1.00  0.00    -0.280 N 
ATOM     30  H32 UNL     1      -0.331  -4.668   2.191  1.00  0.00     0.191 HD
ATOM     31  H31 UNL     1       0.692  -4.912   3.376  1.00  0.00     0.191 HD
ENDBRANCH  28  29
ENDBRANCH  12  28
TORSDOF 5
