REMARK  9 active torsions:
REMARK  status: ('A' for Active; 'I' for Inactive)
REMARK    1  A    between atoms: C2_2  and  N1_3 
REMARK    2  A    between atoms: N1_3  and  C4_5 
REMARK    3  A    between atoms: C4_5  and  N2_7 
REMARK       I    between atoms: C5_9  and  N3_10 
REMARK       I    between atoms: C5_9  and  N6_22 
REMARK    4  A    between atoms: N3_10  and  C6_12 
REMARK    5  A    between atoms: C7_13  and  C8_14 
REMARK    6  A    between atoms: C8_14  and  C9_15 
REMARK    7  A    between atoms: C9_15  and  N4_16 
REMARK    8  A    between atoms: N4_16  and  C10_18 
REMARK    9  A    between atoms: C10_18  and  S2_20 
ROOT
HETATM    1  N2  UNL     1      -2.280   0.309  -0.112  1.00  0.00    -0.166 N 
ATOM      2  H2  UNL     1      -3.201  -0.078   0.093  1.00  0.00     0.186 HD
HETATM    3  C5  UNL     1      -1.350  -0.541  -0.351  1.00  0.00     0.690 C 
HETATM    4  N3  UNL     1      -0.001  -0.225  -0.657  1.00  0.00    -0.148 N 
ATOM      5  H3  UNL     1       0.209   0.151  -1.581  1.00  0.00     0.195 HD
HETATM    6  N6  UNL     1      -1.784  -1.922  -0.289  1.00  0.00    -0.217 N 
HETATM    7  C12 UNL     1      -2.458  -2.426  -1.464  1.00  0.00     0.141 C 
HETATM    8  C13 UNL     1      -3.781  -2.993  -1.005  1.00  0.00     0.020 C 
HETATM    9  C14 UNL     1      -3.514  -4.073  -0.007  1.00  0.00     0.003 C 
HETATM   10  C15 UNL     1      -2.731  -3.631   1.197  1.00  0.00     0.020 C 
HETATM   11  C16 UNL     1      -1.567  -2.745   0.853  1.00  0.00     0.141 C 
ENDROOT
BRANCH   1  12
HETATM   12  C4  UNL     1      -2.180   1.701  -0.099  1.00  0.00     0.188 C 
HETATM   13  S1  UNL     1      -0.732   2.424   0.059  1.00  0.00    -0.040 SA
BRANCH  12  14
HETATM   14  N1  UNL     1      -3.334   2.549  -0.221  1.00  0.00    -0.362 N 
HETATM   15  C3  UNL     1      -4.665   1.945  -0.365  1.00  0.00     0.152 C 
BRANCH  14  16
HETATM   16  C2  UNL     1      -3.229   3.983  -0.207  1.00  0.00     0.120 C 
HETATM   17  C1  UNL     1      -3.866   4.535   1.065  1.00  0.00     0.026 C 
ENDBRANCH  14  16
ENDBRANCH  12  14
ENDBRANCH   1  12
BRANCH   4  18
HETATM   18  C6  UNL     1       1.055  -0.402   0.242  1.00  0.00     0.026 C 
HETATM   19  C7  UNL     1       1.982  -0.530   1.028  1.00  0.00    -0.081 C 
BRANCH  19  20
HETATM   20  C8  UNL     1       3.093  -0.647   1.970  1.00  0.00     0.115 C 
BRANCH  20  21
HETATM   21  C9  UNL     1       4.378  -0.483   1.167  1.00  0.00     0.133 C 
BRANCH  21  22
HETATM   22  N4  UNL     1       4.347   0.793   0.512  1.00  0.00    -0.372 N 
ATOM     23  H4  UNL     1       3.476   1.313   0.624  1.00  0.00     0.161 HD
BRANCH  22  24
HETATM   24  C10 UNL     1       5.313   1.430  -0.248  1.00  0.00     0.149 C 
HETATM   25  N5  UNL     1       4.979   2.730  -0.805  1.00  0.00    -0.075 NA
BRANCH  24  26
HETATM   26  S2  UNL     1       6.785   0.871  -0.541  1.00  0.00    -0.102 SA
HETATM   27  C11 UNL     1       7.388  -0.708   0.108  1.00  0.00     0.098 C 
ENDBRANCH  24  26
ENDBRANCH  22  24
ENDBRANCH  21  22
ENDBRANCH  20  21
ENDBRANCH  19  20
ENDBRANCH   4  18
TORSDOF 9
