REMARK  6 active torsions:
REMARK  status: ('A' for Active; 'I' for Inactive)
REMARK    1  A    between atoms: C2_2  and  C3_3 
REMARK    2  A    between atoms: C3_3  and  C4_4 
REMARK    3  A    between atoms: C5_5  and  C6_6 
REMARK       I    between atoms: N2_13  and  C12_15 
REMARK       I    between atoms: C12_15  and  N4_19 
REMARK    4  A    between atoms: N4_19  and  C13_21 
REMARK    5  A    between atoms: C13_21  and  C14_22 
REMARK    6  A    between atoms: C14_22  and  N5_23 
ROOT
HETATM    1  C6  UNL     1       4.246   0.994  -0.264  1.00  0.00     0.090 C 
HETATM    2  C7  UNL     1       3.309   0.200   0.250  1.00  0.00     0.036 C 
HETATM    3  C8  UNL     1       3.508  -1.263   0.347  1.00  0.00     0.078 C 
HETATM    4  C9  UNL     1       2.187  -1.958  -0.008  1.00  0.00     0.146 C 
HETATM    5  N1  UNL     1       1.229  -1.481   1.018  1.00  0.00    -0.221 N 
HETATM    6  C10 UNL     1       0.548  -2.384   1.903  1.00  0.00     0.168 C 
HETATM    7  C11 UNL     1       1.018  -0.091   1.110  1.00  0.00     0.694 C 
HETATM    8  N2  UNL     1      -0.025   0.436   1.490  1.00  0.00    -0.023 N 
ATOM      9  H2  UNL     1       0.054   1.453   1.476  1.00  0.00     0.203 HD
HETATM   10  C12 UNL     1      -1.274   0.045   1.931  1.00  0.00     0.686 C 
HETATM   11  N3  UNL     1      -1.524  -0.082   3.187  1.00  0.00    -0.234 N 
ATOM     12  H31 UNL     1      -2.446  -0.371   3.513  1.00  0.00     0.174 HD
ATOM     13  H32 UNL     1      -0.771   0.103   3.850  1.00  0.00     0.174 HD
HETATM   14  N4  UNL     1      -2.317  -0.212   1.012  1.00  0.00    -0.224 N 
ATOM     15  H4  UNL     1      -3.006  -0.939   1.206  1.00  0.00     0.177 HD
HETATM   16  N6  UNL     1       2.106   0.780   0.709  1.00  0.00    -0.194 N 
ATOM     17  H6  UNL     1       2.004   1.794   0.758  1.00  0.00     0.184 HD
ENDROOT
BRANCH  14  18
HETATM   18  C13 UNL     1      -2.399   0.558  -0.195  1.00  0.00     0.166 C 
BRANCH  18  19
HETATM   19  C14 UNL     1      -3.531   0.245  -1.089  1.00  0.00     0.257 C 
BRANCH  19  20
HETATM   20  N5  UNL     1      -4.847   0.422  -0.636  1.00  0.00    -0.065 N 
HETATM   21  C15 UNL     1      -5.703   1.039  -1.680  1.00  0.00     0.238 C 
HETATM   22  C16 UNL     1      -7.073   0.420  -1.521  1.00  0.00     0.034 C 
HETATM   23  C17 UNL     1      -6.942  -0.119  -0.111  1.00  0.00     0.015 C 
HETATM   24  C18 UNL     1      -6.579   1.035   0.753  1.00  0.00     0.034 C 
HETATM   25  C20 UNL     1      -5.571  -0.801  -0.290  1.00  0.00     0.242 C 
HETATM   26  C19 UNL     1      -5.062   1.195   0.545  1.00  0.00     0.238 C 
ENDBRANCH  19  20
ENDBRANCH  18  19
ENDBRANCH  14  18
BRANCH   1  27
HETATM   27  C5  UNL     1       5.494   0.495  -0.752  1.00  0.00    -0.077 C 
HETATM   28  C4  UNL     1       6.552   0.066  -1.148  1.00  0.00    -0.102 C 
BRANCH  28  29
HETATM   29  C3  UNL     1       7.836  -0.478  -1.621  1.00  0.00     0.094 C 
BRANCH  29  30
HETATM   30  C2  UNL     1       8.927   0.167  -0.806  1.00  0.00     0.007 C 
HETATM   31  C1  UNL     1       8.941   1.667  -0.954  1.00  0.00     0.006 C 
ENDBRANCH  29  30
ENDBRANCH  28  29
ENDBRANCH   1  27
TORSDOF 6
