REMARK  6 active torsions:
REMARK  status: ('A' for Active; 'I' for Inactive)
REMARK    1  A    between atoms: C2_2  and  C3_3 
REMARK    2  A    between atoms: C5_9  and  N3_10 
REMARK    3  A    between atoms: N3_10  and  C6_12 
REMARK    4  A    between atoms: C6_12  and  C8_14 
REMARK    5  A    between atoms: C8_14  and  N4_15 
REMARK    6  A    between atoms: C8_14  and  C12_22 
REMARK       I    between atoms: N4_15  and  C9_17 
REMARK       I    between atoms: C9_17  and  N5_19 
ROOT
HETATM    1  N3  UNL     1       0.082  -0.924   0.937  1.00  0.00    -0.368 N 
ATOM      2  H3  UNL     1      -0.277  -1.730   1.449  1.00  0.00     0.161 HD
ENDROOT
BRANCH   1   3
HETATM    3  C5  UNL     1       1.278  -1.066   0.678  1.00  0.00     0.129 A 
HETATM    4  N2  UNL     1       2.033  -2.180   1.039  1.00  0.00    -0.284 N 
HETATM    5  N1  UNL     1       3.261  -2.050   0.629  1.00  0.00    -0.296 N 
ATOM      6  H2  UNL     1       1.673  -2.985   1.553  1.00  0.00     0.188 HD
HETATM    7  C4  UNL     1       3.437  -0.884  -0.018  1.00  0.00     0.084 A 
ATOM      8  H1  UNL     1       3.995  -2.742   0.779  1.00  0.00     0.187 HD
HETATM    9  C3  UNL     1       4.550  -0.327  -0.617  1.00  0.00     0.040 A 
HETATM   10  C16 UNL     1       2.194  -0.259   0.008  1.00  0.00     0.040 A 
HETATM   11  N6  UNL     1       4.401   0.868  -1.190  1.00  0.00    -0.362 N 
HETATM   12  C18 UNL     1       3.223   1.520  -1.196  1.00  0.00     0.091 A 
HETATM   13  C19 UNL     1       5.528   1.487  -1.823  1.00  0.00     0.155 C 
HETATM   14  C17 UNL     1       2.118   0.964  -0.601  1.00  0.00     0.035 A 
BRANCH   9  15
HETATM   15  C2  UNL     1       5.829  -1.042  -0.607  1.00  0.00     0.055 C 
HETATM   16  C1  UNL     1       6.521  -0.971   0.745  1.00  0.00     0.011 C 
ENDBRANCH   9  15
ENDBRANCH   1   3
BRANCH   1  17
HETATM   17  C6  UNL     1      -0.892  -0.006   0.737  1.00  0.00     0.102 C 
HETATM   18  C7  UNL     1      -0.699   1.139   1.760  1.00  0.00     0.034 C 
BRANCH  17  19
HETATM   19  C8  UNL     1      -2.340  -0.479   0.801  1.00  0.00     0.115 C 
BRANCH  19  20
HETATM   20  N4  UNL     1      -3.115   0.698   0.552  1.00  0.00    -0.336 N 
HETATM   21  C9  UNL     1      -4.126   1.092  -0.272  1.00  0.00     0.318 C 
HETATM   22  O1  UNL     1      -4.676   0.413  -1.139  1.00  0.00    -0.247 OA
HETATM   23  N5  UNL     1      -4.645   2.439  -0.158  1.00  0.00    -0.343 N 
HETATM   24  C10 UNL     1      -5.713   2.885  -1.016  1.00  0.00     0.154 C 
HETATM   25  C11 UNL     1      -4.107   3.365   0.815  1.00  0.00     0.154 C 
ATOM     26  H4  UNL     1      -2.829   1.460   1.167  1.00  0.00     0.164 HD
ENDBRANCH  19  20
BRANCH  19  27
HETATM   27  C12 UNL     1      -2.622  -1.707   0.042  1.00  0.00    -0.029 C 
HETATM   28  C13 UNL     1      -4.062  -2.120   0.268  1.00  0.00     0.016 C 
HETATM   29  C14 UNL     1      -1.772  -2.844   0.583  1.00  0.00     0.016 C 
HETATM   30  C15 UNL     1      -2.395  -1.648  -1.433  1.00  0.00     0.016 C 
ENDBRANCH  19  27
ENDBRANCH  17  19
ENDBRANCH   1  17
TORSDOF 6
