REMARK  11 active torsions:
REMARK  status: ('A' for Active; 'I' for Inactive)
REMARK    1  A    between atoms: O1_2  and  C2_3 
REMARK    2  A    between atoms: C7_9  and  N1_10 
REMARK       I    between atoms: C8_12  and  N2_13 
REMARK       I    between atoms: C8_12  and  N4_17 
REMARK    3  A    between atoms: N4_17  and  C10_19 
REMARK    4  A    between atoms: C14_24  and  O2_25 
REMARK    5  A    between atoms: O2_25  and  C15_26 
REMARK    6  A    between atoms: C15_26  and  C16_27 
REMARK    7  A    between atoms: C16_27  and  C17_28 
REMARK    8  A    between atoms: C17_28  and  C18_29 
REMARK    9  A    between atoms: C18_29  and  C19_30 
REMARK   10  A    between atoms: C19_30  and  N5_31 
REMARK   11  A    between atoms: C25_37  and  S1_38 
ROOT
HETATM    1  N1  UNL     1       5.521  -0.234   0.674  1.00  0.00    -0.188 N 
ATOM      2  H1  UNL     1       5.391  -1.080   1.228  1.00  0.00     0.184 HD
HETATM    3  C8  UNL     1       4.741  -0.038  -0.299  1.00  0.00     0.692 C 
HETATM    4  N2  UNL     1       4.771   1.076  -1.170  1.00  0.00    -0.126 N 
ATOM      5  H2  UNL     1       5.152   1.967  -0.850  1.00  0.00     0.197 HD
HETATM    6  C9  UNL     1       4.270   0.948  -2.488  1.00  0.00     0.196 C 
HETATM    7  N3  UNL     1       3.843   0.854  -3.560  1.00  0.00    -0.171 NA
HETATM    8  N4  UNL     1       3.732  -1.068  -0.514  1.00  0.00    -0.190 N 
ATOM      9  H4  UNL     1       3.931  -1.873  -1.108  1.00  0.00     0.184 HD
ENDROOT
BRANCH   1  10
HETATM   10  C7  UNL     1       6.556   0.641   1.040  1.00  0.00     0.082 A 
HETATM   11  C2  UNL     1       7.561   0.998   0.152  1.00  0.00     0.096 A 
HETATM   12  C3  UNL     1       8.544   1.899   0.537  1.00  0.00     0.058 A 
HETATM   13  C4  UNL     1       8.500   2.421   1.809  1.00  0.00     0.013 A 
HETATM   14 BR1  UNL     1       9.857   3.662   2.342  1.00  0.00    -0.051 Br
HETATM   15  C5  UNL     1       7.524   2.091   2.715  1.00  0.00     0.021 A 
HETATM   16  C6  UNL     1       6.560   1.204   2.326  1.00  0.00     0.034 A 
BRANCH  11  17
HETATM   17  O1  UNL     1       7.587   0.456  -1.111  1.00  0.00    -0.354 OA
HETATM   18  C1  UNL     1       8.521   0.707  -2.121  1.00  0.00     0.210 C 
ENDBRANCH  11  17
ENDBRANCH   1  10
BRANCH   8  19
HETATM   19  C10 UNL     1       2.468  -0.932   0.118  1.00  0.00     0.069 A 
HETATM   20  C11 UNL     1       2.254   0.191   0.893  1.00  0.00     0.033 A 
HETATM   21  C12 UNL     1       1.056   0.369   1.523  1.00  0.00     0.029 A 
HETATM   22  C13 UNL     1       0.037  -0.581   1.394  1.00  0.00     0.068 A 
HETATM   23 CL1  UNL     1      -1.422  -0.231   2.304  1.00  0.00    -0.081 Cl
HETATM   24  C14 UNL     1       0.252  -1.682   0.631  1.00  0.00     0.109 A 
HETATM   25  C25 UNL     1       1.483  -1.882  -0.028  1.00  0.00     0.062 A 
BRANCH  24  26
HETATM   26  O2  UNL     1      -0.655  -2.666   0.435  1.00  0.00    -0.348 OA
BRANCH  26  27
HETATM   27  C15 UNL     1      -1.632  -2.933  -0.446  1.00  0.00     0.176 C 
BRANCH  27  28
HETATM   28  C16 UNL     1      -2.898  -2.201  -0.600  1.00  0.00     0.027 C 
BRANCH  28  29
HETATM   29  C17 UNL     1      -3.894  -2.350   0.514  1.00  0.00     0.004 C 
BRANCH  29  30
HETATM   30  C18 UNL     1      -5.141  -1.567   0.283  1.00  0.00     0.030 C 
BRANCH  30  31
HETATM   31  C19 UNL     1      -4.916  -0.108   0.157  1.00  0.00     0.272 C 
BRANCH  31  32
HETATM   32  N5  UNL     1      -6.145   0.627  -0.051  1.00  0.00     0.088 N 
HETATM   33  C20 UNL     1      -7.032   0.654   1.063  1.00  0.00     0.272 C 
HETATM   34  C21 UNL     1      -8.463   0.916   0.628  1.00  0.00     0.030 C 
HETATM   35  C22 UNL     1      -8.455   1.987  -0.447  1.00  0.00     0.003 C 
HETATM   36  C23 UNL     1      -7.155   2.771  -0.379  1.00  0.00     0.030 C 
HETATM   37  C24 UNL     1      -5.977   1.888  -0.701  1.00  0.00     0.272 C 
ENDBRANCH  31  32
ENDBRANCH  30  31
ENDBRANCH  29  30
ENDBRANCH  28  29
ENDBRANCH  27  28
ENDBRANCH  26  27
ENDBRANCH  24  26
BRANCH  25  38
HETATM   38  S1  UNL     1       1.801  -3.344  -0.961  1.00  0.00    -0.129 SA
HETATM   39  C26 UNL     1       1.549  -3.191  -2.724  1.00  0.00     0.095 C 
ENDBRANCH  25  38
ENDBRANCH   8  19
TORSDOF 11
