REMARK  12 active torsions:
REMARK  status: ('A' for Active; 'I' for Inactive)
REMARK    1  A    between atoms: O1_2  and  C2_3 
REMARK    2  A    between atoms: C2_3  and  C3_5 
REMARK    3  A    between atoms: C3_5  and  C4_6 
REMARK    4  A    between atoms: C4_6  and  C5_7 
REMARK    5  A    between atoms: C5_7  and  C6_8 
REMARK    6  A    between atoms: C6_8  and  C7_9 
REMARK    7  A    between atoms: C7_9  and  C8_10 
REMARK    8  A    between atoms: C8_10  and  C9_11 
REMARK    9  A    between atoms: C9_11  and  C10_12 
REMARK   10  A    between atoms: C10_12  and  O3_13 
REMARK   11  A    between atoms: O3_13  and  C11_14 
REMARK   12  A    between atoms: C14_18  and  C15_19 
ROOT
HETATM    1  C11 UNL     1      -0.116  -0.841   1.614  1.00  0.00     0.092 A 
HETATM    2  C12 UNL     1       0.322   0.035   0.644  1.00  0.00     0.063 A 
HETATM    3  C13 UNL     1      -0.497   0.890  -0.059  1.00  0.00     0.044 A 
HETATM    4 CL1  UNL     1       0.147   1.986  -1.292  1.00  0.00    -0.084 Cl
HETATM    5  C14 UNL     1      -1.846   0.881   0.214  1.00  0.00    -0.014 A 
HETATM    6  C28 UNL     1      -2.338   0.012   1.188  1.00  0.00     0.036 A 
HETATM    7  C29 UNL     1      -1.499  -0.831   1.874  1.00  0.00     0.068 A 
HETATM    8 CL3  UNL     1      -2.080  -1.930   3.098  1.00  0.00    -0.081 Cl
ENDROOT
BRANCH   5   9
HETATM    9  C15 UNL     1      -2.746   1.797  -0.533  1.00  0.00     0.187 C 
HETATM   10  C16 UNL     1      -3.726   2.493   0.284  1.00  0.00     0.238 C 
HETATM   11  O4  UNL     1      -3.402   3.510   0.939  1.00  0.00    -0.272 OA
HETATM   12  N1  UNL     1      -5.110   2.052   0.383  1.00  0.00    -0.324 N 
HETATM   13  C17 UNL     1      -5.581   1.120  -0.550  1.00  0.00     0.067 A 
ATOM     14  H1  UNL     1      -5.722   2.413   1.115  1.00  0.00     0.169 HD
HETATM   15  C18 UNL     1      -4.740   0.632  -1.551  1.00  0.00     0.106 A 
HETATM   16  C26 UNL     1      -6.904   0.679  -0.500  1.00  0.00     0.026 A 
HETATM   17  C19 UNL     1      -5.225  -0.265  -2.469  1.00  0.00     0.262 A 
HETATM   18  C27 UNL     1      -3.352   1.077  -1.650  1.00  0.00     0.184 C 
HETATM   19  O5  UNL     1      -4.420  -0.694  -3.380  1.00  0.00    -0.267 OA
HETATM   20  N2  UNL     1      -6.480  -0.674  -2.415  1.00  0.00    -0.320 N 
HETATM   21  C20 UNL     1      -7.333  -0.241  -1.473  1.00  0.00     0.070 A 
ATOM     22  H2  UNL     1      -6.812  -1.341  -3.112  1.00  0.00     0.169 HD
HETATM   23  C21 UNL     1      -8.623  -0.714  -1.471  1.00  0.00     0.061 A 
HETATM   24 CL2  UNL     1      -9.087  -1.861  -2.723  1.00  0.00    -0.082 Cl
HETATM   25  C22 UNL     1      -9.484  -0.289  -0.520  1.00  0.00     0.027 A 
HETATM   26  C23 UNL     1      -9.067   0.597   0.422  1.00  0.00     0.009 A 
HETATM   27  C24 UNL     1      -7.750   1.126   0.479  1.00  0.00    -0.047 A 
HETATM   28  C25 UNL     1      -7.419   2.027   1.574  1.00  0.00     0.049 C 
HETATM   29  O6  UNL     1      -2.701   0.820  -2.723  1.00  0.00    -0.291 OA
ENDBRANCH   5   9
BRANCH   1  30
HETATM   30  O3  UNL     1       0.691  -1.682   2.307  1.00  0.00    -0.349 OA
BRANCH  30  31
HETATM   31  C10 UNL     1       2.033  -1.940   2.286  1.00  0.00     0.175 C 
BRANCH  31  32
HETATM   32  C9  UNL     1       2.619  -2.494   1.032  1.00  0.00     0.027 C 
BRANCH  32  33
HETATM   33  C8  UNL     1       4.108  -2.732   1.138  1.00  0.00     0.002 C 
BRANCH  33  34
HETATM   34  C7  UNL     1       4.891  -1.475   1.436  1.00  0.00     0.000 C 
BRANCH  34  35
HETATM   35  C6  UNL     1       6.364  -1.851   1.515  1.00  0.00     0.000 C 
BRANCH  35  36
HETATM   36  C5  UNL     1       7.236  -0.665   1.810  1.00  0.00     0.000 C 
BRANCH  36  37
HETATM   37  C4  UNL     1       7.113   0.410   0.740  1.00  0.00     0.010 C 
BRANCH  37  38
HETATM   38  C3  UNL     1       7.524  -0.146  -0.606  1.00  0.00     0.111 C 
BRANCH  38  39
HETATM   39  C2  UNL     1       7.393   0.928  -1.620  1.00  0.00     0.258 C 
HETATM   40  O2  UNL     1       6.995   2.077  -1.301  1.00  0.00    -0.265 OA
BRANCH  39  41
HETATM   41  O1  UNL     1       7.708   0.682  -2.947  1.00  0.00    -0.326 OA
HETATM   42  C1  UNL     1       7.571   1.724  -3.880  1.00  0.00     0.213 C 
ENDBRANCH  39  41
ENDBRANCH  38  39
ENDBRANCH  37  38
ENDBRANCH  36  37
ENDBRANCH  35  36
ENDBRANCH  34  35
ENDBRANCH  33  34
ENDBRANCH  32  33
ENDBRANCH  31  32
ENDBRANCH  30  31
ENDBRANCH   1  30
TORSDOF 12
