REMARK  13 active torsions:
REMARK  status: ('A' for Active; 'I' for Inactive)
REMARK    1  A    between atoms: C3_3  and  O1_4 
REMARK    2  A    between atoms: C3_3  and  C4_7 
REMARK    3  A    between atoms: C4_7  and  O2_8 
REMARK    4  A    between atoms: O2_8  and  C5_9 
REMARK    5  A    between atoms: C6_12  and  C7_13 
REMARK    6  A    between atoms: C12_18  and  N2_19 
REMARK    7  A    between atoms: N2_19  and  C13_21 
REMARK    8  A    between atoms: C15_23  and  O3_24 
REMARK    9  A    between atoms: O3_24  and  C16_25 
REMARK   10  A    between atoms: C21_30  and  O4_31 
REMARK   11  A    between atoms: O4_31  and  C22_32 
REMARK   12  A    between atoms: C22_32  and  C23_33 
REMARK   13  A    between atoms: C23_33  and  C24_34 
ROOT
HETATM    1  C1  UNL     1       7.835  -4.670   0.552  1.00  0.00     0.018 C 
HETATM    2  C2  UNL     1       7.399  -3.778   1.229  1.00  0.00    -0.043 C 
HETATM    3  C3  UNL     1       6.841  -2.692   2.074  1.00  0.00     0.289 C 
HETATM    4  F1  UNL     1       7.882  -2.091   2.710  1.00  0.00    -0.194 F 
ENDROOT
BRANCH   3   5
HETATM    5  O1  UNL     1       6.021  -3.328   2.999  1.00  0.00    -0.350 OA
ATOM      6  H1  UNL     1       5.664  -2.633   3.540  1.00  0.00     0.214 HD
ENDBRANCH   3   5
BRANCH   3   7
HETATM    7  C4  UNL     1       6.041  -1.742   1.208  1.00  0.00     0.265 C 
BRANCH   7   8
HETATM    8  O2  UNL     1       6.833  -1.076   0.273  1.00  0.00    -0.329 OA
BRANCH   8   9
HETATM    9  C5  UNL     1       6.201  -0.164  -0.594  1.00  0.00     0.149 A 
HETATM   10  N1  UNL     1       4.890   0.061  -0.530  1.00  0.00    -0.332 N 
HETATM   11  C6  UNL     1       4.276   0.954  -1.380  1.00  0.00     0.100 A 
ATOM     12  H1  UNL     1       4.330  -0.437   0.162  1.00  0.00     0.168 HD
HETATM   13  C28 UNL     1       5.066   1.585  -2.274  1.00  0.00     0.151 A 
HETATM   14  F2  UNL     1       4.583   2.480  -3.156  1.00  0.00    -0.203 F 
HETATM   15  C29 UNL     1       6.455   1.377  -2.375  1.00  0.00    -0.011 A 
HETATM   16  C30 UNL     1       7.281   2.098  -3.375  1.00  0.00     0.052 C 
HETATM   17  C31 UNL     1       7.012   0.478  -1.504  1.00  0.00    -0.002 A 
HETATM   18  C32 UNL     1       8.482   0.174  -1.518  1.00  0.00     0.053 C 
BRANCH  11  19
HETATM   19  C7  UNL     1       2.834   1.138  -1.250  1.00  0.00     0.064 A 
HETATM   20  C8  UNL     1       2.045   1.958  -1.987  1.00  0.00     0.038 A 
HETATM   21  C9  UNL     1       0.662   2.085  -1.815  1.00  0.00    -0.056 A 
HETATM   22  C10 UNL     1      -0.100   3.030  -2.701  1.00  0.00     0.048 C 
HETATM   23  C11 UNL     1       0.051   1.349  -0.854  1.00  0.00     0.055 A 
HETATM   24  C12 UNL     1       0.854   0.503  -0.091  1.00  0.00     0.106 A 
HETATM   25  N3  UNL     1       2.172   0.411  -0.287  1.00  0.00    -0.341 N 
ATOM     26  H3  UNL     1       2.710  -0.225   0.302  1.00  0.00     0.167 HD
BRANCH  24  27
HETATM   27  N2  UNL     1       0.305  -0.217   0.828  1.00  0.00    -0.341 N 
ATOM     28  H2  UNL     1       0.912  -0.828   1.375  1.00  0.00     0.167 HD
BRANCH  27  29
HETATM   29  C13 UNL     1      -1.058  -0.222   1.130  1.00  0.00     0.058 A 
HETATM   30  C14 UNL     1      -2.012  -0.810   0.316  1.00  0.00     0.071 A 
HETATM   31  C15 UNL     1      -3.337  -0.819   0.609  1.00  0.00     0.104 A 
HETATM   32  C21 UNL     1      -3.828  -0.207   1.803  1.00  0.00     0.103 A 
HETATM   33  C26 UNL     1      -2.833   0.371   2.592  1.00  0.00     0.065 A 
HETATM   34  C27 UNL     1      -1.500   0.373   2.285  1.00  0.00     0.063 A 
HETATM   35 CL1  UNL     1      -0.321   1.135   3.352  1.00  0.00    -0.082 Cl
BRANCH  31  36
HETATM   36  O3  UNL     1      -4.279  -1.397  -0.193  1.00  0.00    -0.343 OA
BRANCH  36  37
HETATM   37  C16 UNL     1      -4.106  -2.056  -1.402  1.00  0.00     0.129 C 
HETATM   38  C17 UNL     1      -4.814  -3.410  -1.318  1.00  0.00     0.032 C 
HETATM   39  C18 UNL     1      -6.290  -3.047  -1.353  1.00  0.00     0.002 C 
HETATM   40  C19 UNL     1      -6.380  -1.606  -1.765  1.00  0.00     0.002 C 
HETATM   41  C20 UNL     1      -5.023  -1.353  -2.415  1.00  0.00     0.032 C 
ENDBRANCH  36  37
ENDBRANCH  31  36
BRANCH  32  42
HETATM   42  O4  UNL     1      -5.103  -0.231   2.055  1.00  0.00    -0.348 OA
BRANCH  42  43
HETATM   43  C22 UNL     1      -6.207  -0.007   2.676  1.00  0.00     0.176 C 
BRANCH  43  44
HETATM   44  C23 UNL     1      -6.707   1.391   2.840  1.00  0.00     0.026 C 
BRANCH  44  45
HETATM   45  C24 UNL     1      -5.831   2.324   3.602  1.00  0.00    -0.002 C 
HETATM   46  C25 UNL     1      -6.588   3.677   3.662  1.00  0.00     0.005 C 
ENDBRANCH  44  45
ENDBRANCH  43  44
ENDBRANCH  42  43
ENDBRANCH  32  42
ENDBRANCH  27  29
ENDBRANCH  24  27
ENDBRANCH  11  19
ENDBRANCH   8   9
ENDBRANCH   7   8
ENDBRANCH   3   7
TORSDOF 13
