REMARK  13 active torsions:
REMARK  status: ('A' for Active; 'I' for Inactive)
REMARK    1  A    between atoms: C2_2  and  O1_3 
REMARK    2  A    between atoms: C2_2  and  C3_5 
REMARK    3  A    between atoms: C3_5  and  C4_6 
REMARK    4  A    between atoms: C4_6  and  C5_7 
REMARK    5  A    between atoms: C5_7  and  C6_8 
REMARK    6  A    between atoms: C6_8  and  C7_9 
REMARK    7  A    between atoms: C17_22  and  C18_23 
REMARK    8  A    between atoms: C19_24  and  C20_25 
REMARK    9  A    between atoms: C19_24  and  C31_39 
REMARK   10  A    between atoms: C21_26  and  C22_27 
REMARK   11  A    between atoms: C22_27  and  N1_28 
REMARK   12  A    between atoms: C29_35  and  C30_36 
REMARK   13  A    between atoms: C30_36  and  O5_37 
ROOT
HETATM    1  C6  UNL     1       5.385  -0.811   0.480  1.00  0.00     0.103 C 
HETATM    2  O2  UNL     1       4.475  -1.353  -0.476  1.00  0.00    -0.229 OA
HETATM    3  O3  UNL     1       4.368  -0.707  -1.551  1.00  0.00    -0.234 OA
HETATM    4  C10 UNL     1       3.607   0.418  -1.568  1.00  0.00     0.167 C 
HETATM    5  C11 UNL     1       4.564   1.590  -1.282  1.00  0.00     0.036 C 
HETATM    6  C12 UNL     1       4.977   1.683   0.128  1.00  0.00     0.010 C 
HETATM    7  C13 UNL     1       4.885   0.500   0.998  1.00  0.00     0.026 C 
HETATM    8  C14 UNL     1       3.506   0.396   1.564  1.00  0.00     0.040 C 
HETATM    9  C15 UNL     1       2.464  -0.110   0.638  1.00  0.00     0.136 C 
HETATM   10  O4  UNL     1       1.184   0.383   1.113  1.00  0.00    -0.350 OA
HETATM   11  C16 UNL     1       0.342   0.228   0.040  1.00  0.00     0.047 C 
HETATM   12  C17 UNL     1      -1.001   0.213   0.092  1.00  0.00     0.033 C 
HETATM   13  C32 UNL     1       1.111   0.076  -1.222  1.00  0.00     0.074 C 
HETATM   14  C33 UNL     1       2.471   0.560  -0.702  1.00  0.00     0.053 C 
ENDROOT
BRANCH  12  15
HETATM   15  C18 UNL     1      -1.792   0.045  -1.082  1.00  0.00     0.018 C 
HETATM   16  C19 UNL     1      -3.125   0.014  -1.101  1.00  0.00     0.048 C 
BRANCH  16  17
HETATM   17  C20 UNL     1      -3.822   0.159   0.156  1.00  0.00     0.017 C 
HETATM   18  C21 UNL     1      -4.663   1.275   0.528  1.00  0.00     0.018 C 
BRANCH  18  19
HETATM   19  C22 UNL     1      -5.973   1.642   0.013  1.00  0.00     0.090 C 
BRANCH  19  20
HETATM   20  N1  UNL     1      -7.018   0.748   0.301  1.00  0.00    -0.363 N 
HETATM   21  C23 UNL     1      -7.150  -0.519  -0.221  1.00  0.00     0.072 C 
HETATM   22  C24 UNL     1      -8.571  -0.910  -0.625  1.00  0.00    -0.015 C 
HETATM   23  C25 UNL     1      -9.076  -1.890   0.407  1.00  0.00     0.020 C 
HETATM   24  C26 UNL     1      -8.579  -1.624  -1.958  1.00  0.00     0.020 C 
HETATM   25  C27 UNL     1      -9.481   0.292  -0.613  1.00  0.00     0.016 C 
HETATM   26  C28 UNL     1      -9.446   0.821   0.809  1.00  0.00     0.029 C 
HETATM   27  C29 UNL     1      -8.070   1.291   1.110  1.00  0.00     0.112 C 
BRANCH  27  28
HETATM   28  C30 UNL     1      -7.725   1.064   2.571  1.00  0.00     0.189 C 
BRANCH  28  29
HETATM   29  O5  UNL     1      -8.737   1.574   3.394  1.00  0.00    -0.399 OA
ATOM     30  H5  UNL     1      -8.521   1.432   4.308  1.00  0.00     0.209 HD
ENDBRANCH  28  29
ENDBRANCH  27  28
ENDBRANCH  19  20
ENDBRANCH  18  19
ENDBRANCH  16  17
BRANCH  16  31
HETATM   31  C31 UNL     1      -3.723  -0.261  -2.413  1.00  0.00     0.417 C 
HETATM   32  F1  UNL     1      -4.649   0.571  -2.884  1.00  0.00    -0.166 F 
HETATM   33  F2  UNL     1      -2.703  -0.299  -3.408  1.00  0.00    -0.166 F 
HETATM   34  F3  UNL     1      -4.253  -1.564  -2.348  1.00  0.00    -0.166 F 
ENDBRANCH  16  31
ENDBRANCH  12  15
BRANCH   1  35
HETATM   35  C5  UNL     1       6.693  -0.800  -0.152  1.00  0.00     0.042 C 
BRANCH  35  36
HETATM   36  C4  UNL     1       7.939  -0.491   0.549  1.00  0.00     0.006 C 
BRANCH  36  37
HETATM   37  C3  UNL     1       9.168  -0.538  -0.347  1.00  0.00     0.031 C 
BRANCH  37  38
HETATM   38  C2  UNL     1       9.114   0.435  -1.475  1.00  0.00     0.114 C 
HETATM   39  C1  UNL     1       9.005   1.835  -0.912  1.00  0.00     0.039 C 
BRANCH  38  40
HETATM   40  O1  UNL     1      10.270   0.316  -2.268  1.00  0.00    -0.396 OA
ATOM     41  H1  UNL     1      10.338  -0.563  -2.622  1.00  0.00     0.210 HD
ENDBRANCH  38  40
ENDBRANCH  37  38
ENDBRANCH  36  37
ENDBRANCH  35  36
ENDBRANCH   1  35
BRANCH   1  42
HETATM   42  C7  UNL     1       5.256  -1.807   1.598  1.00  0.00     0.016 C 
HETATM   43  C8  UNL     1       6.114  -1.676   2.777  1.00  0.00     0.012 C 
HETATM   44  C9  UNL     1       5.432  -3.240   1.034  1.00  0.00     0.012 C 
ENDBRANCH   1  42
TORSDOF 13
