REMARK  9 active torsions:
REMARK  status: ('A' for Active; 'I' for Inactive)
REMARK    1  A    between atoms: C2_2  and  C3_3 
REMARK    2  A    between atoms: C5_5  and  N1_6 
REMARK    3  A    between atoms: N1_6  and  C6_8 
REMARK    4  A    between atoms: C6_8  and  C7_9 
REMARK    5  A    between atoms: C7_9  and  C8_10 
REMARK    6  A    between atoms: C11_13  and  C12_14 
REMARK    7  A    between atoms: C14_16  and  C15_17 
REMARK    8  A    between atoms: C19_21  and  O1_22 
REMARK    9  A    between atoms: C24_29  and  N3_30 
ROOT
HETATM    1  C8  UNL     1       1.090   0.583  -1.188  1.00  0.00    -0.057 A 
HETATM    2  C9  UNL     1       0.628  -0.453  -0.430  1.00  0.00     0.008 A 
HETATM    3  C10 UNL     1      -0.715  -0.668  -0.138  1.00  0.00     0.013 A 
HETATM    4  C11 UNL     1      -1.618   0.238  -0.660  1.00  0.00    -0.026 A 
HETATM    5  C22 UNL     1      -1.207   1.306  -1.435  1.00  0.00     0.013 A 
HETATM    6  C23 UNL     1       0.138   1.467  -1.689  1.00  0.00     0.008 A 
ENDROOT
BRANCH   1   7
HETATM    7  C7  UNL     1       2.533   0.798  -1.492  1.00  0.00     0.058 C 
BRANCH   7   8
HETATM    8  C6  UNL     1       3.124   1.676  -0.403  1.00  0.00     0.126 C 
BRANCH   8   9
HETATM    9  N1  UNL     1       4.506   1.951  -0.596  1.00  0.00    -0.376 N 
ATOM     10  H1  UNL     1       4.724   2.839  -1.048  1.00  0.00     0.161 HD
BRANCH   9  11
HETATM   11  C5  UNL     1       5.508   1.230  -0.276  1.00  0.00     0.119 A 
HETATM   12  C4  UNL     1       5.367   0.021   0.335  1.00  0.00     0.078 A 
HETATM   13  C3  UNL     1       6.474  -0.758   0.681  1.00  0.00     0.052 A 
HETATM   14  N4  UNL     1       7.686  -0.259   0.384  1.00  0.00    -0.192 N 
HETATM   15  C24 UNL     1       7.806   0.955  -0.228  1.00  0.00     0.677 A 
ATOM     16  H4  UNL     1       8.523  -0.792   0.618  1.00  0.00     0.184 HD
HETATM   17  N2  UNL     1       6.747   1.710  -0.565  1.00  0.00    -0.177 N 
ATOM     18  H2  UNL     1       6.868   2.613  -1.023  1.00  0.00     0.185 HD
BRANCH  13  19
HETATM   19  C2  UNL     1       6.239  -2.028   1.322  1.00  0.00     0.020 C 
HETATM   20  C1  UNL     1       7.237  -2.790   1.691  1.00  0.00     0.013 C 
ENDBRANCH  13  19
BRANCH  15  21
HETATM   21  N3  UNL     1       8.998   1.366  -0.481  1.00  0.00    -0.234 N 
ATOM     22  H32 UNL     1       9.088   2.273  -0.938  1.00  0.00     0.174 HD
ATOM     23  H31 UNL     1       9.802   0.793  -0.225  1.00  0.00     0.174 HD
ENDBRANCH  15  21
ENDBRANCH   9  11
ENDBRANCH   8   9
ENDBRANCH   7   8
ENDBRANCH   1   7
BRANCH   4  24
HETATM   24  C12 UNL     1      -3.040   0.017  -0.356  1.00  0.00    -0.023 A 
HETATM   25  C13 UNL     1      -3.927   1.062  -0.240  1.00  0.00     0.020 A 
HETATM   26  C14 UNL     1      -5.255   0.800   0.046  1.00  0.00    -0.049 A 
HETATM   27  C17 UNL     1      -5.717  -0.485   0.220  1.00  0.00    -0.022 A 
HETATM   28  C18 UNL     1      -7.148  -0.721   0.525  1.00  0.00     0.052 C 
HETATM   29  C19 UNL     1      -4.840  -1.540   0.107  1.00  0.00     0.075 A 
HETATM   30  C21 UNL     1      -3.519  -1.265  -0.179  1.00  0.00     0.049 A 
BRANCH  26  31
HETATM   31  C15 UNL     1      -6.205   1.948   0.169  1.00  0.00     0.035 C 
HETATM   32  C16 UNL     1      -6.533   2.239   1.618  1.00  0.00     0.010 C 
ENDBRANCH  26  31
BRANCH  29  33
HETATM   33  O1  UNL     1      -5.301  -2.859   0.283  1.00  0.00    -0.355 OA
HETATM   34  C20 UNL     1      -4.353  -3.893   0.154  1.00  0.00     0.210 C 
ENDBRANCH  29  33
ENDBRANCH   4  24
TORSDOF 9
