REMARK  8 active torsions:
REMARK  status: ('A' for Active; 'I' for Inactive)
REMARK    1  A    between atoms: C11_11  and  C12_12 
REMARK    2  A    between atoms: C12_12  and  C13_13 
REMARK    3  A    between atoms: C20_23  and  C21_24 
REMARK    4  A    between atoms: C21_24  and  O1_25 
REMARK    5  A    between atoms: O1_25  and  C22_26 
REMARK    6  A    between atoms: C22_26  and  C23_27 
REMARK    7  A    between atoms: C23_27  and  C24_28 
REMARK    8  A    between atoms: C24_28  and  O2_29 
ROOT
HETATM    1  C13 UNL     1      -3.598   3.232  -0.327  1.00  0.00     0.126 C 
HETATM    2  C14 UNL     1      -3.229   4.675  -0.395  1.00  0.00     0.059 C 
HETATM    3  N1  UNL     1      -2.956   5.797  -0.438  1.00  0.00    -0.197 NA
ENDROOT
BRANCH   1   4
HETATM    4  C12 UNL     1      -2.583   2.400  -1.053  1.00  0.00     0.043 C 
BRANCH   4   5
HETATM    5  C11 UNL     1      -2.979   0.948  -0.996  1.00  0.00     0.106 C 
HETATM    6  C9  UNL     1      -3.084   0.384   0.362  1.00  0.00    -0.059 C 
HETATM    7  C8  UNL     1      -2.053  -0.237   0.932  1.00  0.00    -0.069 C 
HETATM    8  C10 UNL     1      -4.341   0.464   1.201  1.00  0.00     0.046 C 
HETATM    9  C7  UNL     1      -1.771  -0.907   2.227  1.00  0.00     0.044 C 
HETATM   10  C16 UNL     1      -0.831  -0.332   0.043  1.00  0.00     0.042 C 
HETATM   11  C6  UNL     1      -0.290  -1.035   2.201  1.00  0.00     0.022 C 
HETATM   12  C5  UNL     1       0.242  -2.162   3.011  1.00  0.00    -0.024 C 
HETATM   13  C17 UNL     1       0.108  -1.256   0.738  1.00  0.00    -0.015 C 
HETATM   14  C4  UNL     1       1.242  -2.972   2.744  1.00  0.00    -0.021 C 
HETATM   15  C3  UNL     1       2.132  -2.999   1.554  1.00  0.00     0.036 C 
HETATM   16  C2  UNL     1       2.502  -1.564   1.308  1.00  0.00    -0.075 C 
HETATM   17  C19 UNL     1       1.257  -3.469   0.402  1.00  0.00     0.014 C 
HETATM   18  C1  UNL     1       3.691  -1.134   1.699  1.00  0.00     0.015 C 
HETATM   19  C20 UNL     1       1.510  -0.695   0.641  1.00  0.00     0.048 C 
HETATM   20  C18 UNL     1      -0.013  -2.679   0.312  1.00  0.00     0.012 C 
HETATM   21  C15 UNL     1      -1.378  -0.845  -1.265  1.00  0.00     0.124 C 
HETATM   22  N2  UNL     1      -2.138   0.203  -1.881  1.00  0.00    -0.413 N 
ATOM     23  H2  UNL     1      -2.083   0.403  -2.880  1.00  0.00     0.153 HD
BRANCH  19  24
HETATM   24  C21 UNL     1       1.954  -0.378  -0.742  1.00  0.00     0.177 C 
BRANCH  24  25
HETATM   25  O1  UNL     1       3.175   0.277  -0.669  1.00  0.00    -0.390 OA
BRANCH  25  26
HETATM   26  C22 UNL     1       3.692   0.624  -1.888  1.00  0.00     0.169 C 
BRANCH  26  27
HETATM   27  C23 UNL     1       2.818   1.550  -2.691  1.00  0.00     0.052 C 
BRANCH  27  28
HETATM   28  C24 UNL     1       2.548   2.850  -2.005  1.00  0.00     0.166 C 
BRANCH  28  29
HETATM   29  O2  UNL     1       3.713   3.565  -1.737  1.00  0.00    -0.401 OA
ATOM     30  H2  UNL     1       3.541   4.391  -1.301  1.00  0.00     0.209 HD
ENDBRANCH  28  29
ENDBRANCH  27  28
ENDBRANCH  26  27
ENDBRANCH  25  26
ENDBRANCH  24  25
ENDBRANCH  19  24
ENDBRANCH   4   5
ENDBRANCH   1   4
TORSDOF 8
