REMARK  12 active torsions:
REMARK  status: ('A' for Active; 'I' for Inactive)
REMARK    1  A    between atoms: N1_2  and  C3_4 
REMARK    2  A    between atoms: C3_4  and  C4_5 
REMARK    3  A    between atoms: C4_5  and  O1_6 
REMARK    4  A    between atoms: O1_6  and  C5_7 
REMARK    5  A    between atoms: C5_7  and  C6_8 
REMARK    6  A    between atoms: C6_8  and  C7_10 
REMARK    7  A    between atoms: C7_10  and  O3_11 
REMARK    8  A    between atoms: C7_10  and  C8_13 
REMARK    9  A    between atoms: C16_23  and  O6_24 
REMARK   10  A    between atoms: C22_32  and  C23_33 
REMARK   11  A    between atoms: C23_33  and  O8_34 
REMARK   12  A    between atoms: C25_37  and  O9_38 
ROOT
HETATM    1  C5  UNL     1      -0.826   0.191  -0.055  1.00  0.00     0.134 C 
HETATM    2  C18 UNL     1      -0.993  -0.582  -1.356  1.00  0.00     0.047 C 
HETATM    3  C19 UNL     1      -1.547   0.369  -2.382  1.00  0.00     0.009 C 
HETATM    4  C20 UNL     1      -1.911   1.613  -1.617  1.00  0.00     0.000 C 
HETATM    5  C21 UNL     1      -3.292   2.127  -2.013  1.00  0.00     0.012 C 
HETATM    6  C22 UNL     1      -3.697   3.168  -1.024  1.00  0.00     0.012 C 
HETATM    7  C24 UNL     1      -3.606   2.828   0.411  1.00  0.00     0.039 C 
HETATM    8  C25 UNL     1      -2.354   2.044   0.818  1.00  0.00     0.130 C 
HETATM    9  C26 UNL     1      -2.040   1.088  -0.249  1.00  0.00     0.024 C 
HETATM   10  C27 UNL     1      -3.200   0.105  -0.249  1.00  0.00     0.022 C 
ENDROOT
BRANCH   1  11
HETATM   11  O1  UNL     1      -1.152  -0.454   1.067  1.00  0.00    -0.370 OA
BRANCH  11  12
HETATM   12  C4  UNL     1      -0.710  -1.504   1.671  1.00  0.00     0.199 C 
BRANCH  12  13
HETATM   13  C3  UNL     1      -0.828  -2.891   1.075  1.00  0.00     0.297 C 
BRANCH  13  14
HETATM   14  N1  UNL     1      -2.197  -3.311   0.865  1.00  0.00     0.082 N 
HETATM   15  C1  UNL     1      -2.271  -4.640   0.294  1.00  0.00     0.309 C 
HETATM   16  C2  UNL     1      -2.875  -3.279   2.154  1.00  0.00     0.309 C 
ENDBRANCH  13  14
ENDBRANCH  12  13
ENDBRANCH  11  12
ENDBRANCH   1  11
BRANCH   1  17
HETATM   17  C6  UNL     1       0.467   0.856  -0.184  1.00  0.00     0.193 C 
HETATM   18  O2  UNL     1       0.728   1.162  -1.373  1.00  0.00    -0.292 OA
BRANCH  17  19
HETATM   19  C7  UNL     1       1.538   1.271   0.698  1.00  0.00     0.222 C 
BRANCH  19  20
HETATM   20  O3  UNL     1       1.188   0.999   2.047  1.00  0.00    -0.385 OA
ATOM     21  H3  UNL     1       1.891   1.271   2.626  1.00  0.00     0.210 HD
ENDBRANCH  19  20
BRANCH  19  22
HETATM   22  C8  UNL     1       2.872   0.581   0.560  1.00  0.00     0.188 C 
HETATM   23  O4  UNL     1       2.662  -0.762   0.715  1.00  0.00    -0.367 OA
HETATM   24  C9  UNL     1       3.632  -1.502   1.326  1.00  0.00     0.083 C 
HETATM   25  C10 UNL     1       3.030  -2.896   1.584  1.00  0.00     0.048 C 
HETATM   26  C11 UNL     1       4.017  -0.998   2.698  1.00  0.00     0.048 C 
HETATM   27  C12 UNL     1       4.819  -1.562   0.458  1.00  0.00     0.185 A 
HETATM   28  O5  UNL     1       5.070  -2.359  -0.589  1.00  0.00    -0.372 OA
HETATM   29  C13 UNL     1       4.272  -1.352  -0.972  1.00  0.00     0.161 A 
HETATM   30  C14 UNL     1       4.574   0.051  -1.246  1.00  0.00     0.053 C 
HETATM   31  C15 UNL     1       4.226   0.365  -2.706  1.00  0.00     0.070 C 
HETATM   32  C17 UNL     1       3.803   1.079  -0.454  1.00  0.00     0.163 C 
HETATM   33  C16 UNL     1       4.047   1.871  -2.558  1.00  0.00     0.258 C 
HETATM   34  O7  UNL     1       3.359   2.007  -1.361  1.00  0.00    -0.353 OA
BRANCH  33  35
HETATM   35  O6  UNL     1       5.243   2.544  -2.604  1.00  0.00    -0.371 OA
ATOM     36  H6  UNL     1       5.131   3.483  -2.512  1.00  0.00     0.212 HD
ENDBRANCH  33  35
ENDBRANCH  19  22
ENDBRANCH  17  19
ENDBRANCH   1  17
BRANCH   8  37
HETATM   37  O9  UNL     1      -1.434   2.964   1.177  1.00  0.00    -0.395 OA
ATOM     38  H9  UNL     1      -0.658   2.478   1.429  1.00  0.00     0.210 HD
ENDBRANCH   8  37
BRANCH   6  39
HETATM   39  C23 UNL     1      -5.163   3.512  -1.316  1.00  0.00     0.168 C 
BRANCH  39  40
HETATM   40  O8  UNL     1      -5.534   4.477  -0.396  1.00  0.00    -0.400 OA
ATOM     41  H8  UNL     1      -6.442   4.690  -0.577  1.00  0.00     0.209 HD
ENDBRANCH  39  40
ENDBRANCH   6  39
TORSDOF 12
