REMARK  10 active torsions:
REMARK  status: ('A' for Active; 'I' for Inactive)
REMARK    1  A    between atoms: C2_2  and  O2_4 
REMARK    2  A    between atoms: O2_4  and  C3_5 
REMARK    3  A    between atoms: C3_5  and  C4_6 
REMARK    4  A    between atoms: C11_16  and  N1_17 
REMARK    5  A    between atoms: C17_24  and  C18_25 
REMARK    6  A    between atoms: C23_32  and  C24_33 
REMARK    7  A    between atoms: C24_33  and  C25_34 
REMARK    8  A    between atoms: C25_34  and  C26_35 
REMARK    9  A    between atoms: C26_35  and  N2_36 
REMARK   10  A    between atoms: C27_40  and  O9_41 
ROOT
HETATM    1  C4  UNL     1       2.852  -0.671  -0.314  1.00  0.00     0.142 A 
HETATM    2  O3  UNL     1       3.648   0.160  -1.009  1.00  0.00    -0.339 OA
HETATM    3  C5  UNL     1       3.746  -1.160  -1.340  1.00  0.00     0.298 A 
HETATM    4  O4  UNL     1       3.413  -1.394  -2.615  1.00  0.00    -0.355 OA
HETATM    5  C6  UNL     1       2.457  -0.646  -3.233  1.00  0.00     0.203 C 
HETATM    6  C7  UNL     1       1.102  -0.807  -2.669  1.00  0.00     0.147 C 
HETATM    7  C8  UNL     1       1.215  -1.836  -1.571  1.00  0.00     0.045 C 
HETATM    8  C9  UNL     1       1.406  -0.862  -0.420  1.00  0.00     0.070 C 
HETATM    9  C10 UNL     1       0.495   0.240  -0.742  1.00  0.00     0.131 C 
HETATM   10  O5  UNL     1       0.469   0.267  -2.129  1.00  0.00    -0.367 OA
HETATM   11  C11 UNL     1       0.765   1.612  -0.277  1.00  0.00     0.264 C 
HETATM   12  C15 UNL     1       0.529   1.650   1.233  1.00  0.00     0.048 C 
HETATM   13  C16 UNL     1      -0.614   0.674   1.333  1.00  0.00     0.041 C 
HETATM   14  C17 UNL     1      -1.919   1.317   1.739  1.00  0.00     0.101 C 
HETATM   15  C19 UNL     1      -2.936   0.198   1.800  1.00  0.00    -0.034 C 
HETATM   16  C20 UNL     1      -4.247   0.579   1.175  1.00  0.00     0.016 C 
HETATM   17  C21 UNL     1      -3.248   0.022   3.300  1.00  0.00     0.016 C 
HETATM   18  C22 UNL     1      -2.385  -1.125   1.375  1.00  0.00     0.017 C 
HETATM   19  C23 UNL     1      -1.572  -1.117   0.101  1.00  0.00     0.024 C 
HETATM   20  C27 UNL     1      -0.863   0.132  -0.081  1.00  0.00     0.100 C 
ENDROOT
BRANCH  11  21
HETATM   21  N1  UNL     1       1.734   2.468  -0.748  1.00  0.00     0.121 N 
HETATM   22  C12 UNL     1       1.605   2.934  -2.110  1.00  0.00     0.302 C 
HETATM   23  C13 UNL     1       1.608   4.462  -1.959  1.00  0.00     0.200 C 
HETATM   24  O6  UNL     1       2.465   4.584  -0.856  1.00  0.00    -0.361 OA
HETATM   25  C14 UNL     1       1.883   3.697   0.016  1.00  0.00     0.441 C 
ENDBRANCH  11  21
BRANCH  20  26
HETATM   26  O9  UNL     1      -1.721   0.987  -0.809  1.00  0.00    -0.386 OA
ATOM     27  H9  UNL     1      -2.573   0.919  -0.394  1.00  0.00     0.210 HD
ENDBRANCH  20  26
BRANCH   1  28
HETATM   28  C3  UNL     1       3.406  -0.866   1.116  1.00  0.00     0.222 C 
BRANCH  28  29
HETATM   29  O2  UNL     1       4.686  -1.412   1.094  1.00  0.00    -0.319 OA
BRANCH  29  30
HETATM   30  C2  UNL     1       5.367  -1.672   2.270  1.00  0.00     0.254 C 
HETATM   31  C1  UNL     1       6.736  -2.256   2.269  1.00  0.00     0.126 C 
HETATM   32  O1  UNL     1       4.823  -1.410   3.370  1.00  0.00    -0.266 OA
ENDBRANCH  29  30
ENDBRANCH  28  29
ENDBRANCH   1  28
BRANCH  19  33
HETATM   33  C24 UNL     1      -2.513  -1.428  -1.036  1.00  0.00     0.009 C 
BRANCH  33  34
HETATM   34  C25 UNL     1      -3.196  -2.744  -0.984  1.00  0.00     0.028 C 
BRANCH  34  35
HETATM   35  C26 UNL     1      -4.099  -2.969  -2.190  1.00  0.00     0.229 C 
BRANCH  35  36
HETATM   36  N2  UNL     1      -5.134  -1.982  -2.301  1.00  0.00    -0.079 N 
ATOM     37  H23 UNL     1      -5.680  -1.927  -1.441  1.00  0.00     0.274 HD
ATOM     38  H22 UNL     1      -4.742  -1.040  -2.309  1.00  0.00     0.274 HD
ATOM     39  H21 UNL     1      -5.739  -2.133  -3.109  1.00  0.00     0.274 HD
ENDBRANCH  35  36
ENDBRANCH  34  35
ENDBRANCH  33  34
ENDBRANCH  19  33
BRANCH  14  40
HETATM   40  C18 UNL     1      -1.833   2.070   2.997  1.00  0.00     0.178 C 
HETATM   41  O7  UNL     1      -0.790   2.027   3.681  1.00  0.00    -0.648 OA
HETATM   42  O8  UNL     1      -2.876   2.839   3.466  1.00  0.00    -0.648 OA
ENDBRANCH  14  40
TORSDOF 10
