REMARK  13 active torsions:
REMARK  status: ('A' for Active; 'I' for Inactive)
REMARK    1  A    between atoms: C2_2  and  O2_4 
REMARK    2  A    between atoms: O2_4  and  C3_5 
REMARK    3  A    between atoms: C4_6  and  O3_7 
REMARK    4  A    between atoms: C7_11  and  O4_12 
REMARK    5  A    between atoms: O4_12  and  C8_13 
REMARK    6  A    between atoms: C12_18  and  O6_19 
REMARK    7  A    between atoms: O6_19  and  C13_20 
REMARK    8  A    between atoms: C13_20  and  C14_22 
REMARK    9  A    between atoms: C14_22  and  C15_23 
REMARK   10  A    between atoms: C15_23  and  C16_24 
REMARK   11  A    between atoms: C18_29  and  C19_30 
REMARK   12  A    between atoms: C19_30  and  N1_31 
REMARK   13  A    between atoms: C22_34  and  O11_35 
ROOT
HETATM    1  C3  UNL     1      -2.479  -0.144   0.984  1.00  0.00     0.201 C 
HETATM    2  C4  UNL     1      -2.878  -1.430   0.356  1.00  0.00     0.157 C 
HETATM    3  C5  UNL     1      -1.791  -2.456   0.436  1.00  0.00     0.052 C 
HETATM    4  C6  UNL     1      -1.700  -2.818   1.910  1.00  0.00     0.016 C 
HETATM    5  C7  UNL     1      -0.461  -2.025  -0.145  1.00  0.00     0.118 C 
HETATM    6  C10 UNL     1       0.594  -2.631   0.819  1.00  0.00     0.040 A 
HETATM    7  C11 UNL     1       1.515  -1.595   1.212  1.00  0.00     0.034 A 
HETATM    8  C12 UNL     1       1.130  -0.314   0.531  1.00  0.00     0.178 C 
HETATM    9  C17 UNL     1      -0.216  -0.581  -0.110  1.00  0.00     0.157 A 
HETATM   10  O10 UNL     1      -0.333   0.010  -1.393  1.00  0.00    -0.361 OA
HETATM   11  C18 UNL     1      -1.317   0.917  -1.007  1.00  0.00     0.191 A 
HETATM   12  C22 UNL     1      -1.222   0.350   0.373  1.00  0.00     0.151 A 
HETATM   13  C23 UNL     1       2.024  -2.715   0.422  1.00  0.00    -0.034 A 
HETATM   14  C24 UNL     1       2.551  -2.650  -0.945  1.00  0.00     0.016 C 
HETATM   15  C25 UNL     1       2.883  -3.699   1.255  1.00  0.00     0.016 C 
ENDROOT
BRANCH   8  16
HETATM   16  O6  UNL     1       2.101   0.163  -0.360  1.00  0.00    -0.312 OA
BRANCH  16  17
HETATM   17  C13 UNL     1       2.806   1.348  -0.231  1.00  0.00     0.259 C 
HETATM   18  O7  UNL     1       2.569   2.072   0.766  1.00  0.00    -0.265 OA
BRANCH  17  19
HETATM   19  C14 UNL     1       3.814   1.791  -1.206  1.00  0.00     0.121 C 
BRANCH  19  20
HETATM   20  C15 UNL     1       4.408   3.108  -0.801  1.00  0.00     0.123 C 
BRANCH  20  21
HETATM   21  C16 UNL     1       5.430   3.571  -1.777  1.00  0.00     0.172 C 
HETATM   22  O8  UNL     1       5.699   2.876  -2.790  1.00  0.00    -0.648 OA
HETATM   23  O9  UNL     1       6.112   4.766  -1.607  1.00  0.00    -0.648 OA
ENDBRANCH  20  21
ENDBRANCH  19  20
ENDBRANCH  17  19
ENDBRANCH  16  17
ENDBRANCH   8  16
BRANCH   5  24
HETATM   24  O4  UNL     1      -0.089  -2.665  -1.305  1.00  0.00    -0.306 OA
BRANCH  24  25
HETATM   25  C8  UNL     1      -0.615  -2.798  -2.523  1.00  0.00     0.255 C 
HETATM   26  C9  UNL     1      -0.049  -3.544  -3.670  1.00  0.00     0.126 C 
HETATM   27  O5  UNL     1      -1.704  -2.229  -2.709  1.00  0.00    -0.266 OA
ENDBRANCH  24  25
ENDBRANCH   5  24
BRANCH  12  28
HETATM   28  O11 UNL     1      -0.711   1.370   1.218  1.00  0.00    -0.381 OA
ATOM     29  H11 UNL     1       0.095   1.687   0.826  1.00  0.00     0.211 HD
ENDBRANCH  12  28
BRANCH  11  30
HETATM   30  C19 UNL     1      -0.928   2.362  -1.163  1.00  0.00     0.306 C 
BRANCH  30  31
HETATM   31  N1  UNL     1      -2.022   3.224  -0.736  1.00  0.00     0.082 N 
HETATM   32  C20 UNL     1      -1.695   4.616  -0.865  1.00  0.00     0.309 C 
HETATM   33  C21 UNL     1      -3.221   2.977  -1.512  1.00  0.00     0.309 C 
ENDBRANCH  30  31
ENDBRANCH  11  30
BRANCH   1  34
HETATM   34  O2  UNL     1      -2.430  -0.142   2.385  1.00  0.00    -0.310 OA
BRANCH  34  35
HETATM   35  C2  UNL     1      -3.230   0.657   3.189  1.00  0.00     0.255 C 
HETATM   36  C1  UNL     1      -3.159   0.640   4.668  1.00  0.00     0.126 C 
HETATM   37  O1  UNL     1      -4.057   1.435   2.642  1.00  0.00    -0.266 OA
ENDBRANCH  34  35
ENDBRANCH   1  34
BRANCH   2  38
HETATM   38  O3  UNL     1      -3.959  -1.953   1.112  1.00  0.00    -0.392 OA
ATOM     39  H3  UNL     1      -4.214  -2.775   0.710  1.00  0.00     0.210 HD
ENDBRANCH   2  38
TORSDOF 13
