REMARK  1 active torsions:
REMARK  status: ('A' for Active; 'I' for Inactive)
REMARK    1  A    between atoms: C2_2  and  N1_3 
ROOT
HETATM    1  N1  UNL     1       0.455   0.023   0.106  1.00  0.00    -0.387 N 
HETATM    2  C3  UNL     1      -0.521   0.897   0.682  1.00  0.00     0.148 C 
HETATM    3  C4  UNL     1      -1.773   0.778  -0.173  1.00  0.00     0.187 C 
HETATM    4  O1  UNL     1      -2.197  -0.558  -0.040  1.00  0.00    -0.388 OA
HETATM    5  C5  UNL     1      -1.300  -1.316  -0.799  1.00  0.00     0.187 C 
HETATM    6  C6  UNL     1       0.089  -1.327  -0.178  1.00  0.00     0.148 C 
ENDROOT
BRANCH   1   7
HETATM    7  C2  UNL     1       1.753   0.508  -0.168  1.00  0.00     0.075 C 
HETATM    8  C1  UNL     1       2.605   0.736   0.809  1.00  0.00     0.029 C 
ENDBRANCH   1   7
TORSDOF 1
