REMARK  3 active torsions:
REMARK  status: ('A' for Active; 'I' for Inactive)
REMARK    1  A    between atoms: N1_1  and  N2_4 
REMARK    2  A    between atoms: N2_4  and  N3_5 
REMARK    3  A    between atoms: N3_5  and  N4_7 
ROOT
HETATM    1  N4  UNL     1       0.513   0.390   0.340  1.00  0.00    -0.237 N 
HETATM    2  C1  UNL     1      -0.400   0.851  -0.522  1.00  0.00     0.121 A 
HETATM    3  C2  UNL     1      -1.572   0.175  -0.704  1.00  0.00     0.036 A 
HETATM    4  C3  UNL     1      -1.816  -0.984   0.000  1.00  0.00     0.090 A 
HETATM    5  N5  UNL     1      -0.862  -1.395   0.850  1.00  0.00    -0.360 N 
ATOM      6  H5  UNL     1      -1.023  -2.250   1.382  1.00  0.00     0.166 HD
HETATM    7  C4  UNL     1       0.294  -0.737   1.035  1.00  0.00     0.208 A 
ENDROOT
BRANCH   1   8
HETATM    8  N3  UNL     1       1.713   1.072   0.534  1.00  0.00    -0.149 N 
ATOM      9  H3  UNL     1       1.754   1.836   1.209  1.00  0.00     0.226 HD
BRANCH   8  10
HETATM   10  N2  UNL     1       2.709   0.769  -0.089  1.00  0.00    -0.227 NA
BRANCH  10  11
HETATM   11  N1  UNL     1       3.720   0.246  -0.567  1.00  0.00    -0.259 N 
ATOM     12  H12 UNL     1       3.634  -0.544   0.072  1.00  0.00     0.193 HD
ATOM     13  H11 UNL     1       4.557  -0.009  -1.091  1.00  0.00     0.193 HD
ENDBRANCH  10  11
ENDBRANCH   8  10
ENDBRANCH   1   8
TORSDOF 3
