REMARK  2 active torsions:
REMARK  status: ('A' for Active; 'I' for Inactive)
REMARK    1  A    between atoms: C2_2  and  C3_3 
REMARK    2  A    between atoms: C4_4  and  C5_5 
ROOT
HETATM    1  C5  UNL     1       0.768   0.217  -0.254  1.00  0.00     0.284 C 
HETATM    2  O1  UNL     1       1.730   1.240  -0.090  1.00  0.00    -0.356 OA
HETATM    3  C6  UNL     1       2.880   0.458  -0.328  1.00  0.00     0.197 C 
HETATM    4  C7  UNL     1       2.529  -0.799   0.453  1.00  0.00     0.197 C 
HETATM    5  O2  UNL     1       1.146  -0.668   0.726  1.00  0.00    -0.356 OA
ENDROOT
BRANCH   1   6
HETATM    6  C4  UNL     1      -0.596   0.689  -0.196  1.00  0.00     0.033 C 
HETATM    7  C3  UNL     1      -1.528  -0.048   0.382  1.00  0.00    -0.000 C 
BRANCH   7   8
HETATM    8  C2  UNL     1      -2.907   0.385   0.463  1.00  0.00    -0.010 C 
HETATM    9  C1  UNL     1      -3.791  -0.390   1.050  1.00  0.00     0.011 C 
ENDBRANCH   7   8
ENDBRANCH   1   6
TORSDOF 2
