REMARK  2 active torsions:
REMARK  status: ('A' for Active; 'I' for Inactive)
REMARK    1  A    between atoms: C3_3  and  O1_4 
REMARK    2  A    between atoms: O1_4  and  C4_5 
ROOT
HETATM    1  C1  UNL     1      -2.903  -0.235   0.090  1.00  0.00     0.170 C 
HETATM    2  C2  UNL     1      -1.639  -0.456   0.880  1.00  0.00     0.060 C 
HETATM    3  C3  UNL     1      -0.574  -0.072  -0.132  1.00  0.00     0.147 C 
HETATM    4  C7  UNL     1      -1.326   1.010  -0.897  1.00  0.00     0.199 C 
HETATM    5  O2  UNL     1      -2.648   0.656  -0.908  1.00  0.00    -0.389 OA
ENDROOT
BRANCH   3   6
HETATM    6  O1  UNL     1       0.545   0.477   0.434  1.00  0.00    -0.378 OA
BRANCH   6   7
HETATM    7  C4  UNL     1       1.654  -0.239   0.044  1.00  0.00     0.122 A 
HETATM    8  C5  UNL     1       2.707  -0.425   1.153  1.00  0.00     0.034 A 
HETATM    9  C6  UNL     1       2.998   0.377  -0.040  1.00  0.00     0.034 A 
ENDBRANCH   6   7
ENDBRANCH   3   6
TORSDOF 2
