REMARK  2 active torsions:
REMARK  status: ('A' for Active; 'I' for Inactive)
REMARK    1  A    between atoms: N1_1  and  N2_4 
REMARK    2  A    between atoms: N3_6  and  C1_8 
ROOT
HETATM    1  N2  UNL     1       1.334   0.051   0.478  1.00  0.00    -0.253 N 
ATOM      2  H2  UNL     1       0.772  -0.061   1.322  1.00  0.00     0.207 HD
HETATM    3  N3  UNL     1       0.757   0.213  -0.635  1.00  0.00    -0.318 N 
ATOM      4  H3  UNL     1       1.351   0.321  -1.457  1.00  0.00     0.182 HD
ENDROOT
BRANCH   1   5
HETATM    5  N1  UNL     1       2.727   0.022   0.574  1.00  0.00    -0.331 N 
ATOM      6  H12 UNL     1       3.274   0.135  -0.279  1.00  0.00     0.178 HD
ATOM      7  H11 UNL     1       3.193  -0.109   1.472  1.00  0.00     0.178 HD
ENDBRANCH   1   5
BRANCH   3   8
HETATM    8  C1  UNL     1      -0.652   0.258  -0.839  1.00  0.00     0.101 A 
HETATM    9  C2  UNL     1      -1.620   0.575   0.226  1.00  0.00     0.029 A 
HETATM   10  C3  UNL     1      -1.418  -0.851  -0.113  1.00  0.00     0.029 A 
ENDBRANCH   3   8
TORSDOF 2
