REMARK  1 active torsions:
REMARK  status: ('A' for Active; 'I' for Inactive)
REMARK    1  A    between atoms: C2_2  and  C3_3 
ROOT
HETATM    1  C3  UNL     1      -0.399   0.133   0.048  1.00  0.00     0.065 A 
HETATM    2  C4  UNL     1      -1.604   0.780   0.179  1.00  0.00     0.139 A 
HETATM    3  N1  UNL     1      -2.537  -0.156   0.375  1.00  0.00    -0.295 N 
ATOM      4  H1  UNL     1      -3.535   0.006   0.507  1.00  0.00     0.187 HD
HETATM    5  N2  UNL     1      -1.937  -1.316   0.366  1.00  0.00    -0.243 N 
ATOM      6  H2  UNL     1      -2.409  -2.211   0.493  1.00  0.00     0.208 HD
HETATM    7  N3  UNL     1      -0.644  -1.178   0.171  1.00  0.00    -0.285 N 
ATOM      8  H3  UNL     1       0.044  -1.929   0.122  1.00  0.00     0.188 HD
ENDROOT
BRANCH   1   9
HETATM    9  C2  UNL     1       0.919   0.742  -0.181  1.00  0.00     0.022 C 
HETATM   10  C1  UNL     1       1.977  -0.018  -0.283  1.00  0.00     0.013 C 
ENDBRANCH   1   9
TORSDOF 1
