REMARK  2 active torsions:
REMARK  status: ('A' for Active; 'I' for Inactive)
REMARK    1  A    between atoms: C2_2  and  O1_3 
REMARK    2  A    between atoms: O1_3  and  C3_4 
ROOT
HETATM    1  C3  UNL     1      -0.553   0.327   0.035  1.00  0.00     0.352 A 
HETATM    2  C4  UNL     1      -1.650   1.217  -0.266  1.00  0.00     0.296 A 
HETATM    3  N1  UNL     1      -1.717  -0.200  -0.685  1.00  0.00    -0.043 N 
ATOM      4  H11 UNL     1      -2.371  -0.971  -0.551  1.00  0.00     0.280 HD
ATOM      5  H12 UNL     1      -1.870  -0.696  -1.563  1.00  0.00     0.280 HD
ENDROOT
BRANCH   1   6
HETATM    6  O1  UNL     1       0.674   0.392  -0.690  1.00  0.00    -0.330 OA
BRANCH   6   7
HETATM    7  C2  UNL     1       1.697  -0.484  -0.363  1.00  0.00     0.127 C 
HETATM    8  C1  UNL     1       1.966  -0.873   0.858  1.00  0.00     0.037 C 
ENDBRANCH   6   7
ENDBRANCH   1   6
TORSDOF 2
