REMARK  11 active torsions:
REMARK  status: ('A' for Active; 'I' for Inactive)
REMARK    1  A    between atoms: C2_2  and  C4_4 
REMARK    2  A    between atoms: N1_7  and  O1_9 
REMARK    3  A    between atoms: O1_9  and  C7_10 
REMARK    4  A    between atoms: C7_10  and  C8_11 
REMARK    5  A    between atoms: C8_11  and  C9_12 
REMARK    6  A    between atoms: C9_12  and  S1_13 
REMARK    7  A    between atoms: S1_13  and  C10_14 
REMARK    8  A    between atoms: C10_14  and  N4_21 
REMARK    9  A    between atoms: N2_15  and  N3_17 
REMARK   10  A    between atoms: N3_17  and  O2_19 
REMARK   11  A    between atoms: C17_30  and  O3_31 
ROOT
HETATM    1  C7  UNL     1       0.060   0.378  -1.489  1.00  0.00     0.202 C 
ENDROOT
BRANCH   1   2
HETATM    2  O1  UNL     1      -0.760   0.137  -0.361  1.00  0.00    -0.279 OA
BRANCH   2   3
HETATM    3  N1  UNL     1      -1.995  -0.371  -0.392  1.00  0.00    -0.253 N 
HETATM    4  C6  UNL     1      -3.110   0.068  -0.009  1.00  0.00     0.123 C 
HETATM    5  C5  UNL     1      -4.469  -0.704  -0.143  1.00  0.00     0.201 C 
HETATM    6  N6  UNL     1      -4.007   0.979   0.546  1.00  0.00    -0.334 N 
HETATM    7  C4  UNL     1      -4.738   0.758  -0.705  1.00  0.00     0.117 C 
HETATM    8  S2  UNL     1      -5.056  -0.927   1.487  1.00  0.00     0.161 S 
HETATM    9  C18 UNL     1      -4.874   0.412   2.592  1.00  0.00     0.194 C 
HETATM   10  O4  UNL     1      -6.531  -1.337   1.382  1.00  0.00    -0.227 OA
HETATM   11  O5  UNL     1      -4.368  -2.123   2.152  1.00  0.00    -0.227 OA
HETATM   12  C17 UNL     1      -4.104   1.569   1.834  1.00  0.00     0.235 C 
ATOM     13  H1  UNL     1      -2.044  -1.300  -0.810  1.00  0.00     0.195 HD
BRANCH   7  14
HETATM   14  C2  UNL     1      -6.166   1.105  -0.758  1.00  0.00     0.002 C 
HETATM   15  C1  UNL     1      -6.875   0.104  -1.676  1.00  0.00     0.011 C 
HETATM   16  C3  UNL     1      -6.307   2.462  -1.398  1.00  0.00     0.011 C 
ENDBRANCH   7  14
BRANCH  12  17
HETATM   17  O3  UNL     1      -2.961   1.788   2.526  1.00  0.00    -0.376 OA
ATOM     18  H3  UNL     1      -3.026   2.183   3.388  1.00  0.00     0.212 HD
ENDBRANCH  12  17
ENDBRANCH   2   3
ENDBRANCH   1   2
BRANCH   1  19
HETATM   19  C8  UNL     1       1.381   0.970  -0.989  1.00  0.00     0.039 C 
BRANCH  19  20
HETATM   20  C9  UNL     1       2.234   1.218  -2.196  1.00  0.00     0.084 C 
BRANCH  20  21
HETATM   21  S1  UNL     1       2.613  -0.226  -3.165  1.00  0.00    -0.093 SA
BRANCH  21  22
HETATM   22  C10 UNL     1       3.677  -1.400  -2.396  1.00  0.00     0.158 C 
HETATM   23  N2  UNL     1       3.960  -2.511  -3.035  1.00  0.00    -0.260 N 
ATOM     24  H2  UNL     1       3.554  -2.661  -3.959  1.00  0.00     0.191 HD
BRANCH  23  25
HETATM   25  N3  UNL     1       4.791  -3.492  -2.503  1.00  0.00    -0.208 N 
ATOM     26  H3  UNL     1       5.717  -3.229  -2.167  1.00  0.00     0.215 HD
BRANCH  25  27
HETATM   27  O2  UNL     1       4.432  -4.692  -2.425  1.00  0.00    -0.274 OA
ATOM     28  H2  UNL     1       4.999  -5.362  -2.062  1.00  0.00     0.246 HD
ENDBRANCH  25  27
ENDBRANCH  23  25
BRANCH  22  29
HETATM   29  N4  UNL     1       4.282  -1.270  -1.116  1.00  0.00    -0.357 N 
HETATM   30  C11 UNL     1       3.875  -2.034   0.015  1.00  0.00     0.153 C 
HETATM   31  C12 UNL     1       3.962  -1.380   1.340  1.00  0.00     0.256 C 
HETATM   32  N5  UNL     1       5.020  -0.412   1.470  1.00  0.00    -0.072 N 
HETATM   33  C13 UNL     1       4.678   0.453   2.585  1.00  0.00     0.272 C 
HETATM   34  C14 UNL     1       6.301  -1.017   1.787  1.00  0.00     0.272 C 
HETATM   35  C15 UNL     1       5.171   0.422   0.305  1.00  0.00     0.256 C 
HETATM   36  C16 UNL     1       5.367  -0.330  -0.973  1.00  0.00     0.153 C 
ENDBRANCH  22  29
ENDBRANCH  21  22
ENDBRANCH  20  21
ENDBRANCH  19  20
ENDBRANCH   1  19
TORSDOF 11
