REMARK  9 active torsions:
REMARK  status: ('A' for Active; 'I' for Inactive)
REMARK       I    between atoms: N2_5  and  C3_6 
REMARK       I    between atoms: C3_6  and  N3_8 
REMARK    1  A    between atoms: N3_8  and  C4_9 
REMARK    2  A    between atoms: N3_8  and  C6_11 
REMARK    3  A    between atoms: C9_15  and  C10_16 
REMARK    4  A    between atoms: C10_16  and  C11_17 
REMARK    5  A    between atoms: C13_19  and  O3_20 
REMARK    6  A    between atoms: C15_22  and  O4_23 
REMARK    7  A    between atoms: C16_25  and  O5_26 
REMARK    8  A    between atoms: C18_28  and  S1_29 
REMARK    9  A    between atoms: S1_29  and  N4_32 
ROOT
HETATM    1  C11 UNL     1      -2.063   1.474  -0.245  1.00  0.00    -0.007 A 
HETATM    2  C12 UNL     1      -2.130   2.505   0.659  1.00  0.00     0.052 A 
HETATM    3  C13 UNL     1      -3.033   2.382   1.691  1.00  0.00     0.105 A 
HETATM    4  C15 UNL     1      -3.836   1.273   1.814  1.00  0.00     0.134 A 
HETATM    5  C16 UNL     1      -3.756   0.222   0.876  1.00  0.00     0.128 A 
HETATM    6  C18 UNL     1      -2.864   0.322  -0.159  1.00  0.00     0.121 A 
ENDROOT
BRANCH   1   7
HETATM    7  C10 UNL     1      -1.125   1.564  -1.356  1.00  0.00     0.032 C 
BRANCH   7   8
HETATM    8  C9  UNL     1       0.163   1.234  -1.240  1.00  0.00     0.062 A 
HETATM    9  C2  UNL     1       1.120   1.282  -2.217  1.00  0.00     0.055 A 
HETATM   10  C1  UNL     1       0.967   1.660  -3.474  1.00  0.00     0.045 C 
HETATM   11  N1  UNL     1       2.287   0.862  -1.657  1.00  0.00    -0.287 N 
HETATM   12  N2  UNL     1       2.132   0.551  -0.387  1.00  0.00    -0.167 N 
ATOM     13  H1  UNL     1       3.172   0.796  -2.159  1.00  0.00     0.188 HD
HETATM   14  C3  UNL     1       3.055   0.080   0.590  1.00  0.00     0.346 C 
HETATM   15  C8  UNL     1       0.808   0.780  -0.117  1.00  0.00     0.283 A 
HETATM   16  O1  UNL     1       2.588  -0.149   1.781  1.00  0.00    -0.245 OA
HETATM   17  N3  UNL     1       4.417  -0.176   0.452  1.00  0.00    -0.333 N 
HETATM   18  O2  UNL     1       0.274   0.592   1.019  1.00  0.00    -0.265 OA
BRANCH  17  19
HETATM   19  C4  UNL     1       5.105  -0.682   1.669  1.00  0.00     0.123 C 
HETATM   20  C5  UNL     1       5.079  -2.185   1.727  1.00  0.00     0.026 C 
ENDBRANCH  17  19
BRANCH  17  21
HETATM   21  C6  UNL     1       5.275  -0.020  -0.686  1.00  0.00     0.123 C 
HETATM   22  C7  UNL     1       5.258  -1.304  -1.484  1.00  0.00     0.026 C 
ENDBRANCH  17  21
ENDBRANCH   7   8
ENDBRANCH   1   7
BRANCH   6  23
HETATM   23  S1  UNL     1      -2.647  -0.919  -1.331  1.00  0.00     0.246 S 
HETATM   24  O6  UNL     1      -2.178  -0.375  -2.661  1.00  0.00    -0.206 OA
HETATM   25  O7  UNL     1      -3.933  -1.614  -1.610  1.00  0.00    -0.206 OA
BRANCH  23  26
HETATM   26  N4  UNL     1      -1.511  -2.123  -0.817  1.00  0.00    -0.215 NA
HETATM   27  C19 UNL     1      -1.970  -2.790   0.390  1.00  0.00     0.129 C 
HETATM   28  C20 UNL     1      -1.419  -3.134  -1.853  1.00  0.00     0.129 C 
ENDBRANCH  23  26
ENDBRANCH   6  23
BRANCH   3  29
HETATM   29  O3  UNL     1      -3.164   3.387   2.655  1.00  0.00    -0.353 OA
HETATM   30  C14 UNL     1      -2.339   4.527   2.531  1.00  0.00     0.210 C 
ENDBRANCH   3  29
BRANCH   5  31
HETATM   31  O5  UNL     1      -4.582  -0.877   1.039  1.00  0.00    -0.352 OA
HETATM   32  C17 UNL     1      -5.907  -0.975   0.552  1.00  0.00     0.210 C 
ENDBRANCH   5  31
BRANCH   4  33
HETATM   33  O4  UNL     1      -4.745   1.151   2.854  1.00  0.00    -0.356 OA
ATOM     34  H4  UNL     1      -5.300   0.385   2.939  1.00  0.00     0.218 HD
ENDBRANCH   4  33
TORSDOF 9
