REMARK  7 active torsions:
REMARK  status: ('A' for Active; 'I' for Inactive)
REMARK    1  A    between atoms: N1_2  and  C2_5 
REMARK    2  A    between atoms: C2_5  and  C4_7 
REMARK       I    between atoms: C4_7  and  N2_9 
REMARK    3  A    between atoms: N3_12  and  C7_13 
REMARK    4  A    between atoms: C7_13  and  C8_14 
REMARK    5  A    between atoms: C7_13  and  C17_29 
REMARK       I    between atoms: C8_14  and  N4_16 
REMARK    6  A    between atoms: N4_16  and  C9_18 
REMARK    7  A    between atoms: N6_26  and  O3_27 
ROOT
HETATM    1  C7  UNL     1       0.242   0.753  -1.047  1.00  0.00     0.176 C 
ENDROOT
BRANCH   1   2
HETATM    2  N3  UNL     1       1.234   0.704  -0.047  1.00  0.00    -0.396 N 
HETATM    3  C6  UNL     1       2.471   1.333  -0.145  1.00  0.00     0.137 C 
HETATM    4  C5  UNL     1       3.503   0.711   0.848  1.00  0.00     0.145 C 
HETATM    5  N2  UNL     1       3.798  -0.570   0.259  1.00  0.00    -0.343 N 
HETATM    6  C4  UNL     1       5.117  -1.002   0.135  1.00  0.00     0.250 C 
HETATM    7  C23 UNL     1       2.640  -1.332  -0.175  1.00  0.00     0.100 C 
HETATM    8  O1  UNL     1       5.365  -2.113  -0.389  1.00  0.00    -0.271 OA
HETATM    9  C22 UNL     1       1.431  -0.648   0.439  1.00  0.00     0.142 C 
HETATM   10  C24 UNL     1       2.753  -2.709   0.385  1.00  0.00     0.034 C 
BRANCH   6  11
HETATM   11  C2  UNL     1       6.262  -0.185   0.607  1.00  0.00     0.272 C 
HETATM   12  C3  UNL     1       6.193  -0.110   2.138  1.00  0.00     0.050 C 
BRANCH  11  13
HETATM   13  N1  UNL     1       7.534  -0.865   0.313  1.00  0.00    -0.067 N 
HETATM   14  C1  UNL     1       8.607  -0.035   0.825  1.00  0.00     0.267 C 
ATOM     15  H12 UNL     1       7.644  -1.089  -0.676  1.00  0.00     0.277 HD
ATOM     16  H11 UNL     1       7.565  -1.819   0.672  1.00  0.00     0.277 HD
ENDBRANCH  11  13
ENDBRANCH   6  11
ENDBRANCH   1   2
BRANCH   1  17
HETATM   17  C8  UNL     1      -1.059   0.620  -0.279  1.00  0.00     0.241 C 
HETATM   18  O2  UNL     1      -1.081   1.299   0.810  1.00  0.00    -0.271 OA
HETATM   19  N4  UNL     1      -2.158  -0.147  -0.654  1.00  0.00    -0.353 N 
ATOM     20  H4  UNL     1      -2.131  -0.688  -1.518  1.00  0.00     0.163 HD
BRANCH  19  21
HETATM   21  C9  UNL     1      -3.338  -0.177   0.180  1.00  0.00     0.107 C 
HETATM   22  C10 UNL     1      -4.488   0.587  -0.477  1.00  0.00     0.050 C 
HETATM   23  C11 UNL     1      -5.650  -0.093   0.269  1.00  0.00     0.117 C 
HETATM   24  C12 UNL     1      -5.557   0.199   1.718  1.00  0.00     0.294 C 
HETATM   25  N6  UNL     1      -5.323  -1.482  -0.086  1.00  0.00    -0.183 NA
HETATM   26  N5  UNL     1      -4.795  -0.659   2.527  1.00  0.00     0.087 N 
HETATM   27  C13 UNL     1      -5.516  -1.084   3.699  1.00  0.00     0.310 C 
HETATM   28  C14 UNL     1      -4.082  -1.706   1.913  1.00  0.00     0.295 C 
HETATM   29  C15 UNL     1      -3.932  -1.520   0.397  1.00  0.00     0.137 C 
BRANCH  25  30
HETATM   30  O3  UNL     1      -6.092  -2.264   0.700  1.00  0.00    -0.308 OA
HETATM   31  C16 UNL     1      -7.425  -2.092   0.435  1.00  0.00     0.229 C 
ENDBRANCH  25  30
ENDBRANCH  19  21
ENDBRANCH   1  17
BRANCH   1  32
HETATM   32  C17 UNL     1       0.109   2.004  -1.822  1.00  0.00     0.021 C 
HETATM   33  C18 UNL     1       1.289   2.470  -2.611  1.00  0.00     0.033 C 
HETATM   34  C19 UNL     1       0.811   3.347  -3.755  1.00  0.00     0.168 C 
HETATM   35  O4  UNL     1       0.264   2.501  -4.724  1.00  0.00    -0.391 OA
HETATM   36  C20 UNL     1      -0.429   1.483  -4.117  1.00  0.00     0.168 C 
HETATM   37  C21 UNL     1      -1.038   1.974  -2.786  1.00  0.00     0.033 C 
ENDBRANCH   1  32
TORSDOF 7
