REMARK  12 active torsions:
REMARK  status: ('A' for Active; 'I' for Inactive)
REMARK    1  A    between atoms: C2_2  and  C3_3 
REMARK       I    between atoms: C3_3  and  N1_5 
REMARK    2  A    between atoms: N1_5  and  C4_6 
REMARK    3  A    between atoms: N1_5  and  C18_30 
REMARK    4  A    between atoms: C4_6  and  O2_7 
REMARK    5  A    between atoms: C4_6  and  C5_9 
REMARK    6  A    between atoms: C5_9  and  S1_11 
REMARK    7  A    between atoms: S1_11  and  C6_12 
REMARK    8  A    between atoms: C7_13  and  C8_14 
REMARK    9  A    between atoms: C10_20  and  C11_21 
REMARK   10  A    between atoms: C11_21  and  O8_23 
REMARK   11  A    between atoms: O8_23  and  C12_24 
REMARK   12  A    between atoms: C18_30  and  C20_32 
ROOT
HETATM    1  C6  UNL     1      -0.243   1.788  -0.632  1.00  0.00     0.022 C 
HETATM    2  C7  UNL     1      -0.407   1.732   0.689  1.00  0.00     0.128 C 
HETATM    3  N2  UNL     1      -1.421   0.812   1.022  1.00  0.00    -0.304 N 
HETATM    4  C9  UNL     1      -2.275  -0.111   1.635  1.00  0.00     0.240 C 
HETATM    5  O6  UNL     1      -2.762  -0.376   2.749  1.00  0.00    -0.272 OA
HETATM    6  C10 UNL     1      -2.405  -0.745   0.293  1.00  0.00     0.201 C 
HETATM    7  C16 UNL     1      -2.280   0.683  -0.169  1.00  0.00     0.121 C 
HETATM    8  C17 UNL     1      -1.332   0.966  -1.301  1.00  0.00     0.076 C 
ENDROOT
BRANCH   1   9
HETATM    9  S1  UNL     1       0.865   2.735  -1.636  1.00  0.00    -0.046 SA
BRANCH   9  10
HETATM   10  C5  UNL     1       2.606   2.393  -1.338  1.00  0.00     0.264 C 
HETATM   11  O3  UNL     1       3.361   3.302  -1.684  1.00  0.00    -0.276 OA
BRANCH  10  12
HETATM   12  C4  UNL     1       3.007   1.158  -0.744  1.00  0.00     0.205 C 
BRANCH  12  13
HETATM   13  N1  UNL     1       4.235   0.644  -0.312  1.00  0.00    -0.278 N 
HETATM   14  C3  UNL     1       5.458   1.309  -0.359  1.00  0.00     0.249 C 
HETATM   15  O1  UNL     1       5.525   2.485  -0.822  1.00  0.00    -0.268 OA
BRANCH  14  16
HETATM   16  C2  UNL     1       6.760   0.780   0.091  1.00  0.00     0.064 C 
HETATM   17  C1  UNL     1       7.851   1.513  -0.003  1.00  0.00     0.017 C 
ENDBRANCH  14  16
BRANCH  13  18
HETATM   18  C18 UNL     1       4.237  -0.727   0.251  1.00  0.00     0.180 C 
HETATM   19  C19 UNL     1       4.648  -0.782   1.681  1.00  0.00     0.042 C 
BRANCH  18  20
HETATM   20  C20 UNL     1       4.976  -1.597  -0.673  1.00  0.00     0.254 C 
HETATM   21  N3  UNL     1       5.340  -1.144  -1.966  1.00  0.00    -0.060 NA
HETATM   22  O9  UNL     1       5.295  -2.764  -0.328  1.00  0.00    -0.275 OA
ENDBRANCH  18  20
ENDBRANCH  13  18
ENDBRANCH  12  13
BRANCH  12  23
HETATM   23  O2  UNL     1       2.016   0.277  -0.542  1.00  0.00    -0.343 OA
ATOM     24  H2  UNL     1       1.182   0.626  -0.835  1.00  0.00     0.219 HD
ENDBRANCH  12  23
ENDBRANCH  10  12
ENDBRANCH   9  10
ENDBRANCH   1   9
BRANCH   2  25
HETATM   25  C8  UNL     1       0.340   2.503   1.671  1.00  0.00     0.228 C 
HETATM   26  O4  UNL     1       1.217   3.328   1.362  1.00  0.00    -0.643 OA
HETATM   27  O5  UNL     1       0.062   2.310   3.016  1.00  0.00    -0.643 OA
ENDBRANCH   2  25
BRANCH   6  28
HETATM   28  C11 UNL     1      -3.672  -1.409   0.022  1.00  0.00     0.275 C 
HETATM   29  O7  UNL     1      -3.683  -2.635  -0.243  1.00  0.00    -0.264 OA
BRANCH  28  30
HETATM   30  O8  UNL     1      -4.859  -0.724   0.050  1.00  0.00    -0.311 OA
BRANCH  30  31
HETATM   31  C12 UNL     1      -6.117  -1.276  -0.196  1.00  0.00     0.060 C 
HETATM   32  C13 UNL     1      -6.263  -1.883  -1.563  1.00  0.00     0.045 C 
HETATM   33  C14 UNL     1      -6.504  -2.250   0.899  1.00  0.00     0.045 C 
HETATM   34  C15 UNL     1      -7.132  -0.129  -0.119  1.00  0.00     0.045 C 
ENDBRANCH  30  31
ENDBRANCH  28  30
ENDBRANCH   6  28
TORSDOF 12
