REMARK  8 active torsions:
REMARK  status: ('A' for Active; 'I' for Inactive)
REMARK    1  A    between atoms: N1_2  and  C3_4 
REMARK    2  A    between atoms: C3_4  and  C4_5 
REMARK    3  A    between atoms: C4_5  and  C5_6 
REMARK    4  A    between atoms: C5_6  and  N2_7 
REMARK       I    between atoms: N2_7  and  C6_9 
REMARK    5  A    between atoms: C6_9  and  C7_11 
REMARK    6  A    between atoms: C11_15  and  C12_16 
REMARK    7  A    between atoms: C13_20  and  C15_22 
REMARK    8  A    between atoms: C15_22  and  C16_23 
REMARK       I    between atoms: C16_23  and  N4_25 
ROOT
HETATM    1  C7  UNL     1      -0.825   1.675  -0.866  1.00  0.00     0.162 A 
HETATM    2  C8  UNL     1      -0.530   2.956  -1.583  1.00  0.00     0.044 A 
HETATM    3  C9  UNL     1       0.256   1.698  -1.879  1.00  0.00     0.024 A 
HETATM    4  C10 UNL     1       1.635   1.700  -1.312  1.00  0.00     0.030 C 
HETATM    5  C11 UNL     1       1.921   0.406  -0.531  1.00  0.00     0.115 C 
HETATM    6  N6  UNL     1       1.294   0.456   0.717  1.00  0.00    -0.206 NA
HETATM    7  C17 UNL     1       2.045   0.862   1.843  1.00  0.00     0.130 C 
HETATM    8  S3  UNL     1      -0.196   1.332   0.725  1.00  0.00     0.229 S 
HETATM    9  O3  UNL     1       0.085   2.661   1.413  1.00  0.00    -0.210 OA
HETATM   10  O4  UNL     1      -1.191   0.604   1.616  1.00  0.00    -0.210 OA
ENDROOT
BRANCH   5  11
HETATM   11  C12 UNL     1       3.349   0.133  -0.615  1.00  0.00     0.278 C 
HETATM   12  N3  UNL     1       3.832  -1.034   0.050  1.00  0.00    -0.041 N 
HETATM   13  C13 UNL     1       5.198  -1.272  -0.339  1.00  0.00     0.189 C 
ATOM     14  H32 UNL     1       3.723  -0.975   1.062  1.00  0.00     0.280 HD
ATOM     15  H31 UNL     1       3.237  -1.846  -0.113  1.00  0.00     0.280 HD
HETATM   16  C14 UNL     1       5.349  -1.433  -1.830  1.00  0.00     0.060 C 
HETATM   17  S1  UNL     1       6.126   0.214   0.246  1.00  0.00    -0.056 SA
HETATM   18  S2  UNL     1       4.404   1.516  -0.019  1.00  0.00    -0.060 SA
BRANCH  13  19
HETATM   19  C15 UNL     1       5.715  -2.505   0.341  1.00  0.00     0.155 C 
BRANCH  19  20
HETATM   20  C16 UNL     1       5.695  -2.427   1.800  1.00  0.00     0.238 C 
HETATM   21  O2  UNL     1       5.275  -1.398   2.369  1.00  0.00    -0.272 OA
HETATM   22  N4  UNL     1       6.149  -3.511   2.581  1.00  0.00    -0.277 N 
HETATM   23  N5  UNL     1       6.292  -4.655   2.050  1.00  0.00    -0.343 N 
ATOM     24  H4  UNL     1       6.362  -3.376   3.569  1.00  0.00     0.189 HD
ATOM     25  H52 UNL     1       6.075  -4.774   1.060  1.00  0.00     0.176 HD
ATOM     26  H51 UNL     1       6.620  -5.439   2.615  1.00  0.00     0.176 HD
ENDBRANCH  19  20
ENDBRANCH  13  19
ENDBRANCH   5  11
BRANCH   1  27
HETATM   27  C6  UNL     1      -2.151   1.091  -1.206  1.00  0.00     0.243 C 
HETATM   28  N2  UNL     1      -3.346   1.836  -1.022  1.00  0.00    -0.359 N 
ATOM     29  H2  UNL     1      -3.249   2.780  -0.647  1.00  0.00     0.162 HD
HETATM   30  O1  UNL     1      -2.247  -0.080  -1.666  1.00  0.00    -0.272 OA
BRANCH  28  31
HETATM   31  C5  UNL     1      -4.667   1.390  -1.311  1.00  0.00     0.124 C 
BRANCH  31  32
HETATM   32  C4  UNL     1      -5.106   0.178  -0.528  1.00  0.00     0.050 C 
BRANCH  32  33
HETATM   33  C3  UNL     1      -5.079   0.476   0.953  1.00  0.00     0.273 C 
BRANCH  33  34
HETATM   34  N1  UNL     1      -5.482  -0.631   1.759  1.00  0.00     0.080 N 
HETATM   35  C1  UNL     1      -4.559  -1.729   1.742  1.00  0.00     0.309 C 
HETATM   36  C2  UNL     1      -6.848  -1.030   1.582  1.00  0.00     0.309 C 
ENDBRANCH  33  34
ENDBRANCH  32  33
ENDBRANCH  31  32
ENDBRANCH  28  31
ENDBRANCH   1  27
TORSDOF 8
