REMARK  9 active torsions:
REMARK  status: ('A' for Active; 'I' for Inactive)
REMARK    1  A    between atoms: C2_2  and  N1_3 
REMARK       I    between atoms: N1_3  and  C3_4 
REMARK       I    between atoms: N1_3  and  C16_29 
REMARK    2  A    between atoms: C3_4  and  C4_6 
REMARK    3  A    between atoms: C4_6  and  N2_7 
REMARK    4  A    between atoms: N4_18  and  C11_19 
REMARK    5  A    between atoms: C11_19  and  C12_20 
REMARK    6  A    between atoms: C11_19  and  C13_23 
REMARK    7  A    between atoms: C12_20  and  O4_21 
REMARK    8  A    between atoms: C16_29  and  O8_31 
REMARK    9  A    between atoms: O8_31  and  C17_32 
ROOT
HETATM    1  N2  UNL     1      -0.532  -0.851   0.002  1.00  0.00    -0.197 N 
HETATM    2  N3  UNL     1      -0.648  -1.400  -1.189  1.00  0.00    -0.321 N 
ATOM      3  H3  UNL     1      -0.964  -0.849  -1.987  1.00  0.00     0.181 HD
HETATM    4  C5  UNL     1      -0.321  -2.786  -1.341  1.00  0.00     0.166 C 
HETATM    5  C6  UNL     1      -1.405  -3.508  -2.076  1.00  0.00     0.189 C 
HETATM    6  O2  UNL     1      -2.019  -4.504  -1.380  1.00  0.00    -0.387 OA
HETATM    7  C7  UNL     1      -2.511  -4.205  -0.155  1.00  0.00     0.193 C 
HETATM    8  C8  UNL     1      -3.892  -3.598  -0.161  1.00  0.00     0.193 C 
HETATM    9  O3  UNL     1      -4.016  -2.498  -0.961  1.00  0.00    -0.387 OA
HETATM   10  C9  UNL     1      -3.844  -1.289  -0.294  1.00  0.00     0.188 C 
HETATM   11  C10 UNL     1      -3.425  -0.173  -1.209  1.00  0.00     0.169 C 
HETATM   12  N4  UNL     1      -2.739   0.898  -0.489  1.00  0.00    -0.261 N 
HETATM   13  S1  UNL     1      -1.468   0.504   0.428  1.00  0.00     0.341 S 
HETATM   14  O5  UNL     1      -0.427   1.569   0.564  1.00  0.00    -0.180 OA
HETATM   15  O6  UNL     1      -1.922   0.205   1.862  1.00  0.00    -0.180 OA
ENDROOT
BRANCH   1  16
HETATM   16  C4  UNL     1       0.695  -0.914   0.704  1.00  0.00     0.266 C 
BRANCH  16  17
HETATM   17  C3  UNL     1       1.823  -0.214   0.023  1.00  0.00     0.248 C 
HETATM   18  N1  UNL     1       3.093  -0.226   0.658  1.00  0.00    -0.263 N 
HETATM   19  C16 UNL     1       4.205   0.430   0.047  1.00  0.00     0.369 C 
HETATM   20  O7  UNL     1       4.056   1.025  -1.067  1.00  0.00    -0.238 OA
HETATM   21  O1  UNL     1       1.650   0.358  -1.060  1.00  0.00    -0.271 OA
BRANCH  18  22
HETATM   22  C2  UNL     1       3.324  -0.888   1.926  1.00  0.00     0.133 C 
HETATM   23  C1  UNL     1       3.733  -2.318   1.599  1.00  0.00     0.027 C 
ENDBRANCH  18  22
BRANCH  19  24
HETATM   24  O8  UNL     1       5.457   0.455   0.608  1.00  0.00    -0.299 OA
BRANCH  24  25
HETATM   25  C17 UNL     1       6.573   1.083   0.049  1.00  0.00     0.125 C 
HETATM   26  C18 UNL     1       7.122   2.200   0.919  1.00  0.00     0.040 C 
HETATM   27  C19 UNL     1       7.687   0.093  -0.260  1.00  0.00     0.040 C 
ENDBRANCH  24  25
ENDBRANCH  19  24
ENDBRANCH  16  17
ENDBRANCH   1  16
BRANCH  12  28
HETATM   28  C11 UNL     1      -3.325   2.157  -0.663  1.00  0.00     0.029 C 
BRANCH  28  29
HETATM   29  C12 UNL     1      -2.573   3.174  -1.490  1.00  0.00     0.217 C 
BRANCH  29  30
HETATM   30  O4  UNL     1      -1.355   3.572  -1.038  1.00  0.00    -0.395 OA
ATOM     31  H4  UNL     1      -0.882   4.211  -1.558  1.00  0.00     0.209 HD
ENDBRANCH  29  30
ENDBRANCH  28  29
BRANCH  28  32
HETATM   32  C13 UNL     1      -4.112   2.746   0.464  1.00  0.00     0.026 C 
HETATM   33  C14 UNL     1      -4.667   4.114   0.015  1.00  0.00     0.016 C 
HETATM   34  C15 UNL     1      -3.510   2.986   1.767  1.00  0.00     0.016 C 
ENDBRANCH  28  32
ENDBRANCH  12  28
TORSDOF 9
