REMARK  9 active torsions:
REMARK  status: ('A' for Active; 'I' for Inactive)
REMARK    1  A    between atoms: C3_3  and  C4_4 
REMARK    2  A    between atoms: C7_10  and  C8_11 
REMARK    3  A    between atoms: C9_14  and  C10_15 
REMARK    4  A    between atoms: C11_16  and  N2_17 
REMARK    5  A    between atoms: C12_20  and  N3_21 
REMARK       I    between atoms: N3_21  and  C13_23 
REMARK    6  A    between atoms: C13_23  and  C14_25 
REMARK    7  A    between atoms: C14_25  and  N4_27 
REMARK    8  A    between atoms: N4_27  and  C16_28 
REMARK    9  A    between atoms: N4_27  and  C17_30 
ROOT
HETATM    1  C1  UNL     1       1.802   3.417  -3.345  1.00  0.00     0.112 C 
HETATM    2  C2  UNL     1       1.761   2.071  -2.772  1.00  0.00    -0.111 C 
HETATM    3  C3  UNL     1       1.707   0.962  -2.302  1.00  0.00    -0.098 C 
ENDROOT
BRANCH   3   4
HETATM    4  C4  UNL     1       1.614  -0.414  -1.724  1.00  0.00     0.114 C 
HETATM    5  C5  UNL     1       2.693  -1.216  -2.473  1.00  0.00     0.168 C 
HETATM    6  S1  UNL     1       3.057  -0.462  -4.060  1.00  0.00    -0.081 SA
HETATM    7  C6  UNL     1       3.871  -1.093  -1.533  1.00  0.00     0.241 C 
HETATM    8  O1  UNL     1       5.060  -1.107  -1.879  1.00  0.00    -0.272 OA
HETATM    9  N1  UNL     1       3.362  -0.967  -0.239  1.00  0.00    -0.302 N 
HETATM   10  C7  UNL     1       3.549  -1.170   1.152  1.00  0.00     0.123 C 
HETATM   11  C21 UNL     1       1.991  -0.371  -0.295  1.00  0.00     0.138 C 
HETATM   12  C9  UNL     1       2.338  -1.467   1.700  1.00  0.00     0.002 C 
HETATM   13  C12 UNL     1       1.379  -1.476   0.579  1.00  0.00     0.145 C 
BRANCH  10  14
HETATM   14  C8  UNL     1       4.837  -1.081   1.807  1.00  0.00     0.227 C 
HETATM   15  O2  UNL     1       5.871  -0.807   1.094  1.00  0.00    -0.643 OA
HETATM   16  O3  UNL     1       5.101  -1.257   3.134  1.00  0.00    -0.643 OA
ENDBRANCH  10  14
BRANCH  12  17
HETATM   17  C10 UNL     1       2.153  -1.734   3.120  1.00  0.00     0.035 C 
HETATM   18  C11 UNL     1       1.030  -2.021   3.718  1.00  0.00     0.168 C 
BRANCH  18  19
HETATM   19  N2  UNL     1       0.983  -2.264   5.133  1.00  0.00    -0.127 N 
HETATM   20  O4  UNL     1       0.193  -1.706   5.908  1.00  0.00    -0.532 OA
HETATM   21  O5  UNL     1       1.870  -3.171   5.646  1.00  0.00    -0.532 OA
ENDBRANCH  18  19
ENDBRANCH  12  17
BRANCH  13  22
HETATM   22  N3  UNL     1       0.008  -1.360   0.831  1.00  0.00    -0.348 N 
HETATM   23  C13 UNL     1      -0.827  -0.237   0.794  1.00  0.00     0.240 C 
HETATM   24  O6  UNL     1      -0.401   0.901   0.515  1.00  0.00    -0.271 OA
ATOM     25  H3  UNL     1      -0.457  -2.232   1.082  1.00  0.00     0.163 HD
BRANCH  23  26
HETATM   26  C14 UNL     1      -2.320  -0.360   1.102  1.00  0.00     0.175 C 
HETATM   27  C15 UNL     1      -2.770  -1.638   0.538  1.00  0.00     0.042 C 
BRANCH  26  28
HETATM   28  N4  UNL     1      -2.945   0.844   0.718  1.00  0.00    -0.338 N 
BRANCH  28  29
HETATM   29  C16 UNL     1      -3.405   1.701   1.795  1.00  0.00     0.352 C 
HETATM   30  O7  UNL     1      -3.977   2.801   1.559  1.00  0.00    -0.283 OA
ENDBRANCH  28  29
BRANCH  28  31
HETATM   31  C17 UNL     1      -3.200   1.334  -0.624  1.00  0.00     0.025 C 
HETATM   32  C18 UNL     1      -4.717   1.598  -0.752  1.00  0.00     0.037 C 
HETATM   33  C19 UNL     1      -2.526   2.662  -0.900  1.00  0.00     0.037 C 
HETATM   34  C20 UNL     1      -2.912   0.344  -1.716  1.00  0.00     0.037 C 
ENDBRANCH  28  31
ENDBRANCH  26  28
ENDBRANCH  23  26
ENDBRANCH  13  22
ENDBRANCH   3   4
TORSDOF 9
