REMARK  10 active torsions:
REMARK  status: ('A' for Active; 'I' for Inactive)
REMARK    1  A    between atoms: N1_1  and  C1_4 
REMARK    2  A    between atoms: C4_11  and  N4_12 
REMARK    3  A    between atoms: N5_15  and  C5_16 
REMARK    4  A    between atoms: C7_19  and  O4_20 
REMARK    5  A    between atoms: C7_19  and  C9_26 
REMARK    6  A    between atoms: O4_20  and  C8_21 
REMARK    7  A    between atoms: C8_21  and  N6_22 
REMARK    8  A    between atoms: C10_32  and  C11_33 
REMARK    9  A    between atoms: C12_36  and  N9_37 
REMARK   10  A    between atoms: C13_42  and  N11_43 
ROOT
HETATM    1  C1  UNL     1       1.809  -2.803  -0.308  1.00  0.00     0.678 A 
HETATM    2  N2  UNL     1       0.631  -2.164  -0.205  1.00  0.00    -0.174 N 
ATOM      3  H2  UNL     1      -0.229  -2.712  -0.208  1.00  0.00     0.186 HD
HETATM    4  C2  UNL     1       0.548  -0.824  -0.098  1.00  0.00     0.157 A 
HETATM    5  C3  UNL     1       1.733  -0.112  -0.096  1.00  0.00     0.112 A 
HETATM    6  N3  UNL     1       1.337   1.157   0.019  1.00  0.00    -0.318 N 
ATOM      7  H3  UNL     1       1.970   1.956   0.051  1.00  0.00     0.169 HD
HETATM    8  C4  UNL     1      -0.028   1.250   0.088  1.00  0.00     0.256 A 
HETATM    9  N5  UNL     1      -0.525   0.029   0.017  1.00  0.00    -0.265 N 
HETATM   10  C10 UNL     1       2.949  -0.732  -0.199  1.00  0.00     0.124 A 
HETATM   11  N13 UNL     1       2.943  -2.091  -0.305  1.00  0.00    -0.186 N 
ATOM     12  H13 UNL     1       3.833  -2.583  -0.385  1.00  0.00     0.184 HD
ENDROOT
BRANCH   9  13
HETATM   13  C5  UNL     1      -1.854  -0.433   0.044  1.00  0.00     0.326 C 
HETATM   14  C6  UNL     1      -2.682  -0.297  -1.189  1.00  0.00     0.229 C 
HETATM   15  O3  UNL     1      -3.829  -0.983  -0.705  1.00  0.00    -0.321 OA
HETATM   16  C7  UNL     1      -4.065  -0.362   0.519  1.00  0.00     0.433 C 
HETATM   17  N7  UNL     1      -2.738   0.041   1.052  1.00  0.00     0.017 N 
ATOM     18  H72 UNL     1      -2.534  -0.290   1.995  1.00  0.00     0.287 HD
ATOM     19  H71 UNL     1      -2.646   1.032   1.275  1.00  0.00     0.287 HD
BRANCH  16  20
HETATM   20  O4  UNL     1      -4.787   0.780   0.372  1.00  0.00    -0.297 OA
BRANCH  20  21
HETATM   21  C8  UNL     1      -6.023   0.723  -0.184  1.00  0.00     0.402 C 
BRANCH  21  22
HETATM   22  N6  UNL     1      -6.613   2.079  -0.286  1.00  0.00    -0.058 N 
ATOM     23  H63 UNL     1      -6.625   2.555   0.616  1.00  0.00     0.276 HD
ATOM     24  H62 UNL     1      -6.001   2.721  -0.789  1.00  0.00     0.276 HD
ATOM     25  H61 UNL     1      -7.542   2.036  -0.704  1.00  0.00     0.276 HD
ENDBRANCH  21  22
ENDBRANCH  20  21
ENDBRANCH  16  20
BRANCH  16  26
HETATM   26  C9  UNL     1      -4.641  -1.376   1.426  1.00  0.00     0.271 C 
HETATM   27  O5  UNL     1      -4.049  -1.739   2.490  1.00  0.00    -0.642 OA
HETATM   28  O6  UNL     1      -5.844  -1.979   1.163  1.00  0.00    -0.642 OA
ENDBRANCH  16  26
ENDBRANCH   9  13
BRANCH   8  29
HETATM   29  N4  UNL     1      -0.634   2.514   0.211  1.00  0.00    -0.079 N 
HETATM   30  O1  UNL     1       0.047   3.566   0.263  1.00  0.00    -0.529 OA
HETATM   31  O2  UNL     1      -1.973   2.682   0.280  1.00  0.00    -0.529 OA
ENDBRANCH   8  29
BRANCH   1  32
HETATM   32  N1  UNL     1       1.908  -4.084  -0.412  1.00  0.00    -0.234 N 
ATOM     33  H12 UNL     1       1.044  -4.626  -0.414  1.00  0.00     0.174 HD
ATOM     34  H11 UNL     1       2.802  -4.569  -0.490  1.00  0.00     0.174 HD
ENDBRANCH   1  32
BRANCH  10  35
HETATM   35  C11 UNL     1       4.209  -0.014  -0.199  1.00  0.00     0.166 A 
HETATM   36  N8  UNL     1       5.358  -0.760  -0.307  1.00  0.00    -0.173 N 
HETATM   37  C12 UNL     1       6.572  -0.213  -0.318  1.00  0.00     0.692 A 
ATOM     38  H8  UNL     1       5.278  -1.774  -0.382  1.00  0.00     0.186 HD
HETATM   39  N10 UNL     1       6.705   1.133  -0.221  1.00  0.00    -0.023 N 
HETATM   40  C13 UNL     1       5.606   1.889  -0.114  1.00  0.00     0.692 A 
ATOM     41  H10 UNL     1       7.630   1.563  -0.229  1.00  0.00     0.203 HD
HETATM   42  N12 UNL     1       4.383   1.298  -0.106  1.00  0.00    -0.173 N 
ATOM     43  H12 UNL     1       3.558   1.892  -0.024  1.00  0.00     0.186 HD
BRANCH  37  44
HETATM   44  N9  UNL     1       7.605  -0.969  -0.422  1.00  0.00    -0.234 N 
ATOM     45  H92 UNL     1       7.505  -1.981  -0.495  1.00  0.00     0.174 HD
ATOM     46  H91 UNL     1       8.535  -0.550  -0.430  1.00  0.00     0.174 HD
ENDBRANCH  37  44
BRANCH  40  47
HETATM   47  N11 UNL     1       5.731   3.165  -0.021  1.00  0.00    -0.234 N 
ATOM     48 2H11 UNL     1       6.649   3.609  -0.027  1.00  0.00     0.174 HD
ATOM     49 1H11 UNL     1       4.893   3.741   0.061  1.00  0.00     0.174 HD
ENDBRANCH  40  47
ENDBRANCH  10  35
TORSDOF 10
