REMARK  7 active torsions:
REMARK  status: ('A' for Active; 'I' for Inactive)
REMARK    1  A    between atoms: C2_5  and  C3_6 
REMARK    2  A    between atoms: C3_6  and  C4_7 
REMARK    3  A    between atoms: C4_7  and  C5_9 
REMARK    4  A    between atoms: C13_19  and  C14_20 
REMARK    5  A    between atoms: C20_26  and  C21_27 
REMARK    6  A    between atoms: C21_27  and  O2_28 
REMARK    7  A    between atoms: C21_27  and  C22_30 
ROOT
HETATM    1  N1  UNL     1      -0.997  -1.808   3.073  1.00  0.00    -0.082 NA
HETATM    2  C1  UNL     1      -0.737  -0.902   2.013  1.00  0.00     0.130 A 
HETATM    3  N2  UNL     1       0.418  -0.266   1.751  1.00  0.00    -0.346 N 
ATOM      4  H2  UNL     1       1.271  -0.368   2.302  1.00  0.00     0.167 HD
HETATM    5  C2  UNL     1       0.304   0.508   0.687  1.00  0.00     0.030 A 
HETATM    6  C13 UNL     1      -1.016   0.396   0.188  1.00  0.00     0.013 A 
HETATM    7  C20 UNL     1      -1.652  -0.480   1.015  1.00  0.00     0.052 A 
ENDROOT
BRANCH   5   8
HETATM    8  C3  UNL     1       1.363   1.338   0.057  1.00  0.00     0.142 C 
BRANCH   8   9
HETATM    9  C4  UNL     1       2.667   0.996   0.726  1.00  0.00     0.167 C 
HETATM   10  O1  UNL     1       2.865   1.382   1.894  1.00  0.00    -0.292 OA
BRANCH   9  11
HETATM   11  C5  UNL     1       3.637   0.217  -0.028  1.00  0.00     0.038 A 
HETATM   12  C6  UNL     1       3.522  -0.246  -1.323  1.00  0.00     0.104 A 
HETATM   13  N3  UNL     1       4.634  -0.954  -1.658  1.00  0.00    -0.364 N 
HETATM   14  C7  UNL     1       5.440  -0.938  -0.589  1.00  0.00     0.043 A 
ATOM     15  H3  UNL     1       4.818  -1.410  -2.552  1.00  0.00     0.165 HD
HETATM   16  C8  UNL     1       6.693  -1.524  -0.417  1.00  0.00     0.030 A 
HETATM   17  C12 UNL     1       4.856  -0.220   0.444  1.00  0.00     0.006 A 
HETATM   18  C9  UNL     1       7.342  -1.387   0.767  1.00  0.00     0.002 A 
HETATM   19  C10 UNL     1       6.778  -0.672   1.817  1.00  0.00     0.001 A 
HETATM   20  C11 UNL     1       5.540  -0.104   1.620  1.00  0.00     0.014 A 
ENDBRANCH   9  11
ENDBRANCH   8   9
ENDBRANCH   5   8
BRANCH   6  21
HETATM   21  C14 UNL     1      -1.460   1.091  -1.007  1.00  0.00    -0.023 A 
HETATM   22  C15 UNL     1      -1.719   2.466  -1.028  1.00  0.00     0.012 A 
HETATM   23  C16 UNL     1      -2.092   3.169  -2.121  1.00  0.00     0.001 A 
HETATM   24  C17 UNL     1      -2.231   2.484  -3.314  1.00  0.00     0.000 A 
HETATM   25  C18 UNL     1      -1.994   1.123  -3.375  1.00  0.00     0.001 A 
HETATM   26  C19 UNL     1      -1.607   0.429  -2.217  1.00  0.00     0.012 A 
ENDBRANCH   6  21
BRANCH   7  27
HETATM   27  C21 UNL     1      -2.971  -1.043   0.919  1.00  0.00     0.090 C 
BRANCH  27  28
HETATM   28  O2  UNL     1      -3.186  -2.108   1.737  1.00  0.00    -0.359 OA
ATOM     29  H2  UNL     1      -4.058  -2.480   1.674  1.00  0.00     0.217 HD
ENDBRANCH  27  28
BRANCH  27  30
HETATM   30  C22 UNL     1      -4.140  -0.780   0.175  1.00  0.00    -0.002 A 
HETATM   31  C23 UNL     1      -4.871  -1.860  -0.345  1.00  0.00     0.014 A 
HETATM   32  C24 UNL     1      -6.063  -1.724  -1.012  1.00  0.00     0.001 A 
HETATM   33  C25 UNL     1      -6.590  -0.452  -1.192  1.00  0.00     0.000 A 
HETATM   34  C26 UNL     1      -5.918   0.645  -0.704  1.00  0.00     0.001 A 
HETATM   35  C27 UNL     1      -4.714   0.448  -0.035  1.00  0.00     0.014 A 
ENDBRANCH  27  30
ENDBRANCH   7  27
TORSDOF 7
