REMARK  5 active torsions:
REMARK  status: ('A' for Active; 'I' for Inactive)
REMARK       I    between atoms: C1_2  and  N1_3 
REMARK       I    between atoms: C1_2  and  N3_21 
REMARK    1  A    between atoms: N1_3  and  C2_5 
REMARK    2  A    between atoms: C5_8  and  N2_9 
REMARK       I    between atoms: N2_9  and  C6_11 
REMARK    3  A    between atoms: C6_11  and  C7_13 
REMARK    4  A    between atoms: N3_21  and  C15_23 
REMARK    5  A    between atoms: C20_29  and  C21_30 
ROOT
HETATM    1  O1  UNL     1      -1.410  -1.464  -1.266  1.00  0.00    -0.247 OA
HETATM    2  C1  UNL     1      -1.862  -0.641  -0.463  1.00  0.00     0.325 C 
HETATM    3  N1  UNL     1      -0.952   0.110   0.317  1.00  0.00    -0.309 N 
ATOM      4  H1  UNL     1      -1.361   0.776   0.972  1.00  0.00     0.170 HD
HETATM    5  N3  UNL     1      -3.239  -0.444  -0.318  1.00  0.00    -0.308 N 
ATOM      6  H3  UNL     1      -3.511   0.261   0.367  1.00  0.00     0.170 HD
ENDROOT
BRANCH   3   7
HETATM    7  C2  UNL     1       0.452   0.043   0.293  1.00  0.00     0.036 A 
HETATM    8  C3  UNL     1       1.234  -0.521  -0.671  1.00  0.00     0.032 A 
HETATM    9  C4  UNL     1       2.639  -0.549  -0.577  1.00  0.00     0.032 A 
HETATM   10  C5  UNL     1       3.320  -0.016   0.474  1.00  0.00     0.035 A 
HETATM   11  C13 UNL     1       2.515   0.572   1.477  1.00  0.00     0.032 A 
HETATM   12  C14 UNL     1       1.155   0.595   1.382  1.00  0.00     0.032 A 
BRANCH  10  13
HETATM   13  N2  UNL     1       4.726   0.025   0.639  1.00  0.00    -0.323 N 
HETATM   14  C6  UNL     1       5.637  -0.106  -0.399  1.00  0.00     0.256 C 
HETATM   15  O2  UNL     1       5.268  -0.265  -1.582  1.00  0.00    -0.267 OA
ATOM     16  H2  UNL     1       5.092   0.159   1.581  1.00  0.00     0.169 HD
BRANCH  14  17
HETATM   17  C7  UNL     1       7.101  -0.067  -0.186  1.00  0.00     0.032 A 
HETATM   18  C8  UNL     1       7.652   0.106   1.051  1.00  0.00     0.017 A 
HETATM   19  C9  UNL     1       9.039   0.139   1.227  1.00  0.00     0.001 A 
HETATM   20  C10 UNL     1       9.898  -0.001   0.168  1.00  0.00     0.000 A 
HETATM   21  C11 UNL     1       9.350  -0.176  -1.077  1.00  0.00     0.001 A 
HETATM   22  C12 UNL     1       7.984  -0.208  -1.252  1.00  0.00     0.017 A 
ENDBRANCH  14  17
ENDBRANCH  10  13
ENDBRANCH   3   7
BRANCH   5  23
HETATM   23  C15 UNL     1      -4.299  -1.079  -0.981  1.00  0.00     0.047 A 
HETATM   24  C16 UNL     1      -4.103  -2.211  -1.744  1.00  0.00     0.033 A 
HETATM   25  C17 UNL     1      -5.208  -2.830  -2.318  1.00  0.00     0.044 A 
HETATM   26  C18 UNL     1      -6.479  -2.348  -2.145  1.00  0.00     0.117 A 
HETATM   27  F1  UNL     1      -7.539  -2.987  -2.726  1.00  0.00    -0.206 F 
HETATM   28  C19 UNL     1      -6.662  -1.227  -1.389  1.00  0.00     0.056 A 
HETATM   29  C20 UNL     1      -5.589  -0.573  -0.797  1.00  0.00     0.004 A 
BRANCH  29  30
HETATM   30  C21 UNL     1      -5.823   0.652  -0.042  1.00  0.00    -0.024 A 
HETATM   31  C22 UNL     1      -6.670   0.631   1.042  1.00  0.00     0.012 A 
HETATM   32  C23 UNL     1      -6.958   1.787   1.765  1.00  0.00     0.001 A 
HETATM   33  C24 UNL     1      -6.389   2.977   1.395  1.00  0.00     0.000 A 
HETATM   34  C25 UNL     1      -5.544   3.009   0.316  1.00  0.00     0.001 A 
HETATM   35  C26 UNL     1      -5.266   1.856  -0.392  1.00  0.00     0.012 A 
ENDBRANCH  29  30
ENDBRANCH   5  23
TORSDOF 5
