REMARK  5 active torsions:
REMARK  status: ('A' for Active; 'I' for Inactive)
REMARK       I    between atoms: C2_2  and  N1_4 
REMARK    1  A    between atoms: N1_4  and  C3_6 
REMARK    2  A    between atoms: N4_11  and  C4_12 
REMARK    3  A    between atoms: C4_12  and  O2_13 
REMARK    4  A    between atoms: O2_13  and  C5_14 
REMARK       I    between atoms: N6_18  and  C7_20 
REMARK    5  A    between atoms: C8_25  and  N9_26 
REMARK       I    between atoms: N9_26  and  C9_28 
ROOT
HETATM    1  C3  UNL     1      -1.390  -1.264   0.045  1.00  0.00     0.155 A 
HETATM    2  N2  UNL     1      -0.744  -2.443  -0.062  1.00  0.00    -0.269 N 
ATOM      3  H2  UNL     1      -1.248  -3.287  -0.332  1.00  0.00     0.190 HD
HETATM    4  N3  UNL     1       0.527  -2.486   0.184  1.00  0.00    -0.235 N 
ATOM      5  H3  UNL     1       1.003  -3.384   0.099  1.00  0.00     0.208 HD
HETATM    6  N4  UNL     1       1.242  -1.434   0.539  1.00  0.00    -0.235 N 
HETATM    7  C6  UNL     1       0.672  -0.197   0.673  1.00  0.00     0.159 A 
HETATM    8  N6  UNL     1       1.408   0.735   1.012  1.00  0.00    -0.314 N 
ATOM      9  H6  UNL     1       2.369   0.419   1.144  1.00  0.00     0.170 HD
HETATM   10  C7  UNL     1       1.287   2.084   1.261  1.00  0.00     0.187 C 
HETATM   11  N7  UNL     1       0.725   2.644   2.256  1.00  0.00    -0.373 N 
ATOM     12  H71 UNL     1       0.635   3.643   2.440  1.00  0.00     0.158 HD
ATOM     13  H72 UNL     1       0.307   2.019   2.946  1.00  0.00     0.158 HD
HETATM   14  N8  UNL     1       1.881   2.973   0.280  1.00  0.00    -0.064 NA
HETATM   15  C8  UNL     1      -0.670  -0.115   0.420  1.00  0.00     0.127 A 
ENDROOT
BRANCH   6  16
HETATM   16  C4  UNL     1       2.641  -1.605   0.785  1.00  0.00     0.332 C 
BRANCH  16  17
HETATM   17  O2  UNL     1       3.437  -1.422  -0.367  1.00  0.00    -0.285 OA
BRANCH  17  18
HETATM   18  C5  UNL     1       4.810  -1.571  -0.212  1.00  0.00     0.374 C 
HETATM   19  N5  UNL     1       5.720  -1.412  -1.296  1.00  0.00    -0.032 NA
HETATM   20  O3  UNL     1       5.314  -1.860   0.925  1.00  0.00    -0.242 OA
ENDBRANCH  17  18
ENDBRANCH  16  17
ENDBRANCH   6  16
BRANCH  15  21
HETATM   21  N9  UNL     1      -1.425   1.073   0.509  1.00  0.00    -0.321 N 
HETATM   22  C9  UNL     1      -1.625   1.939  -0.623  1.00  0.00     0.218 C 
HETATM   23  C10 UNL     1      -2.411   3.183  -0.546  1.00  0.00     0.117 C 
HETATM   24  O4  UNL     1      -1.095   1.592  -1.707  1.00  0.00    -0.274 OA
ATOM     25  H9  UNL     1      -1.843   1.327   1.404  1.00  0.00     0.169 HD
ENDBRANCH  15  21
BRANCH   1  26
HETATM   26  N1  UNL     1      -2.778  -1.191  -0.218  1.00  0.00    -0.310 N 
HETATM   27  C2  UNL     1      -3.501  -2.339  -0.594  1.00  0.00     0.219 C 
HETATM   28  C1  UNL     1      -4.966  -2.266  -0.873  1.00  0.00     0.117 C 
HETATM   29  O1  UNL     1      -2.922  -3.471  -0.705  1.00  0.00    -0.274 OA
ATOM     30  H1  UNL     1      -3.261  -0.296  -0.134  1.00  0.00     0.170 HD
ENDBRANCH   1  26
TORSDOF 5
