REMARK  7 active torsions:
REMARK  status: ('A' for Active; 'I' for Inactive)
REMARK    1  A    between atoms: C3_4  and  N2_5 
REMARK    2  A    between atoms: N2_5  and  C4_7 
REMARK    3  A    between atoms: C9_17  and  S1_18 
REMARK    4  A    between atoms: S1_18  and  C10_19 
REMARK    5  A    between atoms: C10_19  and  C11_20 
REMARK       I    between atoms: C11_20  and  N5_22 
REMARK    6  A    between atoms: N5_22  and  N6_24 
REMARK    7  A    between atoms: N7_26  and  O2_28 
ROOT
HETATM    1  N1  UNL     1       2.350  -2.885   1.575  1.00  0.00    -0.083 NA
HETATM    2  C1  UNL     1       1.544  -1.918   0.923  1.00  0.00     0.121 A 
HETATM    3  C2  UNL     1       0.321  -1.546   1.461  1.00  0.00     0.093 A 
HETATM    4  C3  UNL     1      -0.462  -0.614   0.835  1.00  0.00     0.106 A 
HETATM    5  N4  UNL     1      -0.039  -0.060  -0.307  1.00  0.00    -0.323 N 
ATOM      6  H4  UNL     1      -0.624   0.635  -0.771  1.00  0.00     0.169 HD
HETATM    7  C9  UNL     1       1.159  -0.404  -0.865  1.00  0.00     0.147 A 
HETATM    8  N8  UNL     1       1.913  -1.320  -0.234  1.00  0.00    -0.325 N 
ATOM      9  H8  UNL     1       2.809  -1.578  -0.648  1.00  0.00     0.169 HD
ENDROOT
BRANCH   7  10
HETATM   10  S1  UNL     1       1.717   0.335  -2.381  1.00  0.00    -0.084 SA
BRANCH  10  11
HETATM   11  C10 UNL     1       3.342  -0.241  -2.861  1.00  0.00     0.186 C 
BRANCH  11  12
HETATM   12  C11 UNL     1       4.388   0.256  -1.955  1.00  0.00     0.246 C 
HETATM   13  O1  UNL     1       5.574  -0.096  -2.121  1.00  0.00    -0.271 OA
HETATM   14  N5  UNL     1       4.049   1.135  -0.898  1.00  0.00    -0.253 N 
ATOM     15  H5  UNL     1       3.079   1.420  -0.764  1.00  0.00     0.191 HD
BRANCH  14  16
HETATM   16  N6  UNL     1       5.034   1.608  -0.046  1.00  0.00    -0.221 N 
HETATM   17  N7  UNL     1       5.264   1.278   1.127  1.00  0.00    -0.196 N 
ATOM     18  H7  UNL     1       6.034   1.726   1.623  1.00  0.00     0.217 HD
ATOM     19  H6  UNL     1       5.651   2.321  -0.435  1.00  0.00     0.210 HD
BRANCH  17  20
HETATM   20  O2  UNL     1       4.518   0.332   1.778  1.00  0.00    -0.273 OA
ATOM     21  H2  UNL     1       4.694   0.079   2.677  1.00  0.00     0.246 HD
ENDBRANCH  17  20
ENDBRANCH  14  16
ENDBRANCH  11  12
ENDBRANCH  10  11
ENDBRANCH   7  10
BRANCH   4  22
HETATM   22  N2  UNL     1      -1.581  -0.277   1.336  1.00  0.00    -0.371 N 
ATOM     23  H2  UNL     1      -1.869  -0.719   2.209  1.00  0.00     0.161 HD
BRANCH  22  24
HETATM   24  C4  UNL     1      -2.471   0.698   0.740  1.00  0.00     0.086 C 
HETATM   25  C5  UNL     1      -3.244   0.161  -0.412  1.00  0.00     0.052 C 
HETATM   26  C6  UNL     1      -4.571  -0.385   0.119  1.00  0.00     0.234 C 
HETATM   27  N3  UNL     1      -5.418   0.710   0.568  1.00  0.00    -0.075 N 
HETATM   28  C7  UNL     1      -4.601   1.846   0.973  1.00  0.00     0.234 C 
ATOM     29  H32 UNL     1      -6.109   0.970  -0.136  1.00  0.00     0.277 HD
ATOM     30  H31 UNL     1      -6.058   0.418   1.307  1.00  0.00     0.277 HD
HETATM   31  C8  UNL     1      -3.388   1.340   1.728  1.00  0.00     0.052 C 
ENDBRANCH  22  24
ENDBRANCH   4  22
TORSDOF 7
