REMARK  7 active torsions:
REMARK  status: ('A' for Active; 'I' for Inactive)
REMARK    1  A    between atoms: C2_2  and  C3_3 
REMARK    2  A    between atoms: C5_5  and  N1_6 
REMARK    3  A    between atoms: C6_11  and  N3_12 
REMARK    4  A    between atoms: C8_14  and  C9_15 
REMARK    5  A    between atoms: N4_16  and  N5_18 
REMARK    6  A    between atoms: N5_18  and  C10_20 
REMARK    7  A    between atoms: N10_31  and  O1_32 
ROOT
HETATM    1  N3  UNL     1      -1.066  -1.204  -0.914  1.00  0.00    -0.093 N 
HETATM    2  C7  UNL     1       0.229  -1.410  -0.524  1.00  0.00     0.151 A 
HETATM    3  C8  UNL     1       0.882  -2.199  -1.444  1.00  0.00     0.041 A 
HETATM    4  C13 UNL     1      -0.070  -2.473  -2.426  1.00  0.00     0.144 A 
HETATM    5  N8  UNL     1       0.110  -3.267  -3.620  1.00  0.00    -0.080 NA
HETATM    6  N9  UNL     1      -1.193  -1.859  -2.054  1.00  0.00    -0.266 N 
ATOM      7  H9  UNL     1      -2.059  -1.891  -2.593  1.00  0.00     0.189 HD
ENDROOT
BRANCH   1   8
HETATM    8  C6  UNL     1      -2.039  -0.440  -0.214  1.00  0.00     0.731 A 
HETATM    9  N2  UNL     1      -2.938  -1.082   0.548  1.00  0.00    -0.173 N 
HETATM   10  C5  UNL     1      -3.890  -0.436   1.241  1.00  0.00     0.116 A 
ATOM     11  H2  UNL     1      -2.897  -2.100   0.603  1.00  0.00     0.186 HD
HETATM   12  C4  UNL     1      -3.953   0.951   1.173  1.00  0.00     0.076 A 
HETATM   13  C3  UNL     1      -3.035   1.604   0.394  1.00  0.00     0.062 A 
HETATM   14  N10 UNL     1      -2.109   0.903  -0.275  1.00  0.00    -0.055 N 
BRANCH  10  15
HETATM   15  N1  UNL     1      -4.748  -1.091   1.973  1.00  0.00    -0.385 N 
ATOM     16  H12 UNL     1      -5.471  -0.600   2.499  1.00  0.00     0.157 HD
ATOM     17  H11 UNL     1      -4.702  -2.109   2.023  1.00  0.00     0.157 HD
ENDBRANCH  10  15
BRANCH  13  18
HETATM   18  C2  UNL     1      -3.065   3.062   0.293  1.00  0.00     0.056 C 
HETATM   19  C1  UNL     1      -2.178   3.622   1.402  1.00  0.00     0.011 C 
ENDBRANCH  13  18
BRANCH  14  20
HETATM   20  O1  UNL     1      -1.168   1.542  -1.069  1.00  0.00    -0.269 OA
ATOM     21  H1  UNL     1      -0.512   1.045  -1.543  1.00  0.00     0.245 HD
ENDBRANCH  14  20
ENDBRANCH   1   8
BRANCH   3  22
HETATM   22  C9  UNL     1       2.245  -2.685  -1.472  1.00  0.00     0.123 C 
HETATM   23  N4  UNL     1       3.172  -2.497  -0.645  1.00  0.00    -0.308 N 
ATOM     24  H4  UNL     1       4.074  -2.930  -0.844  1.00  0.00     0.186 HD
BRANCH  23  25
HETATM   25  N5  UNL     1       3.067  -1.753   0.509  1.00  0.00    -0.272 N 
ATOM     26  H5  UNL     1       2.515  -2.121   1.284  1.00  0.00     0.190 HD
BRANCH  25  27
HETATM   27  C10 UNL     1       3.711  -0.470   0.661  1.00  0.00     0.190 C 
HETATM   28  N6  UNL     1       4.989  -0.344   0.811  1.00  0.00    -0.360 N 
HETATM   29  C11 UNL     1       5.355   1.050   0.938  1.00  0.00     0.142 C 
ATOM     30  H6  UNL     1       5.649  -1.121   0.836  1.00  0.00     0.162 HD
HETATM   31  C12 UNL     1       4.036   1.729   1.253  1.00  0.00     0.142 C 
HETATM   32  N7  UNL     1       3.078   0.803   0.669  1.00  0.00    -0.360 N 
ATOM     33  H7  UNL     1       2.140   1.023   0.333  1.00  0.00     0.162 HD
ENDBRANCH  25  27
ENDBRANCH  23  25
ENDBRANCH   3  22
TORSDOF 7
