REMARK  8 active torsions:
REMARK  status: ('A' for Active; 'I' for Inactive)
REMARK    1  A    between atoms: C2_2  and  C3_3 
REMARK    2  A    between atoms: C3_3  and  N1_5 
REMARK    3  A    between atoms: C3_3  and  C5_9 
REMARK       I    between atoms: C5_9  and  N2_11 
REMARK    4  A    between atoms: N2_11  and  C6_13 
REMARK    5  A    between atoms: C7_15  and  S2_16 
REMARK    6  A    between atoms: S2_16  and  N3_19 
REMARK    7  A    between atoms: N3_19  and  N4_21 
REMARK    8  A    between atoms: C8_28  and  N7_29 
ROOT
HETATM    1  C6  UNL     1       0.414   0.500   1.199  1.00  0.00     0.124 A 
HETATM    2  S1  UNL     1       1.124  -0.156  -0.205  1.00  0.00    -0.036 SA
HETATM    3  C7  UNL     1       2.767  -0.549   0.010  1.00  0.00     0.209 A 
HETATM    4  N5  UNL     1       3.226  -0.280   1.239  1.00  0.00    -0.281 N 
ATOM      5  H5  UNL     1       4.206  -0.499   1.416  1.00  0.00     0.188 HD
HETATM    6  N6  UNL     1       2.556   0.232   2.236  1.00  0.00    -0.282 N 
ATOM      7  H6  UNL     1       3.084   0.362   3.099  1.00  0.00     0.188 HD
HETATM    8  C8  UNL     1       1.292   0.604   2.283  1.00  0.00     0.148 A 
ENDROOT
BRANCH   1   9
HETATM    9  N2  UNL     1      -0.805   0.887   1.332  1.00  0.00    -0.316 N 
HETATM   10  C5  UNL     1      -1.782   0.838   0.335  1.00  0.00     0.258 C 
HETATM   11  O1  UNL     1      -1.907   1.858  -0.415  1.00  0.00    -0.270 OA
ATOM     12  H2  UNL     1      -1.081   1.260   2.240  1.00  0.00     0.169 HD
BRANCH  10  13
HETATM   13  C3  UNL     1      -2.689  -0.293   0.067  1.00  0.00     0.199 C 
HETATM   14  C4  UNL     1      -2.441  -0.804  -1.335  1.00  0.00     0.056 C 
BRANCH  13  15
HETATM   15  C2  UNL     1      -4.145   0.089   0.202  1.00  0.00     0.044 C 
HETATM   16  C1  UNL     1      -4.571   1.157  -0.751  1.00  0.00     0.008 C 
ENDBRANCH  13  15
BRANCH  13  17
HETATM   17  N1  UNL     1      -2.449  -1.389   0.983  1.00  0.00    -0.062 N 
ATOM     18  H13 UNL     1      -2.719  -1.174   1.943  1.00  0.00     0.275 HD
ATOM     19  H12 UNL     1      -3.084  -2.175   0.841  1.00  0.00     0.275 HD
ATOM     20  H11 UNL     1      -1.466  -1.647   0.892  1.00  0.00     0.275 HD
ENDBRANCH  13  17
ENDBRANCH  10  13
ENDBRANCH   1   9
BRANCH   8  21
HETATM   21  N7  UNL     1       0.803   1.093   3.366  1.00  0.00    -0.382 N 
ATOM     22  H72 UNL     1      -0.175   1.381   3.402  1.00  0.00     0.157 HD
ATOM     23  H71 UNL     1       1.443   1.169   4.156  1.00  0.00     0.157 HD
ENDBRANCH   8  21
BRANCH   3  24
HETATM   24  S2  UNL     1       3.779  -1.240  -1.242  1.00  0.00     0.299 S 
HETATM   25  O2  UNL     1       2.992  -2.170  -2.121  1.00  0.00    -0.197 OA
HETATM   26  O3  UNL     1       4.837  -2.049  -0.565  1.00  0.00    -0.197 OA
BRANCH  24  27
HETATM   27  N3  UNL     1       4.559  -0.012  -2.170  1.00  0.00    -0.228 N 
ATOM     28  H3  UNL     1       4.194   0.426  -3.015  1.00  0.00     0.199 HD
BRANCH  27  29
HETATM   29  N4  UNL     1       5.781   0.274  -1.555  1.00  0.00    -0.336 N 
ATOM     30  H42 UNL     1       6.135  -0.172  -0.709  1.00  0.00     0.177 HD
ATOM     31  H41 UNL     1       6.242   1.000  -2.104  1.00  0.00     0.177 HD
ENDBRANCH  27  29
ENDBRANCH  24  27
ENDBRANCH   3  24
TORSDOF 8
