REMARK  9 active torsions:
REMARK  status: ('A' for Active; 'I' for Inactive)
REMARK    1  A    between atoms: C2_2  and  N1_3 
REMARK    2  A    between atoms: C2_2  and  C3_7 
REMARK    3  A    between atoms: C2_2  and  N11_35 
REMARK    4  A    between atoms: C3_7  and  N2_8 
REMARK    5  A    between atoms: C3_7  and  C5_16 
REMARK    6  A    between atoms: N2_8  and  O1_10 
REMARK    7  A    between atoms: O1_10  and  C4_11 
REMARK    8  A    between atoms: C4_11  and  N3_12 
REMARK    9  A    between atoms: C7_21  and  N6_22 
REMARK       I    between atoms: N6_22  and  C8_24 
ROOT
HETATM    1  C3  UNL     1      -1.742  -0.136   0.291  1.00  0.00     0.122 C 
ENDROOT
BRANCH   1   2
HETATM    2  C2  UNL     1      -1.920  -1.558   0.488  1.00  0.00     0.273 C 
HETATM    3  C1  UNL     1      -3.439  -1.834   0.503  1.00  0.00     0.081 C 
BRANCH   2   4
HETATM    4  N1  UNL     1      -1.427  -2.290  -0.661  1.00  0.00    -0.044 N 
ATOM      5  H13 UNL     1      -1.669  -3.281  -0.658  1.00  0.00     0.278 HD
ATOM      6  H12 UNL     1      -1.900  -2.059  -1.535  1.00  0.00     0.278 HD
ATOM      7  H11 UNL     1      -0.423  -2.108  -0.671  1.00  0.00     0.278 HD
ENDBRANCH   2   4
BRANCH   2   8
HETATM    8  N11 UNL     1      -1.362  -2.082   1.729  1.00  0.00    -0.157 N 
HETATM    9  N12 UNL     1      -1.018  -1.647   2.914  1.00  0.00    -0.212 N 
HETATM   10  N13 UNL     1      -0.677  -2.871   3.228  1.00  0.00    -0.209 N 
ATOM     11  H12 UNL     1      -1.016  -0.744   3.388  1.00  0.00     0.211 HD
HETATM   12  N14 UNL     1      -1.021  -3.322   2.035  1.00  0.00     0.017 NA
ATOM     13  H13 UNL     1      -0.295  -3.307   4.067  1.00  0.00     0.207 HD
ENDBRANCH   2   8
ENDBRANCH   1   2
BRANCH   1  14
HETATM   14  N2  UNL     1      -2.790   0.611   0.270  1.00  0.00    -0.255 N 
ATOM     15  H2  UNL     1      -3.697   0.162   0.393  1.00  0.00     0.195 HD
BRANCH  14  16
HETATM   16  O1  UNL     1      -2.768   1.967   0.094  1.00  0.00    -0.204 OA
BRANCH  16  17
HETATM   17  C4  UNL     1      -3.832   2.551  -0.581  1.00  0.00     0.249 C 
HETATM   18  N4  UNL     1      -4.287   3.873  -0.285  1.00  0.00    -0.055 NA
BRANCH  17  19
HETATM   19  N3  UNL     1      -4.466   1.927  -1.516  1.00  0.00    -0.366 N 
ATOM     20  H32 UNL     1      -4.141   0.983  -1.727  1.00  0.00     0.159 HD
ATOM     21  H31 UNL     1      -5.247   2.356  -2.012  1.00  0.00     0.159 HD
ENDBRANCH  17  19
ENDBRANCH  16  17
ENDBRANCH  14  16
ENDBRANCH   1  14
BRANCH   1  22
HETATM   22  C5  UNL     1      -0.462   0.508   0.144  1.00  0.00     0.113 A 
HETATM   23  N5  UNL     1      -0.252   1.857   0.018  1.00  0.00    -0.256 N 
HETATM   24  O2  UNL     1       1.004   2.102  -0.086  1.00  0.00    -0.231 OA
ATOM     25  H5  UNL     1      -0.987   2.564   0.008  1.00  0.00     0.195 HD
HETATM   26  C6  UNL     1       1.705   0.998  -0.041  1.00  0.00     0.172 A 
HETATM   27  C7  UNL     1       3.081   0.756  -0.114  1.00  0.00     0.147 A 
HETATM   28  C10 UNL     1       0.803  -0.039   0.105  1.00  0.00     0.104 A 
HETATM   29  N9  UNL     1       3.550  -0.496  -0.043  1.00  0.00    -0.336 N 
HETATM   30  C9  UNL     1       2.646  -1.488   0.099  1.00  0.00     0.182 A 
ATOM     31  H9  UNL     1       4.550  -0.692  -0.094  1.00  0.00     0.168 HD
HETATM   32  N10 UNL     1       1.329  -1.256   0.169  1.00  0.00    -0.348 N 
ATOM     33  H10 UNL     1       0.700  -2.052   0.277  1.00  0.00     0.167 HD
BRANCH  27  34
HETATM   34  N6  UNL     1       3.864   1.777  -0.250  1.00  0.00    -0.315 N 
HETATM   35  C8  UNL     1       5.257   1.542  -0.325  1.00  0.00     0.187 C 
HETATM   36  N7  UNL     1       5.959   1.669   0.742  1.00  0.00    -0.373 N 
HETATM   37  N8  UNL     1       5.863   1.173  -1.546  1.00  0.00    -0.064 NA
ATOM     38  H72 UNL     1       5.521   1.936   1.624  1.00  0.00     0.158 HD
ATOM     39  H71 UNL     1       6.963   1.500   0.688  1.00  0.00     0.158 HD
ATOM     40  H6  UNL     1       3.488   2.724  -0.302  1.00  0.00     0.170 HD
ENDBRANCH  27  34
ENDBRANCH   1  22
TORSDOF 9
