REMARK  10 active torsions:
REMARK  status: ('A' for Active; 'I' for Inactive)
REMARK    1  A    between atoms: O1_2  and  C2_3 
REMARK    2  A    between atoms: C2_3  and  C3_5 
REMARK    3  A    between atoms: C6_8  and  N1_9 
REMARK    4  A    between atoms: N1_9  and  C7_11 
REMARK    5  A    between atoms: C7_11  and  O3_12 
REMARK    6  A    between atoms: C7_11  and  C8_14 
REMARK    7  A    between atoms: C9_15  and  O4_16 
REMARK    8  A    between atoms: C10_18  and  N2_19 
REMARK    9  A    between atoms: N4_24  and  C11_25 
REMARK   10  A    between atoms: C12_31  and  N7_32 
ROOT
HETATM    1  C8  UNL     1      -2.425  -1.334   0.331  1.00  0.00     0.121 A 
HETATM    2  C9  UNL     1      -3.019  -2.394   1.008  1.00  0.00     0.140 A 
HETATM    3  C10 UNL     1      -4.226  -1.954   1.505  1.00  0.00     0.150 A 
HETATM    4  N3  UNL     1      -4.338  -0.685   1.134  1.00  0.00    -0.275 N 
ATOM      5  H3  UNL     1      -5.133  -0.086   1.356  1.00  0.00     0.189 HD
HETATM    6  N4  UNL     1      -3.257  -0.291   0.422  1.00  0.00    -0.230 N 
ENDROOT
BRANCH   1   7
HETATM    7  C7  UNL     1      -1.100  -1.421  -0.359  1.00  0.00     0.275 C 
BRANCH   7   8
HETATM    8  N1  UNL     1      -0.241  -0.387  -0.129  1.00  0.00    -0.344 N 
ATOM      9  H1  UNL     1      -0.793   0.458   0.019  1.00  0.00     0.164 HD
BRANCH   8  10
HETATM   10  C6  UNL     1       0.963  -0.087  -0.032  1.00  0.00     0.119 A 
HETATM   11  C5  UNL     1       1.298   1.271   0.245  1.00  0.00     0.052 A 
HETATM   12  C4  UNL     1       2.558   1.729   0.375  1.00  0.00     0.041 A 
HETATM   13  C3  UNL     1       3.607   0.854   0.238  1.00  0.00     0.123 A 
HETATM   14  N9  UNL     1       3.285  -0.419  -0.022  1.00  0.00    -0.292 N 
HETATM   15  N8  UNL     1       2.042  -0.877  -0.152  1.00  0.00    -0.281 N 
ATOM     16  H9  UNL     1       4.048  -1.087  -0.128  1.00  0.00     0.187 HD
HETATM   17  C13 UNL     1       1.912  -2.279  -0.431  1.00  0.00     0.179 C 
BRANCH  13  18
HETATM   18  C2  UNL     1       4.988   1.300   0.370  1.00  0.00     0.311 C 
HETATM   19  O2  UNL     1       5.944   0.496   0.244  1.00  0.00    -0.258 OA
BRANCH  18  20
HETATM   20  O1  UNL     1       5.270   2.627   0.639  1.00  0.00    -0.321 OA
HETATM   21  C1  UNL     1       6.629   3.024   0.761  1.00  0.00     0.213 C 
ENDBRANCH  18  20
ENDBRANCH  13  18
ENDBRANCH   8  10
ENDBRANCH   7   8
BRANCH   7  22
HETATM   22  O3  UNL     1      -1.324  -1.552  -1.761  1.00  0.00    -0.371 OA
ATOM     23  H3  UNL     1      -1.922  -2.272  -1.921  1.00  0.00     0.212 HD
ENDBRANCH   7  22
ENDBRANCH   1   7
BRANCH   2  24
HETATM   24  O4  UNL     1      -2.485  -3.667   1.154  1.00  0.00    -0.355 OA
ATOM     25  H4  UNL     1      -2.891  -4.391   1.616  1.00  0.00     0.218 HD
ENDBRANCH   2  24
BRANCH   6  26
HETATM   26  C11 UNL     1      -3.060   1.000  -0.126  1.00  0.00     0.195 A 
HETATM   27  N5  UNL     1      -2.533   2.086   0.459  1.00  0.00    -0.220 N 
HETATM   28  O5  UNL     1      -2.533   3.086  -0.379  1.00  0.00    -0.153 OA
ATOM     29  H5  UNL     1      -2.184   2.124   1.417  1.00  0.00     0.198 HD
HETATM   30  N6  UNL     1      -3.040   2.734  -1.521  1.00  0.00    -0.222 N 
HETATM   31  C12 UNL     1      -3.385   1.416  -1.395  1.00  0.00     0.169 A 
ATOM     32  H6  UNL     1      -3.158   3.322  -2.346  1.00  0.00     0.198 HD
BRANCH  31  33
HETATM   33  N7  UNL     1      -3.922   0.757  -2.355  1.00  0.00    -0.381 N 
ATOM     34  H72 UNL     1      -4.179  -0.226  -2.261  1.00  0.00     0.157 HD
ATOM     35  H71 UNL     1      -4.163   1.066  -3.297  1.00  0.00     0.157 HD
ENDBRANCH  31  33
ENDBRANCH   6  26
BRANCH   3  36
HETATM   36  N2  UNL     1      -5.067  -2.674   2.199  1.00  0.00    -0.382 N 
ATOM     37  H22 UNL     1      -4.981  -3.650   2.484  1.00  0.00     0.157 HD
ATOM     38  H21 UNL     1      -5.961  -2.348   2.567  1.00  0.00     0.157 HD
ENDBRANCH   3  36
TORSDOF 10
