REMARK  10 active torsions:
REMARK  status: ('A' for Active; 'I' for Inactive)
REMARK    1  A    between atoms: C2_2  and  C3_3 
REMARK    2  A    between atoms: C2_2  and  N2_18 
REMARK       I    between atoms: C3_3  and  N1_5 
REMARK    3  A    between atoms: N1_5  and  C4_7 
REMARK    4  A    between atoms: C5_9  and  O3_10 
REMARK    5  A    between atoms: C6_12  and  O4_13 
REMARK    6  A    between atoms: C7_15  and  O5_16 
REMARK    7  A    between atoms: C8_21  and  C9_22 
REMARK    8  A    between atoms: C9_22  and  N4_24 
REMARK    9  A    between atoms: C9_22  and  C11_28 
REMARK   10  A    between atoms: N6_31  and  N7_32 
ROOT
HETATM    1  N2  UNL     1      -0.683  -1.867  -0.319  1.00  0.00    -0.226 N 
HETATM    2  N3  UNL     1      -0.829  -0.582  -0.047  1.00  0.00    -0.278 N 
ATOM      3  H3  UNL     1      -0.086   0.040   0.272  1.00  0.00     0.189 HD
HETATM    4  C8  UNL     1      -2.125  -0.214  -0.258  1.00  0.00     0.168 A 
HETATM    5  N6  UNL     1      -2.788  -1.301  -0.669  1.00  0.00    -0.194 N 
HETATM    6  C12 UNL     1      -1.873  -2.306  -0.697  1.00  0.00     0.364 A 
HETATM    7  O7  UNL     1      -2.186  -3.489  -1.051  1.00  0.00    -0.243 OA
ENDROOT
BRANCH   1   8
HETATM    8  C2  UNL     1       0.541  -2.671  -0.228  1.00  0.00     0.201 C 
HETATM    9  C1  UNL     1       0.237  -3.808   0.723  1.00  0.00     0.044 C 
BRANCH   8  10
HETATM   10  C3  UNL     1       1.662  -1.853   0.239  1.00  0.00     0.248 C 
HETATM   11  O1  UNL     1       2.220  -2.173   1.327  1.00  0.00    -0.271 OA
HETATM   12  N1  UNL     1       2.138  -0.727  -0.480  1.00  0.00    -0.303 N 
ATOM     13  H1  UNL     1       1.683  -0.475  -1.357  1.00  0.00     0.171 HD
BRANCH  12  14
HETATM   14  C4  UNL     1       3.226   0.063  -0.022  1.00  0.00     0.189 A 
HETATM   15  O2  UNL     1       3.949  -0.075   1.062  1.00  0.00    -0.265 OA
HETATM   16  C5  UNL     1       4.873   0.848   1.155  1.00  0.00     0.222 A 
HETATM   17  C6  UNL     1       4.783   1.681   0.060  1.00  0.00     0.162 A 
HETATM   18  C7  UNL     1       3.734   1.168  -0.675  1.00  0.00     0.156 A 
BRANCH  16  19
HETATM   19  O3  UNL     1       5.821   1.010   2.175  1.00  0.00    -0.338 OA
ATOM     20  H3  UNL     1       6.491   1.680   2.242  1.00  0.00     0.220 HD
ENDBRANCH  16  19
BRANCH  17  21
HETATM   21  O4  UNL     1       5.601   2.774  -0.184  1.00  0.00    -0.354 OA
ATOM     22  H4  UNL     1       5.539   3.348  -0.938  1.00  0.00     0.218 HD
ENDBRANCH  17  21
BRANCH  18  23
HETATM   23  O5  UNL     1       3.297   1.726  -1.889  1.00  0.00    -0.354 OA
ATOM     24  H5  UNL     1       3.647   2.486  -2.338  1.00  0.00     0.218 HD
ENDBRANCH  18  23
ENDBRANCH  12  14
ENDBRANCH   8  10
ENDBRANCH   1   8
BRANCH   4  25
HETATM   25  C9  UNL     1      -2.681   1.146  -0.060  1.00  0.00     0.257 C 
HETATM   26  C10 UNL     1      -3.973   1.384  -0.784  1.00  0.00     0.065 C 
BRANCH  25  27
HETATM   27  N4  UNL     1      -2.804   1.485   1.342  1.00  0.00    -0.055 N 
ATOM     28  H43 UNL     1      -3.350   0.786   1.845  1.00  0.00     0.276 HD
ATOM     29  H42 UNL     1      -1.914   1.375   1.828  1.00  0.00     0.276 HD
ATOM     30  H41 UNL     1      -3.187   2.421   1.478  1.00  0.00     0.276 HD
ENDBRANCH  25  27
BRANCH  25  31
HETATM   31  C11 UNL     1      -1.683   2.097  -0.667  1.00  0.00     0.275 C 
HETATM   32  N5  UNL     1      -1.050   3.097   0.103  1.00  0.00    -0.059 NA
HETATM   33  O6  UNL     1      -1.386   2.023  -1.894  1.00  0.00    -0.274 OA
ENDBRANCH  25  31
ENDBRANCH   4  25
BRANCH   5  34
HETATM   34  N7  UNL     1      -4.139  -1.394  -1.001  1.00  0.00    -0.333 N 
ATOM     35  H72 UNL     1      -4.826  -0.640  -0.980  1.00  0.00     0.177 HD
ATOM     36  H71 UNL     1      -4.644  -2.223  -1.314  1.00  0.00     0.177 HD
ENDBRANCH   5  34
TORSDOF 10
