REMARK  10 active torsions:
REMARK  status: ('A' for Active; 'I' for Inactive)
REMARK    1  A    between atoms: C2_2  and  N1_4 
REMARK    2  A    between atoms: N1_4  and  C4_6 
REMARK    3  A    between atoms: C5_7  and  O1_8 
REMARK    4  A    between atoms: N2_11  and  O2_13 
REMARK    5  A    between atoms: C7_16  and  O4_17 
REMARK    6  A    between atoms: O4_17  and  C8_18 
REMARK    7  A    between atoms: C11_22  and  O6_23 
REMARK    8  A    between atoms: C12_25  and  O7_26 
REMARK    9  A    between atoms: C13_28  and  O8_29 
REMARK   10  A    between atoms: C14_31  and  O9_32 
ROOT
HETATM    1  C4  UNL     1      -2.075  -0.336   0.171  1.00  0.00     0.147 C 
HETATM    2  C5  UNL     1      -2.675  -1.209  -0.875  1.00  0.00     0.219 C 
HETATM    3  C6  UNL     1      -1.577  -1.992  -1.548  1.00  0.00     0.171 C 
HETATM    4  N2  UNL     1      -1.862  -3.085  -2.208  1.00  0.00    -0.249 N 
ATOM      5  H2  UNL     1      -1.122  -3.618  -2.665  1.00  0.00     0.196 HD
HETATM    6  O3  UNL     1      -0.275  -1.553  -1.466  1.00  0.00    -0.301 OA
HETATM    7  C7  UNL     1       0.275  -1.105  -0.212  1.00  0.00     0.301 C 
HETATM    8  C14 UNL     1      -0.843  -1.025   0.811  1.00  0.00     0.199 C 
ENDROOT
BRANCH   7   9
HETATM    9  O4  UNL     1       0.783   0.157  -0.392  1.00  0.00    -0.326 OA
BRANCH   9  10
HETATM   10  C8  UNL     1       2.145   0.241  -0.118  1.00  0.00     0.294 C 
HETATM   11  O5  UNL     1       2.337   1.135   0.924  1.00  0.00    -0.351 OA
HETATM   12  C9  UNL     1       3.625   1.091   1.434  1.00  0.00     0.152 C 
HETATM   13  C10 UNL     1       4.130   2.439   1.912  1.00  0.00     0.042 C 
HETATM   14  C11 UNL     1       4.625   0.460   0.546  1.00  0.00     0.178 C 
HETATM   15  C12 UNL     1       4.408   0.591  -0.921  1.00  0.00     0.183 C 
HETATM   16  C13 UNL     1       2.954   0.738  -1.296  1.00  0.00     0.204 C 
BRANCH  14  17
HETATM   17  O6  UNL     1       4.831  -0.864   0.946  1.00  0.00    -0.390 OA
ATOM     18  H6  UNL     1       5.473  -1.269   0.376  1.00  0.00     0.210 HD
ENDBRANCH  14  17
BRANCH  15  19
HETATM   19  O7  UNL     1       4.832  -0.625  -1.510  1.00  0.00    -0.390 OA
ATOM     20  H7  UNL     1       4.694  -0.541  -2.446  1.00  0.00     0.210 HD
ENDBRANCH  15  19
BRANCH  16  21
HETATM   21  O8  UNL     1       2.640  -0.029  -2.421  1.00  0.00    -0.388 OA
ATOM     22  H8  UNL     1       3.148   0.283  -3.161  1.00  0.00     0.210 HD
ENDBRANCH  16  21
ENDBRANCH   9  10
ENDBRANCH   7   9
BRANCH   8  23
HETATM   23  O9  UNL     1      -1.183  -2.229   1.361  1.00  0.00    -0.388 OA
ATOM     24  H9  UNL     1      -0.428  -2.651   1.753  1.00  0.00     0.210 HD
ENDBRANCH   8  23
BRANCH   1  25
HETATM   25  N1  UNL     1      -2.857   0.122   1.238  1.00  0.00    -0.408 N 
ATOM     26  H1  UNL     1      -2.615  -0.196   2.176  1.00  0.00     0.154 HD
BRANCH  25  27
HETATM   27  C2  UNL     1      -3.948   0.986   1.104  1.00  0.00     0.069 C 
HETATM   28  C1  UNL     1      -5.130   0.442   0.364  1.00  0.00     0.031 C 
HETATM   29  C3  UNL     1      -4.447   1.465   2.487  1.00  0.00     0.031 C 
ENDBRANCH  25  27
ENDBRANCH   1  25
BRANCH   2  30
HETATM   30  O1  UNL     1      -3.205  -0.416  -1.911  1.00  0.00    -0.385 OA
ATOM     31  H1  UNL     1      -3.588  -0.973  -2.578  1.00  0.00     0.210 HD
ENDBRANCH   2  30
BRANCH   4  32
HETATM   32  O2  UNL     1      -3.171  -3.510  -2.281  1.00  0.00    -0.288 OA
ATOM     33  H2  UNL     1      -3.378  -4.304  -2.760  1.00  0.00     0.244 HD
ENDBRANCH   4  32
TORSDOF 10
