REMARK  7 active torsions:
REMARK  status: ('A' for Active; 'I' for Inactive)
REMARK    1  A    between atoms: C3_6  and  S1_7 
REMARK    2  A    between atoms: S1_7  and  C4_8 
REMARK    3  A    between atoms: N3_9  and  N4_11 
REMARK    4  A    between atoms: N4_11  and  C5_13 
REMARK       I    between atoms: N8_21  and  C8_22 
REMARK       I    between atoms: C8_22  and  N10_26 
REMARK    5  A    between atoms: N10_26  and  N11_28 
REMARK    6  A    between atoms: C10_32  and  C11_33 
REMARK       I    between atoms: C11_33  and  N12_35 
REMARK    7  A    between atoms: N12_35  and  N13_37 
ROOT
HETATM    1  C1  UNL     1      -4.251   2.909   1.819  1.00  0.00     0.231 C 
HETATM    2  N1  UNL     1      -3.475   1.993   1.242  1.00  0.00    -0.410 NA
HETATM    3  C2  UNL     1      -2.781   1.165   0.708  1.00  0.00     0.196 A 
HETATM    4  N2  UNL     1      -1.709   0.628   1.413  1.00  0.00    -0.310 N 
ATOM      5  H2  UNL     1      -1.534   0.990   2.351  1.00  0.00     0.170 HD
HETATM    6  C3  UNL     1      -0.903  -0.310   0.965  1.00  0.00     0.174 A 
HETATM    7  N8  UNL     1      -1.138  -0.785  -0.263  1.00  0.00    -0.134 N 
HETATM    8  C8  UNL     1      -0.294  -1.824  -0.749  1.00  0.00     0.698 C 
HETATM    9  N9  UNL     1       0.629  -1.541  -1.577  1.00  0.00    -0.233 N 
ATOM     10  H91 UNL     1       1.234  -2.285  -1.925  1.00  0.00     0.174 HD
ATOM     11  H92 UNL     1       0.753  -0.574  -1.876  1.00  0.00     0.174 HD
HETATM   12  N10 UNL     1      -0.467  -3.171  -0.332  1.00  0.00    -0.138 N 
ATOM     13  H10 UNL     1      -0.049  -3.935  -0.863  1.00  0.00     0.205 HD
HETATM   14  C9  UNL     1      -2.147  -0.327  -1.014  1.00  0.00     0.139 A 
HETATM   15  C10 UNL     1      -3.019   0.679  -0.558  1.00  0.00     0.108 A 
ENDROOT
BRANCH  15  16
HETATM   16  C11 UNL     1      -4.008   1.157  -1.499  1.00  0.00     0.275 C 
HETATM   17  O1  UNL     1      -4.511   0.251  -2.262  1.00  0.00    -0.266 OA
HETATM   18  N12 UNL     1      -4.453   2.461  -1.667  1.00  0.00    -0.272 N 
ATOM     19  H12 UNL     1      -4.067   3.202  -1.082  1.00  0.00     0.189 HD
BRANCH  18  20
HETATM   20  N13 UNL     1      -5.433   2.779  -2.637  1.00  0.00    -0.342 N 
ATOM     21 2H13 UNL     1      -5.808   2.026  -3.214  1.00  0.00     0.176 HD
ATOM     22 1H13 UNL     1      -5.760   3.737  -2.760  1.00  0.00     0.176 HD
ENDBRANCH  18  20
ENDBRANCH  15  16
BRANCH   6  23
HETATM   23  S1  UNL     1       0.507  -0.884   1.964  1.00  0.00    -0.046 SA
BRANCH  23  24
HETATM   24  C4  UNL     1       1.889   0.240   1.602  1.00  0.00     0.160 C 
HETATM   25  N3  UNL     1       2.988  -0.110   1.222  1.00  0.00    -0.291 N 
ATOM     26  H3  UNL     1       3.627   0.670   1.068  1.00  0.00     0.187 HD
BRANCH  25  27
HETATM   27  N4  UNL     1       3.544  -1.312   0.960  1.00  0.00    -0.130 N 
ATOM     28  H4  UNL     1       3.046  -2.150   1.261  1.00  0.00     0.205 HD
BRANCH  27  29
HETATM   29  C5  UNL     1       4.680  -1.458   0.345  1.00  0.00     0.714 A 
HETATM   30  N5  UNL     1       5.334  -2.565   0.030  1.00  0.00    -0.130 N 
HETATM   31  N6  UNL     1       6.455  -2.276  -0.619  1.00  0.00    -0.281 N 
ATOM     32  H5  UNL     1       5.020  -3.509   0.255  1.00  0.00     0.205 HD
HETATM   33  C6  UNL     1       6.535  -0.958  -0.729  1.00  0.00     0.217 A 
ATOM     34  H6  UNL     1       7.135  -2.950  -0.971  1.00  0.00     0.188 HD
HETATM   35  N7  UNL     1       5.420  -0.446  -0.123  1.00  0.00    -0.180 N 
HETATM   36  C7  UNL     1       5.181   0.971  -0.061  1.00  0.00     0.176 C 
ENDBRANCH  27  29
ENDBRANCH  25  27
ENDBRANCH  23  24
ENDBRANCH   6  23
BRANCH  12  37
HETATM   37  N11 UNL     1      -1.232  -3.440   0.838  1.00  0.00    -0.331 N 
ATOM     38 2H11 UNL     1      -1.643  -2.665   1.358  1.00  0.00     0.177 HD
ATOM     39 1H11 UNL     1      -1.356  -4.407   1.137  1.00  0.00     0.177 HD
ENDBRANCH  12  37
TORSDOF 7
