REMARK  9 active torsions:
REMARK  status: ('A' for Active; 'I' for Inactive)
REMARK    1  A    between atoms: N1_1  and  C1_4 
REMARK    2  A    between atoms: C5_12  and  C6_13 
REMARK    3  A    between atoms: C6_13  and  O1_14 
REMARK    4  A    between atoms: C6_13  and  C7_16 
REMARK    5  A    between atoms: C7_16  and  O2_17 
REMARK    6  A    between atoms: C7_16  and  C8_19 
REMARK    7  A    between atoms: C8_19  and  O3_20 
REMARK    8  A    between atoms: C8_19  and  O4_22 
REMARK    9  A    between atoms: C9_26  and  N5_27 
ROOT
HETATM    1  C1  UNL     1      -2.636   5.314   0.158  1.00  0.00     0.692 A 
HETATM    2  N2  UNL     1      -1.494   5.208   0.849  1.00  0.00    -0.171 N 
ATOM      3  H2  UNL     1      -1.046   5.960   1.372  1.00  0.00     0.186 HD
HETATM    4  C2  UNL     1      -1.034   3.949   0.741  1.00  0.00     0.175 A 
HETATM    5  C3  UNL     1      -0.288   2.809   0.852  1.00  0.00     0.126 A 
HETATM    6  N3  UNL     1       0.842   2.468   1.461  1.00  0.00    -0.358 N 
ATOM      7  H3  UNL     1       1.237   3.234   2.006  1.00  0.00     0.165 HD
HETATM    8  C4  UNL     1       1.601   1.334   1.530  1.00  0.00     0.117 C 
HETATM    9  C5  UNL     1       1.494   0.066   1.017  1.00  0.00     0.073 C 
HETATM   10  N4  UNL     1       0.554  -0.528   0.272  1.00  0.00    -0.191 N 
ATOM     11  H4  UNL     1       0.848  -1.482   0.061  1.00  0.00     0.184 HD
HETATM   12  C9  UNL     1      -0.632  -0.304  -0.289  1.00  0.00     0.682 C 
HETATM   13  N7  UNL     1      -1.350   0.823  -0.454  1.00  0.00    -0.172 N 
ATOM     14  H7  UNL     1      -2.153   0.695  -1.070  1.00  0.00     0.186 HD
HETATM   15  C14 UNL     1      -1.243   2.092   0.018  1.00  0.00     0.175 A 
HETATM   16  N8  UNL     1      -1.909   3.250  -0.037  1.00  0.00    -0.203 N 
HETATM   17  N9  UNL     1      -2.873   4.099  -0.379  1.00  0.00    -0.122 N 
ATOM     18  H9  UNL     1      -3.676   3.866  -0.963  1.00  0.00     0.206 HD
ENDROOT
BRANCH   9  19
HETATM   19  C6  UNL     1       2.617  -0.799   1.344  1.00  0.00     0.203 C 
BRANCH  19  20
HETATM   20  O1  UNL     1       2.941  -0.658   2.703  1.00  0.00    -0.387 OA
ATOM     21  H1  UNL     1       3.674  -1.223   2.917  1.00  0.00     0.210 HD
ENDBRANCH  19  20
BRANCH  19  22
HETATM   22  C7  UNL     1       3.874  -0.531   0.565  1.00  0.00     0.207 C 
BRANCH  22  23
HETATM   23  O2  UNL     1       4.377   0.750   0.789  1.00  0.00    -0.388 OA
ATOM     24  H2  UNL     1       5.172   0.919   0.297  1.00  0.00     0.210 HD
ENDBRANCH  22  23
BRANCH  22  25
HETATM   25  C8  UNL     1       3.727  -0.830  -0.908  1.00  0.00     0.285 C 
BRANCH  25  26
HETATM   26  O3  UNL     1       2.922   0.093  -1.565  1.00  0.00    -0.369 OA
ATOM     27  H3  UNL     1       2.830  -0.095  -2.492  1.00  0.00     0.212 HD
ENDBRANCH  25  26
BRANCH  25  28
HETATM   28  O4  UNL     1       5.002  -0.723  -1.480  1.00  0.00    -0.369 OA
ATOM     29  H4  UNL     1       4.910  -0.911  -2.407  1.00  0.00     0.212 HD
ENDBRANCH  25  28
ENDBRANCH  22  25
ENDBRANCH  19  22
ENDBRANCH   9  19
BRANCH  12  30
HETATM   30  N5  UNL     1      -1.282  -1.461  -0.824  1.00  0.00    -0.214 N 
HETATM   31  C10 UNL     1      -2.556  -1.429  -1.464  1.00  0.00     0.168 C 
HETATM   32  C11 UNL     1      -3.517  -2.453  -0.874  1.00  0.00     0.252 C 
HETATM   33  N6  UNL     1      -2.787  -3.462  -0.115  1.00  0.00    -0.072 N 
HETATM   34  C12 UNL     1      -1.608  -3.840  -0.872  1.00  0.00     0.252 C 
ATOM     35  H62 UNL     1      -2.563  -3.155   0.832  1.00  0.00     0.277 HD
ATOM     36  H61 UNL     1      -3.368  -4.263   0.132  1.00  0.00     0.277 HD
HETATM   37  C13 UNL     1      -0.587  -2.727  -0.697  1.00  0.00     0.168 C 
ENDBRANCH  12  30
BRANCH   1  38
HETATM   38  N1  UNL     1      -3.375   6.381   0.028  1.00  0.00    -0.233 N 
ATOM     39  H12 UNL     1      -3.196   7.299   0.434  1.00  0.00     0.174 HD
ATOM     40  H11 UNL     1      -4.245   6.462  -0.498  1.00  0.00     0.174 HD
ENDBRANCH   1  38
TORSDOF 9
