REMARK  8 active torsions:
REMARK  status: ('A' for Active; 'I' for Inactive)
REMARK    1  A    between atoms: O1_2  and  C2_3 
REMARK    2  A    between atoms: C6_7  and  C7_8 
REMARK    3  A    between atoms: N1_9  and  N2_11 
REMARK    4  A    between atoms: N2_11  and  C8_13 
REMARK    5  A    between atoms: C8_13  and  N3_15 
REMARK    6  A    between atoms: N3_15  and  C9_17 
REMARK    7  A    between atoms: C9_17  and  C10_18 
REMARK    8  A    between atoms: C10_18  and  N4_19 
ROOT
HETATM    1  N2  UNL     1      -1.574  -1.184  -0.175  1.00  0.00    -0.277 N 
ATOM      2  H2  UNL     1      -2.024  -2.047   0.131  1.00  0.00     0.189 HD
ENDROOT
BRANCH   1   3
HETATM    3  N1  UNL     1      -0.201  -1.142  -0.327  1.00  0.00    -0.309 N 
HETATM    4  C7  UNL     1       0.597  -0.416   0.359  1.00  0.00     0.118 C 
ATOM      5  H1  UNL     1       0.209  -1.739  -1.045  1.00  0.00     0.186 HD
BRANCH   4   6
HETATM    6  C6  UNL     1       2.024  -0.480   0.082  1.00  0.00    -0.017 A 
HETATM    7  C5  UNL     1       2.506  -1.312  -0.905  1.00  0.00     0.013 A 
HETATM    8  C4  UNL     1       3.851  -1.408  -1.205  1.00  0.00     0.004 A 
HETATM    9  C3  UNL     1       4.690  -0.617  -0.453  1.00  0.00     0.037 A 
HETATM   10  C2  UNL     1       4.242   0.232   0.548  1.00  0.00     0.069 A 
HETATM   11  C11 UNL     1       2.894   0.288   0.805  1.00  0.00     0.049 A 
BRANCH  10  12
HETATM   12  O1  UNL     1       5.143   1.024   1.291  1.00  0.00    -0.356 OA
HETATM   13  C1  UNL     1       6.509   0.897   0.955  1.00  0.00     0.210 C 
ENDBRANCH  10  12
ENDBRANCH   4   6
ENDBRANCH   1   3
BRANCH   1  14
HETATM   14  C8  UNL     1      -2.356  -0.044  -0.440  1.00  0.00     0.186 C 
HETATM   15  S1  UNL     1      -1.635   1.322  -0.927  1.00  0.00    -0.040 SA
BRANCH  14  16
HETATM   16  N3  UNL     1      -3.759  -0.093  -0.283  1.00  0.00    -0.364 N 
ATOM     17  H3  UNL     1      -4.196  -0.962   0.024  1.00  0.00     0.162 HD
BRANCH  16  18
HETATM   18  C9  UNL     1      -4.586   1.054  -0.546  1.00  0.00     0.149 C 
BRANCH  18  19
HETATM   19  C10 UNL     1      -6.014   0.706  -0.295  1.00  0.00     0.249 C 
BRANCH  19  20
HETATM   20  N4  UNL     1      -6.285   0.288   1.049  1.00  0.00    -0.078 N 
ATOM     21  H43 UNL     1      -5.676  -0.487   1.313  1.00  0.00     0.274 HD
ATOM     22  H42 UNL     1      -5.966   0.992   1.714  1.00  0.00     0.274 HD
ATOM     23  H41 UNL     1      -7.262   0.050   1.221  1.00  0.00     0.274 HD
ENDBRANCH  19  20
ENDBRANCH  18  19
ENDBRANCH  16  18
ENDBRANCH  14  16
ENDBRANCH   1  14
TORSDOF 8
