REMARK  6 active torsions:
REMARK  status: ('A' for Active; 'I' for Inactive)
REMARK    1  A    between atoms: N1_2  and  S1_4 
REMARK    2  A    between atoms: S1_4  and  N2_6 
REMARK    3  A    between atoms: S1_4  and  N5_17 
REMARK    4  A    between atoms: N2_6  and  N3_8 
REMARK    5  A    between atoms: C2_10  and  C3_11 
REMARK    6  A    between atoms: N5_17  and  C7_19 
ROOT
HETATM    1  N2  UNL     1      -0.017  -0.693   1.385  1.00  0.00    -0.228 N 
ATOM      2  H2  UNL     1       0.189  -0.870   2.368  1.00  0.00     0.200 HD
ENDROOT
BRANCH   1   3
HETATM    3  S1  UNL     1       1.114  -1.129   0.192  1.00  0.00     0.208 S 
HETATM    4  O1  UNL     1       2.199  -2.031   0.719  1.00  0.00    -0.205 OA
BRANCH   3   5
HETATM    5  N1  UNL     1       0.396  -1.968  -0.933  1.00  0.00    -0.323 N 
HETATM    6  C1  UNL     1       1.329  -2.708  -1.772  1.00  0.00     0.159 C 
ATOM      7  H1  UNL     1      -0.616  -1.990  -1.060  1.00  0.00     0.171 HD
ENDBRANCH   3   5
BRANCH   3   8
HETATM    8  N5  UNL     1       1.833   0.213  -0.584  1.00  0.00    -0.315 N 
ATOM      9  H5  UNL     1       1.733   0.401  -1.582  1.00  0.00     0.172 HD
BRANCH   8  10
HETATM   10  C7  UNL     1       2.593   1.054   0.304  1.00  0.00     0.085 C 
HETATM   11  C8  UNL     1       3.718   0.277   0.952  1.00  0.00     0.032 C 
HETATM   12  C9  UNL     1       3.254   2.124  -0.574  1.00  0.00     0.032 C 
ENDBRANCH   8  10
ENDBRANCH   3   8
ENDBRANCH   1   3
BRANCH   1  13
HETATM   13  N3  UNL     1      -1.214  -0.100   1.030  1.00  0.00    -0.300 N 
HETATM   14  C2  UNL     1      -2.198  -0.724   0.475  1.00  0.00     0.137 C 
ATOM     15  H3  UNL     1      -1.327   0.896   1.219  1.00  0.00     0.186 HD
BRANCH  14  16
HETATM   16  C3  UNL     1      -3.391   0.060   0.167  1.00  0.00     0.049 A 
HETATM   17  C4  UNL     1      -3.616   1.400   0.391  1.00  0.00     0.032 A 
HETATM   18  C5  UNL     1      -4.884   1.735  -0.054  1.00  0.00     0.019 A 
HETATM   19  C6  UNL     1      -5.421   0.579  -0.550  1.00  0.00     0.088 A 
HETATM   20  N4  UNL     1      -4.517  -0.398  -0.407  1.00  0.00    -0.365 N 
ATOM     21  H4  UNL     1      -4.664  -1.365  -0.696  1.00  0.00     0.165 HD
ENDBRANCH  14  16
ENDBRANCH   1  13
TORSDOF 6
