REMARK  5 active torsions:
REMARK  status: ('A' for Active; 'I' for Inactive)
REMARK       I    between atoms: C2_4  and  N2_5 
REMARK       I    between atoms: C2_4  and  N4_9 
REMARK    1  A    between atoms: N4_9  and  C4_11 
REMARK    2  A    between atoms: C4_11  and  C5_12 
REMARK    3  A    between atoms: C5_12  and  N5_13 
REMARK    4  A    between atoms: N5_13  and  C6_16 
REMARK    5  A    between atoms: C6_16  and  C8_18 
ROOT
HETATM    1  C1  UNL     1       5.786  -0.079  -1.692  1.00  0.00     0.165 C 
HETATM    2  N1  UNL     1       4.429   0.375  -1.469  1.00  0.00    -0.230 N 
ATOM      3  H1  UNL     1       4.100   1.191  -1.986  1.00  0.00     0.177 HD
HETATM    4  C2  UNL     1       3.624  -0.194  -0.659  1.00  0.00     0.682 C 
HETATM    5  N2  UNL     1       4.024  -1.321   0.077  1.00  0.00    -0.126 N 
ATOM      6  H2  UNL     1       4.583  -1.193   0.920  1.00  0.00     0.197 HD
HETATM    7  C3  UNL     1       3.668  -2.631  -0.326  1.00  0.00     0.196 C 
HETATM    8  N3  UNL     1       3.375  -3.690  -0.656  1.00  0.00    -0.171 NA
HETATM    9  N4  UNL     1       2.320   0.322  -0.509  1.00  0.00    -0.224 N 
ATOM     10  H4  UNL     1       1.743   0.528  -1.324  1.00  0.00     0.177 HD
ENDROOT
BRANCH   9  11
HETATM   11  C4  UNL     1       1.828   0.549   0.809  1.00  0.00     0.165 C 
BRANCH  11  12
HETATM   12  C5  UNL     1       0.438   1.101   0.871  1.00  0.00     0.253 C 
BRANCH  12  13
HETATM   13  N5  UNL     1      -0.561   0.275   0.274  1.00  0.00    -0.066 N 
ATOM     14  H52 UNL     1      -0.354   0.028  -0.694  1.00  0.00     0.278 HD
ATOM     15  H51 UNL     1      -0.575  -0.674   0.648  1.00  0.00     0.278 HD
BRANCH  13  16
HETATM   16  C6  UNL     1      -1.841   0.980   0.431  1.00  0.00     0.214 C 
HETATM   17  C7  UNL     1      -2.100   1.103   1.922  1.00  0.00     0.045 C 
BRANCH  16  18
HETATM   18  C8  UNL     1      -2.930   0.305  -0.279  1.00  0.00    -0.028 A 
HETATM   19  C9  UNL     1      -3.115  -1.055  -0.224  1.00  0.00     0.009 A 
HETATM   20  C10 UNL     1      -4.163  -1.666  -0.912  1.00  0.00     0.001 A 
HETATM   21  C11 UNL     1      -5.048  -0.929  -1.669  1.00  0.00     0.000 A 
HETATM   22  C12 UNL     1      -4.864   0.435  -1.725  1.00  0.00     0.001 A 
HETATM   23  C13 UNL     1      -3.824   1.027  -1.041  1.00  0.00     0.009 A 
ENDBRANCH  16  18
ENDBRANCH  13  16
ENDBRANCH  12  13
ENDBRANCH  11  12
ENDBRANCH   9  11
TORSDOF 5
