REMARK  3 active torsions:
REMARK  status: ('A' for Active; 'I' for Inactive)
REMARK    1  A    between atoms: N1_1  and  C1_4 
REMARK    2  A    between atoms: C2_6  and  C3_7 
REMARK       I    between atoms: N5_17  and  C5_18 
REMARK       I    between atoms: C5_18  and  N6_20 
REMARK    3  A    between atoms: N6_20  and  N7_22 
ROOT
HETATM    1  C1  UNL     1      -0.919  -1.079  -0.999  1.00  0.00     0.171 A 
HETATM    2  S1  UNL     1       0.775  -1.390  -1.212  1.00  0.00    -0.029 SA
HETATM    3  C2  UNL     1       1.351  -0.274  -0.072  1.00  0.00     0.138 A 
HETATM    4  N4  UNL     1       0.257   0.243   0.379  1.00  0.00    -0.278 N 
ATOM      5  H4  UNL     1       0.304   0.965   1.098  1.00  0.00     0.188 HD
HETATM    6  N5  UNL     1      -0.898  -0.137  -0.063  1.00  0.00    -0.180 N 
HETATM    7  C5  UNL     1      -2.078   0.493   0.494  1.00  0.00     0.361 C 
HETATM    8  O2  UNL     1      -1.954   1.400   1.401  1.00  0.00    -0.243 OA
HETATM    9  N6  UNL     1      -3.388   0.198   0.127  1.00  0.00    -0.256 N 
ATOM     10  H6  UNL     1      -3.562  -0.511  -0.586  1.00  0.00     0.191 HD
ENDROOT
BRANCH   3  11
HETATM   11  C3  UNL     1       2.764   0.037   0.317  1.00  0.00     0.150 A 
HETATM   12  N2  UNL     1       3.779  -0.568  -0.226  1.00  0.00    -0.300 N 
HETATM   13  C4  UNL     1       5.001  -0.256   0.154  1.00  0.00     0.305 A 
ATOM     14  H2  UNL     1       3.630  -1.279  -0.941  1.00  0.00     0.171 HD
HETATM   15  O1  UNL     1       6.114  -0.740  -0.263  1.00  0.00    -0.258 OA
HETATM   16  S2  UNL     1       4.701   0.946   1.329  1.00  0.00     0.049 SA
HETATM   17  N3  UNL     1       3.020   0.964   1.251  1.00  0.00    -0.306 N 
ATOM     18  H3  UNL     1       2.362   1.536   1.781  1.00  0.00     0.176 HD
ENDBRANCH   3  11
BRANCH   1  19
HETATM   19  N1  UNL     1      -1.906  -1.659  -1.631  1.00  0.00    -0.378 N 
ATOM     20  H12 UNL     1      -1.922  -2.382  -2.350  1.00  0.00     0.158 HD
ATOM     21  H11 UNL     1      -2.902  -1.476  -1.506  1.00  0.00     0.158 HD
ENDBRANCH   1  19
BRANCH   9  22
HETATM   22  N7  UNL     1      -4.489   0.869   0.730  1.00  0.00    -0.341 N 
ATOM     23  H72 UNL     1      -4.298   1.575   1.441  1.00  0.00     0.177 HD
ATOM     24  H71 UNL     1      -5.449   0.653   0.461  1.00  0.00     0.177 HD
ENDBRANCH   9  22
TORSDOF 3
