REMARK  7 active torsions:
REMARK  status: ('A' for Active; 'I' for Inactive)
REMARK    1  A    between atoms: C2_4  and  O1_5 
REMARK    2  A    between atoms: C2_4  and  C4_7 
REMARK    3  A    between atoms: C5_8  and  O2_9 
REMARK    4  A    between atoms: C8_15  and  C9_16 
REMARK    5  A    between atoms: C9_16  and  O3_17 
REMARK    6  A    between atoms: C9_16  and  N4_19 
REMARK    7  A    between atoms: C11_23  and  N6_24 
ROOT
HETATM    1  N4  UNL     1      -3.108  -2.433  -0.684  1.00  0.00    -0.273 N 
ATOM      2  H4  UNL     1      -2.262  -2.988  -0.814  1.00  0.00     0.180 HD
HETATM    3  C10 UNL     1      -4.390  -3.029  -0.871  1.00  0.00     0.183 C 
HETATM    4  N5  UNL     1      -5.434  -3.494  -1.016  1.00  0.00    -0.172 NA
ENDROOT
BRANCH   1   5
HETATM    5  C9  UNL     1      -3.014  -1.098  -0.326  1.00  0.00     0.165 C 
BRANCH   5   6
HETATM    6  C8  UNL     1      -1.848  -0.267  -0.079  1.00  0.00     0.084 A 
HETATM    7  C7  UNL     1      -2.038   1.073   0.275  1.00  0.00     0.137 A 
HETATM    8  N2  UNL     1      -0.978   1.841   0.502  1.00  0.00    -0.319 N 
HETATM    9  N3  UNL     1      -3.346   1.600   0.387  1.00  0.00    -0.081 NA
HETATM   10  C5  UNL     1       0.272   1.373   0.404  1.00  0.00     0.160 A 
HETATM   11  C6  UNL     1      -1.147   3.240   0.872  1.00  0.00     0.159 C 
HETATM   12  C4  UNL     1       0.543   0.067   0.061  1.00  0.00     0.093 A 
HETATM   13  C11 UNL     1      -0.538  -0.769  -0.185  1.00  0.00     0.062 A 
BRANCH  10  14
HETATM   14  O2  UNL     1       1.371   2.207   0.650  1.00  0.00    -0.345 OA
ATOM     15  H2  UNL     1       1.184   3.108   0.887  1.00  0.00     0.219 HD
ENDBRANCH  10  14
BRANCH  12  16
HETATM   16  C2  UNL     1       1.954  -0.389  -0.032  1.00  0.00     0.154 C 
HETATM   17  N1  UNL     1       2.266  -1.552  -0.335  1.00  0.00    -0.374 N 
HETATM   18  C1  UNL     1       3.421  -2.308  -0.513  1.00  0.00     0.148 C 
ATOM     19  H1  UNL     1       1.434  -2.118  -0.502  1.00  0.00     0.161 HD
BRANCH  16  20
HETATM   20  O1  UNL     1       2.949   0.534   0.232  1.00  0.00    -0.340 OA
HETATM   21  C3  UNL     1       4.300   0.458  -0.106  1.00  0.00     0.211 C 
ENDBRANCH  16  20
ENDBRANCH  12  16
BRANCH  13  22
HETATM   22  N6  UNL     1      -0.353  -1.943  -0.494  1.00  0.00    -0.397 N 
ATOM     23  H62 UNL     1       0.597  -2.307  -0.571  1.00  0.00     0.156 HD
ATOM     24  H61 UNL     1      -1.147  -2.557  -0.675  1.00  0.00     0.156 HD
ENDBRANCH  13  22
ENDBRANCH   5   6
BRANCH   5  25
HETATM   25  O3  UNL     1      -4.180  -0.508  -0.194  1.00  0.00    -0.345 OA
ATOM     26  H3  UNL     1      -4.942  -1.051  -0.355  1.00  0.00     0.219 HD
ENDBRANCH   5  25
ENDBRANCH   1   5
TORSDOF 7
