REMARK  5 active torsions:
REMARK  status: ('A' for Active; 'I' for Inactive)
REMARK    1  A    between atoms: C7_9  and  N3_10 
REMARK    2  A    between atoms: N3_10  and  N4_12 
REMARK    3  A    between atoms: N4_12  and  O1_14 
REMARK    4  A    between atoms: C8_18  and  N6_19 
REMARK    5  A    between atoms: N7_22  and  N8_23 
ROOT
HETATM    1  C1  UNL     1      -2.934  -1.742   0.039  1.00  0.00     0.045 C 
HETATM    2  C2  UNL     1      -1.849  -0.948  -0.026  1.00  0.00     0.049 A 
HETATM    3  C3  UNL     1      -2.047   0.485  -0.190  1.00  0.00     0.096 A 
HETATM    4  C4  UNL     1      -3.392   1.009  -0.287  1.00  0.00     0.103 C 
HETATM    5  N1  UNL     1      -4.483   1.423  -0.370  1.00  0.00    -0.191 NA
HETATM    6  C5  UNL     1      -1.068   1.345  -0.266  1.00  0.00     0.087 A 
HETATM    7  N2  UNL     1      -1.358   2.749  -0.430  1.00  0.00    -0.100 NA
HETATM    8  C6  UNL     1       0.308   0.884  -0.187  1.00  0.00     0.082 A 
HETATM    9  C7  UNL     1       1.331   1.799  -0.269  1.00  0.00     0.153 A 
HETATM   10  N5  UNL     1       2.593   1.322  -0.192  1.00  0.00    -0.173 N 
ATOM     11  H5  UNL     1       3.376   1.974  -0.248  1.00  0.00     0.186 HD
HETATM   12  C8  UNL     1       2.838   0.027  -0.045  1.00  0.00     0.700 A 
HETATM   13  N7  UNL     1       1.809  -0.875   0.037  1.00  0.00    -0.075 N 
HETATM   14  C9  UNL     1       0.541  -0.502  -0.027  1.00  0.00     0.163 A 
HETATM   15  N9  UNL     1      -0.528  -1.461   0.058  1.00  0.00    -0.334 N 
HETATM   16  C10 UNL     1      -0.284  -2.874   0.224  1.00  0.00     0.158 C 
ENDROOT
BRANCH   9  17
HETATM   17  N3  UNL     1       1.142   3.186  -0.408  1.00  0.00    -0.265 N 
ATOM     18  H3  UNL     1       0.935   3.608  -1.313  1.00  0.00     0.190 HD
BRANCH  17  19
HETATM   19  N4  UNL     1       1.253   3.972   0.770  1.00  0.00    -0.208 N 
ATOM     20  H4  UNL     1       1.361   4.983   0.685  1.00  0.00     0.215 HD
BRANCH  19  21
HETATM   21  O1  UNL     1       1.222   3.457   1.909  1.00  0.00    -0.274 OA
ATOM     22  H1  UNL     1       1.296   3.983   2.697  1.00  0.00     0.246 HD
ENDBRANCH  19  21
ENDBRANCH  17  19
ENDBRANCH   9  17
BRANCH  13  23
HETATM   23  N8  UNL     1       2.142  -2.218   0.197  1.00  0.00    -0.322 N 
ATOM     24  H82 UNL     1       3.119  -2.506   0.246  1.00  0.00     0.178 HD
ATOM     25  H81 UNL     1       1.376  -2.889   0.258  1.00  0.00     0.178 HD
ENDBRANCH  13  23
BRANCH  12  26
HETATM   26  N6  UNL     1       4.028  -0.441   0.030  1.00  0.00    -0.233 N 
ATOM     27  H62 UNL     1       4.794   0.230  -0.031  1.00  0.00     0.174 HD
ATOM     28  H61 UNL     1       4.216  -1.437   0.143  1.00  0.00     0.174 HD
ENDBRANCH  12  26
TORSDOF 5
