REMARK  15 active torsions:
REMARK  status: ('A' for Active; 'I' for Inactive)
REMARK    1  A    between atoms: C2_2  and  C3_3 
REMARK    2  A    between atoms: C3_3  and  C4_4 
REMARK    3  A    between atoms: C4_4  and  C5_5 
REMARK    4  A    between atoms: C5_5  and  C6_6 
REMARK    5  A    between atoms: C7_7  and  C8_8 
REMARK    6  A    between atoms: C8_8  and  C9_9 
REMARK    7  A    between atoms: C10_11  and  C11_12 
REMARK    8  A    between atoms: C11_12  and  O2_13 
REMARK    9  A    between atoms: O2_13  and  C12_14 
REMARK   10  A    between atoms: C13_17  and  N1_18 
REMARK   11  A    between atoms: C18_23  and  O5_24 
REMARK   12  A    between atoms: C19_26  and  O6_27 
REMARK   13  A    between atoms: C20_29  and  O7_30 
REMARK   14  A    between atoms: C21_32  and  O8_33 
REMARK   15  A    between atoms: C22_35  and  O9_36 
ROOT
HETATM    1  C9  UNL     1       1.474   0.546   0.188  1.00  0.00     0.157 C 
HETATM    2  O1  UNL     1       0.085   0.437   0.203  1.00  0.00    -0.373 OA
HETATM    3  C10 UNL     1      -0.420   1.244   1.221  1.00  0.00     0.177 C 
HETATM    4  C20 UNL     1       0.322   0.980   2.535  1.00  0.00     0.180 C 
HETATM    5  C21 UNL     1       1.055  -0.343   2.466  1.00  0.00     0.180 C 
HETATM    6  C22 UNL     1       2.110  -0.183   1.366  1.00  0.00     0.178 C 
ENDROOT
BRANCH   3   7
HETATM    7  C11 UNL     1      -1.879   0.853   1.460  1.00  0.00     0.205 C 
BRANCH   7   8
HETATM    8  O2  UNL     1      -2.549   1.068   0.257  1.00  0.00    -0.353 OA
BRANCH   8   9
HETATM    9  C12 UNL     1      -3.884   0.758   0.319  1.00  0.00     0.328 C 
HETATM   10  O3  UNL     1      -4.715   1.885   0.174  1.00  0.00    -0.203 OA
HETATM   11  O4  UNL     1      -5.957   1.407   0.303  1.00  0.00    -0.209 OA
HETATM   12  C13 UNL     1      -6.342   1.020  -0.987  1.00  0.00     0.296 C 
HETATM   13  C18 UNL     1      -5.410  -0.024  -1.517  1.00  0.00     0.204 C 
HETATM   14  C19 UNL     1      -4.259  -0.338  -0.620  1.00  0.00     0.209 C 
BRANCH  12  15
HETATM   15  N1  UNL     1      -7.677   0.494  -0.912  1.00  0.00    -0.335 N 
HETATM   16  C14 UNL     1      -8.049  -0.541  -0.159  1.00  0.00     0.093 A 
HETATM   17  C15 UNL     1      -9.387  -0.786  -0.317  1.00  0.00     0.019 A 
HETATM   18  C16 UNL     1      -9.844   0.169  -1.227  1.00  0.00     0.019 A 
HETATM   19  C17 UNL     1      -8.738   0.946  -1.569  1.00  0.00     0.093 A 
ENDBRANCH  12  15
BRANCH  13  20
HETATM   20  O5  UNL     1      -6.109  -1.215  -1.743  1.00  0.00    -0.388 OA
ATOM     21  H5  UNL     1      -5.517  -1.878  -2.079  1.00  0.00     0.210 HD
ENDBRANCH  13  20
BRANCH  14  22
HETATM   22  O6  UNL     1      -4.469  -1.547   0.082  1.00  0.00    -0.388 OA
ATOM     23  H6  UNL     1      -4.708  -2.245  -0.516  1.00  0.00     0.210 HD
ENDBRANCH  14  22
ENDBRANCH   8   9
ENDBRANCH   7   8
ENDBRANCH   3   7
BRANCH   4  24
HETATM   24  O7  UNL     1       1.293   1.977   2.649  1.00  0.00    -0.390 OA
ATOM     25  H7  UNL     1       1.753   1.813   3.464  1.00  0.00     0.210 HD
ENDBRANCH   4  24
BRANCH   1  26
HETATM   26  C8  UNL     1       1.969  -0.147  -1.062  1.00  0.00     0.061 C 
BRANCH  26  27
HETATM   27  C7  UNL     1       3.456  -0.084  -1.171  1.00  0.00    -0.028 C 
HETATM   28  C6  UNL     1       4.216  -1.157  -1.214  1.00  0.00    -0.031 C 
BRANCH  28  29
HETATM   29  C5  UNL     1       5.705  -0.991  -1.325  1.00  0.00     0.027 C 
BRANCH  29  30
HETATM   30  C4  UNL     1       6.414  -1.599  -0.180  1.00  0.00     0.004 C 
BRANCH  30  31
HETATM   31  C3  UNL     1       7.888  -1.537  -0.265  1.00  0.00    -0.000 C 
BRANCH  31  32
HETATM   32  C2  UNL     1       8.537  -0.219  -0.320  1.00  0.00    -0.005 C 
HETATM   33  C1  UNL     1       8.292   0.665  -1.482  1.00  0.00     0.005 C 
ENDBRANCH  31  32
ENDBRANCH  30  31
ENDBRANCH  29  30
ENDBRANCH  28  29
ENDBRANCH  26  27
ENDBRANCH   1  26
BRANCH   5  34
HETATM   34  O8  UNL     1       0.230  -1.405   2.165  1.00  0.00    -0.390 OA
ATOM     35  H8  UNL     1       0.690  -2.235   2.122  1.00  0.00     0.210 HD
ENDBRANCH   5  34
BRANCH   6  36
HETATM   36  O9  UNL     1       3.126   0.603   1.938  1.00  0.00    -0.390 OA
ATOM     37  H9  UNL     1       3.522   0.149   2.672  1.00  0.00     0.210 HD
ENDBRANCH   6  36
TORSDOF 15
