REMARK  15 active torsions:
REMARK  status: ('A' for Active; 'I' for Inactive)
REMARK    1  A    between atoms: C4_4  and  C5_5 
REMARK    2  A    between atoms: C5_5  and  C6_6 
REMARK    3  A    between atoms: C6_6  and  C7_7 
REMARK    4  A    between atoms: C7_7  and  O1_10 
REMARK    5  A    between atoms: O1_10  and  C10_11 
REMARK    6  A    between atoms: C10_11  and  C11_12 
REMARK    7  A    between atoms: C11_12  and  C12_13 
REMARK    8  A    between atoms: C11_12  and  C21_31 
REMARK    9  A    between atoms: C16_19  and  O3_20 
REMARK   10  A    between atoms: C18_22  and  O4_23 
REMARK   11  A    between atoms: C19_25  and  O5_26 
REMARK   12  A    between atoms: C20_28  and  O6_29 
REMARK   13  A    between atoms: C21_31  and  O7_32 
REMARK   14  A    between atoms: C21_31  and  C22_34 
REMARK   15  A    between atoms: C22_34  and  O8_35 
ROOT
HETATM    1  C1  UNL     1       7.647   4.066   1.852  1.00  0.00     0.017 C 
HETATM    2  C2  UNL     1       7.299   2.976   1.435  1.00  0.00    -0.090 C 
HETATM    3  C3  UNL     1       6.896   1.700   0.921  1.00  0.00     0.059 C 
HETATM    4  C4  UNL     1       5.835   1.584   0.173  1.00  0.00    -0.018 C 
ENDROOT
BRANCH   4   5
HETATM    5  C5  UNL     1       5.391   0.286  -0.373  1.00  0.00     0.030 C 
BRANCH   5   6
HETATM    6  C6  UNL     1       4.000  -0.074   0.099  1.00  0.00     0.041 C 
BRANCH   6   7
HETATM    7  C7  UNL     1       3.614  -1.407  -0.496  1.00  0.00     0.054 C 
HETATM    8  C8  UNL     1       3.629  -1.326  -2.010  1.00  0.00     0.045 C 
HETATM    9  C9  UNL     1       4.719  -2.389  -0.103  1.00  0.00     0.045 C 
BRANCH   7  10
HETATM   10  O1  UNL     1       2.437  -1.908   0.004  1.00  0.00    -0.380 OA
BRANCH  10  11
HETATM   11  C10 UNL     1       1.346  -1.076  -0.220  1.00  0.00     0.181 C 
BRANCH  11  12
HETATM   12  C11 UNL     1       0.131  -1.709   0.357  1.00  0.00     0.080 C 
BRANCH  12  13
HETATM   13  C12 UNL     1      -1.068  -0.840   0.136  1.00  0.00    -0.005 A 
HETATM   14  C13 UNL     1      -2.299  -1.210  -0.342  1.00  0.00     0.028 A 
HETATM   15  C14 UNL     1      -3.241  -0.256  -0.484  1.00  0.00     0.015 A 
HETATM   16  C15 UNL     1      -2.883   1.023  -0.133  1.00  0.00     0.122 A 
HETATM   17  C20 UNL     1      -4.649  -0.535  -1.006  1.00  0.00     0.185 C 
HETATM   18  S1  UNL     1      -1.263   0.840   0.375  1.00  0.00    -0.069 SA
HETATM   19  O2  UNL     1      -3.625   2.229  -0.163  1.00  0.00    -0.310 OA
HETATM   20  C16 UNL     1      -5.040   2.292  -0.301  1.00  0.00     0.297 C 
HETATM   21  C18 UNL     1      -5.709   1.211   0.498  1.00  0.00     0.205 C 
HETATM   22  C19 UNL     1      -5.685  -0.147  -0.035  1.00  0.00     0.185 C 
BRANCH  20  23
HETATM   23  O3  UNL     1      -5.440   2.350  -1.610  1.00  0.00    -0.363 OA
HETATM   24  C17 UNL     1      -6.059   3.561  -1.905  1.00  0.00     0.204 C 
ENDBRANCH  20  23
BRANCH  21  25
HETATM   25  O4  UNL     1      -7.043   1.616   0.682  1.00  0.00    -0.388 OA
ATOM     26  H4  UNL     1      -7.466   0.932   1.188  1.00  0.00     0.210 HD
ENDBRANCH  21  25
BRANCH  22  27
HETATM   27  O5  UNL     1      -5.612  -1.051   1.053  1.00  0.00    -0.390 OA
ATOM     28  H5  UNL     1      -5.596  -1.935   0.706  1.00  0.00     0.210 HD
ENDBRANCH  22  27
BRANCH  17  29
HETATM   29  O6  UNL     1      -4.783  -1.893  -1.291  1.00  0.00    -0.388 OA
ATOM     30  H6  UNL     1      -5.659  -2.067  -1.616  1.00  0.00     0.210 HD
ENDBRANCH  17  29
ENDBRANCH  12  13
BRANCH  12  31
HETATM   31  C21 UNL     1       0.270  -2.215   1.760  1.00  0.00     0.152 C 
BRANCH  31  32
HETATM   32  O7  UNL     1       1.304  -3.190   1.692  1.00  0.00    -0.393 OA
ATOM     33  H7  UNL     1       1.392  -3.511   2.582  1.00  0.00     0.210 HD
ENDBRANCH  31  32
BRANCH  31  34
HETATM   34  C22 UNL     1       0.699  -1.226   2.780  1.00  0.00     0.196 C 
BRANCH  34  35
HETATM   35  O8  UNL     1      -0.144  -0.191   3.048  1.00  0.00    -0.398 OA
ATOM     36  H8  UNL     1       0.131   0.442   3.701  1.00  0.00     0.209 HD
ENDBRANCH  34  35
ENDBRANCH  31  34
ENDBRANCH  12  31
ENDBRANCH  11  12
ENDBRANCH  10  11
ENDBRANCH   7  10
ENDBRANCH   6   7
ENDBRANCH   5   6
ENDBRANCH   4   5
TORSDOF 15
