REMARK  14 active torsions:
REMARK  status: ('A' for Active; 'I' for Inactive)
REMARK    1  A    between atoms: C2_2  and  C4_4 
REMARK    2  A    between atoms: C4_4  and  C5_5 
REMARK    3  A    between atoms: C5_5  and  S1_6 
REMARK    4  A    between atoms: S1_6  and  C6_7 
REMARK    5  A    between atoms: C6_7  and  C7_8 
REMARK    6  A    between atoms: C9_11  and  C10_12 
REMARK    7  A    between atoms: C13_15  and  O1_16 
REMARK    8  A    between atoms: C14_18  and  O2_19 
REMARK    9  A    between atoms: O2_19  and  C15_20 
REMARK   10  A    between atoms: C16_22  and  C17_23 
REMARK   11  A    between atoms: C17_23  and  O4_24 
REMARK   12  A    between atoms: C18_26  and  O5_27 
REMARK   13  A    between atoms: C19_29  and  O6_30 
REMARK   14  A    between atoms: C20_32  and  O7_33 
ROOT
HETATM    1  C7  UNL     1      -0.295   0.171   1.156  1.00  0.00     0.088 C 
HETATM    2  S2  UNL     1       0.375   1.779   1.713  1.00  0.00    -0.160 SA
HETATM    3  C8  UNL     1       1.050   2.547   0.182  1.00  0.00     0.082 C 
HETATM    4  C9  UNL     1      -0.054   2.469  -0.817  1.00  0.00     0.029 C 
HETATM    5  C13 UNL     1      -0.395   1.023  -1.167  1.00  0.00     0.153 C 
HETATM    6  C14 UNL     1      -1.165   0.439  -0.031  1.00  0.00     0.168 C 
ENDROOT
BRANCH   6   7
HETATM    7  O2  UNL     1      -1.993  -0.612  -0.360  1.00  0.00    -0.349 OA
BRANCH   7   8
HETATM    8  C15 UNL     1      -3.322  -0.415  -0.198  1.00  0.00     0.292 C 
HETATM    9  O3  UNL     1      -3.828  -1.311   0.774  1.00  0.00    -0.348 OA
HETATM   10  C16 UNL     1      -3.295  -2.592   0.602  1.00  0.00     0.179 C 
HETATM   11  C18 UNL     1      -3.557  -3.090  -0.780  1.00  0.00     0.180 C 
HETATM   12  C19 UNL     1      -4.569  -2.202  -1.458  1.00  0.00     0.183 C 
HETATM   13  C20 UNL     1      -4.042  -0.770  -1.483  1.00  0.00     0.204 C 
BRANCH  10  14
HETATM   14  C17 UNL     1      -4.017  -3.474   1.617  1.00  0.00     0.198 C 
BRANCH  14  15
HETATM   15  O4  UNL     1      -3.793  -3.010   2.919  1.00  0.00    -0.398 OA
ATOM     16  H4  UNL     1      -4.242  -3.559   3.551  1.00  0.00     0.209 HD
ENDBRANCH  14  15
ENDBRANCH  10  14
BRANCH  11  17
HETATM   17  O5  UNL     1      -2.399  -3.211  -1.555  1.00  0.00    -0.390 OA
ATOM     18  H5  UNL     1      -2.566  -3.528  -2.435  1.00  0.00     0.210 HD
ENDBRANCH  11  17
BRANCH  12  19
HETATM   19  O6  UNL     1      -4.758  -2.640  -2.765  1.00  0.00    -0.390 OA
ATOM     20  H6  UNL     1      -5.396  -2.080  -3.192  1.00  0.00     0.210 HD
ENDBRANCH  12  19
BRANCH  13  21
HETATM   21  O7  UNL     1      -5.084   0.126  -1.738  1.00  0.00    -0.388 OA
ATOM     22  H7  UNL     1      -5.535  -0.097  -2.544  1.00  0.00     0.210 HD
ENDBRANCH  13  21
ENDBRANCH   7   8
ENDBRANCH   6   7
BRANCH   1  23
HETATM   23  C6  UNL     1       0.904  -0.695   0.876  1.00  0.00     0.091 C 
BRANCH  23  24
HETATM   24  S1  UNL     1       1.816  -0.811   2.465  1.00  0.00    -0.168 SA
BRANCH  24  25
HETATM   25  C5  UNL     1       3.295  -1.826   2.288  1.00  0.00     0.074 C 
BRANCH  25  26
HETATM   26  C4  UNL     1       4.282  -1.141   1.364  1.00  0.00     0.014 C 
BRANCH  26  27
HETATM   27  C2  UNL     1       4.710   0.213   1.881  1.00  0.00    -0.022 C 
HETATM   28  C1  UNL     1       5.695   0.762   0.840  1.00  0.00     0.009 C 
HETATM   29  C3  UNL     1       5.505   0.087   3.166  1.00  0.00     0.009 C 
ENDBRANCH  26  27
ENDBRANCH  25  26
ENDBRANCH  24  25
ENDBRANCH  23  24
ENDBRANCH   1  23
BRANCH   5  30
HETATM   30  O1  UNL     1      -1.126   1.099  -2.345  1.00  0.00    -0.393 OA
ATOM     31  H1  UNL     1      -1.338   0.199  -2.563  1.00  0.00     0.210 HD
ENDBRANCH   5  30
BRANCH   4  32
HETATM   32  C10 UNL     1       0.153   3.319  -2.031  1.00  0.00    -0.015 C 
HETATM   33  C11 UNL     1       0.268   4.755  -1.577  1.00  0.00     0.010 C 
HETATM   34  C12 UNL     1       1.265   2.874  -2.913  1.00  0.00     0.010 C 
ENDBRANCH   4  32
TORSDOF 14
