REMARK  16 active torsions:
REMARK  status: ('A' for Active; 'I' for Inactive)
REMARK    1  A    between atoms: C2_2  and  O1_3 
REMARK    2  A    between atoms: O1_3  and  C3_4 
REMARK    3  A    between atoms: C5_7  and  O3_8 
REMARK    4  A    between atoms: C6_10  and  O4_11 
REMARK    5  A    between atoms: C7_13  and  O5_14 
REMARK    6  A    between atoms: C10_18  and  C11_19 
REMARK    7  A    between atoms: C13_22  and  O7_23 
REMARK    8  A    between atoms: C14_25  and  C15_26 
REMARK    9  A    between atoms: C15_26  and  C16_27 
REMARK   10  A    between atoms: C16_27  and  C17_28 
REMARK   11  A    between atoms: C17_28  and  C18_29 
REMARK   12  A    between atoms: C18_29  and  N1_30 
REMARK   13  A    between atoms: N1_30  and  N2_32 
REMARK   14  A    between atoms: N2_32  and  N3_33 
REMARK   15  A    between atoms: C19_37  and  C20_38 
REMARK   16  A    between atoms: C20_38  and  O9_39 
ROOT
HETATM    1  C1  UNL     1      -2.026  -2.084  -0.053  1.00  0.00     0.049 C 
HETATM    2  C2  UNL     1      -1.814  -0.597  -0.198  1.00  0.00     0.088 C 
HETATM    3  C8  UNL     1      -1.355  -0.456  -1.686  1.00  0.00     0.043 C 
HETATM    4  C9  UNL     1       0.017  -0.980  -1.901  1.00  0.00     0.037 C 
HETATM    5  C10 UNL     1       1.007  -0.438  -0.868  1.00  0.00     0.151 C 
HETATM    6  O8  UNL     1       0.510  -0.816   0.353  1.00  0.00    -0.373 OA
HETATM    7  C19 UNL     1      -0.691  -0.141   0.670  1.00  0.00     0.179 C 
ENDROOT
BRANCH   5   8
HETATM    8  C11 UNL     1       2.297  -1.220  -1.088  1.00  0.00     0.157 C 
HETATM    9  O6  UNL     1       1.971  -2.570  -1.062  1.00  0.00    -0.380 OA
HETATM   10  C12 UNL     1       2.279  -3.077   0.173  1.00  0.00     0.200 C 
HETATM   11  C13 UNL     1       3.467  -2.317   0.667  1.00  0.00     0.148 C 
HETATM   12  C14 UNL     1       3.311  -0.978  -0.023  1.00  0.00     0.048 C 
BRANCH  11  13
HETATM   13  O7  UNL     1       3.468  -2.180   2.056  1.00  0.00    -0.393 OA
ATOM     14  H7  UNL     1       4.223  -1.697   2.370  1.00  0.00     0.210 HD
ENDBRANCH  11  13
BRANCH  12  15
HETATM   15  C15 UNL     1       4.662  -0.591  -0.557  1.00  0.00     0.010 C 
BRANCH  15  16
HETATM   16  C16 UNL     1       4.685   0.653  -1.370  1.00  0.00     0.002 C 
BRANCH  16  17
HETATM   17  C17 UNL     1       4.233   1.881  -0.661  1.00  0.00     0.022 C 
BRANCH  17  18
HETATM   18  C18 UNL     1       5.067   2.216   0.553  1.00  0.00     0.155 C 
BRANCH  18  19
HETATM   19  N1  UNL     1       6.442   2.442   0.239  1.00  0.00    -0.253 N 
ATOM     20  H1  UNL     1       7.135   1.903   0.758  1.00  0.00     0.196 HD
BRANCH  19  21
HETATM   21  N2  UNL     1       6.856   3.223  -0.595  1.00  0.00    -0.249 NA
BRANCH  21  22
HETATM   22  N3  UNL     1       7.107   4.246  -1.236  1.00  0.00    -0.261 N 
ATOM     23  H32 UNL     1       6.599   4.861  -0.600  1.00  0.00     0.193 HD
ATOM     24  H31 UNL     1       7.454   4.902  -1.936  1.00  0.00     0.193 HD
ENDBRANCH  21  22
ENDBRANCH  19  21
ENDBRANCH  18  19
ENDBRANCH  17  18
ENDBRANCH  16  17
ENDBRANCH  15  16
ENDBRANCH  12  15
ENDBRANCH   5   8
BRANCH   7  25
HETATM   25  C20 UNL     1      -0.881  -0.356   2.130  1.00  0.00     0.199 C 
BRANCH  25  26
HETATM   26  O9  UNL     1      -1.028  -1.689   2.485  1.00  0.00    -0.398 OA
ATOM     27  H9  UNL     1      -1.149  -1.826   3.417  1.00  0.00     0.209 HD
ENDBRANCH  25  26
ENDBRANCH   7  25
BRANCH   2  28
HETATM   28  O1  UNL     1      -2.913   0.160  -0.128  1.00  0.00    -0.345 OA
BRANCH  28  29
HETATM   29  C3  UNL     1      -3.773   0.153   0.898  1.00  0.00     0.292 C 
HETATM   30  O2  UNL     1      -3.865   1.473   1.408  1.00  0.00    -0.356 OA
HETATM   31  C4  UNL     1      -3.946   2.356   0.322  1.00  0.00     0.205 C 
HETATM   32  C5  UNL     1      -5.215   2.124  -0.471  1.00  0.00     0.173 C 
HETATM   33  C6  UNL     1      -6.034   1.096   0.277  1.00  0.00     0.182 C 
HETATM   34  C7  UNL     1      -5.215  -0.163   0.458  1.00  0.00     0.204 C 
BRANCH  32  35
HETATM   35  O3  UNL     1      -5.940   3.315  -0.581  1.00  0.00    -0.391 OA
ATOM     36  H3  UNL     1      -6.736   3.169  -1.078  1.00  0.00     0.210 HD
ENDBRANCH  32  35
BRANCH  33  37
HETATM   37  O4  UNL     1      -6.398   1.662   1.501  1.00  0.00    -0.390 OA
ATOM     38  H4  UNL     1      -6.912   1.016   1.971  1.00  0.00     0.210 HD
ENDBRANCH  33  37
BRANCH  34  39
HETATM   39  O5  UNL     1      -5.198  -0.818  -0.769  1.00  0.00    -0.388 OA
ATOM     40  H5  UNL     1      -6.087  -1.013  -1.040  1.00  0.00     0.210 HD
ENDBRANCH  34  39
ENDBRANCH  28  29
ENDBRANCH   2  28
TORSDOF 16
