REMARK  13 active torsions:
REMARK  status: ('A' for Active; 'I' for Inactive)
REMARK    1  A    between atoms: C3_3  and  C5_5 
REMARK    2  A    between atoms: C5_5  and  C6_6 
REMARK    3  A    between atoms: C5_5  and  C8_10 
REMARK    4  A    between atoms: C6_6  and  S1_7 
REMARK    5  A    between atoms: S1_7  and  C7_8 
REMARK    6  A    between atoms: C8_10  and  O2_11 
REMARK    7  A    between atoms: C8_10  and  N1_13 
REMARK    8  A    between atoms: N1_13  and  C9_15 
REMARK    9  A    between atoms: C11_17  and  N2_18 
REMARK   10  A    between atoms: C13_24  and  O4_25 
REMARK   11  A    between atoms: O4_25  and  C14_26 
REMARK   12  A    between atoms: C20_33  and  O6_34 
REMARK   13  A    between atoms: C21_36  and  O7_37 
ROOT
HETATM    1  C9  UNL     1      -0.947   0.019   1.020  1.00  0.00     0.018 C 
HETATM    2  C10 UNL     1      -0.626  -0.289  -0.392  1.00  0.00     0.090 C 
HETATM    3  C11 UNL     1       0.652  -1.097  -0.590  1.00  0.00     0.220 C 
HETATM    4  C12 UNL     1       1.915  -0.347  -0.490  1.00  0.00     0.187 C 
HETATM    5  O3  UNL     1       2.860  -1.107   0.190  1.00  0.00    -0.348 OA
HETATM    6  C13 UNL     1       4.105  -0.526   0.289  1.00  0.00     0.293 C 
HETATM    7  C16 UNL     1       4.155   0.930   0.015  1.00  0.00     0.104 C 
HETATM    8  C17 UNL     1       5.214   1.532   0.955  1.00  0.00     0.051 C 
HETATM    9  C18 UNL     1       4.677   1.231  -1.397  1.00  0.00     0.051 C 
HETATM   10  O5  UNL     1       3.016   1.637   0.203  1.00  0.00    -0.365 OA
HETATM   11  C19 UNL     1       1.822   0.993   0.171  1.00  0.00     0.185 C 
HETATM   12  C20 UNL     1       1.262   0.915   1.569  1.00  0.00     0.184 C 
HETATM   13  C21 UNL     1      -0.206   1.268   1.534  1.00  0.00     0.194 C 
ENDROOT
BRANCH   1  14
HETATM   14  N1  UNL     1      -2.276  -0.016   1.465  1.00  0.00    -0.368 N 
ATOM     15  H1  UNL     1      -2.524  -0.704   2.176  1.00  0.00     0.161 HD
BRANCH  14  16
HETATM   16  C8  UNL     1      -3.281   0.832   0.996  1.00  0.00     0.226 C 
BRANCH  16  17
HETATM   17  C5  UNL     1      -3.763   0.713  -0.407  1.00  0.00     0.072 C 
BRANCH  17  18
HETATM   18  C3  UNL     1      -4.337  -0.559  -0.821  1.00  0.00    -0.079 C 
HETATM   19  C2  UNL     1      -4.481  -1.610  -0.057  1.00  0.00    -0.028 C 
HETATM   20  C1  UNL     1      -5.074  -2.872  -0.567  1.00  0.00     0.036 C 
HETATM   21  C4  UNL     1      -4.793  -0.660  -2.251  1.00  0.00     0.043 C 
ENDBRANCH  17  18
BRANCH  17  22
HETATM   22  C6  UNL     1      -4.874   1.765  -0.570  1.00  0.00     0.095 C 
BRANCH  22  23
HETATM   23  S1  UNL     1      -6.295   1.332   0.476  1.00  0.00    -0.101 SA
BRANCH  23  24
HETATM   24  C7  UNL     1      -7.570   2.549   0.290  1.00  0.00     0.304 C 
HETATM   25  O1  UNL     1      -8.690   2.234  -0.026  1.00  0.00    -0.295 OA
ENDBRANCH  23  24
ENDBRANCH  22  23
ENDBRANCH  17  22
ENDBRANCH  16  17
BRANCH  16  26
HETATM   26  O2  UNL     1      -2.850   2.201   1.077  1.00  0.00    -0.376 OA
ATOM     27  H2  UNL     1      -2.542   2.277   1.973  1.00  0.00     0.212 HD
ENDBRANCH  16  26
ENDBRANCH  14  16
ENDBRANCH   1  14
BRANCH  13  28
HETATM   28  O7  UNL     1      -0.687   1.559   2.813  1.00  0.00    -0.387 OA
ATOM     29  H7  UNL     1      -0.230   2.329   3.130  1.00  0.00     0.210 HD
ENDBRANCH  13  28
BRANCH   3  30
HETATM   30  N2  UNL     1       0.591  -2.291   0.269  1.00  0.00    -0.072 N 
ATOM     31  H23 UNL     1       0.423  -2.060   1.248  1.00  0.00     0.274 HD
ATOM     32  H22 UNL     1      -0.250  -2.845   0.109  1.00  0.00     0.274 HD
ATOM     33  H21 UNL     1       1.446  -2.831   0.137  1.00  0.00     0.274 HD
ENDBRANCH   3  30
BRANCH  12  34
HETATM   34  O6  UNL     1       1.551  -0.240   2.246  1.00  0.00    -0.390 OA
ATOM     35  H6  UNL     1       1.198  -0.289   3.127  1.00  0.00     0.210 HD
ENDBRANCH  12  34
BRANCH   6  36
HETATM   36  O4  UNL     1       5.048  -1.151  -0.526  1.00  0.00    -0.359 OA
BRANCH  36  37
HETATM   37  C14 UNL     1       6.046  -1.772   0.218  1.00  0.00     0.166 C 
HETATM   38  C15 UNL     1       7.069  -2.449  -0.634  1.00  0.00     0.033 C 
ENDBRANCH  36  37
ENDBRANCH   6  36
TORSDOF 13
