REMARK  15 active torsions:
REMARK  status: ('A' for Active; 'I' for Inactive)
REMARK    1  A    between atoms: C2_2  and  C3_3 
REMARK    2  A    between atoms: C3_3  and  O1_4 
REMARK    3  A    between atoms: O1_4  and  O2_5 
REMARK    4  A    between atoms: C4_7  and  C5_8 
REMARK    5  A    between atoms: C5_8  and  C6_9 
REMARK    6  A    between atoms: C11_14  and  O3_15 
REMARK    7  A    between atoms: O3_15  and  C12_16 
REMARK    8  A    between atoms: C15_20  and  O5_21 
REMARK    9  A    between atoms: O5_21  and  C16_22 
REMARK   10  A    between atoms: C16_22  and  C17_23 
REMARK   11  A    between atoms: C18_25  and  C19_26 
REMARK   12  A    between atoms: C19_26  and  O7_27 
REMARK   13  A    between atoms: C20_29  and  O8_30 
REMARK   14  A    between atoms: C21_32  and  O9_33 
REMARK   15  A    between atoms: C22_35  and  O10_36 
ROOT
HETATM    1  C12 UNL     1       0.157   0.166   2.212  1.00  0.00     0.202 C 
HETATM    2  C13 UNL     1      -0.218   0.980   3.408  1.00  0.00     0.034 C 
HETATM    3  C14 UNL     1      -0.706   2.124   2.988  1.00  0.00     0.137 C 
HETATM    4  O4  UNL     1      -0.694   2.158   1.581  1.00  0.00    -0.330 OA
HETATM    5  C15 UNL     1      -0.618   0.791   1.141  1.00  0.00     0.297 C 
ENDROOT
BRANCH   5   6
HETATM    6  O5  UNL     1      -1.845   0.352   0.854  1.00  0.00    -0.355 OA
BRANCH   6   7
HETATM    7  C16 UNL     1      -2.145  -0.001  -0.427  1.00  0.00     0.205 C 
BRANCH   7   8
HETATM    8  C17 UNL     1      -3.578  -0.473  -0.559  1.00  0.00     0.177 C 
HETATM    9  O6  UNL     1      -4.389   0.589  -0.161  1.00  0.00    -0.371 OA
HETATM   10  C18 UNL     1      -5.738   0.236  -0.164  1.00  0.00     0.177 C 
HETATM   11  C20 UNL     1      -6.127  -0.558  -1.368  1.00  0.00     0.180 C 
HETATM   12  C21 UNL     1      -5.123  -0.329  -2.466  1.00  0.00     0.180 C 
HETATM   13  C22 UNL     1      -3.789  -0.834  -2.015  1.00  0.00     0.180 C 
BRANCH  10  14
HETATM   14  C19 UNL     1      -6.528   1.526  -0.157  1.00  0.00     0.198 C 
BRANCH  14  15
HETATM   15  O7  UNL     1      -7.885   1.311  -0.158  1.00  0.00    -0.398 OA
ATOM     16  H7  UNL     1      -8.381   2.121  -0.154  1.00  0.00     0.209 HD
ENDBRANCH  14  15
ENDBRANCH  10  14
BRANCH  11  17
HETATM   17  O8  UNL     1      -7.385  -0.273  -1.860  1.00  0.00    -0.390 OA
ATOM     18  H8  UNL     1      -7.632  -0.778  -2.626  1.00  0.00     0.210 HD
ENDBRANCH  11  17
BRANCH  12  19
HETATM   19  O9  UNL     1      -5.077   0.982  -2.900  1.00  0.00    -0.390 OA
ATOM     20  H9  UNL     1      -4.443   1.127  -3.593  1.00  0.00     0.210 HD
ENDBRANCH  12  19
BRANCH  13  21
HETATM   21  O10 UNL     1      -2.819  -0.216  -2.827  1.00  0.00    -0.390 OA
ATOM     22  H10 UNL     1      -2.951  -0.442  -3.740  1.00  0.00     0.210 HD
ENDBRANCH  13  21
ENDBRANCH   7   8
ENDBRANCH   6   7
ENDBRANCH   5   6
BRANCH   1  23
HETATM   23  O3  UNL     1       1.522   0.373   2.044  1.00  0.00    -0.364 OA
BRANCH  23  24
HETATM   24  C11 UNL     1       2.310  -0.707   2.205  1.00  0.00     0.188 C 
HETATM   25  C3  UNL     1       3.239  -0.841   0.907  1.00  0.00     0.152 C 
HETATM   26  C4  UNL     1       3.894   0.437   1.087  1.00  0.00    -0.018 C 
HETATM   27  C9  UNL     1       4.421   0.242   2.505  1.00  0.00     0.009 C 
HETATM   28  C10 UNL     1       3.480  -0.427   3.144  1.00  0.00     0.009 C 
BRANCH  25  29
HETATM   29  C2  UNL     1       3.943  -2.115   1.264  1.00  0.00     0.045 C 
HETATM   30  C1  UNL     1       4.796  -2.813   0.314  1.00  0.00     0.009 C 
ENDBRANCH  25  29
BRANCH  25  31
HETATM   31  O1  UNL     1       2.399  -0.967  -0.164  1.00  0.00    -0.224 OA
BRANCH  31  32
HETATM   32  O2  UNL     1       1.462  -1.876   0.012  1.00  0.00    -0.249 OA
ATOM     33  H2  UNL     1       0.878  -1.964  -0.732  1.00  0.00     0.253 HD
ENDBRANCH  31  32
ENDBRANCH  25  31
BRANCH  26  34
HETATM   34  C5  UNL     1       4.748   1.180   0.262  1.00  0.00     0.012 C 
BRANCH  34  35
HETATM   35  C6  UNL     1       5.356   1.070  -0.866  1.00  0.00    -0.087 C 
HETATM   36  C7  UNL     1       6.234   2.281  -1.324  1.00  0.00     0.043 C 
HETATM   37  C8  UNL     1       5.369  -0.003  -1.861  1.00  0.00     0.043 C 
ENDBRANCH  34  35
ENDBRANCH  26  34
ENDBRANCH  23  24
ENDBRANCH   1  23
TORSDOF 15
