REMARK  14 active torsions:
REMARK  status: ('A' for Active; 'I' for Inactive)
REMARK    1  A    between atoms: C2_2  and  C3_3 
REMARK    2  A    between atoms: C5_5  and  O1_6 
REMARK    3  A    between atoms: C10_14  and  O4_15 
REMARK    4  A    between atoms: O4_15  and  C11_16 
REMARK    5  A    between atoms: C11_16  and  C12_17 
REMARK    6  A    between atoms: C12_17  and  C13_18 
REMARK    7  A    between atoms: C13_18  and  O5_19 
REMARK    8  A    between atoms: O5_19  and  C14_20 
REMARK    9  A    between atoms: C14_20  and  O6_21 
REMARK   10  A    between atoms: O6_21  and  C15_22 
REMARK   11  A    between atoms: C15_22  and  C16_23 
REMARK   12  A    between atoms: C20_29  and  O7_30 
REMARK   13  A    between atoms: C21_32  and  O8_33 
REMARK   14  A    between atoms: C22_35  and  O9_36 
ROOT
HETATM    1  C3  UNL     1      -3.497   1.097  -0.090  1.00  0.00     0.081 C 
HETATM    2  C4  UNL     1      -4.903   0.783  -0.267  1.00  0.00     0.065 C 
HETATM    3  C5  UNL     1      -5.498  -0.550  -0.088  1.00  0.00     0.088 C 
HETATM    4  C6  UNL     1      -5.112  -1.314   1.139  1.00  0.00     0.044 C 
HETATM    5  C7  UNL     1      -4.291  -2.546   0.857  1.00  0.00     0.051 C 
HETATM    6  C8  UNL     1      -3.617  -2.568  -0.447  1.00  0.00     0.169 A 
HETATM    7  O2  UNL     1      -2.574  -3.539  -0.470  1.00  0.00    -0.222 OA
HETATM    8  O3  UNL     1      -1.591  -2.700  -0.120  1.00  0.00    -0.227 OA
HETATM    9  C9  UNL     1      -1.848  -1.660  -0.990  1.00  0.00     0.249 C 
HETATM   10  C10 UNL     1      -1.521  -0.306  -0.358  1.00  0.00     0.252 C 
HETATM   11  N1  UNL     1      -2.609   0.133   0.452  1.00  0.00    -0.390 N 
ATOM     12  H1  UNL     1      -2.745  -0.235   1.393  1.00  0.00     0.156 HD
HETATM   13  C20 UNL     1      -3.231  -1.593  -1.374  1.00  0.00     0.165 A 
HETATM   14  C21 UNL     1      -4.408  -2.388  -1.486  1.00  0.00     0.160 A 
HETATM   15  C22 UNL     1      -5.583  -1.417  -1.323  1.00  0.00     0.193 C 
ENDROOT
BRANCH  10  16
HETATM   16  O4  UNL     1      -0.423  -0.505   0.460  1.00  0.00    -0.364 OA
BRANCH  16  17
HETATM   17  C11 UNL     1       0.659   0.297   0.118  1.00  0.00     0.172 C 
BRANCH  17  18
HETATM   18  C12 UNL     1       1.775  -0.048   1.114  1.00  0.00     0.052 C 
BRANCH  18  19
HETATM   19  C13 UNL     1       2.993   0.793   0.800  1.00  0.00     0.172 C 
BRANCH  19  20
HETATM   20  O5  UNL     1       3.395   0.502  -0.495  1.00  0.00    -0.367 OA
BRANCH  20  21
HETATM   21  C14 UNL     1       4.518   1.235  -0.873  1.00  0.00     0.337 C 
BRANCH  21  22
HETATM   22  O6  UNL     1       5.549   0.916   0.003  1.00  0.00    -0.363 OA
BRANCH  22  23
HETATM   23  C15 UNL     1       6.719   1.597  -0.289  1.00  0.00     0.198 C 
BRANCH  23  24
HETATM   24  C16 UNL     1       7.739   1.178   0.707  1.00  0.00     0.001 C 
HETATM   25  C17 UNL     1       8.865   0.596   0.323  1.00  0.00    -0.089 C 
HETATM   26  C18 UNL     1       9.881   0.179   1.322  1.00  0.00     0.042 C 
HETATM   27  C19 UNL     1       9.108   0.360  -1.121  1.00  0.00     0.042 C 
ENDBRANCH  23  24
ENDBRANCH  22  23
ENDBRANCH  21  22
ENDBRANCH  20  21
ENDBRANCH  19  20
ENDBRANCH  18  19
ENDBRANCH  17  18
ENDBRANCH  16  17
ENDBRANCH  10  16
BRANCH  13  28
HETATM   28  O7  UNL     1      -3.326  -1.015  -2.586  1.00  0.00    -0.380 OA
ATOM     29  H7  UNL     1      -3.064  -0.353  -3.215  1.00  0.00     0.211 HD
ENDBRANCH  13  28
BRANCH   1  30
HETATM   30  C2  UNL     1      -3.268   2.386   0.705  1.00  0.00     0.020 C 
HETATM   31  C1  UNL     1      -3.819   2.384   2.075  1.00  0.00     0.007 C 
ENDBRANCH   1  30
BRANCH  14  32
HETATM   32  O8  UNL     1      -4.664  -3.382  -2.434  1.00  0.00    -0.380 OA
ATOM     33  H8  UNL     1      -5.234  -3.252  -3.183  1.00  0.00     0.211 HD
ENDBRANCH  14  32
BRANCH  15  34
HETATM   34  O9  UNL     1      -5.664  -0.598  -2.427  1.00  0.00    -0.389 OA
ATOM     35  H9  UNL     1      -5.717  -1.143  -3.203  1.00  0.00     0.210 HD
ENDBRANCH  15  34
BRANCH   3  36
HETATM   36  O1  UNL     1      -6.897  -0.271   0.114  1.00  0.00    -0.387 OA
ATOM     37  H1  UNL     1      -7.281  -1.132   0.230  1.00  0.00     0.210 HD
ENDBRANCH   3  36
TORSDOF 14
