REMARK  14 active torsions:
REMARK  status: ('A' for Active; 'I' for Inactive)
REMARK    1  A    between atoms: O1_1  and  C1_3 
REMARK    2  A    between atoms: C1_3  and  C2_4 
REMARK    3  A    between atoms: C4_6  and  C5_7 
REMARK    4  A    between atoms: C5_7  and  S1_8 
REMARK    5  A    between atoms: S1_8  and  C6_9 
REMARK    6  A    between atoms: C6_9  and  C7_10 
REMARK    7  A    between atoms: C8_12  and  C9_13 
REMARK    8  A    between atoms: C9_13  and  O3_14 
REMARK    9  A    between atoms: C10_16  and  O4_17 
REMARK   10  A    between atoms: C11_19  and  O5_20 
REMARK   11  A    between atoms: C12_22  and  O6_23 
REMARK   12  A    between atoms: C13_26  and  C14_27 
REMARK   13  A    between atoms: C14_27  and  S2_28 
REMARK   14  A    between atoms: S2_28  and  C15_29 
ROOT
HETATM    1  S1  UNL     1      -1.643   3.049   1.390  1.00  0.00    -0.164 SA
ENDROOT
BRANCH   1   2
HETATM    2  C5  UNL     1      -0.271   2.062   1.961  1.00  0.00     0.105 C 
BRANCH   2   3
HETATM    3  C4  UNL     1       0.978   2.246   1.167  1.00  0.00     0.131 C 
HETATM    4  C3  UNL     1       0.873   1.911  -0.280  1.00  0.00     0.042 C 
HETATM    5  C2  UNL     1       2.383   1.615  -0.579  1.00  0.00     0.041 C 
HETATM    6  C13 UNL     1       2.689   0.864   0.657  1.00  0.00     0.137 C 
HETATM    7  O7  UNL     1       2.046   1.526   1.704  1.00  0.00    -0.379 OA
BRANCH   5   8
HETATM    8  C1  UNL     1       2.508   0.960  -1.888  1.00  0.00     0.171 C 
BRANCH   8   9
HETATM    9  O1  UNL     1       3.813   0.696  -2.230  1.00  0.00    -0.400 OA
ATOM     10  H1  UNL     1       3.894   0.272  -3.076  1.00  0.00     0.209 HD
ENDBRANCH   8   9
ENDBRANCH   5   8
BRANCH   6  11
HETATM   11  C14 UNL     1       2.309  -0.560   0.728  1.00  0.00     0.112 C 
BRANCH  11  12
HETATM   12  S2  UNL     1       3.069  -1.694  -0.410  1.00  0.00    -0.120 SA
BRANCH  12  13
HETATM   13  C15 UNL     1       4.795  -2.021  -0.003  1.00  0.00     0.041 A 
HETATM   14  C16 UNL     1       5.210  -3.034   0.822  1.00  0.00     0.026 A 
HETATM   15  C17 UNL     1       6.540  -3.151   1.030  1.00  0.00     0.009 A 
HETATM   16  C18 UNL     1       7.349  -2.244   0.395  1.00  0.00     0.051 A 
HETATM   17  S3  UNL     1       6.241  -1.273  -0.458  1.00  0.00    -0.095 SA
ENDBRANCH  12  13
ENDBRANCH  11  12
ENDBRANCH   6  11
ENDBRANCH   2   3
ENDBRANCH   1   2
BRANCH   1  18
HETATM   18  C6  UNL     1      -2.397   2.541  -0.139  1.00  0.00     0.108 C 
BRANCH  18  19
HETATM   19  C7  UNL     1      -3.172   1.219  -0.008  1.00  0.00     0.162 C 
HETATM   20  O2  UNL     1      -2.302   0.251   0.387  1.00  0.00    -0.372 OA
HETATM   21  C8  UNL     1      -2.741  -1.044   0.321  1.00  0.00     0.176 C 
HETATM   22  C10 UNL     1      -4.146  -1.164  -0.226  1.00  0.00     0.180 C 
HETATM   23  C11 UNL     1      -4.187  -0.446  -1.555  1.00  0.00     0.180 C 
HETATM   24  C12 UNL     1      -3.844   1.002  -1.321  1.00  0.00     0.179 C 
BRANCH  21  25
HETATM   25  C9  UNL     1      -2.570  -1.821   1.604  1.00  0.00     0.198 C 
BRANCH  25  26
HETATM   26  O3  UNL     1      -3.066  -3.110   1.358  1.00  0.00    -0.398 OA
ATOM     27  H3  UNL     1      -2.958  -3.599   2.165  1.00  0.00     0.209 HD
ENDBRANCH  25  26
ENDBRANCH  21  25
BRANCH  22  28
HETATM   28  O4  UNL     1      -5.114  -0.716   0.654  1.00  0.00    -0.390 OA
ATOM     29  H4  UNL     1      -5.996  -0.791   0.310  1.00  0.00     0.210 HD
ENDBRANCH  22  28
BRANCH  23  30
HETATM   30  O5  UNL     1      -5.452  -0.564  -2.150  1.00  0.00    -0.390 OA
ATOM     31  H5  UNL     1      -5.478  -0.113  -2.986  1.00  0.00     0.210 HD
ENDBRANCH  23  30
BRANCH  24  32
HETATM   32  O6  UNL     1      -3.069   1.482  -2.395  1.00  0.00    -0.390 OA
ATOM     33  H6  UNL     1      -3.497   1.344  -3.232  1.00  0.00     0.210 HD
ENDBRANCH  24  32
ENDBRANCH  18  19
ENDBRANCH   1  18
TORSDOF 14
