REMARK  14 active torsions:
REMARK  status: ('A' for Active; 'I' for Inactive)
REMARK    1  A    between atoms: C2_2  and  C3_3 
REMARK    2  A    between atoms: C3_3  and  O1_4 
REMARK    3  A    between atoms: C3_3  and  C20_35 
REMARK    4  A    between atoms: O1_4  and  C4_5 
REMARK    5  A    between atoms: C4_5  and  C5_7 
REMARK    6  A    between atoms: C5_7  and  O3_8 
REMARK    7  A    between atoms: O3_8  and  C6_9 
REMARK    8  A    between atoms: C9_13  and  O5_14 
REMARK    9  A    between atoms: C10_17  and  C11_18 
REMARK   10  A    between atoms: C11_18  and  O7_19 
REMARK   11  A    between atoms: C13_22  and  O8_23 
REMARK   12  A    between atoms: C14_25  and  O9_26 
REMARK   13  A    between atoms: C15_28  and  O10_29 
REMARK   14  A    between atoms: C16_31  and  C17_32 
ROOT
HETATM    1  C6  UNL     1      -0.052  -0.041  -0.028  1.00  0.00     0.161 C 
HETATM    2  C7  UNL     1       1.370   0.353  -0.479  1.00  0.00     0.189 C 
HETATM    3  O4  UNL     1       1.756   1.605  -0.116  1.00  0.00    -0.369 OA
HETATM    4  C8  UNL     1       3.035   1.818   0.272  1.00  0.00     0.186 C 
HETATM    5  C9  UNL     1       3.607   3.163  -0.225  1.00  0.00     0.286 C 
HETATM    6  O6  UNL     1       4.956   2.930   0.152  1.00  0.00    -0.351 OA
HETATM    7  C10 UNL     1       5.202   1.777  -0.634  1.00  0.00     0.157 C 
HETATM    8  C12 UNL     1       4.051   0.897  -0.375  1.00  0.00     0.082 C 
HETATM    9  C13 UNL     1       4.239  -0.375   0.332  1.00  0.00     0.159 C 
HETATM   10  C14 UNL     1       3.063  -1.301  -0.076  1.00  0.00     0.184 C 
HETATM   11  C15 UNL     1       1.830  -0.752   0.475  1.00  0.00     0.121 C 
HETATM   12  C16 UNL     1       0.510  -1.365   0.424  1.00  0.00     0.060 C 
ENDROOT
BRANCH   1  13
HETATM   13  O3  UNL     1      -0.551   0.821   0.914  1.00  0.00    -0.373 OA
BRANCH  13  14
HETATM   14  C5  UNL     1      -1.759   1.405   0.628  1.00  0.00     0.279 C 
BRANCH  14  15
HETATM   15  C4  UNL     1      -2.903   0.495   0.484  1.00  0.00     0.283 C 
HETATM   16  O2  UNL     1      -2.754  -0.730   0.666  1.00  0.00    -0.263 OA
BRANCH  15  17
HETATM   17  O1  UNL     1      -4.178   0.968   0.144  1.00  0.00    -0.310 OA
BRANCH  17  18
HETATM   18  C3  UNL     1      -5.280   0.105   0.004  1.00  0.00     0.157 C 
BRANCH  18  19
HETATM   19  C2  UNL     1      -5.790   0.229  -1.375  1.00  0.00    -0.005 C 
HETATM   20  C1  UNL     1      -5.214  -0.451  -2.351  1.00  0.00     0.009 C 
ENDBRANCH  18  19
BRANCH  18  21
HETATM   21  C20 UNL     1      -6.338   0.445   1.032  1.00  0.00     0.011 C 
HETATM   22  C21 UNL     1      -7.532  -0.452   0.934  1.00  0.00     0.012 C 
HETATM   23  C22 UNL     1      -6.801   1.873   0.878  1.00  0.00     0.012 C 
ENDBRANCH  18  21
ENDBRANCH  17  18
ENDBRANCH  15  17
ENDBRANCH  14  15
ENDBRANCH  13  14
ENDBRANCH   1  13
BRANCH  12  24
HETATM   24  C17 UNL     1       0.179  -2.590  -0.298  1.00  0.00    -0.013 C 
HETATM   25  C18 UNL     1       0.485  -2.798  -1.706  1.00  0.00     0.010 C 
HETATM   26  C19 UNL     1       0.770  -3.759   0.517  1.00  0.00     0.010 C 
ENDBRANCH  12  24
BRANCH  11  27
HETATM   27  O10 UNL     1       2.090  -0.243   1.774  1.00  0.00    -0.384 OA
ATOM     28  H10 UNL     1       2.376  -0.929   2.366  1.00  0.00     0.210 HD
ENDBRANCH  11  27
BRANCH  10  29
HETATM   29  O9  UNL     1       3.187  -1.301  -1.469  1.00  0.00    -0.390 OA
ATOM     30  H9  UNL     1       2.467  -1.868  -1.719  1.00  0.00     0.210 HD
ENDBRANCH  10  29
BRANCH   5  31
HETATM   31  O5  UNL     1       3.468   3.291  -1.586  1.00  0.00    -0.369 OA
ATOM     32  H5  UNL     1       3.820   4.119  -1.892  1.00  0.00     0.212 HD
ENDBRANCH   5  31
BRANCH   9  33
HETATM   33  O8  UNL     1       4.455  -0.361   1.667  1.00  0.00    -0.392 OA
ATOM     34  H8  UNL     1       4.577  -1.185   2.125  1.00  0.00     0.210 HD
ENDBRANCH   9  33
BRANCH   7  35
HETATM   35  C11 UNL     1       6.563   1.230  -0.468  1.00  0.00     0.196 C 
BRANCH  35  36
HETATM   36  O7  UNL     1       6.931   0.833   0.792  1.00  0.00    -0.398 OA
ATOM     37  H7  UNL     1       7.807   0.481   0.899  1.00  0.00     0.209 HD
ENDBRANCH  35  36
ENDBRANCH   7  35
TORSDOF 14
