REMARK  9 active torsions:
REMARK  status: ('A' for Active; 'I' for Inactive)
REMARK    1  A    between atoms: C4_8  and  N3_9 
REMARK    2  A    between atoms: N3_9  and  C5_11 
REMARK    3  A    between atoms: C5_11  and  C6_12 
REMARK    4  A    between atoms: C6_12  and  N4_13 
REMARK       I    between atoms: N4_13  and  C7_15 
REMARK       I    between atoms: C7_15  and  N5_16 
REMARK    5  A    between atoms: C8_22  and  N8_23 
REMARK    6  A    between atoms: N8_23  and  N9_25 
REMARK    7  A    between atoms: C10_29  and  C11_30 
REMARK    8  A    between atoms: N11_31  and  N12_33 
REMARK    9  A    between atoms: C15_42  and  N16_43 
ROOT
HETATM    1  C1  UNL     1      -3.650   5.174   1.018  1.00  0.00     0.072 C 
HETATM    2  C2  UNL     1      -2.647   4.072   0.972  1.00  0.00     0.051 A 
HETATM    3  N1  UNL     1      -2.974   2.813   0.642  1.00  0.00    -0.341 N 
ATOM      4  H1  UNL     1      -3.943   2.591   0.412  1.00  0.00     0.167 HD
HETATM    5  C3  UNL     1      -2.040   1.829   0.608  1.00  0.00     0.152 A 
HETATM    6  N2  UNL     1      -2.363   0.563   0.278  1.00  0.00    -0.174 N 
ATOM      7  H2  UNL     1      -3.341   0.379   0.056  1.00  0.00     0.186 HD
HETATM    8  C4  UNL     1      -1.521  -0.477   0.214  1.00  0.00     0.685 A 
HETATM    9  N7  UNL     1      -0.206  -0.150   0.532  1.00  0.00    -0.173 N 
ATOM     10  H7  UNL     1       0.493  -0.893   0.506  1.00  0.00     0.186 HD
HETATM   11  C8  UNL     1       0.192   1.066   0.866  1.00  0.00     0.166 A 
HETATM   12  C14 UNL     1      -0.725   2.092   0.912  1.00  0.00     0.125 A 
HETATM   13  N15 UNL     1      -0.375   3.356   1.247  1.00  0.00    -0.335 N 
ATOM     14  H15 UNL     1       0.595   3.575   1.476  1.00  0.00     0.168 HD
HETATM   15  C15 UNL     1      -1.312   4.324   1.277  1.00  0.00     0.122 A 
ENDROOT
BRANCH  11  16
HETATM   16  N8  UNL     1       1.432   1.336   1.157  1.00  0.00    -0.276 N 
ATOM     17  H8  UNL     1       1.688   2.291   1.409  1.00  0.00     0.189 HD
BRANCH  16  18
HETATM   18  N9  UNL     1       2.420   0.349   1.132  1.00  0.00    -0.259 N 
HETATM   19  C9  UNL     1       2.605  -0.596   2.085  1.00  0.00     0.206 A 
HETATM   20  N10 UNL     1       3.648  -1.371   1.726  1.00  0.00    -0.349 N 
HETATM   21  C10 UNL     1       4.142  -0.943   0.554  1.00  0.00     0.067 A 
ATOM     22  H10 UNL     1       4.006  -2.161   2.263  1.00  0.00     0.167 HD
HETATM   23  C13 UNL     1       3.360   0.133   0.201  1.00  0.00     0.148 A 
BRANCH  21  24
HETATM   24  C11 UNL     1       5.265  -1.524  -0.153  1.00  0.00     0.138 C 
HETATM   25  N11 UNL     1       5.696  -1.064  -1.284  1.00  0.00    -0.308 N 
ATOM     26  H11 UNL     1       5.223  -0.258  -1.693  1.00  0.00     0.186 HD
BRANCH  25  27
HETATM   27  N12 UNL     1       6.766  -1.614  -1.962  1.00  0.00    -0.276 N 
HETATM   28  C12 UNL     1       7.934  -1.778  -1.500  1.00  0.00     0.215 C 
HETATM   29  N13 UNL     1       8.245  -1.386  -0.175  1.00  0.00    -0.065 NA
HETATM   30  N14 UNL     1       8.956  -2.356  -2.293  1.00  0.00    -0.065 NA
ATOM     31  H12 UNL     1       6.601  -1.916  -2.922  1.00  0.00     0.189 HD
ENDBRANCH  25  27
ENDBRANCH  21  24
ENDBRANCH  16  18
ENDBRANCH  11  16
BRANCH   8  32
HETATM   32  N3  UNL     1      -1.744  -1.659  -0.080  1.00  0.00    -0.204 N 
ATOM     33  H3  UNL     1      -0.876  -2.192  -0.031  1.00  0.00     0.183 HD
BRANCH  32  34
HETATM   34  C5  UNL     1      -2.763  -2.484  -0.447  1.00  0.00     0.098 C 
BRANCH  34  35
HETATM   35  C6  UNL     1      -4.165  -1.972  -0.617  1.00  0.00     0.167 C 
BRANCH  35  36
HETATM   36  N4  UNL     1      -5.044  -3.077  -1.016  1.00  0.00    -0.360 N 
HETATM   37  C7  UNL     1      -6.425  -2.795  -1.228  1.00  0.00     0.182 C 
HETATM   38  N5  UNL     1      -7.115  -2.311  -0.252  1.00  0.00    -0.374 N 
HETATM   39  N6  UNL     1      -7.067  -3.022  -2.459  1.00  0.00    -0.064 NA
ATOM     40  H52 UNL     1      -6.650  -2.146   0.641  1.00  0.00     0.158 HD
ATOM     41  H51 UNL     1      -8.103  -2.109  -0.404  1.00  0.00     0.158 HD
ATOM     42  H4  UNL     1      -4.677  -4.021  -1.138  1.00  0.00     0.162 HD
ENDBRANCH  35  36
ENDBRANCH  34  35
ENDBRANCH  32  34
ENDBRANCH   8  32
BRANCH  15  43
HETATM   43  N16 UNL     1      -0.946   5.510   1.598  1.00  0.00    -0.384 N 
ATOM     44 2H16 UNL     1      -1.655   6.243   1.621  1.00  0.00     0.157 HD
ATOM     45 1H16 UNL     1       0.032   5.695   1.821  1.00  0.00     0.157 HD
ENDBRANCH  15  43
TORSDOF 9
