REMARK  8 active torsions:
REMARK  status: ('A' for Active; 'I' for Inactive)
REMARK    1  A    between atoms: C4_8  and  O1_9 
REMARK    2  A    between atoms: C4_8  and  C5_11 
REMARK       I    between atoms: C5_11  and  N3_13 
REMARK    3  A    between atoms: N3_13  and  C6_14 
REMARK    4  A    between atoms: C6_14  and  C7_15 
REMARK    5  A    between atoms: C7_15  and  C8_16 
REMARK    6  A    between atoms: C8_16  and  N4_17 
REMARK    7  A    between atoms: C12_24  and  C13_25 
REMARK    8  A    between atoms: C15_30  and  N8_31 
ROOT
HETATM    1  N4  UNL     1       1.220  -0.879   0.511  1.00  0.00    -0.226 N 
ATOM      2  H4  UNL     1       0.511  -0.775   1.237  1.00  0.00     0.177 HD
HETATM    3  C9  UNL     1       2.301  -0.439   0.936  1.00  0.00     0.678 A 
HETATM    4  N5  UNL     1       2.347   0.071   2.212  1.00  0.00    -0.202 N 
ATOM      5  H5  UNL     1       1.483   0.064   2.754  1.00  0.00     0.183 HD
HETATM    6  C10 UNL     1       3.410   0.563   2.782  1.00  0.00     0.108 A 
HETATM    7  C11 UNL     1       4.601   0.589   2.078  1.00  0.00     0.049 A 
HETATM    8  C12 UNL     1       4.632   0.095   0.791  1.00  0.00     0.067 A 
HETATM    9  N11 UNL     1       3.487  -0.396   0.274  1.00  0.00    -0.191 N 
ATOM     10  H11 UNL     1       3.513  -0.760  -0.679  1.00  0.00     0.184 HD
ENDROOT
BRANCH   1  11
HETATM   11  C8  UNL     1       0.641  -1.460  -0.600  1.00  0.00     0.144 C 
BRANCH  11  12
HETATM   12  C7  UNL     1      -0.493  -0.553  -1.114  1.00  0.00     0.080 C 
BRANCH  12  13
HETATM   13  C6  UNL     1      -1.451  -0.344   0.083  1.00  0.00     0.161 C 
BRANCH  13  14
HETATM   14  N3  UNL     1      -2.517   0.384  -0.038  1.00  0.00    -0.384 NA
HETATM   15  C5  UNL     1      -3.669   1.171  -0.169  1.00  0.00     0.356 C 
HETATM   16  O2  UNL     1      -3.747   2.339  -0.564  1.00  0.00    -0.251 OA
BRANCH  15  17
HETATM   17  C4  UNL     1      -4.950   0.450   0.247  1.00  0.00     0.334 C 
HETATM   18  N2  UNL     1      -5.390   1.141   1.471  1.00  0.00    -0.029 N 
HETATM   19  C3  UNL     1      -6.605   0.489   1.942  1.00  0.00     0.256 C 
ATOM     20  H22 UNL     1      -5.507   2.145   1.337  1.00  0.00     0.281 HD
ATOM     21  H21 UNL     1      -4.662   1.183   2.184  1.00  0.00     0.281 HD
HETATM   22  C2  UNL     1      -7.679   0.437   0.912  1.00  0.00     0.144 C 
HETATM   23  N1  UNL     1      -7.306   0.474  -0.448  1.00  0.00    -0.410 N 
HETATM   24  C1  UNL     1      -8.017  -0.547  -1.202  1.00  0.00     0.143 C 
HETATM   25  C17 UNL     1      -5.954   0.627  -0.825  1.00  0.00     0.197 C 
BRANCH  17  26
HETATM   26  O1  UNL     1      -4.678  -0.858   0.520  1.00  0.00    -0.356 OA
ATOM     27  H1  UNL     1      -4.394  -1.304  -0.269  1.00  0.00     0.213 HD
ENDBRANCH  17  26
ENDBRANCH  15  17
ENDBRANCH  13  14
ENDBRANCH  12  13
ENDBRANCH  11  12
ENDBRANCH   1  11
BRANCH   8  28
HETATM   28  C13 UNL     1       5.917   0.052   0.046  1.00  0.00     0.077 A 
HETATM   29  C14 UNL     1       6.148  -0.942  -0.862  1.00  0.00     0.148 A 
HETATM   30  N6  UNL     1       5.305  -2.086  -1.061  1.00  0.00    -0.081 NA
HETATM   31  N7  UNL     1       7.284  -0.917  -1.621  1.00  0.00    -0.178 N 
HETATM   32  C15 UNL     1       8.193   0.039  -1.518  1.00  0.00     0.678 A 
ATOM     33  H7  UNL     1       7.438  -1.667  -2.295  1.00  0.00     0.185 HD
HETATM   34  N9  UNL     1       7.979   1.014  -0.634  1.00  0.00    -0.176 N 
HETATM   35  C16 UNL     1       6.862   1.045   0.152  1.00  0.00     0.130 A 
ATOM     36  H9  UNL     1       8.670   1.759  -0.542  1.00  0.00     0.186 HD
HETATM   37  N10 UNL     1       6.704   2.033   0.947  1.00  0.00    -0.384 N 
ATOM     38 2H10 UNL     1       5.870   2.056   1.534  1.00  0.00     0.157 HD
ATOM     39 1H10 UNL     1       7.405   2.770   1.026  1.00  0.00     0.157 HD
BRANCH  32  40
HETATM   40  N8  UNL     1       9.259   0.016  -2.270  1.00  0.00    -0.234 N 
ATOM     41  H82 UNL     1       9.423  -0.730  -2.946  1.00  0.00     0.174 HD
ATOM     42  H81 UNL     1       9.960   0.753  -2.191  1.00  0.00     0.174 HD
ENDBRANCH  32  40
ENDBRANCH   8  28
TORSDOF 8
