REMARK  8 active torsions:
REMARK  status: ('A' for Active; 'I' for Inactive)
REMARK    1  A    between atoms: N1_1  and  C1_5 
REMARK    2  A    between atoms: C1_5  and  C2_6 
REMARK    3  A    between atoms: C2_6  and  C3_7 
REMARK    4  A    between atoms: C3_7  and  C4_8 
REMARK    5  A    between atoms: C5_11  and  C6_12 
REMARK    6  A    between atoms: C6_12  and  N3_13 
REMARK    7  A    between atoms: N3_13  and  C7_16 
REMARK    8  A    between atoms: C10_19  and  N4_20 
ROOT
HETATM    1  C6  UNL     1      -1.324  -0.548  -0.568  1.00  0.00     0.291 C 
ENDROOT
BRANCH   1   2
HETATM    2  C5  UNL     1      -2.668  -0.056  -0.262  1.00  0.00     0.059 A 
HETATM    3  N2  UNL     1      -3.783  -0.384  -0.924  1.00  0.00    -0.341 N 
HETATM    4  C4  UNL     1      -4.818   0.255  -0.379  1.00  0.00     0.123 A 
ATOM      5  H2  UNL     1      -3.833  -1.021  -1.719  1.00  0.00     0.167 HD
HETATM    6  O2  UNL     1      -4.355   0.970   0.609  1.00  0.00    -0.308 OA
HETATM    7  C16 UNL     1      -3.043   0.816   0.725  1.00  0.00     0.170 A 
BRANCH   4   8
HETATM    8  C3  UNL     1      -6.260   0.201  -0.783  1.00  0.00     0.086 C 
BRANCH   8   9
HETATM    9  C2  UNL     1      -6.962  -0.903  -0.041  1.00  0.00     0.035 C 
BRANCH   9  10
HETATM   10  C1  UNL     1      -6.898  -0.667   1.460  1.00  0.00     0.230 C 
BRANCH  10  11
HETATM   11  N1  UNL     1      -7.558   0.598   1.695  1.00  0.00    -0.079 N 
ATOM     12  H13 UNL     1      -7.172   1.366   1.146  1.00  0.00     0.274 HD
ATOM     13  H12 UNL     1      -8.505   0.639   1.317  1.00  0.00     0.274 HD
ATOM     14  H11 UNL     1      -7.515   0.756   2.702  1.00  0.00     0.274 HD
ENDBRANCH  10  11
ENDBRANCH   9  10
ENDBRANCH   8   9
ENDBRANCH   4   8
ENDBRANCH   1   2
BRANCH   1  15
HETATM   15  N3  UNL     1      -0.294   0.442  -0.285  1.00  0.00    -0.066 N 
ATOM     16  H32 UNL     1      -0.471   1.340  -0.735  1.00  0.00     0.278 HD
ATOM     17  H31 UNL     1      -0.313   0.771   0.680  1.00  0.00     0.278 HD
BRANCH  15  18
HETATM   18  C7  UNL     1       0.954  -0.125  -0.653  1.00  0.00     0.188 C 
HETATM   19  C8  UNL     1       1.370  -1.338   0.108  1.00  0.00     0.035 C 
HETATM   20  C9  UNL     1       2.861  -1.440  -0.167  1.00  0.00     0.027 C 
HETATM   21  C10 UNL     1       3.248  -0.141  -0.854  1.00  0.00     0.085 C 
HETATM   22  C15 UNL     1       2.158   0.793  -0.386  1.00  0.00     0.058 C 
BRANCH  21  23
HETATM   23  N4  UNL     1       4.547   0.223  -0.513  1.00  0.00    -0.385 N 
HETATM   24  C11 UNL     1       5.611  -0.628  -0.882  1.00  0.00     0.148 C 
HETATM   25  C12 UNL     1       6.552  -0.761   0.299  1.00  0.00     0.187 C 
HETATM   26  O1  UNL     1       6.397   0.258   1.220  1.00  0.00    -0.385 OA
HETATM   27  C13 UNL     1       6.187   1.499   0.626  1.00  0.00     0.212 C 
HETATM   28  C14 UNL     1       4.844   1.538  -0.103  1.00  0.00     0.084 C 
ENDBRANCH  21  23
ENDBRANCH  15  18
ENDBRANCH   1  15
TORSDOF 8
