REMARK  11 active torsions:
REMARK  status: ('A' for Active; 'I' for Inactive)
REMARK    1  A    between atoms: C2_2  and  C3_3 
REMARK    2  A    between atoms: C2_2  and  C29_40 
REMARK    3  A    between atoms: C3_3  and  C4_4 
REMARK    4  A    between atoms: C4_4  and  C5_5 
REMARK    5  A    between atoms: C5_5  and  C7_7 
REMARK    6  A    between atoms: C11_11  and  O1_12 
REMARK    7  A    between atoms: C18_20  and  N1_21 
REMARK       I    between atoms: N1_21  and  C19_23 
REMARK       I    between atoms: C19_23  and  N2_25 
REMARK    8  A    between atoms: N2_25  and  C20_27 
REMARK    9  A    between atoms: C20_27  and  C21_28 
REMARK   10  A    between atoms: C21_28  and  O4_30 
REMARK   11  A    between atoms: C26_35  and  O5_36 
ROOT
HETATM    1  C7  UNL     1      -2.671   1.752   0.345  1.00  0.00     0.000 C 
HETATM    2  C8  UNL     1      -2.824   3.235  -0.163  1.00  0.00     0.006 C 
HETATM    3  C9  UNL     1      -1.853   3.459  -1.240  1.00  0.00     0.008 C 
HETATM    4  C10 UNL     1      -1.167   2.159  -1.427  1.00  0.00     0.026 C 
HETATM    5  C11 UNL     1       0.263   2.287  -1.881  1.00  0.00     0.128 C 
HETATM    6  C12 UNL     1       1.081   1.039  -1.618  1.00  0.00     0.026 C 
HETATM    7  C13 UNL     1       1.922   0.740  -2.804  1.00  0.00    -0.001 C 
HETATM    8  C14 UNL     1       1.243  -0.297  -3.714  1.00  0.00     0.010 C 
HETATM    9  C15 UNL     1       2.023  -1.521  -3.310  1.00  0.00    -0.008 C 
HETATM   10  C16 UNL     1       3.418  -0.886  -3.532  1.00  0.00     0.012 C 
HETATM   11  C17 UNL     1       3.267   0.144  -2.420  1.00  0.00     0.014 C 
HETATM   12  C18 UNL     1       3.079  -0.767  -1.260  1.00  0.00     0.095 C 
HETATM   13  C23 UNL     1       1.993  -1.666  -1.829  1.00  0.00     0.013 C 
HETATM   14  C24 UNL     1       0.669  -1.423  -1.174  1.00  0.00     0.014 C 
HETATM   15  C25 UNL     1       0.134  -0.036  -1.226  1.00  0.00     0.022 C 
HETATM   16  C26 UNL     1      -0.435   0.396   0.155  1.00  0.00     0.131 C 
HETATM   17  C27 UNL     1      -1.295   1.559  -0.006  1.00  0.00    -0.008 C 
HETATM   18  C28 UNL     1      -0.565   2.656   0.851  1.00  0.00     0.019 C 
ENDROOT
BRANCH  12  19
HETATM   19  N1  UNL     1       4.312  -1.451  -0.967  1.00  0.00    -0.338 N 
HETATM   20  C19 UNL     1       4.888  -1.361   0.335  1.00  0.00     0.316 C 
HETATM   21  O2  UNL     1       4.285  -0.682   1.204  1.00  0.00    -0.247 OA
HETATM   22  N2  UNL     1       6.090  -1.988   0.703  1.00  0.00    -0.334 N 
ATOM     23  H2  UNL     1       6.561  -2.534  -0.018  1.00  0.00     0.164 HD
ATOM     24  H1  UNL     1       4.774  -2.001  -1.691  1.00  0.00     0.164 HD
BRANCH  22  25
HETATM   25  C20 UNL     1       6.716  -1.938   1.979  1.00  0.00     0.235 C 
BRANCH  25  26
HETATM   26  C21 UNL     1       7.091  -0.586   2.433  1.00  0.00     0.276 C 
HETATM   27  O3  UNL     1       6.880   0.413   1.721  1.00  0.00    -0.263 OA
BRANCH  26  28
HETATM   28  O4  UNL     1       7.683  -0.433   3.663  1.00  0.00    -0.325 OA
HETATM   29  C22 UNL     1       8.083   0.808   4.201  1.00  0.00     0.213 C 
ENDBRANCH  26  28
ENDBRANCH  25  26
ENDBRANCH  22  25
ENDBRANCH  12  19
BRANCH   5  30
HETATM   30  O1  UNL     1       0.215   2.461  -3.288  1.00  0.00    -0.395 OA
ATOM     31  H1  UNL     1       1.117   2.542  -3.574  1.00  0.00     0.210 HD
ENDBRANCH   5  30
BRANCH  16  32
HETATM   32  O5  UNL     1      -0.730  -0.700   0.873  1.00  0.00    -0.394 OA
ATOM     33  H5  UNL     1      -1.078  -0.436   1.717  1.00  0.00     0.210 HD
ENDBRANCH  16  32
BRANCH   1  34
HETATM   34  C5  UNL     1      -3.901   1.099  -0.079  1.00  0.00    -0.013 C 
HETATM   35  C6  UNL     1      -4.155   1.103  -1.584  1.00  0.00     0.010 C 
BRANCH  34  36
HETATM   36  C4  UNL     1      -4.094  -0.332   0.412  1.00  0.00     0.009 C 
BRANCH  36  37
HETATM   37  C3  UNL     1      -3.966  -0.440   1.911  1.00  0.00     0.034 C 
BRANCH  37  38
HETATM   38  C2  UNL     1      -4.070  -1.752   2.499  1.00  0.00    -0.086 C 
HETATM   39  C1  UNL     1      -3.065  -2.245   3.198  1.00  0.00     0.014 C 
BRANCH  38  40
HETATM   40  C29 UNL     1      -5.288  -2.572   2.395  1.00  0.00     0.005 C 
HETATM   41  C30 UNL     1      -6.437  -1.659   2.870  1.00  0.00     0.014 C 
HETATM   42  C31 UNL     1      -5.669  -3.019   1.023  1.00  0.00     0.014 C 
ENDBRANCH  38  40
ENDBRANCH  37  38
ENDBRANCH  36  37
ENDBRANCH  34  36
ENDBRANCH   1  34
TORSDOF 11
