REMARK  11 active torsions:
REMARK  status: ('A' for Active; 'I' for Inactive)
REMARK    1  A    between atoms: C2_2  and  C3_3 
REMARK    2  A    between atoms: C3_3  and  C5_5 
REMARK    3  A    between atoms: C5_5  and  N1_6 
REMARK    4  A    between atoms: C5_5  and  C26_34 
REMARK       I    between atoms: N1_6  and  C6_8 
REMARK    5  A    between atoms: C6_8  and  C7_10 
REMARK    6  A    between atoms: C7_10  and  C8_11 
REMARK    7  A    between atoms: C8_11  and  C9_12 
REMARK    8  A    between atoms: C9_12  and  C10_14 
REMARK    9  A    between atoms: C20_24  and  O3_25 
REMARK   10  A    between atoms: C20_24  and  C21_27 
REMARK       I    between atoms: C26_34  and  N2_36 
REMARK   11  A    between atoms: N2_36  and  C27_38 
ROOT
HETATM    1  C9  UNL     1      -1.374  -1.438  -0.449  1.00  0.00     0.132 C 
HETATM    2  O2  UNL     1      -1.359  -2.028  -1.546  1.00  0.00    -0.298 OA
ENDROOT
BRANCH   1   3
HETATM    3  C8  UNL     1      -0.086  -0.838  -0.055  1.00  0.00     0.088 C 
BRANCH   3   4
HETATM    4  C7  UNL     1       1.009  -1.060  -1.040  1.00  0.00     0.110 C 
BRANCH   4   5
HETATM    5  C6  UNL     1       2.248  -0.382  -0.485  1.00  0.00     0.218 C 
HETATM    6  N1  UNL     1       3.441  -0.445  -1.222  1.00  0.00    -0.347 N 
ATOM      7  H1  UNL     1       3.382  -0.972  -2.093  1.00  0.00     0.163 HD
HETATM    8  O1  UNL     1       2.199   0.221   0.607  1.00  0.00    -0.274 OA
BRANCH   6   9
HETATM    9  C5  UNL     1       4.729   0.117  -0.940  1.00  0.00     0.180 C 
BRANCH   9  10
HETATM   10  C3  UNL     1       4.700   1.379  -0.108  1.00  0.00     0.013 C 
HETATM   11  C4  UNL     1       6.128   1.902   0.096  1.00  0.00     0.012 C 
BRANCH  10  12
HETATM   12  C2  UNL     1       3.954   2.516  -0.737  1.00  0.00     0.002 C 
HETATM   13  C1  UNL     1       4.542   2.962  -2.068  1.00  0.00     0.005 C 
ENDBRANCH  10  12
ENDBRANCH   9  10
BRANCH   9  14
HETATM   14  C26 UNL     1       5.663  -0.857  -0.393  1.00  0.00     0.241 C 
HETATM   15  O6  UNL     1       5.293  -1.789   0.409  1.00  0.00    -0.271 OA
HETATM   16  N2  UNL     1       7.037  -0.848  -0.712  1.00  0.00    -0.351 N 
ATOM     17  H2  UNL     1       7.373  -0.124  -1.347  1.00  0.00     0.163 HD
BRANCH  16  18
HETATM   18  C27 UNL     1       7.998  -1.791  -0.202  1.00  0.00     0.022 C 
HETATM   19  C28 UNL     1       9.355  -1.457  -0.808  1.00  0.00     0.037 C 
HETATM   20  C29 UNL     1       7.597  -3.178  -0.645  1.00  0.00     0.037 C 
HETATM   21  C30 UNL     1       8.046  -1.683   1.299  1.00  0.00     0.037 C 
ENDBRANCH  16  18
ENDBRANCH   9  14
ENDBRANCH   6   9
ENDBRANCH   4   5
ENDBRANCH   3   4
ENDBRANCH   1   3
BRANCH   1  22
HETATM   22  C10 UNL     1      -2.596  -1.389   0.318  1.00  0.00     0.064 C 
HETATM   23  C11 UNL     1      -2.573  -2.022   1.686  1.00  0.00     0.013 C 
HETATM   24  C12 UNL     1      -3.778  -1.391   2.394  1.00  0.00     0.011 C 
HETATM   25  C13 UNL     1      -4.399  -0.426   1.387  1.00  0.00    -0.031 C 
HETATM   26  C14 UNL     1      -5.131   0.710   1.972  1.00  0.00     0.019 C 
HETATM   27  C19 UNL     1      -5.380  -1.086   0.467  1.00  0.00     0.019 C 
HETATM   28  C24 UNL     1      -3.097  -0.015   0.681  1.00  0.00    -0.026 C 
HETATM   29  C15 UNL     1      -6.196   1.048   0.894  1.00  0.00     0.039 C 
HETATM   30  C16 UNL     1      -6.692  -0.295   0.640  1.00  0.00    -0.040 C 
HETATM   31  C20 UNL     1      -5.642   1.961  -0.084  1.00  0.00     0.150 C 
HETATM   32  C17 UNL     1      -7.306  -0.781   1.977  1.00  0.00     0.015 C 
HETATM   33  C18 UNL     1      -7.689  -0.574  -0.400  1.00  0.00     0.015 C 
HETATM   34  C22 UNL     1      -4.146   2.079  -0.189  1.00  0.00     0.050 C 
HETATM   35  C23 UNL     1      -3.394   0.853  -0.508  1.00  0.00     0.014 C 
HETATM   36  C25 UNL     1      -2.248   0.673   1.711  1.00  0.00     0.016 C 
BRANCH  31  37
HETATM   37  O3  UNL     1      -5.953   3.267   0.456  1.00  0.00    -0.378 OA
ATOM     38  H3  UNL     1      -5.590   3.866  -0.186  1.00  0.00     0.211 HD
ENDBRANCH  31  37
BRANCH  31  39
HETATM   39  C21 UNL     1      -6.234   2.039  -1.434  1.00  0.00     0.209 C 
HETATM   40  O4  UNL     1      -6.012   1.142  -2.284  1.00  0.00    -0.646 OA
HETATM   41  O5  UNL     1      -7.061   3.061  -1.892  1.00  0.00    -0.646 OA
ENDBRANCH  31  39
ENDBRANCH   1  22
TORSDOF 11
