REMARK  12 active torsions:
REMARK  status: ('A' for Active; 'I' for Inactive)
REMARK    1  A    between atoms: N1_2  and  C2_3 
REMARK    2  A    between atoms: N1_2  and  C14_20 
REMARK    3  A    between atoms: C2_3  and  C3_4 
REMARK    4  A    between atoms: C3_4  and  C4_5 
REMARK    5  A    between atoms: C4_5  and  C5_6 
REMARK    6  A    between atoms: C5_6  and  C6_7 
REMARK    7  A    between atoms: C6_7  and  C7_8 
REMARK       I    between atoms: C7_8  and  N2_10 
REMARK    8  A    between atoms: N2_10  and  C8_12 
REMARK    9  A    between atoms: C8_12  and  C9_13 
REMARK   10  A    between atoms: C8_12  and  C10_16 
REMARK   11  A    between atoms: C19_25  and  O4_26 
REMARK   12  A    between atoms: C22_30  and  O5_31 
ROOT
HETATM    1  C14 UNL     1      -1.811  -0.661  -0.131  1.00  0.00     0.227 C 
HETATM    2  C15 UNL     1      -3.117  -1.213   0.377  1.00  0.00     0.042 C 
HETATM    3  C16 UNL     1      -4.136  -0.146   0.035  1.00  0.00     0.001 C 
HETATM    4  C17 UNL     1      -4.383  -0.185  -1.429  1.00  0.00     0.001 C 
HETATM    5  C18 UNL     1      -4.959   1.164  -1.820  1.00  0.00     0.038 C 
HETATM    6  C19 UNL     1      -5.992   1.558  -0.828  1.00  0.00     0.123 C 
HETATM    7  C20 UNL     1      -6.502   0.422   0.052  1.00  0.00     0.025 C 
HETATM    8  C21 UNL     1      -7.621   0.966   0.870  1.00  0.00     0.039 C 
HETATM    9  C22 UNL     1      -7.625   0.765   2.320  1.00  0.00     0.118 C 
HETATM   10  C23 UNL     1      -6.395   0.189   2.954  1.00  0.00     0.032 C 
HETATM   11  C24 UNL     1      -5.161   0.444   2.161  1.00  0.00     0.012 C 
HETATM   12  C25 UNL     1      -5.396  -0.226   0.807  1.00  0.00    -0.034 C 
HETATM   13  C26 UNL     1      -5.736  -1.686   1.130  1.00  0.00     0.016 C 
HETATM   14  C27 UNL     1      -3.211  -0.588  -2.252  1.00  0.00    -0.034 C 
HETATM   15  C28 UNL     1      -3.445  -1.862  -3.051  1.00  0.00     0.016 C 
HETATM   16  C29 UNL     1      -2.689   0.479  -3.223  1.00  0.00     0.010 C 
HETATM   17  C30 UNL     1      -1.606   0.773  -2.210  1.00  0.00     0.008 C 
HETATM   18  C31 UNL     1      -1.892  -0.578  -1.619  1.00  0.00     0.027 C 
ENDROOT
BRANCH   1  19
HETATM   19  N1  UNL     1      -0.695  -1.467   0.323  1.00  0.00     0.089 N 
HETATM   20  C1  UNL     1      -0.774  -2.808  -0.240  1.00  0.00     0.310 C 
BRANCH  19  21
HETATM   21  C2  UNL     1       0.571  -0.872  -0.016  1.00  0.00     0.272 C 
BRANCH  21  22
HETATM   22  C3  UNL     1       0.853   0.428   0.675  1.00  0.00     0.030 C 
BRANCH  22  23
HETATM   23  C4  UNL     1       2.188   0.951   0.224  1.00  0.00     0.002 C 
BRANCH  23  24
HETATM   24  C5  UNL     1       3.340   0.024   0.473  1.00  0.00     0.009 C 
BRANCH  24  25
HETATM   25  C6  UNL     1       4.584   0.757  -0.027  1.00  0.00     0.103 C 
BRANCH  25  26
HETATM   26  C7  UNL     1       5.816  -0.016   0.143  1.00  0.00     0.218 C 
HETATM   27  O1  UNL     1       5.789  -1.167   0.583  1.00  0.00    -0.274 OA
HETATM   28  N2  UNL     1       7.051   0.612  -0.220  1.00  0.00    -0.346 N 
ATOM     29  H2  UNL     1       7.037   1.566  -0.580  1.00  0.00     0.163 HD
BRANCH  28  30
HETATM   30  C8  UNL     1       8.322  -0.075  -0.089  1.00  0.00     0.193 C 
BRANCH  30  31
HETATM   31  C9  UNL     1       9.088  -0.034  -1.346  1.00  0.00     0.197 C 
HETATM   32  O2  UNL     1       8.568   0.556  -2.338  1.00  0.00    -0.646 OA
HETATM   33  O3  UNL     1      10.330  -0.603  -1.484  1.00  0.00    -0.646 OA
ENDBRANCH  30  31
BRANCH  30  34
HETATM   34  C10 UNL     1       9.152   0.510   1.026  1.00  0.00    -0.021 C 
HETATM   35  C11 UNL     1       8.424   0.404   2.352  1.00  0.00     0.017 C 
HETATM   36  C12 UNL     1      10.416  -0.295   1.167  1.00  0.00     0.017 C 
HETATM   37  C13 UNL     1       9.553   1.941   0.800  1.00  0.00     0.017 C 
ENDBRANCH  30  34
ENDBRANCH  28  30
ENDBRANCH  25  26
ENDBRANCH  24  25
ENDBRANCH  23  24
ENDBRANCH  22  23
ENDBRANCH  21  22
ENDBRANCH  19  21
ENDBRANCH   1  19
BRANCH   6  38
HETATM   38  O4  UNL     1      -7.121   2.035  -1.534  1.00  0.00    -0.395 OA
ATOM     39  H4  UNL     1      -7.782   2.287  -0.900  1.00  0.00     0.210 HD
ENDBRANCH   6  38
BRANCH   9  40
HETATM   40  O5  UNL     1      -8.715  -0.049   2.729  1.00  0.00    -0.396 OA
ATOM     41  H5  UNL     1      -8.718  -0.179   3.670  1.00  0.00     0.210 HD
ENDBRANCH   9  40
TORSDOF 12
