REMARK  8 active torsions:
REMARK  status: ('A' for Active; 'I' for Inactive)
REMARK    1  A    between atoms: C3_5  and  C4_6 
REMARK    2  A    between atoms: C4_6  and  C5_7 
REMARK    3  A    between atoms: C4_6  and  N5_13 
REMARK    4  A    between atoms: C5_7  and  N2_8 
REMARK    5  A    between atoms: N5_13  and  C7_15 
REMARK       I    between atoms: N8_20  and  C9_21 
REMARK    6  A    between atoms: C10_27  and  O2_28 
REMARK    7  A    between atoms: C10_27  and  C11_30 
REMARK    8  A    between atoms: C11_30  and  O3_32 
ROOT
HETATM    1  C4  UNL     1      -0.119   0.756  -0.443  1.00  0.00     0.152 C 
ENDROOT
BRANCH   1   2
HETATM    2  C3  UNL     1       1.182   0.150  -0.804  1.00  0.00     0.201 C 
HETATM    3  C2  UNL     1       1.655  -1.082  -0.156  1.00  0.00     0.078 C 
HETATM    4  N1  UNL     1       1.717  -2.342  -0.212  1.00  0.00    -0.394 N 
HETATM    5  C10 UNL     1       2.269  -0.183   0.885  1.00  0.00     0.232 C 
HETATM    6  C1  UNL     1       1.219  -3.230  -1.183  1.00  0.00     0.146 C 
ATOM      7  H1  UNL     1       2.204  -2.785   0.568  1.00  0.00     0.158 HD
HETATM    8  O1  UNL     1       2.194   0.818  -0.040  1.00  0.00    -0.335 OA
BRANCH   5   9
HETATM    9  O2  UNL     1       1.550  -0.132   2.036  1.00  0.00    -0.359 OA
ATOM     10  H2  UNL     1       1.937   0.435   2.693  1.00  0.00     0.213 HD
ENDBRANCH   5   9
BRANCH   5  11
HETATM   11  C11 UNL     1       3.717  -0.511   1.179  1.00  0.00     0.182 C 
HETATM   12  C12 UNL     1       4.440   0.715   1.725  1.00  0.00     0.045 C 
BRANCH  11  13
HETATM   13  O3  UNL     1       4.414  -0.928   0.063  1.00  0.00    -0.390 OA
ATOM     14  H3  UNL     1       5.323  -1.134   0.248  1.00  0.00     0.210 HD
ENDBRANCH  11  13
ENDBRANCH   5  11
ENDBRANCH   1   2
BRANCH   1  15
HETATM   15  C5  UNL     1      -0.041   2.278  -0.666  1.00  0.00     0.150 C 
BRANCH  15  16
HETATM   16  N2  UNL     1      -1.312   2.847  -0.309  1.00  0.00    -0.365 N 
HETATM   17  C6  UNL     1      -1.839   3.879  -0.836  1.00  0.00     0.197 C 
HETATM   18  N3  UNL     1      -1.251   4.646  -1.876  1.00  0.00    -0.067 NA
HETATM   19  N4  UNL     1      -3.107   4.301  -0.357  1.00  0.00    -0.067 NA
ATOM     20  H2  UNL     1      -1.838   2.383   0.432  1.00  0.00     0.161 HD
ENDBRANCH  15  16
ENDBRANCH   1  15
BRANCH   1  21
HETATM   21  N5  UNL     1      -1.294   0.282  -1.090  1.00  0.00    -0.216 N 
ATOM     22  H5  UNL     1      -1.770   0.947  -1.700  1.00  0.00     0.178 HD
BRANCH  21  23
HETATM   23  C7  UNL     1      -1.883  -1.004  -0.989  1.00  0.00     0.696 C 
HETATM   24  N6  UNL     1      -2.157  -1.728  -2.009  1.00  0.00    -0.135 N 
HETATM   25  N7  UNL     1      -2.723  -2.932  -1.662  1.00  0.00    -0.105 NA
ATOM     26  H6  UNL     1      -1.976  -1.443  -2.972  1.00  0.00     0.201 HD
HETATM   27  C8  UNL     1      -2.561  -3.072  -0.239  1.00  0.00     0.286 C 
HETATM   28  N8  UNL     1      -2.276  -1.715   0.180  1.00  0.00    -0.139 N 
HETATM   29  C9  UNL     1      -2.365  -1.170   1.501  1.00  0.00     0.204 C 
HETATM   30  N9  UNL     1      -2.988  -0.084   1.793  1.00  0.00    -0.373 N 
HETATM   31  N10 UNL     1      -1.723  -1.884   2.544  1.00  0.00    -0.063 NA
ATOM     32  H92 UNL     1      -3.450   0.430   1.043  1.00  0.00     0.158 HD
ATOM     33  H91 UNL     1      -3.051   0.304   2.734  1.00  0.00     0.158 HD
ENDBRANCH  21  23
ENDBRANCH   1  21
TORSDOF 8
