REMARK  8 active torsions:
REMARK  status: ('A' for Active; 'I' for Inactive)
REMARK    1  A    between atoms: N1_2  and  N2_4 
REMARK    2  A    between atoms: N2_4  and  C2_6 
REMARK    3  A    between atoms: C3_10  and  O2_11 
REMARK    4  A    between atoms: C4_13  and  C5_14 
REMARK    5  A    between atoms: N4_15  and  N5_17 
REMARK    6  A    between atoms: N5_17  and  C6_19 
REMARK    7  A    between atoms: C7_22  and  N7_23 
REMARK    8  A    between atoms: C8_28  and  N9_29 
REMARK       I    between atoms: N9_29  and  C9_31 
REMARK       I    between atoms: C9_31  and  N12_36 
ROOT
HETATM    1  N9  UNL     1       3.557  -0.751  -0.870  1.00  0.00    -0.021 N 
ATOM      2  H9  UNL     1       3.652  -0.743  -1.886  1.00  0.00     0.203 HD
HETATM    3  C9  UNL     1       4.713  -1.000  -0.071  1.00  0.00     0.701 C 
HETATM    4  N10 UNL     1       4.879  -2.102   0.571  1.00  0.00    -0.126 N 
ATOM      5  H10 UNL     1       4.175  -2.838   0.524  1.00  0.00     0.197 HD
HETATM    6  C10 UNL     1       6.033  -2.278   1.332  1.00  0.00     0.196 C 
HETATM    7  N11 UNL     1       7.004  -2.444   1.962  1.00  0.00    -0.171 NA
HETATM    8  N12 UNL     1       5.716   0.001   0.021  1.00  0.00    -0.229 N 
ATOM      9  H12 UNL     1       5.641   0.742   0.718  1.00  0.00     0.177 HD
HETATM   10  C11 UNL     1       6.850  -0.039  -0.887  1.00  0.00     0.165 C 
ENDROOT
BRANCH   1  11
HETATM   11  C8  UNL     1       2.399  -0.536  -0.353  1.00  0.00     0.726 A 
HETATM   12  N8  UNL     1       2.205  -0.533   0.976  1.00  0.00    -0.021 N 
HETATM   13  C7  UNL     1       0.976  -0.304   1.499  1.00  0.00     0.705 A 
ATOM     14  H8  UNL     1       2.993  -0.705   1.600  1.00  0.00     0.203 HD
HETATM   15  N6  UNL     1      -0.026  -0.084   0.628  1.00  0.00    -0.020 N 
HETATM   16  C6  UNL     1       0.125  -0.079  -0.706  1.00  0.00     0.726 A 
ATOM     17  H6  UNL     1      -0.958   0.090   1.005  1.00  0.00     0.203 HD
HETATM   18  N13 UNL     1       1.371  -0.312  -1.187  1.00  0.00    -0.019 N 
ATOM     19  H13 UNL     1       1.529  -0.317  -2.195  1.00  0.00     0.203 HD
BRANCH  13  20
HETATM   20  N7  UNL     1       0.751  -0.292   2.770  1.00  0.00    -0.234 N 
ATOM     21  H72 UNL     1      -0.174  -0.120   3.164  1.00  0.00     0.174 HD
ATOM     22  H71 UNL     1       1.510  -0.459   3.430  1.00  0.00     0.174 HD
ENDBRANCH  13  20
BRANCH  16  23
HETATM   23  N5  UNL     1      -0.872   0.139  -1.520  1.00  0.00    -0.131 N 
ATOM     24  H5  UNL     1      -0.706   0.133  -2.526  1.00  0.00     0.205 HD
BRANCH  23  25
HETATM   25  N4  UNL     1      -2.142   0.377  -1.047  1.00  0.00    -0.297 N 
HETATM   26  C5  UNL     1      -2.628   1.504  -0.761  1.00  0.00     0.128 C 
ATOM     27  H4  UNL     1      -2.746  -0.434  -0.916  1.00  0.00     0.186 HD
BRANCH  26  28
HETATM   28  C4  UNL     1      -3.952   1.780  -0.264  1.00  0.00     0.088 A 
HETATM   29  C2  UNL     1      -4.966   0.883   0.005  1.00  0.00     0.156 A 
HETATM   30  N3  UNL     1      -6.010   1.697   0.456  1.00  0.00    -0.240 N 
HETATM   31  O1  UNL     1      -5.639   2.912   0.447  1.00  0.00    -0.210 OA
ATOM     32  H3  UNL     1      -6.929   1.366   0.748  1.00  0.00     0.196 HD
HETATM   33  C3  UNL     1      -4.439   3.076   0.039  1.00  0.00     0.220 A 
BRANCH  29  34
HETATM   34  N2  UNL     1      -5.088  -0.358  -0.077  1.00  0.00    -0.288 N 
ATOM     35  H2  UNL     1      -6.027  -0.612   0.229  1.00  0.00     0.188 HD
BRANCH  34  36
HETATM   36  N1  UNL     1      -4.444  -1.461  -0.416  1.00  0.00    -0.339 N 
HETATM   37  C1  UNL     1      -4.721  -2.271  -1.624  1.00  0.00     0.167 C 
ATOM     38  H1  UNL     1      -3.698  -1.779   0.203  1.00  0.00     0.179 HD
ENDBRANCH  34  36
ENDBRANCH  29  34
BRANCH  33  39
HETATM   39  O2  UNL     1      -3.693   4.235  -0.109  1.00  0.00    -0.339 OA
ATOM     40  H2  UNL     1      -2.801   4.357  -0.412  1.00  0.00     0.220 HD
ENDBRANCH  33  39
ENDBRANCH  26  28
ENDBRANCH  23  25
ENDBRANCH  16  23
ENDBRANCH   1  11
TORSDOF 8
