REMARK  8 active torsions:
REMARK  status: ('A' for Active; 'I' for Inactive)
REMARK    1  A    between atoms: N1_2  and  C2_4 
REMARK    2  A    between atoms: C2_4  and  N2_6 
REMARK    3  A    between atoms: N2_6  and  N3_8 
REMARK    4  A    between atoms: C3_9  and  C4_10 
REMARK       I    between atoms: C4_10  and  N4_12 
REMARK       I    between atoms: N4_12  and  C5_14 
REMARK    5  A    between atoms: N6_16  and  O2_18 
REMARK    6  A    between atoms: C6_23  and  O3_24 
REMARK    7  A    between atoms: C6_23  and  C7_26 
REMARK    8  A    between atoms: C8_29  and  C9_30 
ROOT
HETATM    1  N3  UNL     1      -0.515  -0.592  -0.725  1.00  0.00    -0.170 NA
HETATM    2  C3  UNL     1       0.532  -1.155   0.111  1.00  0.00     0.377 C 
HETATM    3  N7  UNL     1      -0.183  -1.328   1.389  1.00  0.00    -0.003 N 
ATOM      4  H71 UNL     1      -0.399  -0.472   1.900  1.00  0.00     0.284 HD
ATOM      5  H72 UNL     1       0.355  -1.740   2.151  1.00  0.00     0.284 HD
HETATM    6  C6  UNL     1      -1.321  -2.097   0.925  1.00  0.00     0.343 C 
HETATM    7  C8  UNL     1      -1.687  -1.363  -0.346  1.00  0.00     0.258 C 
ENDROOT
BRANCH   2   8
HETATM    8  C4  UNL     1       1.694  -0.281   0.270  1.00  0.00     0.271 C 
HETATM    9  O1  UNL     1       1.940   0.196   1.408  1.00  0.00    -0.269 OA
HETATM   10  N4  UNL     1       2.525   0.025  -0.819  1.00  0.00    -0.297 N 
HETATM   11  C5  UNL     1       3.656   0.871  -0.681  1.00  0.00     0.214 C 
ATOM     12  H4  UNL     1       2.310  -0.371  -1.734  1.00  0.00     0.171 HD
HETATM   13  N5  UNL     1       3.990   1.442   0.576  1.00  0.00    -0.061 NA
HETATM   14  N6  UNL     1       4.426   1.156  -1.684  1.00  0.00    -0.241 N 
ATOM     15  H6  UNL     1       4.210   0.758  -2.598  1.00  0.00     0.197 HD
BRANCH  14  16
HETATM   16  O2  UNL     1       5.517   1.970  -1.562  1.00  0.00    -0.287 OA
ATOM     17  H2  UNL     1       6.081   2.179  -2.297  1.00  0.00     0.244 HD
ENDBRANCH  14  16
ENDBRANCH   2   8
BRANCH   1  18
HETATM   18  N2  UNL     1      -0.775   0.740  -0.374  1.00  0.00    -0.292 N 
ATOM     19  H2  UNL     1      -0.283   1.149   0.420  1.00  0.00     0.183 HD
BRANCH  18  20
HETATM   20  C2  UNL     1      -1.696   1.527  -1.088  1.00  0.00     0.182 C 
HETATM   21  S1  UNL     1      -2.494   0.902  -2.359  1.00  0.00    -0.040 SA
BRANCH  20  22
HETATM   22  N1  UNL     1      -1.946   2.856  -0.727  1.00  0.00    -0.371 N 
HETATM   23  C1  UNL     1      -1.247   3.424   0.397  1.00  0.00     0.148 C 
ATOM     24  H1  UNL     1      -2.616   3.416  -1.254  1.00  0.00     0.161 HD
ENDBRANCH  20  22
ENDBRANCH  18  20
ENDBRANCH   1  18
BRANCH   7  25
HETATM   25  C9  UNL     1      -2.031  -2.394  -1.340  1.00  0.00     0.199 C 
HETATM   26  O6  UNL     1      -3.045  -3.104  -1.135  1.00  0.00    -0.647 OA
HETATM   27  O7  UNL     1      -1.244  -2.562  -2.464  1.00  0.00    -0.647 OA
ENDBRANCH   7  25
BRANCH   6  28
HETATM   28  O3  UNL     1      -0.868  -3.372   0.608  1.00  0.00    -0.355 OA
ATOM     29  H3  UNL     1      -1.614  -3.876   0.304  1.00  0.00     0.213 HD
ENDBRANCH   6  28
BRANCH   6  30
HETATM   30  C7  UNL     1      -2.434  -2.103   1.877  1.00  0.00     0.241 C 
HETATM   31  O4  UNL     1      -2.862  -3.199   2.303  1.00  0.00    -0.644 OA
HETATM   32  O5  UNL     1      -2.998  -0.920   2.295  1.00  0.00    -0.644 OA
ENDBRANCH   6  30
TORSDOF 8
