REMARK  13 active torsions:
REMARK  status: ('A' for Active; 'I' for Inactive)
REMARK    1  A    between atoms: C2_2  and  O1_3 
REMARK    2  A    between atoms: C5_7  and  C6_8 
REMARK    3  A    between atoms: C6_8  and  O2_9 
REMARK    4  A    between atoms: C6_8  and  C7_11 
REMARK    5  A    between atoms: C7_11  and  N1_12 
REMARK    6  A    between atoms: C7_11  and  C8_16 
REMARK    7  A    between atoms: C8_16  and  O3_17 
REMARK    8  A    between atoms: C8_16  and  C9_19 
REMARK    9  A    between atoms: C9_19  and  O4_20 
REMARK   10  A    between atoms: C11_23  and  O5_25 
REMARK   11  A    between atoms: C13_27  and  O6_28 
REMARK   12  A    between atoms: C14_30  and  N2_31 
REMARK   13  A    between atoms: C15_35  and  O7_37 
ROOT
HETATM    1  C1  UNL     1      -3.311  -2.167   0.454  1.00  0.00     0.046 C 
HETATM    2  C2  UNL     1      -1.856  -2.125   0.235  1.00  0.00     0.062 C 
HETATM    3  C3  UNL     1      -1.180  -2.238   1.607  1.00  0.00     0.039 C 
HETATM    4  C4  UNL     1       0.089  -1.513   1.394  1.00  0.00     0.019 C 
HETATM    5  C5  UNL     1      -0.126  -0.400   0.388  1.00  0.00     0.030 C 
HETATM    6  C10 UNL     1      -1.220  -1.007  -0.482  1.00  0.00     0.070 C 
HETATM    7  C11 UNL     1      -2.074  -0.021  -1.196  1.00  0.00     0.089 C 
HETATM    8  C12 UNL     1      -1.467   0.411  -2.550  1.00  0.00     0.049 C 
HETATM    9  C13 UNL     1      -2.358   1.260  -0.487  1.00  0.00     0.186 C 
HETATM   10  C14 UNL     1      -1.074   1.853   0.093  1.00  0.00     0.249 C 
HETATM   11  C15 UNL     1      -0.633   0.794   1.109  1.00  0.00     0.095 C 
HETATM   12  C16 UNL     1       0.225   1.459   2.086  1.00  0.00     0.049 C 
ENDROOT
BRANCH   5  13
HETATM   13  C6  UNL     1       1.086  -0.259  -0.425  1.00  0.00     0.163 C 
BRANCH  13  14
HETATM   14  O2  UNL     1       1.287  -1.510  -1.075  1.00  0.00    -0.392 OA
ATOM     15  H2  UNL     1       2.072  -1.419  -1.602  1.00  0.00     0.210 HD
ENDBRANCH  13  14
BRANCH  13  16
HETATM   16  C7  UNL     1       2.389   0.088   0.129  1.00  0.00     0.243 C 
BRANCH  16  17
HETATM   17  N1  UNL     1       2.967  -0.814   1.078  1.00  0.00    -0.070 N 
ATOM     18  H13 UNL     1       2.307  -0.969   1.840  1.00  0.00     0.274 HD
ATOM     19  H12 UNL     1       3.012  -1.748   0.671  1.00  0.00     0.274 HD
ATOM     20  H11 UNL     1       3.879  -0.571   1.466  1.00  0.00     0.274 HD
ENDBRANCH  16  17
BRANCH  16  21
HETATM   21  C8  UNL     1       3.337   0.247  -1.079  1.00  0.00     0.174 C 
BRANCH  21  22
HETATM   22  O3  UNL     1       2.791   1.122  -2.018  1.00  0.00    -0.391 OA
ATOM     23  H3  UNL     1       3.374   1.220  -2.761  1.00  0.00     0.210 HD
ENDBRANCH  21  22
BRANCH  21  24
HETATM   24  C9  UNL     1       4.649   0.851  -0.653  1.00  0.00     0.198 C 
BRANCH  24  25
HETATM   25  O4  UNL     1       4.438   2.108  -0.091  1.00  0.00    -0.398 OA
ATOM     26  H4  UNL     1       5.266   2.489   0.178  1.00  0.00     0.209 HD
ENDBRANCH  24  25
ENDBRANCH  21  24
ENDBRANCH  16  21
ENDBRANCH  13  16
ENDBRANCH   5  13
BRANCH  11  27
HETATM   27  O7  UNL     1      -1.807   0.427   1.774  1.00  0.00    -0.387 OA
ATOM     28  H7  UNL     1      -2.132   1.191   2.236  1.00  0.00     0.210 HD
ENDBRANCH  11  27
BRANCH   2  29
HETATM   29  O1  UNL     1      -1.595  -3.393  -0.373  1.00  0.00    -0.390 OA
ATOM     30  H1  UNL     1      -0.656  -3.366  -0.514  1.00  0.00     0.210 HD
ENDBRANCH   2  29
BRANCH   7  31
HETATM   31  O5  UNL     1      -3.301  -0.575  -1.540  1.00  0.00    -0.387 OA
ATOM     32  H5  UNL     1      -3.847   0.055  -1.996  1.00  0.00     0.210 HD
ENDBRANCH   7  31
BRANCH  10  33
HETATM   33  N2  UNL     1      -1.375   3.075   0.782  1.00  0.00    -0.070 N 
ATOM     34  H23 UNL     1      -1.871   3.739   0.188  1.00  0.00     0.275 HD
ATOM     35  H22 UNL     1      -2.095   2.948   1.493  1.00  0.00     0.275 HD
ATOM     36  H21 UNL     1      -0.518   3.471   1.169  1.00  0.00     0.275 HD
ENDBRANCH  10  33
BRANCH   9  37
HETATM   37  O6  UNL     1      -2.862   2.174  -1.414  1.00  0.00    -0.390 OA
ATOM     38  H6  UNL     1      -3.043   2.990  -0.962  1.00  0.00     0.210 HD
ENDBRANCH   9  37
TORSDOF 13
