REMARK  10 active torsions:
REMARK  status: ('A' for Active; 'I' for Inactive)
REMARK    1  A    between atoms: N1_1  and  C1_5 
REMARK    2  A    between atoms: C3_7  and  O1_8 
REMARK    3  A    between atoms: O1_8  and  C4_9 
REMARK    4  A    between atoms: C5_10  and  N2_11 
REMARK    5  A    between atoms: C6_15  and  N3_16 
REMARK       I    between atoms: N3_16  and  C7_18 
REMARK    6  A    between atoms: C7_18  and  C8_20 
REMARK    7  A    between atoms: C11_26  and  N5_27 
REMARK    8  A    between atoms: C13_32  and  N6_33 
REMARK    9  A    between atoms: C14_37  and  O3_38 
REMARK   10  A    between atoms: C15_40  and  N7_41 
ROOT
HETATM    1  C4  UNL     1      -1.939  -0.549   0.150  1.00  0.00     0.187 C 
HETATM    2  C5  UNL     1      -0.563  -0.122   0.617  1.00  0.00     0.237 C 
HETATM    3  C6  UNL     1       0.545  -0.661  -0.233  1.00  0.00     0.119 C 
HETATM    4  C12 UNL     1       0.735  -2.103  -0.287  1.00  0.00     0.062 C 
HETATM    5  C13 UNL     1      -0.106  -2.978   0.574  1.00  0.00     0.216 C 
HETATM    6  C14 UNL     1      -1.566  -3.011   0.121  1.00  0.00     0.181 C 
HETATM    7  C15 UNL     1      -2.339  -1.885   0.727  1.00  0.00     0.244 C 
ENDROOT
BRANCH   3   8
HETATM    8  N3  UNL     1       1.767   0.019   0.172  1.00  0.00    -0.352 N 
HETATM    9  C7  UNL     1       2.450   0.940  -0.643  1.00  0.00     0.251 C 
HETATM   10  O2  UNL     1       2.007   1.206  -1.777  1.00  0.00    -0.271 OA
ATOM     11  H3  UNL     1       2.148  -0.183   1.096  1.00  0.00     0.163 HD
BRANCH   9  12
HETATM   12  C8  UNL     1       3.681   1.605  -0.193  1.00  0.00     0.307 C 
HETATM   13  N4  UNL     1       4.240   2.507  -1.147  1.00  0.00    -0.060 N 
HETATM   14  C9  UNL     1       5.537   2.833  -0.536  1.00  0.00     0.235 C 
ATOM     15  H42 UNL     1       4.289   2.150  -2.101  1.00  0.00     0.278 HD
ATOM     16  H41 UNL     1       3.656   3.311  -1.375  1.00  0.00     0.278 HD
HETATM   17  C10 UNL     1       6.017   1.542   0.088  1.00  0.00     0.063 C 
HETATM   18  C11 UNL     1       4.806   0.633   0.072  1.00  0.00     0.225 C 
BRANCH  18  19
HETATM   19  N5  UNL     1       4.967  -0.303  -1.005  1.00  0.00    -0.072 N 
ATOM     20  H53 UNL     1       4.094  -0.791  -1.206  1.00  0.00     0.274 HD
ATOM     21  H52 UNL     1       5.092   0.175  -1.897  1.00  0.00     0.274 HD
ATOM     22  H51 UNL     1       5.727  -0.960  -0.826  1.00  0.00     0.274 HD
ENDBRANCH  18  19
ENDBRANCH   9  12
ENDBRANCH   3   8
BRANCH   2  23
HETATM   23  N2  UNL     1      -0.387  -0.282   2.027  1.00  0.00    -0.070 N 
ATOM     24  H23 UNL     1      -1.118   0.206   2.545  1.00  0.00     0.274 HD
ATOM     25  H22 UNL     1      -0.591  -1.239   2.316  1.00  0.00     0.274 HD
ATOM     26  H21 UNL     1       0.540   0.006   2.342  1.00  0.00     0.274 HD
ENDBRANCH   2  23
BRANCH   1  27
HETATM   27  O1  UNL     1      -2.834   0.396   0.653  1.00  0.00    -0.376 OA
BRANCH  27  28
HETATM   28  C3  UNL     1      -3.564   1.014  -0.354  1.00  0.00     0.126 C 
HETATM   29  C2  UNL     1      -5.045   0.997   0.037  1.00  0.00     0.065 C 
HETATM   30  C1  UNL     1      -5.107   2.440  -0.467  1.00  0.00     0.188 C 
HETATM   31  C16 UNL     1      -3.604   2.516  -0.218  1.00  0.00     0.065 C 
BRANCH  30  32
HETATM   32  N1  UNL     1      -5.890   3.320   0.345  1.00  0.00    -0.075 N 
ATOM     33  H13 UNL     1      -6.831   2.946   0.468  1.00  0.00     0.274 HD
ATOM     34  H12 UNL     1      -5.564   3.295   1.311  1.00  0.00     0.274 HD
ATOM     35  H11 UNL     1      -5.931   4.282   0.009  1.00  0.00     0.274 HD
ENDBRANCH  30  32
ENDBRANCH  27  28
ENDBRANCH   1  27
BRANCH   5  36
HETATM   36  N6  UNL     1       0.372  -4.359   0.360  1.00  0.00    -0.072 N 
ATOM     37  H63 UNL     1       0.374  -4.639  -0.621  1.00  0.00     0.274 HD
ATOM     38  H62 UNL     1       1.372  -4.471   0.525  1.00  0.00     0.274 HD
ATOM     39  H61 UNL     1      -0.204  -4.959   0.950  1.00  0.00     0.274 HD
ENDBRANCH   5  36
BRANCH   7  40
HETATM   40  N7  UNL     1      -3.744  -2.096   0.421  1.00  0.00    -0.070 N 
ATOM     41  H73 UNL     1      -4.339  -1.332   0.742  1.00  0.00     0.274 HD
ATOM     42  H72 UNL     1      -3.949  -2.017  -0.575  1.00  0.00     0.274 HD
ATOM     43  H71 UNL     1      -4.014  -2.999   0.811  1.00  0.00     0.274 HD
ENDBRANCH   7  40
BRANCH   6  44
HETATM   44  O3  UNL     1      -1.631  -3.070  -1.249  1.00  0.00    -0.391 OA
ATOM     45  H3  UNL     1      -2.538  -3.091  -1.530  1.00  0.00     0.210 HD
ENDBRANCH   6  44
TORSDOF 10
