REMARK  7 active torsions:
REMARK  status: ('A' for Active; 'I' for Inactive)
REMARK    1  A    between atoms: C2_2  and  N1_3 
REMARK    2  A    between atoms: C2_2  and  C3_7 
REMARK    3  A    between atoms: C2_2  and  C4_10 
REMARK       I    between atoms: C4_10  and  N3_12 
REMARK       I    between atoms: N3_12  and  C5_14 
REMARK       I    between atoms: C5_14  and  N4_16 
REMARK    4  A    between atoms: N4_16  and  N5_18 
REMARK    5  A    between atoms: C6_19  and  O4_20 
REMARK    6  A    between atoms: C9_24  and  O5_25 
REMARK    7  A    between atoms: C10_27  and  C11_28 
ROOT
HETATM    1  N5  UNL     1      -1.506   0.089  -0.355  1.00  0.00    -0.206 N 
HETATM    2  C6  UNL     1      -1.891  -1.052  -0.914  1.00  0.00     0.172 A 
HETATM    3  C7  UNL     1      -3.305  -1.072  -1.005  1.00  0.00     0.033 A 
HETATM    4  C8  UNL     1      -3.754   0.091  -0.485  1.00  0.00     0.048 A 
HETATM    5  C9  UNL     1      -2.665   0.804  -0.087  1.00  0.00     0.173 A 
HETATM    6  C10 UNL     1      -5.250   0.137  -0.552  1.00  0.00     0.324 C 
HETATM    7  N6  UNL     1      -5.615  -1.051  -1.254  1.00  0.00    -0.053 N 
ATOM      8  H61 UNL     1      -6.083  -0.846  -2.137  1.00  0.00     0.279 HD
ATOM      9  H62 UNL     1      -6.378  -1.549  -0.795  1.00  0.00     0.279 HD
HETATM   10  C12 UNL     1      -4.463  -1.881  -1.435  1.00  0.00     0.277 C 
ENDROOT
BRANCH   1  11
HETATM   11  N4  UNL     1      -0.267   0.586  -0.035  1.00  0.00    -0.240 N 
HETATM   12  C5  UNL     1       1.034  -0.021  -0.268  1.00  0.00     0.342 C 
HETATM   13  N3  UNL     1       2.105   0.704   0.194  1.00  0.00    -0.275 N 
HETATM   14  O3  UNL     1       1.012  -1.104  -0.843  1.00  0.00    -0.245 OA
HETATM   15  C4  UNL     1       3.329  -0.412  -0.196  1.00  0.00     0.270 C 
ATOM     16  H3  UNL     1       2.152   1.623   0.633  1.00  0.00     0.173 HD
HETATM   17  O2  UNL     1       2.932  -1.396  -0.675  1.00  0.00    -0.270 OA
ATOM     18  H4  UNL     1      -0.258   1.497   0.425  1.00  0.00     0.192 HD
BRANCH  15  19
HETATM   19  C2  UNL     1       4.668  -0.009   0.102  1.00  0.00     0.276 C 
HETATM   20  C1  UNL     1       5.202   1.083  -0.829  1.00  0.00     0.067 C 
BRANCH  19  21
HETATM   21  N1  UNL     1       5.515  -1.203  -0.236  1.00  0.00    -0.053 N 
ATOM     22  H13 UNL     1       5.516  -1.454  -1.225  1.00  0.00     0.276 HD
ATOM     23  H12 UNL     1       6.520  -1.042  -0.166  1.00  0.00     0.276 HD
ATOM     24  H11 UNL     1       5.159  -1.930   0.384  1.00  0.00     0.276 HD
ENDBRANCH  19  21
BRANCH  19  25
HETATM   25  C3  UNL     1       4.988   0.274   1.518  1.00  0.00     0.276 C 
HETATM   26  N2  UNL     1       4.695   1.493   2.185  1.00  0.00    -0.059 NA
HETATM   27  O1  UNL     1       5.574  -0.634   2.199  1.00  0.00    -0.274 OA
ENDBRANCH  19  25
ENDBRANCH  15  19
ENDBRANCH   1  11
BRANCH   2  28
HETATM   28  O4  UNL     1      -1.143  -2.135  -1.380  1.00  0.00    -0.344 OA
ATOM     29  H4  UNL     1      -1.418  -2.951  -1.780  1.00  0.00     0.219 HD
ENDBRANCH   2  28
BRANCH   5  30
HETATM   30  O5  UNL     1      -2.668   2.062   0.505  1.00  0.00    -0.344 OA
ATOM     31  H5  UNL     1      -3.461   2.551   0.688  1.00  0.00     0.219 HD
ENDBRANCH   5  30
BRANCH   6  32
HETATM   32  C11 UNL     1      -5.743   0.212   0.836  1.00  0.00     0.209 C 
HETATM   33  O6  UNL     1      -6.448  -0.624   1.414  1.00  0.00    -0.646 OA
HETATM   34  O7  UNL     1      -5.364   1.353   1.564  1.00  0.00    -0.646 OA
ENDBRANCH   6  32
TORSDOF 7
