REMARK  8 active torsions:
REMARK  status: ('A' for Active; 'I' for Inactive)
REMARK    1  A    between atoms: C3_4  and  O1_5 
REMARK    2  A    between atoms: C4_7  and  N1_8 
REMARK    3  A    between atoms: C6_13  and  N2_14 
REMARK    4  A    between atoms: C7_18  and  O2_19 
REMARK    5  A    between atoms: O2_19  and  C8_20 
REMARK    6  A    between atoms: C10_22  and  N3_23 
REMARK    7  A    between atoms: C11_27  and  N4_28 
REMARK    8  A    between atoms: C12_32  and  N5_33 
REMARK       I    between atoms: N5_33  and  C13_35 
ROOT
HETATM    1  C8  UNL     1      -0.771  -0.335  -0.109  1.00  0.00     0.265 C 
HETATM    2  C9  UNL     1      -1.142  -1.804  -0.080  1.00  0.00     0.096 C 
HETATM    3  C10 UNL     1      -2.636  -1.991  -0.318  1.00  0.00     0.222 C 
HETATM    4  C11 UNL     1      -3.359  -1.053   0.600  1.00  0.00     0.262 C 
HETATM    5  C12 UNL     1      -2.895   0.351   0.283  1.00  0.00     0.260 C 
HETATM    6  O4  UNL     1      -1.858   0.353  -0.642  1.00  0.00    -0.335 OA
ENDROOT
BRANCH   1   7
HETATM    7  O2  UNL     1       0.371  -0.203  -0.852  1.00  0.00    -0.352 OA
BRANCH   7   8
HETATM    8  C7  UNL     1       1.443   0.351  -0.154  1.00  0.00     0.176 C 
HETATM    9  C2  UNL     1       2.528  -0.657  -0.102  1.00  0.00     0.071 C 
HETATM   10  C1  UNL     1       2.481  -1.605  -1.290  1.00  0.00     0.033 C 
HETATM   11  S1  UNL     1       2.272  -1.698   1.390  1.00  0.00    -0.082 SA
HETATM   12  C3  UNL     1       3.912  -0.112   0.005  1.00  0.00     0.170 C 
HETATM   13  C4  UNL     1       4.232   0.984  -0.946  1.00  0.00     0.215 C 
HETATM   14  C5  UNL     1       3.054   1.534  -1.679  1.00  0.00     0.070 C 
HETATM   15  C6  UNL     1       1.811   1.635  -0.843  1.00  0.00     0.216 C 
BRANCH  12  16
HETATM   16  O1  UNL     1       4.800  -1.187  -0.226  1.00  0.00    -0.392 OA
ATOM     17  H1  UNL     1       5.682  -0.840  -0.158  1.00  0.00     0.210 HD
ENDBRANCH  12  16
BRANCH  13  18
HETATM   18  N1  UNL     1       4.959   2.020  -0.207  1.00  0.00    -0.072 N 
ATOM     19  H13 UNL     1       4.455   2.346   0.617  1.00  0.00     0.274 HD
ATOM     20  H12 UNL     1       5.783   1.659   0.273  1.00  0.00     0.274 HD
ATOM     21  H11 UNL     1       5.179   2.772  -0.860  1.00  0.00     0.274 HD
ENDBRANCH  13  18
BRANCH  15  22
HETATM   22  N2  UNL     1       1.951   2.723   0.115  1.00  0.00    -0.072 N 
ATOM     23  H23 UNL     1       2.791   2.627   0.686  1.00  0.00     0.274 HD
ATOM     24  H22 UNL     1       2.182   3.607  -0.339  1.00  0.00     0.274 HD
ATOM     25  H21 UNL     1       1.107   2.792   0.683  1.00  0.00     0.274 HD
ENDBRANCH  15  22
ENDBRANCH   7   8
ENDBRANCH   1   7
BRANCH   3  26
HETATM   26  N3  UNL     1      -2.987  -3.369  -0.043  1.00  0.00    -0.073 N 
ATOM     27  H33 UNL     1      -2.422  -4.028  -0.579  1.00  0.00     0.274 HD
ATOM     28  H32 UNL     1      -2.702  -3.664   0.891  1.00  0.00     0.274 HD
ATOM     29  H31 UNL     1      -3.987  -3.494  -0.202  1.00  0.00     0.274 HD
ENDBRANCH   3  26
BRANCH   5  30
HETATM   30  N5  UNL     1      -4.026   1.068  -0.271  1.00  0.00    -0.317 N 
HETATM   31  C13 UNL     1      -4.565   2.209   0.398  1.00  0.00     0.330 C 
HETATM   32  N6  UNL     1      -5.661   2.940  -0.097  1.00  0.00    -0.040 NA
HETATM   33  O3  UNL     1      -4.033   2.577   1.481  1.00  0.00    -0.251 OA
ATOM     34  H5  UNL     1      -4.442   0.754  -1.148  1.00  0.00     0.166 HD
ENDBRANCH   5  30
BRANCH   4  35
HETATM   35  N4  UNL     1      -4.789  -1.213   0.344  1.00  0.00    -0.069 N 
ATOM     36  H43 UNL     1      -5.036  -1.081  -0.637  1.00  0.00     0.275 HD
ATOM     37  H42 UNL     1      -5.105  -2.179   0.431  1.00  0.00     0.275 HD
ATOM     38  H41 UNL     1      -5.281  -0.574   0.969  1.00  0.00     0.275 HD
ENDBRANCH   4  35
TORSDOF 8
