REMARK  7 active torsions:
REMARK  status: ('A' for Active; 'I' for Inactive)
REMARK    1  A    between atoms: N1_2  and  C2_4 
REMARK    2  A    between atoms: C3_7  and  N3_8 
REMARK    3  A    between atoms: C4_13  and  N5_14 
REMARK    4  A    between atoms: N5_14  and  C5_16 
REMARK    5  A    between atoms: C5_16  and  C6_17 
REMARK    6  A    between atoms: C6_17  and  N6_18 
REMARK    7  A    between atoms: C10_28  and  C11_29 
ROOT
HETATM    1  C6  UNL     1      -1.212  -1.701  -1.453  1.00  0.00     0.141 C 
ENDROOT
BRANCH   1   2
HETATM    2  C5  UNL     1       0.235  -1.274  -1.571  1.00  0.00     0.157 C 
BRANCH   2   3
HETATM    3  N5  UNL     1       0.838  -1.179  -0.257  1.00  0.00    -0.224 N 
ATOM      4  H5  UNL     1       0.280  -1.281   0.591  1.00  0.00     0.177 HD
BRANCH   3   5
HETATM    5  C4  UNL     1       2.124  -0.958  -0.200  1.00  0.00     0.707 A 
HETATM    6  N4  UNL     1       2.875  -0.820  -1.308  1.00  0.00    -0.022 N 
HETATM    7  C3  UNL     1       4.200  -0.592  -1.272  1.00  0.00     0.705 A 
ATOM      8  H4  UNL     1       2.418  -0.892  -2.217  1.00  0.00     0.203 HD
HETATM    9  N2  UNL     1       4.782  -0.500  -0.064  1.00  0.00    -0.022 N 
HETATM   10  C2  UNL     1       4.059  -0.633   1.081  1.00  0.00     0.706 A 
ATOM     11  H2  UNL     1       5.785  -0.327  -0.004  1.00  0.00     0.203 HD
HETATM   12  N14 UNL     1       2.745  -0.859   0.996  1.00  0.00    -0.022 N 
ATOM     13  H14 UNL     1       2.199  -0.959   1.852  1.00  0.00     0.203 HD
BRANCH   7  14
HETATM   14  N3  UNL     1       4.927  -0.459  -2.339  1.00  0.00    -0.234 N 
ATOM     15  H32 UNL     1       5.932  -0.286  -2.312  1.00  0.00     0.174 HD
ATOM     16  H31 UNL     1       4.485  -0.529  -3.256  1.00  0.00     0.174 HD
ENDBRANCH   7  14
BRANCH  10  17
HETATM   17  N1  UNL     1       4.692  -0.532   2.205  1.00  0.00    -0.229 N 
HETATM   18  C1  UNL     1       3.930  -0.672   3.425  1.00  0.00     0.165 C 
ATOM     19  H1  UNL     1       5.697  -0.359   2.229  1.00  0.00     0.177 HD
ENDBRANCH  10  17
ENDBRANCH   3   5
ENDBRANCH   2   3
ENDBRANCH   1   2
BRANCH   1  20
HETATM   20  N6  UNL     1      -1.928  -0.741  -0.678  1.00  0.00    -0.374 N 
HETATM   21  C7  UNL     1      -2.426   0.359  -1.096  1.00  0.00     0.119 A 
HETATM   22  N7  UNL     1      -2.326   0.755  -2.375  1.00  0.00    -0.338 N 
HETATM   23  C10 UNL     1      -3.089   1.144  -0.148  1.00  0.00     0.095 A 
HETATM   24  C8  UNL     1      -2.870   1.925  -2.758  1.00  0.00     0.183 A 
ATOM     25  H7  UNL     1      -1.839   0.171  -3.055  1.00  0.00     0.168 HD
HETATM   26  N8  UNL     1      -3.522   2.712  -1.864  1.00  0.00    -0.340 N 
HETATM   27  C9  UNL     1      -3.631   2.336  -0.589  1.00  0.00     0.135 A 
ATOM     28  H8  UNL     1      -3.931   3.595  -2.169  1.00  0.00     0.167 HD
HETATM   29  N9  UNL     1      -4.305   3.122   0.399  1.00  0.00    -0.082 NA
ATOM     30  H6  UNL     1      -2.056  -0.955   0.311  1.00  0.00     0.161 HD
BRANCH  23  31
HETATM   31  C11 UNL     1      -3.187   0.697   1.237  1.00  0.00     0.148 A 
HETATM   32  N10 UNL     1      -2.324   0.946   2.249  1.00  0.00    -0.269 N 
HETATM   33  N11 UNL     1      -2.748   0.375   3.365  1.00  0.00    -0.007 NA
ATOM     34  H10 UNL     1      -1.469   1.495   2.164  1.00  0.00     0.185 HD
HETATM   35  N12 UNL     1      -3.891  -0.249   3.082  1.00  0.00    -0.007 NA
HETATM   36  N13 UNL     1      -4.157  -0.054   1.792  1.00  0.00    -0.269 N 
ATOM     37  H13 UNL     1      -4.972  -0.418   1.299  1.00  0.00     0.185 HD
ENDBRANCH  23  31
ENDBRANCH   1  20
TORSDOF 7
