REMARK  8 active torsions:
REMARK  status: ('A' for Active; 'I' for Inactive)
REMARK    1  A    between atoms: N1_1  and  C1_4 
REMARK    2  A    between atoms: C3_10  and  N4_11 
REMARK    3  A    between atoms: N5_14  and  C6_15 
REMARK    4  A    between atoms: C7_18  and  N7_19 
REMARK    5  A    between atoms: C8_24  and  N9_25 
REMARK    6  A    between atoms: N9_25  and  C9_27 
REMARK    7  A    between atoms: C9_27  and  C10_28 
REMARK    8  A    between atoms: C10_28  and  O1_29 
ROOT
HETATM    1  N4  UNL     1       2.897   0.241  -0.028  1.00  0.00    -0.214 N 
HETATM    2  C4  UNL     1       2.219  -0.432   1.059  1.00  0.00     0.161 C 
HETATM    3  C5  UNL     1       0.722  -0.184   1.026  1.00  0.00     0.161 C 
HETATM    4  N5  UNL     1       0.217  -0.395  -0.302  1.00  0.00    -0.214 N 
HETATM    5  C11 UNL     1       1.128  -0.433  -1.438  1.00  0.00     0.161 C 
HETATM    6  C12 UNL     1       2.129   0.705  -1.162  1.00  0.00     0.161 C 
ENDROOT
BRANCH   4   7
HETATM    7  C6  UNL     1      -1.166  -0.560  -0.544  1.00  0.00     0.709 A 
HETATM    8  N6  UNL     1      -1.604  -0.768  -1.806  1.00  0.00    -0.022 N 
HETATM    9  C7  UNL     1      -2.909  -0.928  -2.078  1.00  0.00     0.705 A 
ATOM     10  H6  UNL     1      -0.928  -0.804  -2.569  1.00  0.00     0.203 HD
HETATM   11  N8  UNL     1      -3.789  -0.876  -1.046  1.00  0.00    -0.022 N 
HETATM   12  C8  UNL     1      -3.343  -0.666   0.222  1.00  0.00     0.707 A 
ATOM     13  H8  UNL     1      -4.787  -0.995  -1.221  1.00  0.00     0.203 HD
HETATM   14  N10 UNL     1      -2.038  -0.508   0.477  1.00  0.00    -0.021 N 
ATOM     15  H10 UNL     1      -1.711  -0.351   1.430  1.00  0.00     0.203 HD
BRANCH   9  16
HETATM   16  N7  UNL     1      -3.339  -1.132  -3.278  1.00  0.00    -0.234 N 
ATOM     17  H72 UNL     1      -2.678  -1.171  -4.054  1.00  0.00     0.174 HD
ATOM     18  H71 UNL     1      -4.330  -1.254  -3.485  1.00  0.00     0.174 HD
ENDBRANCH   9  16
BRANCH  12  19
HETATM   19  N9  UNL     1      -4.189  -0.622   1.204  1.00  0.00    -0.223 N 
ATOM     20  H9  UNL     1      -3.811  -0.463   2.138  1.00  0.00     0.177 HD
BRANCH  19  21
HETATM   21  C9  UNL     1      -5.608  -0.778   1.090  1.00  0.00     0.164 C 
BRANCH  21  22
HETATM   22  C10 UNL     1      -6.268   0.524   0.791  1.00  0.00     0.184 C 
BRANCH  22  23
HETATM   23  O1  UNL     1      -6.044   1.470   1.768  1.00  0.00    -0.399 OA
ATOM     24  H1  UNL     1      -6.465   2.300   1.577  1.00  0.00     0.209 HD
ENDBRANCH  22  23
ENDBRANCH  21  22
ENDBRANCH  19  21
ENDBRANCH  12  19
ENDBRANCH   4   7
BRANCH   1  25
HETATM   25  C3  UNL     1       4.293   0.459  -0.005  1.00  0.00     0.695 A 
HETATM   26  N3  UNL     1       5.124  -0.609  -0.121  1.00  0.00    -0.187 N 
HETATM   27  C2  UNL     1       6.455  -0.434  -0.109  1.00  0.00     0.215 A 
ATOM     28  H3  UNL     1       4.736  -1.547  -0.218  1.00  0.00     0.185 HD
HETATM   29  N2  UNL     1       6.961   0.807   0.016  1.00  0.00    -0.187 N 
HETATM   30  C1  UNL     1       6.129   1.874   0.130  1.00  0.00     0.691 A 
ATOM     31  H2  UNL     1       7.971   0.946   0.025  1.00  0.00     0.185 HD
HETATM   32  N11 UNL     1       4.805   1.709   0.121  1.00  0.00    -0.022 N 
ATOM     33  H11 UNL     1       4.185   2.514   0.208  1.00  0.00     0.203 HD
BRANCH  30  34
HETATM   34  N1  UNL     1       6.705   3.018   0.239  1.00  0.00    -0.234 N 
ATOM     35  H12 UNL     1       7.717   3.144   0.246  1.00  0.00     0.174 HD
ATOM     36  H11 UNL     1       6.080   3.820   0.325  1.00  0.00     0.174 HD
ENDBRANCH  30  34
ENDBRANCH   1  25
TORSDOF 8
