REMARK  8 active torsions:
REMARK  status: ('A' for Active; 'I' for Inactive)
REMARK    1  A    between atoms: N1_2  and  C3_4 
REMARK    2  A    between atoms: C6_13  and  N5_14 
REMARK    3  A    between atoms: N5_14  and  C7_16 
REMARK    4  A    between atoms: C7_16  and  O1_17 
REMARK    5  A    between atoms: C7_16  and  C8_21 
REMARK    6  A    between atoms: O1_17  and  N6_18 
REMARK       I    between atoms: C8_21  and  N7_23 
REMARK    7  A    between atoms: N7_23  and  N8_25 
REMARK    8  A    between atoms: C9_28  and  N9_29 
REMARK       I    between atoms: N9_29  and  C10_31 
ROOT
HETATM    1  C3  UNL     1      -3.344   0.755  -0.810  1.00  0.00     0.134 A 
HETATM    2  N2  UNL     1      -3.718   0.818  -2.119  1.00  0.00    -0.337 N 
ATOM      3  H2  UNL     1      -4.677   1.067  -2.363  1.00  0.00     0.168 HD
HETATM    4  C4  UNL     1      -2.828   0.553  -3.088  1.00  0.00     0.183 A 
HETATM    5  N3  UNL     1      -1.555   0.219  -2.825  1.00  0.00    -0.337 N 
ATOM      6  H3  UNL     1      -0.903   0.023  -3.584  1.00  0.00     0.168 HD
HETATM    7  C5  UNL     1      -1.155   0.147  -1.547  1.00  0.00     0.139 A 
HETATM    8  N4  UNL     1       0.099  -0.188  -1.210  1.00  0.00    -0.324 N 
ATOM      9  H4  UNL     1       0.762  -0.387  -1.959  1.00  0.00     0.169 HD
HETATM   10  C6  UNL     1       0.538  -0.278   0.078  1.00  0.00     0.150 A 
HETATM   11  C9  UNL     1      -0.359  -0.011   1.074  1.00  0.00     0.154 A 
HETATM   12  N11 UNL     1      -1.662   0.338   0.773  1.00  0.00    -0.333 N 
ATOM     13  H11 UNL     1      -2.326   0.536   1.522  1.00  0.00     0.168 HD
HETATM   14  C11 UNL     1      -2.045   0.414  -0.498  1.00  0.00     0.123 A 
ENDROOT
BRANCH  10  15
HETATM   15  N5  UNL     1       1.730  -0.597   0.346  1.00  0.00    -0.337 N 
ATOM     16  H5  UNL     1       1.957  -0.637   1.340  1.00  0.00     0.164 HD
BRANCH  15  17
HETATM   17  C7  UNL     1       2.803  -0.909  -0.536  1.00  0.00     0.346 C 
BRANCH  17  18
HETATM   18  O1  UNL     1       3.606  -1.863   0.107  1.00  0.00    -0.251 OA
BRANCH  18  19
HETATM   19  N6  UNL     1       3.691  -3.023  -0.539  1.00  0.00    -0.308 N 
ATOM     20  H62 UNL     1       3.209  -3.188  -1.423  1.00  0.00     0.184 HD
ATOM     21  H61 UNL     1       4.275  -3.717  -0.072  1.00  0.00     0.184 HD
ENDBRANCH  18  19
ENDBRANCH  17  18
BRANCH  17  22
HETATM   22  C8  UNL     1       3.644   0.242  -0.890  1.00  0.00     0.286 C 
HETATM   23  O2  UNL     1       3.131   1.223  -1.478  1.00  0.00    -0.267 OA
HETATM   24  N7  UNL     1       5.016   0.255  -0.577  1.00  0.00    -0.273 N 
ATOM     25  H7  UNL     1       5.418  -0.551  -0.098  1.00  0.00     0.189 HD
BRANCH  24  26
HETATM   26  N8  UNL     1       5.851   1.335  -0.899  1.00  0.00    -0.342 N 
ATOM     27  H82 UNL     1       5.432   2.133  -1.378  1.00  0.00     0.176 HD
ATOM     28  H81 UNL     1       6.845   1.344  -0.672  1.00  0.00     0.176 HD
ENDBRANCH  24  26
ENDBRANCH  17  22
ENDBRANCH  15  17
ENDBRANCH  10  15
BRANCH  11  29
HETATM   29  N9  UNL     1      -0.077  -0.060   2.315  1.00  0.00    -0.294 N 
HETATM   30  C10 UNL     1       1.166  -0.387   2.840  1.00  0.00     0.334 C 
HETATM   31  N10 UNL     1       1.530  -1.734   3.185  1.00  0.00    -0.040 NA
HETATM   32  O3  UNL     1       2.034   0.540   3.033  1.00  0.00    -0.251 OA
ATOM     33  H9  UNL     1      -0.823   0.158   2.975  1.00  0.00     0.172 HD
ENDBRANCH  11  29
BRANCH   1  34
HETATM   34  N1  UNL     1      -4.257   1.059   0.228  1.00  0.00    -0.374 N 
HETATM   35  C1  UNL     1      -4.110   2.277   0.999  1.00  0.00     0.150 C 
HETATM   36  C2  UNL     1      -5.355   0.174   0.549  1.00  0.00     0.150 C 
ENDBRANCH   1  34
TORSDOF 8
