REMARK  0 active torsions:
REMARK  status: ('A' for Active; 'I' for Inactive)
ROOT
HETATM    1  O1  UNL     1      -2.010  -1.861   0.910  1.00  0.00    -0.263 OA
HETATM    2  C1  UNL     1      -1.438  -0.880   0.423  1.00  0.00     0.305 A 
HETATM    3  N1  UNL     1      -1.944   0.229  -0.145  1.00  0.00    -0.246 N 
ATOM      4  H1  UNL     1      -2.934   0.441  -0.267  1.00  0.00     0.187 HD
HETATM    5  N2  UNL     1      -0.933   0.996  -0.517  1.00  0.00    -0.006 NA
HETATM    6  N3  UNL     1       0.227   0.415  -0.206  1.00  0.00    -0.165 N 
HETATM    7  C2  UNL     1       1.559   0.547  -0.253  1.00  0.00     0.360 A 
HETATM    8  O2  UNL     1       2.168   1.533  -0.742  1.00  0.00    -0.243 OA
HETATM    9  N4  UNL     1       2.129  -0.533   0.301  1.00  0.00    -0.248 N 
ATOM     10  H4  UNL     1       3.127  -0.714   0.407  1.00  0.00     0.192 HD
HETATM   11  N5  UNL     1       1.136  -1.314   0.681  1.00  0.00    -0.276 N 
ATOM     12  H5  UNL     1       1.253  -2.217   1.140  1.00  0.00     0.189 HD
HETATM   13  C3  UNL     1      -0.049  -0.760   0.383  1.00  0.00     0.215 A 
ENDROOT
TORSDOF 0
