REMARK  2 active torsions:
REMARK  status: ('A' for Active; 'I' for Inactive)
REMARK    1  A    between atoms: N1_1  and  N2_4 
REMARK    2  A    between atoms: N2_4  and  C1_6 
ROOT
HETATM    1  C1  UNL     1       0.761  -0.621   0.182  1.00  0.00     0.702 A 
HETATM    2  N3  UNL     1      -0.477  -1.115   0.014  1.00  0.00    -0.162 N 
ATOM      3  H3  UNL     1      -0.596  -2.125  -0.064  1.00  0.00     0.187 HD
HETATM    4  C2  UNL     1      -1.569  -0.325  -0.055  1.00  0.00     0.210 A 
HETATM    5  N4  UNL     1      -2.866  -0.873  -0.233  1.00  0.00    -0.062 NA
HETATM    6  N5  UNL     1      -1.447   1.010   0.047  1.00  0.00    -0.282 N 
ATOM      7  H5  UNL     1      -2.266   1.617  -0.003  1.00  0.00     0.173 HD
HETATM    8  C3  UNL     1      -0.212   1.525   0.217  1.00  0.00     0.341 A 
HETATM    9  O1  UNL     1      -0.059   2.764   0.315  1.00  0.00    -0.246 OA
HETATM   10  N6  UNL     1       0.885   0.714   0.284  1.00  0.00    -0.140 N 
ATOM     11  H6  UNL     1       1.809   1.126   0.413  1.00  0.00     0.189 HD
ENDROOT
BRANCH   1  12
HETATM   12  N2  UNL     1       1.808  -1.377   0.248  1.00  0.00    -0.138 N 
ATOM     13  H2  UNL     1       1.679  -2.386   0.168  1.00  0.00     0.205 HD
BRANCH  12  14
HETATM   14  N1  UNL     1       3.086  -0.897   0.420  1.00  0.00    -0.331 N 
ATOM     15  H12 UNL     1       3.196   0.114   0.498  1.00  0.00     0.177 HD
ATOM     16  H11 UNL     1       3.912  -1.493   0.472  1.00  0.00     0.177 HD
ENDBRANCH  12  14
ENDBRANCH   1  12
TORSDOF 2
