REMARK  0 active torsions:
REMARK  status: ('A' for Active; 'I' for Inactive)
ROOT
HETATM    1  O1  UNL     1      -2.356  -1.778  -0.194  1.00  0.00    -0.247 OA
HETATM    2  C1  UNL     1      -1.460  -0.871  -0.100  1.00  0.00     0.328 A 
HETATM    3  N1  UNL     1      -1.782   0.422   0.004  1.00  0.00    -0.273 N 
ATOM      4  H1  UNL     1      -2.766   0.690   0.008  1.00  0.00     0.173 HD
HETATM    5  C2  UNL     1      -0.844   1.379   0.103  1.00  0.00     0.281 A 
HETATM    6  O2  UNL     1      -1.190   2.564   0.198  1.00  0.00    -0.265 OA
HETATM    7  C3  UNL     1       0.473   0.955   0.090  1.00  0.00     0.160 A 
HETATM    8  N2  UNL     1       1.631   1.633   0.169  1.00  0.00    -0.276 N 
ATOM      9  H2  UNL     1       1.718   2.645   0.258  1.00  0.00     0.184 HD
HETATM   10  N3  UNL     1       2.645   0.774   0.113  1.00  0.00    -0.020 NA
HETATM   11  N4  UNL     1       2.199  -0.465  -0.000  1.00  0.00    -0.267 N 
ATOM     12  H4  UNL     1       2.758  -1.316  -0.062  1.00  0.00     0.186 HD
HETATM   13  C4  UNL     1       0.836  -0.372  -0.017  1.00  0.00     0.156 A 
HETATM   14  N5  UNL     1      -0.164  -1.266  -0.111  1.00  0.00    -0.291 N 
ATOM     15  H5  UNL     1       0.057  -2.259  -0.192  1.00  0.00     0.172 HD
ENDROOT
TORSDOF 0
