REMARK  0 active torsions:
REMARK  status: ('A' for Active; 'I' for Inactive)
REMARK       I    between atoms: N1_1  and  C1_4 
ROOT
HETATM    1  N1  UNL     1       2.443  -1.098   0.473  1.00  0.00    -0.234 N 
ATOM      2  H11 UNL     1       3.079  -0.441   0.924  1.00  0.00     0.174 HD
ATOM      3  H12 UNL     1       2.622  -2.082   0.273  1.00  0.00     0.174 HD
HETATM    4  C1  UNL     1       1.282  -0.667   0.107  1.00  0.00     0.679 C 
HETATM    5  N2  UNL     1       0.443  -1.534  -0.488  1.00  0.00    -0.197 N 
ATOM      6  H2  UNL     1       0.851  -2.421  -0.783  1.00  0.00     0.183 HD
HETATM    7  C2  UNL     1      -0.882  -1.371  -0.744  1.00  0.00     0.180 C 
HETATM    8  C3  UNL     1      -1.664  -0.256  -0.521  1.00  0.00     0.265 C 
HETATM    9  O1  UNL     1      -2.877  -0.455  -0.792  1.00  0.00    -0.267 OA
HETATM   10  N3  UNL     1      -1.329   0.954  -0.078  1.00  0.00    -0.274 N 
ATOM     11  H3  UNL     1      -2.046   1.677  -0.132  1.00  0.00     0.173 HD
HETATM   12  C4  UNL     1      -0.130   1.321   0.438  1.00  0.00     0.341 C 
HETATM   13  O2  UNL     1      -0.073   2.406   1.046  1.00  0.00    -0.246 OA
HETATM   14  N4  UNL     1       1.045   0.633   0.371  1.00  0.00    -0.141 N 
ATOM     15  H4  UNL     1       1.879   1.192   0.549  1.00  0.00     0.189 HD
ENDROOT
TORSDOF 0
