REMARK  0 active torsions:
REMARK  status: ('A' for Active; 'I' for Inactive)
ROOT
HETATM    1  N1  UNL     1      -1.486  -1.521   0.318  1.00  0.00    -0.080 NA
HETATM    2  C1  UNL     1      -0.341  -0.730   0.082  1.00  0.00     0.150 A 
HETATM    3  N2  UNL     1       0.856  -1.304  -0.143  1.00  0.00    -0.295 N 
ATOM      4  H2  UNL     1       0.943  -2.320  -0.144  1.00  0.00     0.172 HD
HETATM    5  C2  UNL     1       1.937  -0.535  -0.367  1.00  0.00     0.328 A 
HETATM    6  O1  UNL     1       3.064  -1.072  -0.579  1.00  0.00    -0.247 OA
HETATM    7  N3  UNL     1       1.808   0.795  -0.362  1.00  0.00    -0.274 N 
ATOM      8  H3  UNL     1       2.632   1.371  -0.533  1.00  0.00     0.173 HD
HETATM    9  C3  UNL     1       0.621   1.401  -0.138  1.00  0.00     0.277 A 
HETATM   10  O2  UNL     1       0.540   2.648  -0.141  1.00  0.00    -0.266 OA
HETATM   11  C4  UNL     1      -0.510   0.645   0.095  1.00  0.00     0.155 A 
HETATM   12  N4  UNL     1      -1.768   1.259   0.332  1.00  0.00    -0.093 NA
ENDROOT
TORSDOF 0
