REMARK  0 active torsions:
REMARK  status: ('A' for Active; 'I' for Inactive)
ROOT
HETATM    1  N1  UNL     1      -1.544  -1.484  -0.211  1.00  0.00    -0.079 NA
HETATM    2  C1  UNL     1      -0.355  -0.720  -0.087  1.00  0.00     0.160 A 
HETATM    3  N2  UNL     1       0.860  -1.323  -0.089  1.00  0.00    -0.304 N 
ATOM      4  H2  UNL     1       0.954  -2.335  -0.179  1.00  0.00     0.170 HD
HETATM    5  C2  UNL     1       1.936  -0.523   0.034  1.00  0.00     0.315 A 
HETATM    6  O1  UNL     1       3.079  -1.045   0.037  1.00  0.00    -0.262 OA
HETATM    7  C3  UNL     1       1.849   0.850   0.157  1.00  0.00     0.315 A 
HETATM    8  O2  UNL     1       2.881   1.566   0.270  1.00  0.00    -0.262 OA
HETATM    9  N3  UNL     1       0.618   1.388   0.152  1.00  0.00    -0.304 N 
ATOM     10  H3  UNL     1       0.525   2.400   0.242  1.00  0.00     0.170 HD
HETATM   11  C4  UNL     1      -0.490   0.650   0.034  1.00  0.00     0.160 A 
HETATM   12  N4  UNL     1      -1.790   1.237   0.030  1.00  0.00    -0.079 NA
ENDROOT
TORSDOF 0
