REMARK  3 active torsions:
REMARK  status: ('A' for Active; 'I' for Inactive)
REMARK       I    between atoms: C1_4  and  N3_6 
REMARK    1  A    between atoms: C2_8  and  O1_10 
REMARK    2  A    between atoms: O1_10  and  N5_11 
REMARK    3  A    between atoms: N6_13  and  N7_15 
ROOT
HETATM    1  N1  UNL     1      -2.594   1.364  -0.867  1.00  0.00    -0.373 N 
ATOM      2  H11 UNL     1      -2.318   2.200  -0.352  1.00  0.00     0.158 HD
ATOM      3  H12 UNL     1      -3.495   1.346  -1.344  1.00  0.00     0.158 HD
HETATM    4  C1  UNL     1      -1.805   0.348  -0.907  1.00  0.00     0.188 C 
HETATM    5  N2  UNL     1      -2.190  -0.816  -1.625  1.00  0.00    -0.064 NA
HETATM    6  N3  UNL     1      -0.561   0.373  -0.249  1.00  0.00    -0.297 N 
ATOM      7  H3  UNL     1       0.228   0.767  -0.762  1.00  0.00     0.171 HD
HETATM    8  C2  UNL     1      -0.332  -0.053   0.932  1.00  0.00     0.260 C 
HETATM    9  N4  UNL     1      -1.334  -0.626   1.767  1.00  0.00    -0.054 NA
ENDROOT
BRANCH   8  10
HETATM   10  O1  UNL     1       0.987   0.068   1.399  1.00  0.00    -0.187 OA
BRANCH  10  11
HETATM   11  N5  UNL     1       1.997  -0.006   0.461  1.00  0.00    -0.185 N 
HETATM   12  N6  UNL     1       3.143   0.445   0.704  1.00  0.00    -0.229 N 
ATOM     13  H6  UNL     1       3.363   0.879   1.600  1.00  0.00     0.209 HD
ATOM     14  H5  UNL     1       1.809  -0.435  -0.445  1.00  0.00     0.218 HD
BRANCH  12  15
HETATM   15  N7  UNL     1       4.109   0.328  -0.307  1.00  0.00    -0.329 N 
ATOM     16  H72 UNL     1       3.873  -0.109  -1.198  1.00  0.00     0.178 HD
ATOM     17  H71 UNL     1       5.040   0.694  -0.110  1.00  0.00     0.178 HD
ENDBRANCH  12  15
ENDBRANCH  10  11
ENDBRANCH   8  10
TORSDOF 3
