REMARK  2 active torsions:
REMARK  status: ('A' for Active; 'I' for Inactive)
REMARK    1  A    between atoms: N2_5  and  N3_6 
REMARK    2  A    between atoms: N4_10  and  N5_12 
ROOT
HETATM    1  N1  UNL     1       4.522   0.388   0.481  1.00  0.00    -0.190 NA
HETATM    2  C1  UNL     1       3.398   0.173   0.294  1.00  0.00     0.120 C 
HETATM    3  C2  UNL     1       1.993  -0.098   0.036  1.00  0.00     0.147 A 
HETATM    4  C3  UNL     1       1.040   0.641   0.554  1.00  0.00     0.177 A 
HETATM    5  N2  UNL     1      -0.350   0.412   0.327  1.00  0.00    -0.099 N 
HETATM    6  C4  UNL     1      -0.744  -0.670  -0.501  1.00  0.00     0.731 A 
HETATM    7  N4  UNL     1      -1.996  -0.914  -0.734  1.00  0.00    -0.136 N 
ATOM      8  H4  UNL     1      -2.271  -1.694  -1.331  1.00  0.00     0.205 HD
HETATM    9  N6  UNL     1       0.273  -1.506  -1.091  1.00  0.00    -0.128 N 
ATOM     10  H6  UNL     1       0.038  -2.295  -1.694  1.00  0.00     0.205 HD
HETATM   11  N7  UNL     1       1.591  -1.178  -0.793  1.00  0.00    -0.275 N 
ATOM     12  H7  UNL     1       2.325  -1.757  -1.201  1.00  0.00     0.188 HD
ENDROOT
BRANCH   5  13
HETATM   13  N3  UNL     1      -1.319   1.243   0.915  1.00  0.00    -0.324 N 
ATOM     14  H32 UNL     1      -1.036   2.021   1.510  1.00  0.00     0.178 HD
ATOM     15  H31 UNL     1      -2.313   1.079   0.753  1.00  0.00     0.178 HD
ENDBRANCH   5  13
BRANCH   7  16
HETATM   16  N5  UNL     1      -2.955  -0.094  -0.155  1.00  0.00    -0.331 N 
ATOM     17  H52 UNL     1      -2.664   0.682   0.440  1.00  0.00     0.177 HD
ATOM     18  H51 UNL     1      -3.940  -0.286  -0.338  1.00  0.00     0.177 HD
ENDBRANCH   7  16
TORSDOF 2
