REMARK  23 active torsions:
REMARK  status: ('A' for Active; 'I' for Inactive)
REMARK    1  A    between atoms: C2_2  and  O1_3 
REMARK    2  A    between atoms: O1_3  and  C3_4 
REMARK    3  A    between atoms: C3_4  and  C4_6 
REMARK    4  A    between atoms: C4_6  and  O3_7 
REMARK    5  A    between atoms: C4_6  and  C27_53 
REMARK    6  A    between atoms: O3_7  and  C5_8 
REMARK    7  A    between atoms: C5_8  and  O4_9 
REMARK    8  A    between atoms: O4_9  and  C6_10 
REMARK    9  A    between atoms: C6_10  and  C7_12 
REMARK   10  A    between atoms: C7_12  and  O6_13 
REMARK   11  A    between atoms: C7_12  and  C16_31 
REMARK   12  A    between atoms: O6_13  and  C8_14 
REMARK   13  A    between atoms: C8_14  and  C9_16 
REMARK   14  A    between atoms: C9_16  and  C10_17 
REMARK   15  A    between atoms: C11_18  and  O8_19 
REMARK   16  A    between atoms: C13_21  and  O9_22 
REMARK   17  A    between atoms: C17_32  and  O12_33 
REMARK   18  A    between atoms: C19_36  and  O13_37 
REMARK   19  A    between atoms: C23_43  and  O15_44 
REMARK   20  A    between atoms: C24_46  and  O16_47 
REMARK   21  A    between atoms: C25_49  and  O17_50 
REMARK   22  A    between atoms: C27_53  and  O18_54 
REMARK   23  A    between atoms: C27_53  and  O19_56 
ROOT
HETATM    1  C7  UNL     1      -0.958  -0.549   0.180  1.00  0.00     0.271 C 
ENDROOT
BRANCH   1   2
HETATM    2  C6  UNL     1       0.439  -0.729   0.658  1.00  0.00     0.295 C 
HETATM    3  O5  UNL     1       1.112   0.129   1.245  1.00  0.00    -0.262 OA
BRANCH   2   4
HETATM    4  O4  UNL     1       1.101  -1.964   0.451  1.00  0.00    -0.293 OA
BRANCH   4   5
HETATM    5  C5  UNL     1       2.429  -2.156   0.894  1.00  0.00     0.349 C 
BRANCH   5   6
HETATM    6  O3  UNL     1       3.233  -1.235   0.255  1.00  0.00    -0.346 OA
BRANCH   6   7
HETATM    7  C4  UNL     1       4.563  -1.275   0.560  1.00  0.00     0.278 C 
BRANCH   7   8
HETATM    8  C3  UNL     1       5.091  -0.044   1.205  1.00  0.00     0.293 C 
HETATM    9  O2  UNL     1       6.334  -0.010   1.507  1.00  0.00    -0.262 OA
BRANCH   8  10
HETATM   10  O1  UNL     1       4.349   1.058   1.501  1.00  0.00    -0.320 OA
BRANCH  10  11
HETATM   11  C2  UNL     1       4.925   2.176   2.107  1.00  0.00     0.174 C 
HETATM   12  C1  UNL     1       6.026   2.798   1.289  1.00  0.00     0.034 C 
ENDBRANCH  10  11
ENDBRANCH   8  10
ENDBRANCH   7   8
BRANCH   7  13
HETATM   13  C27 UNL     1       5.428  -1.698  -0.614  1.00  0.00     0.292 C 
BRANCH  13  14
HETATM   14  O18 UNL     1       5.283  -0.810  -1.688  1.00  0.00    -0.368 OA
ATOM     15  H18 UNL     1       5.824  -1.075  -2.423  1.00  0.00     0.212 HD
ENDBRANCH  13  14
BRANCH  13  16
HETATM   16  O19 UNL     1       6.777  -1.655  -0.256  1.00  0.00    -0.368 OA
ATOM     17  H19 UNL     1       7.318  -1.920  -0.991  1.00  0.00     0.212 HD
ENDBRANCH  13  16
ENDBRANCH   7  13
ENDBRANCH   6   7
ENDBRANCH   5   6
ENDBRANCH   4   5
ENDBRANCH   2   4
ENDBRANCH   1   2
BRANCH   1  18
HETATM   18  O6  UNL     1      -1.447  -1.678  -0.467  1.00  0.00    -0.300 OA
BRANCH  18  19
HETATM   19  C8  UNL     1      -2.455  -2.501   0.073  1.00  0.00     0.265 C 
HETATM   20  O7  UNL     1      -2.897  -2.161   1.180  1.00  0.00    -0.265 OA
BRANCH  19  21
HETATM   21  C9  UNL     1      -2.928  -3.685  -0.666  1.00  0.00     0.173 C 
BRANCH  21  22
HETATM   22  C10 UNL     1      -4.023  -4.368   0.051  1.00  0.00     0.082 A 
HETATM   23  C11 UNL     1      -5.361  -3.994   0.058  1.00  0.00     0.129 A 
HETATM   24  C13 UNL     1      -6.065  -4.894   0.866  1.00  0.00     0.136 A 
HETATM   25  C14 UNL     1      -5.122  -5.786   1.323  1.00  0.00     0.171 A 
HETATM   26  C15 UNL     1      -4.955  -6.907   2.109  1.00  0.00     0.338 A 
HETATM   27  N2  UNL     1      -3.919  -5.474   0.840  1.00  0.00    -0.228 N 
HETATM   28  O10 UNL     1      -5.831  -7.539   2.757  1.00  0.00    -0.255 OA
HETATM   29  O11 UNL     1      -3.690  -7.218   2.070  1.00  0.00    -0.177 OA
HETATM   30  N1  UNL     1      -3.089  -6.369   1.321  1.00  0.00    -0.191 N 
ATOM     31  H1  UNL     1      -2.089  -6.387   1.123  1.00  0.00     0.217 HD
BRANCH  23  32
HETATM   32  O8  UNL     1      -6.003  -2.952  -0.574  1.00  0.00    -0.351 OA
HETATM   33  C12 UNL     1      -6.220  -1.669  -0.048  1.00  0.00     0.210 C 
ENDBRANCH  23  32
BRANCH  24  34
HETATM   34  O9  UNL     1      -7.408  -4.892   1.149  1.00  0.00    -0.356 OA
ATOM     35  H9  UNL     1      -7.886  -5.503   1.697  1.00  0.00     0.218 HD
ENDBRANCH  24  34
ENDBRANCH  21  22
ENDBRANCH  19  21
ENDBRANCH  18  19
ENDBRANCH   1  18
BRANCH   1  36
HETATM   36  C16 UNL     1      -1.109   0.714  -0.507  1.00  0.00     0.065 C 
HETATM   37  C17 UNL     1      -1.669   0.676  -1.769  1.00  0.00     0.081 C 
HETATM   38  C18 UNL     1      -1.494   1.607  -2.793  1.00  0.00     0.074 C 
HETATM   39  C19 UNL     1      -0.831   2.801  -2.783  1.00  0.00     0.075 C 
HETATM   40  C20 UNL     1      -0.238   3.455  -1.703  1.00  0.00    -0.009 C 
HETATM   41  C21 UNL     1      -0.145   2.991  -0.408  1.00  0.00     0.033 C 
HETATM   42  C26 UNL     1       0.293   4.752  -2.143  1.00  0.00     0.076 C 
HETATM   43  C22 UNL     1      -0.731   1.882   0.137  1.00  0.00     0.193 C 
HETATM   44  C23 UNL     1       0.673   3.741   0.577  1.00  0.00     0.187 C 
HETATM   45  O14 UNL     1      -0.950   1.944   1.372  1.00  0.00    -0.287 OA
HETATM   46  C24 UNL     1       0.433   5.222   0.281  1.00  0.00     0.180 C 
HETATM   47  C25 UNL     1       1.036   5.497  -1.078  1.00  0.00     0.154 C 
BRANCH  37  48
HETATM   48  O12 UNL     1      -2.489  -0.374  -2.087  1.00  0.00    -0.360 OA
ATOM     49  H12 UNL     1      -2.874  -0.400  -2.955  1.00  0.00     0.217 HD
ENDBRANCH  37  48
BRANCH  39  50
HETATM   50  O13 UNL     1      -0.740   3.442  -4.019  1.00  0.00    -0.360 OA
ATOM     51  H13 UNL     1      -0.279   4.273  -4.012  1.00  0.00     0.217 HD
ENDBRANCH  39  50
BRANCH  44  52
HETATM   52  O15 UNL     1       2.053   3.549   0.327  1.00  0.00    -0.388 OA
ATOM     53  H15 UNL     1       2.577   4.029   0.958  1.00  0.00     0.210 HD
ENDBRANCH  44  52
BRANCH  46  54
HETATM   54  O16 UNL     1       1.015   6.000   1.271  1.00  0.00    -0.390 OA
ATOM     55  H16 UNL     1       0.866   6.920   1.087  1.00  0.00     0.210 HD
ENDBRANCH  46  54
BRANCH  47  56
HETATM   56  O17 UNL     1       0.997   6.874  -1.375  1.00  0.00    -0.393 OA
ATOM     57  H17 UNL     1       1.376   7.047  -2.229  1.00  0.00     0.210 HD
ENDBRANCH  47  56
ENDBRANCH   1  36
TORSDOF 23
