REMARK  20 active torsions:
REMARK  status: ('A' for Active; 'I' for Inactive)
REMARK    1  A    between atoms: C1_2  and  O2_3 
REMARK    2  A    between atoms: C1_2  and  C8_24 
REMARK    3  A    between atoms: O2_3  and  C2_4 
REMARK    4  A    between atoms: C2_4  and  C3_5 
REMARK    5  A    between atoms: C2_4  and  C4_11 
REMARK    6  A    between atoms: C3_5  and  O3_6 
REMARK    7  A    between atoms: O3_6  and  S1_7 
REMARK    8  A    between atoms: C4_11  and  N1_12 
REMARK    9  A    between atoms: C6_14  and  C7_15 
REMARK   10  A    between atoms: C7_15  and  O7_16 
REMARK   11  A    between atoms: C7_15  and  O8_18 
REMARK   12  A    between atoms: C9_27  and  N5_28 
REMARK   13  A    between atoms: C10_33  and  C11_34 
REMARK   14  A    between atoms: C11_34  and  C12_35 
REMARK   15  A    between atoms: C14_37  and  O9_38 
REMARK   16  A    between atoms: C15_40  and  O10_41 
REMARK   17  A    between atoms: C16_43  and  O11_44 
REMARK   18  A    between atoms: C18_47  and  C19_48 
REMARK   19  A    between atoms: C19_48  and  O12_49 
REMARK   20  A    between atoms: N9_58  and  O14_59 
ROOT
HETATM    1  C8  UNL     1      -0.592  -1.041   0.017  1.00  0.00     0.139 A 
HETATM    2  N4  UNL     1       0.391  -0.564  -0.721  1.00  0.00    -0.334 N 
ATOM      3  H4  UNL     1       0.218   0.300  -1.234  1.00  0.00     0.168 HD
HETATM    4  C9  UNL     1       1.636  -1.144  -0.853  1.00  0.00     0.131 A 
HETATM    5  C20 UNL     1       1.838  -2.265  -0.194  1.00  0.00     0.085 A 
HETATM    6  C21 UNL     1       0.838  -2.829   0.627  1.00  0.00     0.100 A 
HETATM    7  C22 UNL     1      -0.385  -2.208   0.736  1.00  0.00     0.099 A 
HETATM    8  N8  UNL     1      -1.151  -2.830   1.660  1.00  0.00    -0.302 N 
ATOM      9  H8  UNL     1      -2.096  -2.582   1.953  1.00  0.00     0.171 HD
HETATM   10  C23 UNL     1      -0.402  -3.835   2.102  1.00  0.00     0.351 A 
HETATM   11  O13 UNL     1      -0.817  -4.645   2.999  1.00  0.00    -0.244 OA
HETATM   12  N9  UNL     1       0.787  -3.849   1.489  1.00  0.00    -0.170 N 
ENDROOT
BRANCH   1  13
HETATM   13  C1  UNL     1      -1.916  -0.464  -0.038  1.00  0.00     0.313 C 
HETATM   14  O1  UNL     1      -2.113   0.541  -0.730  1.00  0.00    -0.258 OA
BRANCH  13  15
HETATM   15  O2  UNL     1      -3.039  -0.991   0.644  1.00  0.00    -0.307 OA
BRANCH  15  16
HETATM   16  C2  UNL     1      -4.237  -0.295   0.409  1.00  0.00     0.177 C 
BRANCH  16  17
HETATM   17  C3  UNL     1      -5.115  -0.662  -0.723  1.00  0.00     0.227 C 
BRANCH  17  18
HETATM   18  O3  UNL     1      -5.105  -2.112  -0.535  1.00  0.00    -0.254 OA
BRANCH  18  19
HETATM   19  S1  UNL     1      -6.631  -2.727  -0.476  1.00  0.00     0.251 S 
HETATM   20  O4  UNL     1      -7.597  -1.641   0.042  1.00  0.00    -0.572 OA
HETATM   21  O5  UNL     1      -6.601  -3.691   0.782  1.00  0.00    -0.572 OA
HETATM   22  O6  UNL     1      -7.287  -3.510  -1.727  1.00  0.00    -0.572 OA
ENDBRANCH  18  19
ENDBRANCH  17  18
ENDBRANCH  16  17
BRANCH  16  23
HETATM   23  C4  UNL     1      -4.392   0.968   1.159  1.00  0.00     0.184 C 
BRANCH  23  24
HETATM   24  N1  UNL     1      -5.324   1.860   0.529  1.00  0.00    -0.284 N 
HETATM   25  C5  UNL     1      -6.570   2.142   0.451  1.00  0.00     0.143 A 
HETATM   26  C6  UNL     1      -6.746   3.272  -0.327  1.00  0.00     0.098 A 
HETATM   27  N2  UNL     1      -5.507   3.630  -0.709  1.00  0.00    -0.284 N 
HETATM   28  N3  UNL     1      -4.670   2.828  -0.225  1.00  0.00    -0.240 N 
ATOM     29  H2  UNL     1      -5.282   4.430  -1.301  1.00  0.00     0.188 HD
ATOM     30  H3  UNL     1      -3.661   2.879  -0.364  1.00  0.00     0.208 HD
BRANCH  26  31
HETATM   31  C7  UNL     1      -7.993   3.996  -0.711  1.00  0.00     0.308 C 
BRANCH  31  32
HETATM   32  O7  UNL     1      -8.876   3.309  -1.465  1.00  0.00    -0.366 OA
ATOM     33  H7  UNL     1      -9.670   3.770  -1.709  1.00  0.00     0.213 HD
ENDBRANCH  31  32
BRANCH  31  34
HETATM   34  O8  UNL     1      -8.526   4.381   0.538  1.00  0.00    -0.366 OA
ATOM     35  H8  UNL     1      -9.320   4.842   0.294  1.00  0.00     0.213 HD
ENDBRANCH  31  34
ENDBRANCH  26  31
ENDBRANCH  23  24
ENDBRANCH  16  23
ENDBRANCH  15  16
ENDBRANCH  13  15
ENDBRANCH   1  13
BRANCH   4  36
HETATM   36  N5  UNL     1       2.592  -0.173  -1.402  1.00  0.00    -0.226 N 
HETATM   37  N6  UNL     1       2.290   0.773  -2.241  1.00  0.00    -0.234 N 
HETATM   38  N7  UNL     1       3.148   1.796  -2.102  1.00  0.00    -0.288 N 
ATOM     39  H6  UNL     1       1.517   0.742  -2.906  1.00  0.00     0.209 HD
HETATM   40  C10 UNL     1       4.041   1.480  -1.123  1.00  0.00     0.058 A 
ATOM     41  H7  UNL     1       3.134   2.663  -2.639  1.00  0.00     0.188 HD
HETATM   42  C18 UNL     1       3.697   0.216  -0.698  1.00  0.00     0.085 A 
BRANCH  40  43
HETATM   43  C11 UNL     1       4.992   2.418  -0.474  1.00  0.00     0.099 C 
BRANCH  43  44
HETATM   44  C12 UNL     1       6.373   1.947  -0.311  1.00  0.00    -0.047 A 
HETATM   45  C13 UNL     1       6.855   1.562   0.926  1.00  0.00     0.047 A 
HETATM   46  C14 UNL     1       8.080   0.943   1.078  1.00  0.00     0.102 A 
HETATM   47  C15 UNL     1       8.811   0.713  -0.018  1.00  0.00     0.132 A 
HETATM   48  C16 UNL     1       8.355   1.098  -1.288  1.00  0.00     0.102 A 
HETATM   49  C17 UNL     1       7.130   1.718  -1.401  1.00  0.00     0.047 A 
BRANCH  46  50
HETATM   50  O9  UNL     1       8.550   0.598   2.324  1.00  0.00    -0.358 OA
ATOM     51  H9  UNL     1       9.393   0.172   2.429  1.00  0.00     0.217 HD
ENDBRANCH  46  50
BRANCH  47  52
HETATM   52  O10 UNL     1      10.065   0.034  -0.129  1.00  0.00    -0.356 OA
ATOM     53  H10 UNL     1      10.584  -0.129  -0.908  1.00  0.00     0.218 HD
ENDBRANCH  47  52
BRANCH  48  54
HETATM   54  O11 UNL     1       9.163   0.842  -2.391  1.00  0.00    -0.358 OA
ATOM     55  H11 UNL     1       8.854   1.103  -3.251  1.00  0.00     0.217 HD
ENDBRANCH  48  54
ENDBRANCH  43  44
ENDBRANCH  40  43
BRANCH  42  56
HETATM   56  C19 UNL     1       4.347  -0.549   0.342  1.00  0.00     0.225 C 
BRANCH  56  57
HETATM   57  O12 UNL     1       4.560  -1.874  -0.217  1.00  0.00    -0.395 OA
ATOM     58  H12 UNL     1       4.987  -2.377   0.467  1.00  0.00     0.209 HD
ENDBRANCH  56  57
ENDBRANCH  42  56
ENDBRANCH   4  36
BRANCH  12  59
HETATM   59  O14 UNL     1       1.794  -4.771   1.670  1.00  0.00    -0.278 OA
ATOM     60  H14 UNL     1       1.758  -5.496   2.283  1.00  0.00     0.245 HD
ENDBRANCH  12  59
TORSDOF 20
