REMARK  19 active torsions:
REMARK  status: ('A' for Active; 'I' for Inactive)
REMARK    1  A    between atoms: C3_4  and  O2_5 
REMARK    2  A    between atoms: O2_5  and  N1_6 
REMARK    3  A    between atoms: N1_6  and  C4_7 
REMARK    4  A    between atoms: C4_7  and  C5_8 
REMARK    5  A    between atoms: C5_8  and  C6_9 
REMARK    6  A    between atoms: C7_11  and  O4_12 
REMARK    7  A    between atoms: C8_14  and  C9_15 
REMARK    8  A    between atoms: C9_15  and  N2_16 
REMARK    9  A    between atoms: C9_15  and  O6_19 
REMARK   10  A    between atoms: O6_19  and  C10_20 
REMARK   11  A    between atoms: C11_21  and  O7_22 
REMARK   12  A    between atoms: C12_24  and  O8_25 
REMARK   13  A    between atoms: O8_25  and  S1_26 
REMARK   14  A    between atoms: C14_31  and  O12_32 
REMARK   15  A    between atoms: C18_39  and  O15_40 
REMARK   16  A    between atoms: C20_43  and  O16_44 
REMARK   17  A    between atoms: O16_44  and  C21_45 
REMARK   18  A    between atoms: C21_45  and  C22_47 
REMARK   19  A    between atoms: C23_50  and  O20_51 
ROOT
HETATM    1  N2  UNL     1      -3.604   1.406   0.862  1.00  0.00    -0.256 NA
HETATM    2  O5  UNL     1      -4.002   1.960   1.895  1.00  0.00    -0.216 OA
ATOM      3  H5  UNL     1      -4.408   2.313   2.678  1.00  0.00     0.261 HD
ENDROOT
BRANCH   1   4
HETATM    4  C9  UNL     1      -3.103   0.970  -0.105  1.00  0.00     0.273 C 
BRANCH   4   5
HETATM    5  C8  UNL     1      -1.787   1.399  -0.635  1.00  0.00     0.143 A 
HETATM    6  C7  UNL     1      -1.281   0.823  -1.785  1.00  0.00     0.203 A 
HETATM    7  O3  UNL     1      -0.118   1.221  -2.232  1.00  0.00    -0.289 OA
HETATM    8  C6  UNL     1       0.601   2.161  -1.622  1.00  0.00     0.094 A 
HETATM    9  C18 UNL     1       0.130   2.760  -0.473  1.00  0.00     0.147 A 
HETATM   10  C17 UNL     1      -1.107   2.370   0.045  1.00  0.00     0.228 A 
HETATM   11  O14 UNL     1      -1.518   2.935   1.103  1.00  0.00    -0.284 OA
BRANCH   6  12
HETATM   12  O4  UNL     1      -2.034  -0.156  -2.417  1.00  0.00    -0.340 OA
ATOM     13  H4  UNL     1      -2.879  -0.445  -2.092  1.00  0.00     0.220 HD
ENDBRANCH   6  12
BRANCH   8  14
HETATM   14  C5  UNL     1       1.916   2.582  -2.155  1.00  0.00     0.086 C 
BRANCH  14  15
HETATM   15  C4  UNL     1       3.079   1.945  -1.428  1.00  0.00     0.149 C 
BRANCH  15  16
HETATM   16  N1  UNL     1       3.004   0.495  -1.562  1.00  0.00    -0.098 NA
BRANCH  16  17
HETATM   17  O2  UNL     1       4.008  -0.127  -0.947  1.00  0.00    -0.254 OA
BRANCH  17  18
HETATM   18  C3  UNL     1       3.543  -1.015   0.021  1.00  0.00     0.286 C 
HETATM   19  O1  UNL     1       3.912  -2.269  -0.325  1.00  0.00    -0.352 OA
HETATM   20  C2  UNL     1       5.115  -2.745   0.048  1.00  0.00     0.152 C 
HETATM   21  C1  UNL     1       6.101  -2.552  -1.096  1.00  0.00     0.042 C 
HETATM   22  C23 UNL     1       5.726  -2.215   1.285  1.00  0.00     0.176 C 
HETATM   23  C20 UNL     1       5.555  -0.714   1.319  1.00  0.00     0.168 C 
HETATM   24  C19 UNL     1       4.031  -0.522   1.349  1.00  0.00     0.098 C 
BRANCH  22  25
HETATM   25  O20 UNL     1       5.070  -2.755   2.395  1.00  0.00    -0.390 OA
ATOM     26  H20 UNL     1       5.463  -2.414   3.190  1.00  0.00     0.210 HD
ENDBRANCH  22  25
BRANCH  23  27
HETATM   27  O16 UNL     1       6.191  -0.092   2.391  1.00  0.00    -0.304 OA
BRANCH  27  28
HETATM   28  C21 UNL     1       7.134   0.929   2.250  1.00  0.00     0.360 C 
HETATM   29  O17 UNL     1       7.419   1.302   1.084  1.00  0.00    -0.252 OA
BRANCH  28  30
HETATM   30  C22 UNL     1       7.776   1.553   3.394  1.00  0.00     0.277 C 
HETATM   31  O18 UNL     1       7.522   1.214   4.565  1.00  0.00    -0.640 OA
HETATM   32  O19 UNL     1       8.705   2.561   3.185  1.00  0.00    -0.640 OA
ENDBRANCH  28  30
ENDBRANCH  27  28
ENDBRANCH  23  27
ENDBRANCH  17  18
ENDBRANCH  16  17
ENDBRANCH  15  16
ENDBRANCH  14  15
ENDBRANCH   8  14
BRANCH   9  33
HETATM   33  O15 UNL     1       0.787   3.741   0.230  1.00  0.00    -0.355 OA
ATOM     34  H15 UNL     1       0.462   4.154   1.022  1.00  0.00     0.218 HD
ENDBRANCH   9  33
ENDBRANCH   4   5
BRANCH   4  35
HETATM   35  O6  UNL     1      -3.792  -0.046  -0.837  1.00  0.00    -0.273 OA
BRANCH  35  36
HETATM   36  C10 UNL     1      -5.169  -0.174  -0.726  1.00  0.00     0.165 C 
HETATM   37  C11 UNL     1      -5.680  -1.003   0.254  1.00  0.00     0.139 C 
HETATM   38  C12 UNL     1      -6.958  -1.017   0.820  1.00  0.00     0.130 C 
HETATM   39  C13 UNL     1      -8.050  -0.238   0.517  1.00  0.00     0.077 C 
HETATM   40  C14 UNL     1      -8.250   0.527  -0.640  1.00  0.00     0.072 C 
HETATM   41  C15 UNL     1      -7.288   0.835  -1.609  1.00  0.00     0.094 C 
HETATM   42  C16 UNL     1      -5.938   0.548  -1.618  1.00  0.00     0.211 C 
HETATM   43  O13 UNL     1      -5.312   1.022  -2.598  1.00  0.00    -0.285 OA
BRANCH  37  44
HETATM   44  O7  UNL     1      -4.775  -1.937   0.719  1.00  0.00    -0.355 OA
ATOM     45  H7  UNL     1      -5.126  -2.507   1.393  1.00  0.00     0.218 HD
ENDBRANCH  37  44
BRANCH  38  46
HETATM   46  O8  UNL     1      -7.139  -1.946   1.823  1.00  0.00    -0.211 OA
BRANCH  46  47
HETATM   47  S1  UNL     1      -7.688  -3.504   1.378  1.00  0.00     0.257 S 
HETATM   48  O9  UNL     1      -7.859  -4.390   2.559  1.00  0.00    -0.572 OA
HETATM   49  O10 UNL     1      -6.710  -4.058   0.391  1.00  0.00    -0.572 OA
HETATM   50  O11 UNL     1      -9.155  -3.294   0.547  1.00  0.00    -0.572 OA
ENDBRANCH  46  47
ENDBRANCH  38  46
BRANCH  40  51
HETATM   51  O12 UNL     1      -9.516   1.036  -0.866  1.00  0.00    -0.360 OA
ATOM     52  H12 UNL     1      -9.652   1.555  -1.650  1.00  0.00     0.217 HD
ENDBRANCH  40  51
ENDBRANCH  35  36
ENDBRANCH   4  35
ENDBRANCH   1   4
TORSDOF 19
