REMARK  21 active torsions:
REMARK  status: ('A' for Active; 'I' for Inactive)
REMARK    1  A    between atoms: C3_3  and  C4_4 
REMARK    2  A    between atoms: C4_4  and  O2_6 
REMARK    3  A    between atoms: O2_6  and  C5_7 
REMARK    4  A    between atoms: C5_7  and  O3_8 
REMARK    5  A    between atoms: C7_12  and  O5_13 
REMARK    6  A    between atoms: C8_15  and  O6_16 
REMARK    7  A    between atoms: O6_16  and  C9_17 
REMARK    8  A    between atoms: C10_18  and  C11_19 
REMARK    9  A    between atoms: C11_19  and  C12_20 
REMARK   10  A    between atoms: C12_20  and  C13_21 
REMARK   11  A    between atoms: C13_21  and  O7_22 
REMARK   12  A    between atoms: O7_22  and  C14_23 
REMARK   13  A    between atoms: C15_27  and  O8_28 
REMARK   14  A    between atoms: C16_30  and  C17_31 
REMARK   15  A    between atoms: C17_31  and  O9_32 
REMARK   16  A    between atoms: C18_35  and  O11_36 
REMARK   17  A    between atoms: C20_39  and  O12_40 
REMARK   18  A    between atoms: C21_42  and  O13_43 
REMARK   19  A    between atoms: C24_51  and  O17_52 
REMARK   20  A    between atoms: C25_54  and  O18_55 
REMARK   21  A    between atoms: O18_55  and  C26_56 
ROOT
HETATM    1  C9  UNL     1       0.349   1.672   1.385  1.00  0.00     0.153 A 
HETATM    2  C10 UNL     1       1.424   1.419   0.516  1.00  0.00     0.017 A 
HETATM    3  C18 UNL     1       2.216   2.468   0.155  1.00  0.00     0.105 A 
HETATM    4  C19 UNL     1       1.976   3.776   0.634  1.00  0.00     0.119 A 
HETATM    5  C20 UNL     1       2.801   4.808   0.246  1.00  0.00     0.155 A 
HETATM    6  C21 UNL     1       2.538   6.060   0.729  1.00  0.00     0.224 A 
HETATM    7  O14 UNL     1       1.519   6.236   1.539  1.00  0.00    -0.234 OA
HETATM    8  C22 UNL     1       0.746   5.224   1.892  1.00  0.00     0.382 A 
HETATM    9  O15 UNL     1      -0.205   5.487   2.671  1.00  0.00    -0.237 OA
HETATM   10  N2  UNL     1       0.938   3.958   1.459  1.00  0.00    -0.216 N 
HETATM   11  C23 UNL     1       0.130   2.952   1.841  1.00  0.00     0.291 A 
HETATM   12  O16 UNL     1      -0.825   3.222   2.625  1.00  0.00    -0.264 OA
ENDROOT
BRANCH   1  13
HETATM   13  O6  UNL     1      -0.442   0.612   1.743  1.00  0.00    -0.303 OA
BRANCH  13  14
HETATM   14  C8  UNL     1      -1.586   0.162   1.110  1.00  0.00     0.122 C 
HETATM   15  C7  UNL     1      -1.931  -1.100   1.300  1.00  0.00     0.150 C 
HETATM   16  C6  UNL     1      -3.121  -1.635   0.664  1.00  0.00     0.249 C 
HETATM   17  C5  UNL     1      -4.231  -0.685   0.413  1.00  0.00     0.269 C 
HETATM   18  O4  UNL     1      -3.149  -2.859   0.361  1.00  0.00    -0.284 OA
HETATM   19  C25 UNL     1      -3.620   0.486  -0.331  1.00  0.00     0.238 C 
HETATM   20  C24 UNL     1      -2.383   1.039   0.267  1.00  0.00     0.213 C 
BRANCH  15  21
HETATM   21  O5  UNL     1      -1.162  -1.949   2.114  1.00  0.00    -0.355 OA
ATOM     22  H5  UNL     1      -0.383  -1.599   2.530  1.00  0.00     0.218 HD
ENDBRANCH  15  21
BRANCH  17  23
HETATM   23  O2  UNL     1      -5.235  -1.218  -0.391  1.00  0.00    -0.269 OA
BRANCH  23  24
HETATM   24  C4  UNL     1      -6.085  -2.253  -0.087  1.00  0.00     0.285 C 
HETATM   25  O1  UNL     1      -5.950  -2.782   1.036  1.00  0.00    -0.260 OA
BRANCH  24  26
HETATM   26  C3  UNL     1      -7.075  -2.670  -1.068  1.00  0.00     0.078 C 
HETATM   27  C2  UNL     1      -7.929  -3.640  -0.883  1.00  0.00    -0.025 C 
HETATM   28  C1  UNL     1      -7.952  -4.410   0.377  1.00  0.00     0.036 C 
ENDBRANCH  24  26
ENDBRANCH  23  24
ENDBRANCH  17  23
BRANCH  17  29
HETATM   29  O3  UNL     1      -4.717  -0.180   1.621  1.00  0.00    -0.357 OA
ATOM     30  H3  UNL     1      -4.032   0.184   2.170  1.00  0.00     0.213 HD
ENDBRANCH  17  29
BRANCH  19  31
HETATM   31  O18 UNL     1      -4.664   1.470  -0.408  1.00  0.00    -0.307 OA
BRANCH  31  32
HETATM   32  C26 UNL     1      -5.239   1.799  -1.620  1.00  0.00     0.255 C 
HETATM   33  C27 UNL     1      -6.322   2.811  -1.749  1.00  0.00     0.126 C 
HETATM   34  O19 UNL     1      -4.821   1.212  -2.645  1.00  0.00    -0.266 OA
ENDBRANCH  31  32
ENDBRANCH  19  31
BRANCH  20  35
HETATM   35  O17 UNL     1      -1.559   1.484  -0.800  1.00  0.00    -0.386 OA
ATOM     36  H17 UNL     1      -2.080   2.057  -1.351  1.00  0.00     0.210 HD
ENDBRANCH  20  35
ENDBRANCH  13  14
ENDBRANCH   1  13
BRANCH   2  37
HETATM   37  C11 UNL     1       1.665   0.041   0.028  1.00  0.00     0.046 C 
BRANCH  37  38
HETATM   38  C12 UNL     1       2.290  -0.727   1.185  1.00  0.00     0.031 C 
BRANCH  38  39
HETATM   39  C13 UNL     1       2.559  -2.155   0.847  1.00  0.00     0.173 C 
BRANCH  39  40
HETATM   40  O7  UNL     1       3.425  -2.381  -0.194  1.00  0.00    -0.339 OA
BRANCH  40  41
HETATM   41  C14 UNL     1       4.704  -1.910  -0.011  1.00  0.00     0.472 C 
HETATM   42  N1  UNL     1       5.111  -1.110  -1.123  1.00  0.00     0.004 N 
HETATM   43  C15 UNL     1       6.236  -1.786  -1.748  1.00  0.00     0.355 C 
ATOM     44  H12 UNL     1       4.351  -0.914  -1.774  1.00  0.00     0.286 HD
ATOM     45  H11 UNL     1       5.317  -0.144  -0.867  1.00  0.00     0.286 HD
HETATM   46  C16 UNL     1       6.767  -2.577  -0.554  1.00  0.00     0.206 C 
HETATM   47  O10 UNL     1       5.599  -3.017   0.018  1.00  0.00    -0.327 OA
BRANCH  43  48
HETATM   48  O8  UNL     1       7.202  -0.922  -2.217  1.00  0.00    -0.368 OA
ATOM     49  H8  UNL     1       7.937  -1.364  -2.625  1.00  0.00     0.212 HD
ENDBRANCH  43  48
BRANCH  46  50
HETATM   50  C17 UNL     1       7.598  -3.719  -1.101  1.00  0.00     0.200 C 
BRANCH  50  51
HETATM   51  O9  UNL     1       6.926  -4.437  -2.068  1.00  0.00    -0.398 OA
ATOM     52  H9  UNL     1       7.447  -5.153  -2.411  1.00  0.00     0.209 HD
ENDBRANCH  50  51
ENDBRANCH  46  50
ENDBRANCH  40  41
ENDBRANCH  39  40
ENDBRANCH  38  39
ENDBRANCH  37  38
ENDBRANCH   2  37
BRANCH   3  53
HETATM   53  O11 UNL     1       3.290   2.323  -0.689  1.00  0.00    -0.358 OA
ATOM     54  H11 UNL     1       3.842   3.054  -0.941  1.00  0.00     0.217 HD
ENDBRANCH   3  53
BRANCH   5  55
HETATM   55  O12 UNL     1       3.862   4.602  -0.603  1.00  0.00    -0.354 OA
ATOM     56  H12 UNL     1       4.431   5.314  -0.871  1.00  0.00     0.218 HD
ENDBRANCH   5  55
BRANCH   6  57
HETATM   57  O13 UNL     1       3.348   7.113   0.358  1.00  0.00    -0.338 OA
ATOM     58  H13 UNL     1       3.165   7.983   0.694  1.00  0.00     0.220 HD
ENDBRANCH   6  57
TORSDOF 21
