REMARK  8 active torsions:
REMARK  status: ('A' for Active; 'I' for Inactive)
REMARK    1  A    between atoms: N4_11  and  C5_12 
REMARK    2  A    between atoms: C5_12  and  N5_13 
REMARK    3  A    between atoms: N5_13  and  C6_16 
REMARK    4  A    between atoms: C6_16  and  O1_17 
REMARK    5  A    between atoms: C6_16  and  C7_19 
REMARK    6  A    between atoms: C7_19  and  N6_20 
REMARK    7  A    between atoms: C8_27  and  N10_28 
REMARK       I    between atoms: N10_28  and  C9_30 
REMARK    8  A    between atoms: C13_39  and  N14_40 
ROOT
HETATM    1  C1  UNL     1      -5.023   3.819   2.042  1.00  0.00     0.090 C 
HETATM    2  C2  UNL     1      -5.114   2.488   1.415  1.00  0.00     0.093 A 
HETATM    3  N1  UNL     1      -6.208   1.811   1.096  1.00  0.00    -0.288 N 
ATOM      4  H1  UNL     1      -7.168   2.123   1.242  1.00  0.00     0.188 HD
HETATM    5  N2  UNL     1      -5.835   0.641   0.546  1.00  0.00    -0.282 N 
ATOM      6  H2  UNL     1      -6.478  -0.076   0.209  1.00  0.00     0.188 HD
HETATM    7  C3  UNL     1      -4.507   0.552   0.504  1.00  0.00     0.152 A 
HETATM    8  C4  UNL     1      -3.604  -0.464   0.026  1.00  0.00     0.121 A 
HETATM    9  N3  UNL     1      -2.250  -0.281   0.113  1.00  0.00    -0.292 N 
ATOM     10  H3  UNL     1      -1.927   0.594   0.526  1.00  0.00     0.187 HD
HETATM   11  N4  UNL     1      -1.348  -1.111  -0.278  1.00  0.00    -0.276 N 
HETATM   12  C10 UNL     1      -1.690  -2.275  -0.827  1.00  0.00     0.137 A 
HETATM   13  C11 UNL     1      -3.028  -2.560  -0.963  1.00  0.00     0.090 A 
HETATM   14  C12 UNL     1      -3.462  -3.799  -1.546  1.00  0.00     0.103 C 
HETATM   15  N13 UNL     1      -3.818  -4.802  -2.026  1.00  0.00    -0.191 NA
HETATM   16  C13 UNL     1      -4.017  -1.644  -0.531  1.00  0.00     0.080 A 
HETATM   17  N15 UNL     1      -4.077   1.724   1.056  1.00  0.00    -0.328 N 
ATOM     18  H15 UNL     1      -3.098   1.982   1.178  1.00  0.00     0.169 HD
ENDROOT
BRANCH  16  19
HETATM   19  N14 UNL     1      -5.194  -1.947  -0.675  1.00  0.00    -0.396 N 
ATOM     20 2H14 UNL     1      -5.907  -1.287  -0.364  1.00  0.00     0.156 HD
ATOM     21 1H14 UNL     1      -5.502  -2.826  -1.090  1.00  0.00     0.156 HD
ENDBRANCH  16  19
BRANCH  11  22
HETATM   22  C5  UNL     1       0.058  -0.748  -0.104  1.00  0.00     0.382 C 
BRANCH  22  23
HETATM   23  N5  UNL     1       0.455  -0.054  -1.313  1.00  0.00    -0.030 N 
ATOM     24  H52 UNL     1       0.267  -0.622  -2.139  1.00  0.00     0.282 HD
ATOM     25  H51 UNL     1      -0.169   0.730  -1.506  1.00  0.00     0.282 HD
BRANCH  23  26
HETATM   26  C6  UNL     1       1.836   0.378  -1.284  1.00  0.00     0.341 C 
BRANCH  26  27
HETATM   27  O1  UNL     1       2.146   1.031  -2.489  1.00  0.00    -0.368 OA
ATOM     28  H1  UNL     1       3.052   1.315  -2.470  1.00  0.00     0.212 HD
ENDBRANCH  26  27
BRANCH  26  29
HETATM   29  C7  UNL     1       2.785  -0.791  -1.192  1.00  0.00     0.230 C 
BRANCH  29  30
HETATM   30  N6  UNL     1       4.130  -0.256  -1.171  1.00  0.00    -0.102 N 
HETATM   31  N7  UNL     1       4.851  -0.038  -2.251  1.00  0.00    -0.211 N 
HETATM   32  N8  UNL     1       5.996   0.443  -1.834  1.00  0.00    -0.213 N 
ATOM     33  H7  UNL     1       4.574  -0.209  -3.218  1.00  0.00     0.210 HD
HETATM   34  N9  UNL     1       6.016   0.534  -0.514  1.00  0.00    -0.115 N 
ATOM     35  H8  UNL     1       6.768   0.711  -2.444  1.00  0.00     0.210 HD
HETATM   36  C8  UNL     1       4.813   0.085  -0.072  1.00  0.00     0.718 A 
ATOM     37  H9  UNL     1       6.786   0.876   0.061  1.00  0.00     0.207 HD
BRANCH  36  38
HETATM   38  N10 UNL     1       4.401  -0.003   1.144  1.00  0.00    -0.161 N 
HETATM   39  C9  UNL     1       5.207   0.386   2.230  1.00  0.00     0.200 C 
HETATM   40  N11 UNL     1       4.622   0.886   3.283  1.00  0.00    -0.373 N 
HETATM   41  N12 UNL     1       6.618   0.250   2.208  1.00  0.00    -0.063 NA
ATOM     42 2H11 UNL     1       3.607   0.984   3.299  1.00  0.00     0.158 HD
ATOM     43 1H11 UNL     1       5.206   1.168   4.070  1.00  0.00     0.158 HD
ATOM     44  H10 UNL     1       3.465  -0.365   1.326  1.00  0.00     0.187 HD
ENDBRANCH  36  38
ENDBRANCH  29  30
ENDBRANCH  26  29
ENDBRANCH  23  26
ENDBRANCH  22  23
ENDBRANCH  11  22
TORSDOF 8
