REMARK  8 active torsions:
REMARK  status: ('A' for Active; 'I' for Inactive)
REMARK    1  A    between atoms: N1_1  and  C1_4 
REMARK    2  A    between atoms: N4_10  and  N5_11 
REMARK       I    between atoms: N5_11  and  C3_13 
REMARK    3  A    between atoms: C3_13  and  C4_15 
REMARK    4  A    between atoms: C4_15  and  S1_16 
REMARK    5  A    between atoms: S1_16  and  C5_17 
REMARK    6  A    between atoms: C6_22  and  C7_23 
REMARK    7  A    between atoms: C9_25  and  N8_26 
REMARK       I    between atoms: N8_26  and  C10_28 
REMARK       I    between atoms: C10_28  and  N9_29 
REMARK       I    between atoms: C10_28  and  N10_33 
REMARK    8  A    between atoms: N13_42  and  N14_43 
ROOT
HETATM    1  C5  UNL     1      -1.393  -1.325  -1.157  1.00  0.00     0.182 A 
HETATM    2  N6  UNL     1      -1.271   0.020  -1.258  1.00  0.00    -0.277 N 
ATOM      3  H6  UNL     1      -2.025   0.665  -1.495  1.00  0.00     0.189 HD
HETATM    4  N7  UNL     1      -0.022   0.365  -1.002  1.00  0.00    -0.280 N 
ATOM      5  H7  UNL     1       0.338   1.319  -1.010  1.00  0.00     0.188 HD
HETATM    6  C6  UNL     1       0.710  -0.749  -0.726  1.00  0.00     0.170 A 
HETATM    7  N13 UNL     1      -0.170  -1.760  -0.832  1.00  0.00    -0.219 N 
ENDROOT
BRANCH   6   8
HETATM    8  C7  UNL     1       2.132  -0.798  -0.394  1.00  0.00     0.084 A 
HETATM    9  C8  UNL     1       2.849   0.370  -0.345  1.00  0.00     0.081 A 
HETATM   10  C9  UNL     1       4.192   0.366  -0.039  1.00  0.00     0.106 A 
HETATM   11  N11 UNL     1       4.797  -0.808   0.214  1.00  0.00    -0.339 N 
HETATM   12  C11 UNL     1       4.107  -1.961   0.170  1.00  0.00     0.182 A 
ATOM     13  H11 UNL     1       5.791  -0.824   0.442  1.00  0.00     0.168 HD
HETATM   14  N12 UNL     1       2.786  -1.938  -0.133  1.00  0.00    -0.349 N 
ATOM     15  H12 UNL     1       2.272  -2.819  -0.163  1.00  0.00     0.166 HD
BRANCH  10  16
HETATM   16  N8  UNL     1       4.821   1.474  -0.005  1.00  0.00    -0.327 N 
HETATM   17  C10 UNL     1       6.226   1.602   0.303  1.00  0.00     0.481 C 
HETATM   18  N9  UNL     1       7.057   1.252  -0.841  1.00  0.00    -0.033 N 
HETATM   19  N10 UNL     1       6.476   3.003   0.585  1.00  0.00    -0.033 N 
ATOM     20  H93 UNL     1       6.835   0.320  -1.192  1.00  0.00     0.278 HD
ATOM     21  H92 UNL     1       6.805   1.796  -1.666  1.00  0.00     0.278 HD
ATOM     22  H91 UNL     1       8.049   1.342  -0.623  1.00  0.00     0.278 HD
ATOM     23 3H10 UNL     1       6.173   3.622  -0.167  1.00  0.00     0.278 HD
ATOM     24 2H10 UNL     1       5.871   3.378   1.315  1.00  0.00     0.278 HD
ATOM     25 1H10 UNL     1       7.468   3.093   0.803  1.00  0.00     0.278 HD
ATOM     26  H8  UNL     1       4.298   2.326  -0.209  1.00  0.00     0.164 HD
ENDBRANCH  10  16
ENDBRANCH   6   8
BRANCH   7  27
HETATM   27  N14 UNL     1       0.165  -3.101  -0.626  1.00  0.00    -0.335 N 
ATOM     28 2H14 UNL     1      -0.503  -3.868  -0.706  1.00  0.00     0.177 HD
ATOM     29 1H14 UNL     1       1.097  -3.433  -0.378  1.00  0.00     0.177 HD
ENDBRANCH   7  27
BRANCH   1  30
HETATM   30  S1  UNL     1      -2.911  -2.226  -1.426  1.00  0.00    -0.081 SA
BRANCH  30  31
HETATM   31  C4  UNL     1      -3.863  -2.388   0.096  1.00  0.00     0.186 C 
BRANCH  31  32
HETATM   32  C3  UNL     1      -4.281  -0.959   0.456  1.00  0.00     0.246 C 
HETATM   33  N5  UNL     1      -5.451  -0.496  -0.133  1.00  0.00    -0.247 N 
ATOM     34  H5  UNL     1      -5.914  -1.162  -0.751  1.00  0.00     0.191 HD
HETATM   35  O1  UNL     1      -3.509  -0.398   1.235  1.00  0.00    -0.271 OA
BRANCH  33  36
HETATM   36  N4  UNL     1      -6.089   0.733  -0.012  1.00  0.00    -0.077 N 
HETATM   37  C1  UNL     1      -5.761   1.795   0.710  1.00  0.00     0.712 A 
HETATM   38  N2  UNL     1      -6.685   2.793   0.508  1.00  0.00    -0.130 N 
HETATM   39  N3  UNL     1      -7.570   2.331  -0.336  1.00  0.00    -0.279 N 
ATOM     40  H2  UNL     1      -6.681   3.719   0.936  1.00  0.00     0.205 HD
HETATM   41  C2  UNL     1      -7.235   1.088  -0.668  1.00  0.00     0.242 A 
ATOM     42  H3  UNL     1      -8.383   2.840  -0.683  1.00  0.00     0.188 HD
BRANCH  37  43
HETATM   43  N1  UNL     1      -4.783   2.000   1.508  1.00  0.00    -0.232 N 
ATOM     44  H12 UNL     1      -4.531   2.817   2.064  1.00  0.00     0.174 HD
ATOM     45  H11 UNL     1      -4.098   1.260   1.658  1.00  0.00     0.174 HD
ENDBRANCH  37  43
ENDBRANCH  33  36
ENDBRANCH  31  32
ENDBRANCH  30  31
ENDBRANCH   1  30
TORSDOF 8
