REMARK  10 active torsions:
REMARK  status: ('A' for Active; 'I' for Inactive)
REMARK    1  A    between atoms: C2_2  and  N1_5 
REMARK    2  A    between atoms: C5_10  and  C6_11 
REMARK    3  A    between atoms: C6_11  and  O1_12 
REMARK    4  A    between atoms: C6_11  and  N4_14 
REMARK    5  A    between atoms: N4_14  and  N5_15 
REMARK       I    between atoms: N5_15  and  C7_17 
REMARK    6  A    between atoms: C7_17  and  C8_19 
REMARK    7  A    between atoms: C8_19  and  S1_20 
REMARK    8  A    between atoms: S1_20  and  C9_21 
REMARK    9  A    between atoms: C10_29  and  C11_30 
REMARK   10  A    between atoms: C12_33  and  N11_34 
ROOT
HETATM    1  N1  UNL     1      -2.263   0.388   0.311  1.00  0.00    -0.253 N 
HETATM    2  N2  UNL     1      -1.095   0.776   0.812  1.00  0.00    -0.238 N 
ATOM      3  H2  UNL     1      -0.996   1.731   1.156  1.00  0.00     0.208 HD
HETATM    4  N3  UNL     1      -0.072  -0.029   0.877  1.00  0.00    -0.285 N 
ATOM      5  H3  UNL     1       0.800   0.323   1.272  1.00  0.00     0.188 HD
HETATM    6  C5  UNL     1      -0.116  -1.336   0.436  1.00  0.00     0.092 A 
HETATM    7  C10 UNL     1      -1.287  -1.779  -0.086  1.00  0.00     0.102 A 
HETATM    8  C12 UNL     1      -2.377  -0.858  -0.133  1.00  0.00     0.135 A 
ENDROOT
BRANCH   6   9
HETATM    9  C6  UNL     1       1.075  -2.160   0.601  1.00  0.00     0.284 C 
BRANCH   9  10
HETATM   10  O1  UNL     1       1.652  -1.878   1.894  1.00  0.00    -0.372 OA
ATOM     11  H1  UNL     1       2.428  -2.415   2.002  1.00  0.00     0.212 HD
ENDBRANCH   9  10
BRANCH   9  12
HETATM   12  N4  UNL     1       2.092  -1.659  -0.329  1.00  0.00    -0.100 NA
BRANCH  12  13
HETATM   13  N5  UNL     1       2.414  -0.335  -0.094  1.00  0.00    -0.271 N 
HETATM   14  C7  UNL     1       2.344   0.594  -1.161  1.00  0.00     0.242 C 
HETATM   15  O2  UNL     1       2.001   0.226  -2.291  1.00  0.00    -0.271 OA
ATOM     16  H5  UNL     1       2.699  -0.031   0.837  1.00  0.00     0.185 HD
BRANCH  14  17
HETATM   17  C8  UNL     1       2.677   2.024  -0.961  1.00  0.00     0.186 C 
BRANCH  17  18
HETATM   18  S1  UNL     1       4.445   2.241  -1.304  1.00  0.00    -0.082 SA
BRANCH  18  19
HETATM   19  C9  UNL     1       5.463   1.402  -0.124  1.00  0.00     0.173 A 
HETATM   20  N6  UNL     1       5.884   0.127  -0.254  1.00  0.00    -0.261 N 
HETATM   21  N7  UNL     1       6.620  -0.181   0.800  1.00  0.00    -0.005 NA
ATOM     22  H6  UNL     1       5.670  -0.495  -1.034  1.00  0.00     0.186 HD
HETATM   23  N8  UNL     1       6.660   0.885   1.578  1.00  0.00    -0.224 N 
HETATM   24  N9  UNL     1       5.963   1.861   1.038  1.00  0.00    -0.266 N 
ATOM     25  H8  UNL     1       7.158   0.943   2.466  1.00  0.00     0.205 HD
ATOM     26  H9  UNL     1       5.827   2.794   1.428  1.00  0.00     0.190 HD
ENDBRANCH  18  19
ENDBRANCH  17  18
ENDBRANCH  14  17
ENDBRANCH  12  13
ENDBRANCH   9  12
ENDBRANCH   6   9
BRANCH   7  27
HETATM   27  C11 UNL     1      -1.472  -3.086  -0.638  1.00  0.00     0.270 C 
HETATM   28  N10 UNL     1      -0.558  -4.080  -0.965  1.00  0.00    -0.057 NA
HETATM   29  O3  UNL     1      -2.689  -3.447  -0.899  1.00  0.00    -0.271 OA
ENDBRANCH   7  27
BRANCH   8  30
HETATM   30  N11 UNL     1      -3.446  -1.330  -0.629  1.00  0.00    -0.383 N 
ATOM     31 2H11 UNL     1      -4.225  -0.672  -0.663  1.00  0.00     0.157 HD
ATOM     32 1H11 UNL     1      -3.534  -2.287  -0.970  1.00  0.00     0.157 HD
ENDBRANCH   8  30
BRANCH   1  33
HETATM   33  C2  UNL     1      -3.385   1.328   0.257  1.00  0.00     0.046 C 
HETATM   34  C1  UNL     1      -3.836   1.638  -1.131  1.00  0.00     0.040 C 
HETATM   35  C3  UNL     1      -2.843   2.650   0.842  1.00  0.00     0.040 C 
HETATM   36  C4  UNL     1      -4.498   0.913   1.164  1.00  0.00     0.040 C 
ENDBRANCH   1  33
TORSDOF 10
