REMARK  11 active torsions:
REMARK  status: ('A' for Active; 'I' for Inactive)
REMARK       I    between atoms: C1_4  and  N3_6 
REMARK    1  A    between atoms: N3_6  and  C2_8 
REMARK    2  A    between atoms: C3_11  and  N5_12 
REMARK    3  A    between atoms: C4_17  and  O1_18 
REMARK    4  A    between atoms: O1_18  and  C5_19 
REMARK    5  A    between atoms: C5_19  and  C6_20 
REMARK    6  A    between atoms: C6_20  and  C7_21 
REMARK    7  A    between atoms: C7_21  and  C8_22 
REMARK    8  A    between atoms: C8_22  and  C9_23 
REMARK    9  A    between atoms: C9_23  and  C10_24 
REMARK   10  A    between atoms: C10_24  and  C11_25 
REMARK   11  A    between atoms: C11_25  and  N7_26 
ROOT
HETATM    1  C2  UNL     1       2.838  -0.617   0.260  1.00  0.00     0.152 A 
HETATM    2  N4  UNL     1       3.273  -1.287  -0.826  1.00  0.00    -0.175 N 
ATOM      3  H4  UNL     1       4.170  -1.773  -0.814  1.00  0.00     0.186 HD
HETATM    4  C3  UNL     1       2.499  -1.300  -1.925  1.00  0.00     0.679 A 
HETATM    5  N6  UNL     1       1.312  -0.650  -1.920  1.00  0.00    -0.169 N 
ATOM      6  H6  UNL     1       0.748  -0.680  -2.769  1.00  0.00     0.186 HD
HETATM    7  C4  UNL     1       0.830   0.031  -0.871  1.00  0.00     0.185 A 
HETATM    8  C12 UNL     1       1.624   0.051   0.270  1.00  0.00     0.142 A 
HETATM    9  N8  UNL     1       1.210   0.742   1.440  1.00  0.00    -0.094 NA
ENDROOT
BRANCH   7  10
HETATM   10  O1  UNL     1      -0.391   0.689  -0.893  1.00  0.00    -0.334 OA
BRANCH  10  11
HETATM   11  C5  UNL     1      -0.512   1.975  -1.397  1.00  0.00     0.177 C 
BRANCH  11  12
HETATM   12  C6  UNL     1      -1.851   2.597  -1.382  1.00  0.00     0.027 C 
BRANCH  12  13
HETATM   13  C7  UNL     1      -2.518   2.791  -0.077  1.00  0.00     0.002 C 
BRANCH  13  14
HETATM   14  C8  UNL     1      -2.788   1.524   0.691  1.00  0.00     0.000 C 
BRANCH  14  15
HETATM   15  C9  UNL     1      -3.682   0.616  -0.128  1.00  0.00     0.002 C 
BRANCH  15  16
HETATM   16  C10 UNL     1      -3.984  -0.662   0.584  1.00  0.00     0.027 C 
BRANCH  16  17
HETATM   17  C11 UNL     1      -2.740  -1.451   0.898  1.00  0.00     0.229 C 
BRANCH  17  18
HETATM   18  N7  UNL     1      -3.086  -2.678   1.586  1.00  0.00    -0.079 N 
ATOM     19  H73 UNL     1      -3.646  -2.502   2.420  1.00  0.00     0.274 HD
ATOM     20  H72 UNL     1      -3.765  -3.230   1.062  1.00  0.00     0.274 HD
ATOM     21  H71 UNL     1      -2.244  -3.212   1.799  1.00  0.00     0.274 HD
ENDBRANCH  17  18
ENDBRANCH  16  17
ENDBRANCH  15  16
ENDBRANCH  14  15
ENDBRANCH  13  14
ENDBRANCH  12  13
ENDBRANCH  11  12
ENDBRANCH  10  11
ENDBRANCH   7  10
BRANCH   4  22
HETATM   22  N5  UNL     1       2.900  -1.943  -2.989  1.00  0.00    -0.234 N 
ATOM     23  H52 UNL     1       3.795  -2.433  -2.993  1.00  0.00     0.174 HD
ATOM     24  H51 UNL     1       2.313  -1.953  -3.823  1.00  0.00     0.174 HD
ENDBRANCH   4  22
BRANCH   1  25
HETATM   25  N3  UNL     1       3.532  -0.574   1.324  1.00  0.00    -0.315 N 
HETATM   26  C1  UNL     1       4.797  -1.188   1.521  1.00  0.00     0.187 C 
HETATM   27  N1  UNL     1       4.861  -2.095   2.428  1.00  0.00    -0.373 N 
HETATM   28  N2  UNL     1       5.951  -0.859   0.793  1.00  0.00    -0.064 NA
ATOM     29  H12 UNL     1       5.770  -2.536   2.570  1.00  0.00     0.158 HD
ATOM     30  H11 UNL     1       4.022  -2.334   2.957  1.00  0.00     0.158 HD
ATOM     31  H3  UNL     1       3.144  -0.050   2.109  1.00  0.00     0.170 HD
ENDBRANCH   1  25
TORSDOF 11
