REMARK  11 active torsions:
REMARK  status: ('A' for Active; 'I' for Inactive)
REMARK    1  A    between atoms: C2_2  and  C3_3 
REMARK    2  A    between atoms: C3_3  and  N1_4 
REMARK    3  A    between atoms: N1_4  and  C4_6 
REMARK    4  A    between atoms: C4_6  and  C5_7 
REMARK    5  A    between atoms: C5_7  and  C6_8 
REMARK    6  A    between atoms: C6_8  and  C7_9 
REMARK    7  A    between atoms: C7_9  and  N2_10 
REMARK    8  A    between atoms: N2_10  and  C8_11 
REMARK    9  A    between atoms: C9_14  and  N4_15 
REMARK   10  A    between atoms: C11_21  and  N6_22 
REMARK   11  A    between atoms: C12_27  and  N8_28 
ROOT
HETATM    1  C8  UNL     1      -1.663  -0.516   0.022  1.00  0.00     0.222 A 
HETATM    2  N3  UNL     1      -2.092  -1.600   0.735  1.00  0.00    -0.162 N 
ATOM      3  H3  UNL     1      -1.466  -2.400   0.830  1.00  0.00     0.187 HD
HETATM    4  C9  UNL     1      -3.284  -1.657   1.307  1.00  0.00     0.678 A 
HETATM    5  N5  UNL     1      -4.139  -0.608   1.197  1.00  0.00    -0.186 N 
ATOM      6  H5  UNL     1      -5.058  -0.654   1.638  1.00  0.00     0.184 HD
HETATM    7  C10 UNL     1      -3.783   0.485   0.513  1.00  0.00     0.125 A 
HETATM    8  C11 UNL     1      -4.619   1.583   0.370  1.00  0.00     0.144 A 
HETATM    9  N7  UNL     1      -4.197   2.676  -0.344  1.00  0.00    -0.175 N 
ATOM     10  H7  UNL     1      -4.815   3.481  -0.445  1.00  0.00     0.186 HD
HETATM   11  C12 UNL     1      -2.993   2.698  -0.905  1.00  0.00     0.678 A 
HETATM   12  N9  UNL     1      -2.161   1.652  -0.785  1.00  0.00    -0.185 N 
ATOM     13  H9  UNL     1      -1.238   1.678  -1.218  1.00  0.00     0.184 HD
HETATM   14  C13 UNL     1      -2.558   0.553  -0.079  1.00  0.00     0.138 A 
ENDROOT
BRANCH   1  15
HETATM   15  N2  UNL     1      -0.570  -0.461  -0.503  1.00  0.00    -0.401 NA
BRANCH  15  16
HETATM   16  C7  UNL     1       0.599  -0.301  -1.113  1.00  0.00     0.157 C 
BRANCH  16  17
HETATM   17  C6  UNL     1       1.296  -1.642  -1.331  1.00  0.00     0.061 C 
BRANCH  17  18
HETATM   18  C5  UNL     1       2.606  -1.502  -2.017  1.00  0.00     0.025 C 
BRANCH  18  19
HETATM   19  C4  UNL     1       3.621  -0.655  -1.294  1.00  0.00     0.114 C 
BRANCH  19  20
HETATM   20  N1  UNL     1       3.902  -1.235  -0.027  1.00  0.00    -0.418 N 
ATOM     21  H1  UNL     1       3.459  -2.101   0.281  1.00  0.00     0.153 HD
BRANCH  20  22
HETATM   22  C3  UNL     1       4.837  -0.537   0.787  1.00  0.00     0.140 C 
BRANCH  22  23
HETATM   23  C2  UNL     1       4.356   0.762   1.289  1.00  0.00    -0.018 C 
HETATM   24  C1  UNL     1       4.268   0.993   2.582  1.00  0.00     0.008 C 
ENDBRANCH  22  23
ENDBRANCH  20  22
ENDBRANCH  19  20
ENDBRANCH  18  19
ENDBRANCH  17  18
ENDBRANCH  16  17
ENDBRANCH  15  16
ENDBRANCH   1  15
BRANCH   4  25
HETATM   25  N4  UNL     1      -3.682  -2.701   1.984  1.00  0.00    -0.234 N 
ATOM     26  H42 UNL     1      -3.040  -3.489   2.067  1.00  0.00     0.174 HD
ATOM     27  H41 UNL     1      -4.601  -2.745   2.425  1.00  0.00     0.174 HD
ENDBRANCH   4  25
BRANCH   8  28
HETATM   28  N6  UNL     1      -5.772   1.593   0.893  1.00  0.00    -0.383 N 
ATOM     29  H62 UNL     1      -6.086   0.780   1.424  1.00  0.00     0.157 HD
ATOM     30  H61 UNL     1      -6.387   2.400   0.788  1.00  0.00     0.157 HD
ENDBRANCH   8  28
BRANCH  11  31
HETATM   31  N8  UNL     1      -2.644   3.752  -1.567  1.00  0.00    -0.234 N 
ATOM     32  H82 UNL     1      -3.276   4.547  -1.658  1.00  0.00     0.174 HD
ATOM     33  H81 UNL     1      -1.720   3.769  -1.998  1.00  0.00     0.174 HD
ENDBRANCH  11  31
TORSDOF 11
