REMARK  10 active torsions:
REMARK  status: ('A' for Active; 'I' for Inactive)
REMARK    1  A    between atoms: C2_2  and  N1_3 
REMARK    2  A    between atoms: N1_3  and  C3_6 
REMARK    3  A    between atoms: C3_6  and  C4_7 
REMARK    4  A    between atoms: C4_7  and  O1_8 
REMARK    5  A    between atoms: O1_8  and  C5_9 
REMARK    6  A    between atoms: C5_9  and  C6_10 
REMARK    7  A    between atoms: C6_10  and  C7_11 
REMARK    8  A    between atoms: C7_11  and  N2_12 
REMARK    9  A    between atoms: N2_12  and  C8_14 
REMARK   10  A    between atoms: C10_20  and  N5_21 
ROOT
HETATM    1  C8  UNL     1       2.295  -0.346   0.120  1.00  0.00     0.680 A 
HETATM    2  N3  UNL     1       3.237  -1.221   0.568  1.00  0.00    -0.174 N 
ATOM      3  H3  UNL     1       3.059  -2.183   0.858  1.00  0.00     0.186 HD
HETATM    4  C9  UNL     1       4.439  -0.617   0.567  1.00  0.00     0.167 A 
HETATM    5  N4  UNL     1       5.692  -1.022   0.912  1.00  0.00    -0.174 N 
ATOM      6  H4  UNL     1       5.843  -1.971   1.253  1.00  0.00     0.186 HD
HETATM    7  C10 UNL     1       6.732  -0.176   0.805  1.00  0.00     0.679 A 
HETATM    8  N6  UNL     1       6.542   1.078   0.358  1.00  0.00    -0.175 N 
ATOM      9  H6  UNL     1       7.352   1.694   0.291  1.00  0.00     0.186 HD
HETATM   10  C11 UNL     1       5.342   1.563  -0.005  1.00  0.00     0.146 A 
HETATM   11  N7  UNL     1       5.113   2.737  -0.434  1.00  0.00    -0.383 N 
ATOM     12  H71 UNL     1       4.202   3.105  -0.709  1.00  0.00     0.157 HD
ATOM     13  H72 UNL     1       5.898   3.383  -0.516  1.00  0.00     0.157 HD
HETATM   14  C12 UNL     1       4.264   0.677   0.108  1.00  0.00     0.138 A 
HETATM   15  N8  UNL     1       2.952   0.796  -0.151  1.00  0.00    -0.184 N 
ATOM     16  H8  UNL     1       2.510   1.643  -0.507  1.00  0.00     0.184 HD
ENDROOT
BRANCH   1  17
HETATM   17  N2  UNL     1       1.038  -0.603  -0.005  1.00  0.00    -0.226 N 
ATOM     18  H2  UNL     1       0.704  -1.533   0.247  1.00  0.00     0.177 HD
BRANCH  17  19
HETATM   19  C7  UNL     1       0.096   0.352  -0.478  1.00  0.00     0.140 C 
BRANCH  19  20
HETATM   20  C6  UNL     1      -0.594  -0.057  -1.775  1.00  0.00     0.046 C 
BRANCH  20  21
HETATM   21  C5  UNL     1      -1.336  -1.341  -1.573  1.00  0.00     0.169 C 
BRANCH  21  22
HETATM   22  O1  UNL     1      -2.308  -1.289  -0.597  1.00  0.00    -0.389 OA
BRANCH  22  23
HETATM   23  C4  UNL     1      -3.297  -0.346  -0.840  1.00  0.00     0.195 C 
BRANCH  23  24
HETATM   24  C3  UNL     1      -4.265  -0.435   0.330  1.00  0.00     0.258 C 
BRANCH  24  25
HETATM   25  N1  UNL     1      -5.299   0.529   0.108  1.00  0.00    -0.073 N 
ATOM     26  H12 UNL     1      -5.736   0.391  -0.803  1.00  0.00     0.277 HD
ATOM     27  H11 UNL     1      -4.905   1.459  -0.035  1.00  0.00     0.277 HD
BRANCH  25  28
HETATM   28  C2  UNL     1      -6.293   0.546   1.160  1.00  0.00     0.228 C 
HETATM   29  C1  UNL     1      -7.135  -0.684   1.213  1.00  0.00     0.034 C 
ENDBRANCH  25  28
ENDBRANCH  24  25
ENDBRANCH  23  24
ENDBRANCH  22  23
ENDBRANCH  21  22
ENDBRANCH  20  21
ENDBRANCH  19  20
ENDBRANCH  17  19
ENDBRANCH   1  17
BRANCH   7  30
HETATM   30  N5  UNL     1       7.937  -0.571   1.140  1.00  0.00    -0.234 N 
ATOM     31  H52 UNL     1       8.081  -1.522   1.479  1.00  0.00     0.174 HD
ATOM     32  H51 UNL     1       8.726   0.071   1.059  1.00  0.00     0.174 HD
ENDBRANCH   7  30
TORSDOF 10
