REMARK  7 active torsions:
REMARK  status: ('A' for Active; 'I' for Inactive)
REMARK    1  A    between atoms: C2_2  and  C4_4 
REMARK    2  A    between atoms: C4_4  and  C5_5 
REMARK    3  A    between atoms: C5_5  and  C6_6 
REMARK    4  A    between atoms: C5_5  and  C13_18 
REMARK    5  A    between atoms: N1_7  and  N2_9 
REMARK    6  A    between atoms: N2_9  and  C7_11 
REMARK    7  A    between atoms: C7_11  and  C9_13 
ROOT
HETATM    1  C6  UNL     1      -1.388  -0.320  -1.254  1.00  0.00     0.093 C 
HETATM    2  N1  UNL     1      -0.358  -0.786  -0.589  1.00  0.00    -0.319 N 
ATOM      3  H1  UNL     1      -0.441  -1.612   0.004  1.00  0.00     0.185 HD
ENDROOT
BRANCH   2   4
HETATM    4  N2  UNL     1       0.850  -0.113  -0.722  1.00  0.00    -0.331 N 
ATOM      5  H2  UNL     1       1.112   0.249  -1.639  1.00  0.00     0.180 HD
BRANCH   4   6
HETATM    6  C7  UNL     1       1.758   0.095   0.403  1.00  0.00     0.128 C 
HETATM    7  C8  UNL     1       2.149  -1.236   0.912  1.00  0.00     0.036 C 
BRANCH   6   8
HETATM    8  C9  UNL     1       2.800   1.039   0.007  1.00  0.00     0.239 A 
HETATM    9  C10 UNL     1       3.634   0.554  -1.185  1.00  0.00     0.272 A 
HETATM   10  N3  UNL     1       4.176   0.967   0.099  1.00  0.00    -0.065 N 
HETATM   11  C11 UNL     1       4.919   2.238  -0.012  1.00  0.00     0.272 C 
HETATM   12  C12 UNL     1       4.929  -0.047   0.772  1.00  0.00     0.272 C 
ENDBRANCH   6   8
ENDBRANCH   4   6
ENDBRANCH   2   4
BRANCH   1  13
HETATM   13  C5  UNL     1      -2.670  -1.005  -1.135  1.00  0.00     0.115 C 
BRANCH  13  14
HETATM   14  C4  UNL     1      -3.493  -0.721   0.069  1.00  0.00     0.023 C 
BRANCH  14  15
HETATM   15  C2  UNL     1      -3.909   0.700   0.186  1.00  0.00    -0.022 C 
HETATM   16  C1  UNL     1      -2.806   1.678   0.308  1.00  0.00     0.009 C 
HETATM   17  C3  UNL     1      -4.928   0.847   1.329  1.00  0.00     0.009 C 
ENDBRANCH  14  15
ENDBRANCH  13  14
BRANCH  13  18
HETATM   18  C13 UNL     1      -2.495  -2.493  -1.212  1.00  0.00     0.240 C 
HETATM   19  N4  UNL     1      -3.635  -3.342  -1.308  1.00  0.00    -0.061 NA
HETATM   20  O1  UNL     1      -1.330  -2.947  -1.189  1.00  0.00    -0.276 OA
ENDBRANCH  13  18
ENDBRANCH   1  13
TORSDOF 7
