REMARK  6 active torsions:
REMARK  status: ('A' for Active; 'I' for Inactive)
REMARK    1  A    between atoms: C2_2  and  C3_3 
REMARK    2  A    between atoms: C3_3  and  C4_4 
REMARK    3  A    between atoms: C4_4  and  C5_5 
REMARK       I    between atoms: C5_5  and  N1_7 
REMARK    4  A    between atoms: N1_7  and  C6_9 
REMARK    5  A    between atoms: C6_9  and  C7_10 
REMARK    6  A    between atoms: C7_10  and  N2_11 
REMARK       I    between atoms: N2_11  and  C8_13 
REMARK       I    between atoms: C8_13  and  N3_15 
ROOT
HETATM    1  C7  UNL     1      -0.274  -2.465  -0.046  1.00  0.00     0.144 C 
ENDROOT
BRANCH   1   2
HETATM    2  C6  UNL     1       1.059  -2.050   0.484  1.00  0.00     0.142 C 
BRANCH   2   3
HETATM    3  N1  UNL     1       1.600  -0.897  -0.193  1.00  0.00    -0.360 N 
HETATM    4  C5  UNL     1       2.872  -0.356   0.181  1.00  0.00     0.217 C 
HETATM    5  O1  UNL     1       3.482  -0.929   1.115  1.00  0.00    -0.274 OA
ATOM      6  H1  UNL     1       1.070  -0.461  -0.948  1.00  0.00     0.162 HD
BRANCH   4   7
HETATM    7  C4  UNL     1       3.332   0.813  -0.566  1.00  0.00     0.103 C 
BRANCH   7   8
HETATM    8  C3  UNL     1       4.663   1.356  -0.205  1.00  0.00     0.009 C 
BRANCH   8   9
HETATM    9  C2  UNL     1       5.819   0.428  -0.379  1.00  0.00    -0.004 C 
HETATM   10  C1  UNL     1       7.138   1.104   0.022  1.00  0.00     0.005 C 
ENDBRANCH   8   9
ENDBRANCH   7   8
ENDBRANCH   4   7
ENDBRANCH   2   3
ENDBRANCH   1   2
BRANCH   1  11
HETATM   11  N2  UNL     1      -1.255  -1.426   0.086  1.00  0.00    -0.341 N 
HETATM   12  C8  UNL     1      -2.597  -1.582  -0.346  1.00  0.00     0.318 C 
HETATM   13  O2  UNL     1      -2.900  -2.710  -0.867  1.00  0.00    -0.247 OA
HETATM   14  N3  UNL     1      -3.553  -0.538  -0.205  1.00  0.00    -0.334 N 
HETATM   15  C9  UNL     1      -4.897  -0.802  -0.680  1.00  0.00     0.127 C 
HETATM   16  C13 UNL     1      -3.139   0.693   0.387  1.00  0.00     0.127 C 
HETATM   17  C10 UNL     1      -5.502   0.530  -1.071  1.00  0.00     0.020 C 
HETATM   18  C11 UNL     1      -5.557   1.378   0.160  1.00  0.00     0.003 C 
HETATM   19  C12 UNL     1      -4.233   1.613   0.796  1.00  0.00     0.020 C 
ATOM     20  H2  UNL     1      -0.976  -0.540   0.507  1.00  0.00     0.164 HD
ENDBRANCH   1  11
TORSDOF 6
