REMARK  7 active torsions:
REMARK  status: ('A' for Active; 'I' for Inactive)
REMARK    1  A    between atoms: C1_2  and  N2_4 
REMARK    2  A    between atoms: N2_4  and  C2_6 
REMARK    3  A    between atoms: C2_6  and  C3_7 
REMARK    4  A    between atoms: C3_7  and  C4_8 
REMARK    5  A    between atoms: C4_8  and  C5_9 
REMARK    6  A    between atoms: C5_9  and  C6_10 
REMARK    7  A    between atoms: C6_10  and  C7_11 
REMARK       I    between atoms: C7_11  and  N3_13 
ROOT
HETATM    1  C5  UNL     1       0.915  -0.151  -0.533  1.00  0.00     0.009 C 
ENDROOT
BRANCH   1   2
HETATM    2  C4  UNL     1       1.762   0.990  -0.981  1.00  0.00     0.002 C 
BRANCH   2   3
HETATM    3  C3  UNL     1       3.221   0.582  -0.976  1.00  0.00     0.020 C 
BRANCH   3   4
HETATM    4  C2  UNL     1       3.738   0.167   0.354  1.00  0.00     0.121 C 
BRANCH   4   5
HETATM    5  N2  UNL     1       5.127  -0.201   0.255  1.00  0.00    -0.369 N 
ATOM      6  H2  UNL     1       5.365  -1.188   0.348  1.00  0.00     0.161 HD
BRANCH   5   7
HETATM    7  C1  UNL     1       6.177   0.709   0.039  1.00  0.00     0.180 C 
HETATM    8  N1  UNL     1       7.521   0.228  -0.056  1.00  0.00    -0.070 NA
HETATM    9  S1  UNL     1       5.907   2.318  -0.078  1.00  0.00    -0.044 SA
ENDBRANCH   5   7
ENDBRANCH   4   5
ENDBRANCH   3   4
ENDBRANCH   2   3
ENDBRANCH   1   2
BRANCH   1  10
HETATM   10  C6  UNL     1      -0.539   0.265  -0.547  1.00  0.00     0.103 C 
BRANCH  10  11
HETATM   11  C7  UNL     1      -1.422  -0.866  -0.104  1.00  0.00     0.219 C 
HETATM   12  O1  UNL     1      -0.934  -1.983   0.217  1.00  0.00    -0.273 OA
HETATM   13  N3  UNL     1      -2.817  -0.636  -0.058  1.00  0.00    -0.352 N 
HETATM   14  C8  UNL     1      -3.325   0.653  -0.426  1.00  0.00     0.125 C 
HETATM   15  C12 UNL     1      -3.654  -1.745   0.364  1.00  0.00     0.125 C 
HETATM   16  C9  UNL     1      -4.782   0.797  -0.545  1.00  0.00     0.020 C 
HETATM   17  C10 UNL     1      -5.603  -0.310   0.037  1.00  0.00     0.003 C 
HETATM   18  C11 UNL     1      -4.857  -1.142   1.047  1.00  0.00     0.020 C 
ENDBRANCH  10  11
ENDBRANCH   1  10
TORSDOF 7
