REMARK  6 active torsions:
REMARK  status: ('A' for Active; 'I' for Inactive)
REMARK    1  A    between atoms: C2_2  and  C3_3 
REMARK    2  A    between atoms: C3_3  and  C4_4 
REMARK    3  A    between atoms: C4_4  and  C5_5 
REMARK    4  A    between atoms: C5_5  and  N1_7 
REMARK       I    between atoms: N1_7  and  C7_9 
REMARK    5  A    between atoms: C7_9  and  C8_11 
REMARK    6  A    between atoms: C10_13  and  C12_15 
REMARK       I    between atoms: C12_15  and  N2_17 
REMARK       I    between atoms: N2_17  and  C13_19 
ROOT
HETATM    1  C8  UNL     1      -1.164  -0.581  -1.008  1.00  0.00     0.096 A 
HETATM    2  C9  UNL     1      -2.206  -1.566  -1.367  1.00  0.00     0.035 A 
HETATM    3  C10 UNL     1      -2.105  -1.255   0.056  1.00  0.00     0.051 A 
HETATM    4  C11 UNL     1      -1.343  -2.058   1.053  1.00  0.00     0.026 C 
ENDROOT
BRANCH   1   5
HETATM    5  C7  UNL     1       0.260  -1.061  -0.806  1.00  0.00     0.223 C 
HETATM    6  N1  UNL     1       1.147  -0.300  -0.044  1.00  0.00    -0.356 N 
ATOM      7  H1  UNL     1       0.759   0.583   0.288  1.00  0.00     0.162 HD
HETATM    8  O1  UNL     1       0.570  -2.146  -1.331  1.00  0.00    -0.273 OA
BRANCH   6   9
HETATM    9  C5  UNL     1       2.480  -0.526   0.351  1.00  0.00     0.090 C 
HETATM   10  C6  UNL     1       2.949   0.373   1.446  1.00  0.00     0.033 C 
BRANCH   9  11
HETATM   11  C4  UNL     1       3.458  -0.623  -0.810  1.00  0.00     0.109 C 
BRANCH  11  12
HETATM   12  C3  UNL     1       4.449   0.120  -0.913  1.00  0.00    -0.155 C 
BRANCH  12  13
HETATM   13  C2  UNL     1       5.575   0.955  -1.042  1.00  0.00     0.040 C 
HETATM   14  C1  UNL     1       5.877   1.905  -0.170  1.00  0.00     0.020 C 
ENDBRANCH  12  13
ENDBRANCH  11  12
ENDBRANCH   9  11
ENDBRANCH   6   9
ENDBRANCH   1   5
BRANCH   3  15
HETATM   15  C12 UNL     1      -3.056  -0.298   0.611  1.00  0.00     0.233 C 
HETATM   16  O2  UNL     1      -2.980  -0.066   1.887  1.00  0.00    -0.272 OA
HETATM   17  N2  UNL     1      -4.065   0.438  -0.044  1.00  0.00    -0.297 N 
HETATM   18  C13 UNL     1      -4.933   1.343   0.621  1.00  0.00     0.220 C 
ATOM     19  H2  UNL     1      -4.177   0.313  -1.050  1.00  0.00     0.171 HD
HETATM   20  C14 UNL     1      -5.962   2.101  -0.091  1.00  0.00     0.117 C 
HETATM   21  O3  UNL     1      -4.791   1.487   1.880  1.00  0.00    -0.274 OA
ENDBRANCH   3  15
TORSDOF 6
