REMARK  4 active torsions:
REMARK  status: ('A' for Active; 'I' for Inactive)
REMARK    1  A    between atoms: C2_3  and  C3_4 
REMARK    2  A    between atoms: C3_4  and  C4_5 
REMARK    3  A    between atoms: C4_5  and  O2_7 
REMARK    4  A    between atoms: O2_7  and  C5_8 
ROOT
HETATM    1  N1  UNL     1       6.161   0.260   0.791  1.00  0.00    -0.197 NA
HETATM    2  C1  UNL     1       5.140   0.177   0.280  1.00  0.00     0.059 C 
HETATM    3  C2  UNL     1       3.844   0.054  -0.362  1.00  0.00     0.133 C 
ENDROOT
BRANCH   3   4
HETATM    4  C3  UNL     1       2.715   0.141   0.646  1.00  0.00     0.125 C 
BRANCH   4   5
HETATM    5  C4  UNL     1       1.430   0.007  -0.094  1.00  0.00     0.260 C 
HETATM    6  O1  UNL     1       1.406  -0.151  -1.362  1.00  0.00    -0.265 OA
BRANCH   5   7
HETATM    7  O2  UNL     1       0.192   0.042   0.525  1.00  0.00    -0.316 OA
BRANCH   7   8
HETATM    8  C5  UNL     1      -1.014  -0.083  -0.155  1.00  0.00     0.132 C 
HETATM    9  C6  UNL     1      -1.911   1.130   0.136  1.00  0.00     0.032 C 
HETATM   10  C7  UNL     1      -3.185   0.652  -0.520  1.00  0.00     0.002 C 
HETATM   11  C8  UNL     1      -3.300  -0.755   0.015  1.00  0.00     0.002 C 
HETATM   12  C9  UNL     1      -1.890  -1.205   0.351  1.00  0.00     0.032 C 
ENDBRANCH   7   8
ENDBRANCH   5   7
ENDBRANCH   4   5
ENDBRANCH   3   4
TORSDOF 4
