REMARK  3 active torsions:
REMARK  status: ('A' for Active; 'I' for Inactive)
REMARK    1  A    between atoms: S1_3  and  C2_4 
REMARK    2  A    between atoms: C2_4  and  C3_5 
REMARK    3  A    between atoms: C3_5  and  N2_6 
ROOT
HETATM    1  N1  UNL     1       5.192   1.280   0.593  1.00  0.00    -0.184 NA
HETATM    2  C1  UNL     1       4.655   0.263   0.545  1.00  0.00     0.133 C 
HETATM    3  S1  UNL     1       3.806  -1.320   0.511  1.00  0.00    -0.049 SA
ENDROOT
BRANCH   3   4
HETATM    4  C2  UNL     1       2.229  -1.054  -0.372  1.00  0.00     0.120 C 
BRANCH   4   5
HETATM    5  C3  UNL     1       1.340  -0.111   0.437  1.00  0.00     0.283 C 
BRANCH   5   6
HETATM    6  N2  UNL     1       0.093   0.171  -0.205  1.00  0.00     0.089 N 
HETATM    7  C4  UNL     1      -0.583   1.195   0.587  1.00  0.00     0.272 C 
HETATM    8  C5  UNL     1      -2.080   1.003   0.584  1.00  0.00     0.030 C 
HETATM    9  C6  UNL     1      -2.474   0.676  -0.850  1.00  0.00     0.003 C 
HETATM   10  C7  UNL     1      -1.968  -0.739  -1.117  1.00  0.00     0.030 C 
HETATM   11  C8  UNL     1      -0.726  -1.019  -0.287  1.00  0.00     0.272 C 
ENDBRANCH   5   6
ENDBRANCH   4   5
ENDBRANCH   3   4
TORSDOF 3
