REMARK  5 active torsions:
REMARK  status: ('A' for Active; 'I' for Inactive)
REMARK    1  A    between atoms: C2_2  and  C3_3 
REMARK    2  A    between atoms: C3_3  and  N1_4 
REMARK    3  A    between atoms: N1_4  and  C4_6 
REMARK    4  A    between atoms: C4_6  and  N2_7 
REMARK    5  A    between atoms: N2_7  and  C5_9 
ROOT
HETATM    1  N2  UNL     1       0.197   0.393  -0.816  1.00  0.00    -0.316 N 
ATOM      2  H2  UNL     1       0.757   0.923  -1.484  1.00  0.00     0.173 HD
ENDROOT
BRANCH   1   3
HETATM    3  C4  UNL     1      -1.059   0.261  -0.990  1.00  0.00     0.045 C 
BRANCH   3   4
HETATM    4  N1  UNL     1      -2.321   0.369  -1.168  1.00  0.00    -0.340 N 
ATOM      5  H1  UNL     1      -2.737   0.250  -2.092  1.00  0.00     0.170 HD
BRANCH   4   6
HETATM    6  C3  UNL     1      -3.143   0.668  -0.003  1.00  0.00     0.156 C 
BRANCH   6   7
HETATM    7  C2  UNL     1      -4.548   0.332  -0.197  1.00  0.00    -0.017 C 
HETATM    8  C1  UNL     1      -5.144  -0.545   0.590  1.00  0.00     0.008 C 
ENDBRANCH   6   7
ENDBRANCH   4   6
ENDBRANCH   3   4
ENDBRANCH   1   3
BRANCH   1   9
HETATM    9  C5  UNL     1       0.814  -0.211   0.327  1.00  0.00     0.228 C 
HETATM   10  C6  UNL     1       1.906  -1.147  -0.181  1.00  0.00     0.054 C 
HETATM   11  C7  UNL     1       3.115  -1.088   0.756  1.00  0.00     0.006 C 
HETATM   12  C8  UNL     1       3.689   0.305   0.624  1.00  0.00     0.026 C 
HETATM   13  C9  UNL     1       2.540   1.289   0.658  1.00  0.00     0.170 C 
HETATM   14  O1  UNL     1       1.384   0.720   1.193  1.00  0.00    -0.366 OA
ENDBRANCH   1   9
TORSDOF 5
