REMARK  3 active torsions:
REMARK  status: ('A' for Active; 'I' for Inactive)
REMARK    1  A    between atoms: C2_2  and  C3_3 
REMARK    2  A    between atoms: C3_3  and  C4_4 
REMARK    3  A    between atoms: C6_7  and  C7_8 
ROOT
HETATM    1  C4  UNL     1      -1.073  -0.665   0.131  1.00  0.00     0.187 C 
HETATM    2  C5  UNL     1      -0.288   0.149  -0.868  1.00  0.00     0.206 C 
HETATM    3  O1  UNL     1       0.946   0.415  -0.326  1.00  0.00    -0.355 OA
HETATM    4  C6  UNL     1       1.265  -0.498   0.657  1.00  0.00     0.300 C 
HETATM    5  O2  UNL     1       0.381  -0.483   1.734  1.00  0.00    -0.207 OA
HETATM    6  O3  UNL     1      -0.837  -0.131   1.384  1.00  0.00    -0.231 OA
ENDROOT
BRANCH   1   7
HETATM    7  C3  UNL     1      -2.539  -0.724  -0.223  1.00  0.00     0.063 C 
BRANCH   7   8
HETATM    8  C2  UNL     1      -3.187   0.603  -0.270  1.00  0.00    -0.034 C 
HETATM    9  C1  UNL     1      -4.199   0.901   0.517  1.00  0.00     0.007 C 
ENDBRANCH   7   8
ENDBRANCH   1   7
BRANCH   4  10
HETATM   10  C7  UNL     1       2.646  -0.236   1.225  1.00  0.00     0.044 A 
HETATM   11  C8  UNL     1       3.833  -0.277   0.355  1.00  0.00     0.010 A 
HETATM   12  C9  UNL     1       3.289   1.048   0.764  1.00  0.00     0.010 A 
ENDBRANCH   4  10
TORSDOF 3
