REMARK  3 active torsions:
REMARK  status: ('A' for Active; 'I' for Inactive)
REMARK    1  A    between atoms: S1_3  and  C2_4 
REMARK    2  A    between atoms: C2_4  and  C3_5 
REMARK    3  A    between atoms: C3_5  and  C4_6 
ROOT
HETATM    1  N1  UNL     1       4.232   1.552   1.383  1.00  0.00    -0.184 NA
HETATM    2  C1  UNL     1       3.711   0.907   0.558  1.00  0.00     0.133 C 
HETATM    3  S1  UNL     1       2.916  -0.083  -0.665  1.00  0.00    -0.051 SA
ENDROOT
BRANCH   3   4
HETATM    4  C2  UNL     1       1.906  -1.301   0.168  1.00  0.00     0.092 C 
BRANCH   4   5
HETATM    5  C3  UNL     1       0.752  -0.711   0.919  1.00  0.00     0.043 C 
BRANCH   5   6
HETATM    6  C4  UNL     1      -0.190   0.060   0.027  1.00  0.00     0.122 C 
HETATM    7  C5  UNL     1      -1.333   0.625   0.843  1.00  0.00     0.034 C 
HETATM    8  C6  UNL     1      -2.509   0.605  -0.113  1.00  0.00     0.029 C 
HETATM    9  C7  UNL     1      -1.834   0.090  -1.377  1.00  0.00     0.168 C 
HETATM   10  O1  UNL     1      -0.809  -0.762  -0.909  1.00  0.00    -0.386 OA
ENDBRANCH   5   6
ENDBRANCH   4   5
ENDBRANCH   3   4
TORSDOF 3
