REMARK  3 active torsions:
REMARK  status: ('A' for Active; 'I' for Inactive)
REMARK    1  A    between atoms: C3_3  and  S1_4 
REMARK    2  A    between atoms: S1_4  and  C4_5 
REMARK    3  A    between atoms: C4_5  and  C5_6 
ROOT
HETATM    1  C1  UNL     1      -3.775  -0.138   0.553  1.00  0.00     0.168 C 
HETATM    2  C2  UNL     1      -2.494  -0.169   1.364  1.00  0.00     0.043 C 
HETATM    3  C3  UNL     1      -1.499   0.220   0.264  1.00  0.00     0.073 C 
HETATM    4  C8  UNL     1      -2.119  -0.527  -0.901  1.00  0.00     0.182 C 
HETATM    5  O1  UNL     1      -3.474  -0.536  -0.721  1.00  0.00    -0.390 OA
ENDROOT
BRANCH   3   6
HETATM    6  S1  UNL     1       0.162  -0.381   0.651  1.00  0.00    -0.162 SA
BRANCH   6   7
HETATM    7  C4  UNL     1       1.261   0.121  -0.691  1.00  0.00     0.079 C 
BRANCH   7   8
HETATM    8  C5  UNL     1       2.677  -0.324  -0.481  1.00  0.00    -0.005 A 
HETATM    9  C6  UNL     1       3.434   0.116   0.691  1.00  0.00     0.006 A 
HETATM   10  C7  UNL     1       3.801   0.652  -0.696  1.00  0.00     0.006 A 
ENDBRANCH   7   8
ENDBRANCH   6   7
ENDBRANCH   3   6
TORSDOF 3
