REMARK  5 active torsions:
REMARK  status: ('A' for Active; 'I' for Inactive)
REMARK    1  A    between atoms: O1_1  and  N1_3 
REMARK    2  A    between atoms: N1_3  and  C1_5 
REMARK    3  A    between atoms: C6_10  and  N2_11 
REMARK       I    between atoms: N2_11  and  C7_13 
REMARK    4  A    between atoms: C7_13  and  C8_15 
REMARK       I    between atoms: C8_15  and  N3_17 
REMARK    5  A    between atoms: N3_17  and  C9_19 
ROOT
HETATM    1  N2  UNL     1      -1.105   0.311   0.063  1.00  0.00    -0.317 N 
ATOM      2  H2  UNL     1      -0.848   1.295   0.136  1.00  0.00     0.169 HD
HETATM    3  C7  UNL     1      -0.033  -0.566  -0.012  1.00  0.00     0.314 C 
HETATM    4  O2  UNL     1      -0.170  -1.805  -0.104  1.00  0.00    -0.262 OA
ENDROOT
BRANCH   1   5
HETATM    5  C6  UNL     1      -2.488   0.063   0.055  1.00  0.00     0.064 A 
HETATM    6  C1  UNL     1      -3.399   1.127   0.142  1.00  0.00     0.081 A 
HETATM    7  C2  UNL     1      -4.747   0.949   0.139  1.00  0.00     0.034 A 
HETATM    8  C3  UNL     1      -5.232  -0.334   0.046  1.00  0.00     0.002 A 
HETATM    9  C4  UNL     1      -4.374  -1.395  -0.041  1.00  0.00     0.002 A 
HETATM   10  C5  UNL     1      -2.986  -1.208  -0.038  1.00  0.00     0.032 A 
BRANCH   6  11
HETATM   11  N1  UNL     1      -2.887   2.439   0.238  1.00  0.00    -0.267 N 
ATOM     12  H1  UNL     1      -2.709   2.799   1.176  1.00  0.00     0.194 HD
BRANCH  11  13
HETATM   13  O1  UNL     1      -2.636   3.186  -0.703  1.00  0.00    -0.289 OA
ATOM     14  H1  UNL     1      -2.291   4.069  -0.638  1.00  0.00     0.244 HD
ENDBRANCH  11  13
ENDBRANCH   6  11
ENDBRANCH   1   5
BRANCH   3  15
HETATM   15  C8  UNL     1       1.337  -0.014   0.020  1.00  0.00     0.315 C 
HETATM   16  O3  UNL     1       1.478   1.224   0.112  1.00  0.00    -0.262 OA
HETATM   17  N3  UNL     1       2.467  -0.860  -0.053  1.00  0.00    -0.299 N 
ATOM     18  H3  UNL     1       2.354  -1.871  -0.129  1.00  0.00     0.171 HD
BRANCH  17  19
HETATM   19  C9  UNL     1       3.758  -0.282  -0.019  1.00  0.00     0.149 A 
HETATM   20  C10 UNL     1       4.965  -0.986  -0.082  1.00  0.00     0.058 A 
HETATM   21  C11 UNL     1       5.987  -0.062  -0.020  1.00  0.00     0.029 A 
HETATM   22  C12 UNL     1       5.373   1.167   0.078  1.00  0.00     0.144 A 
HETATM   23  O4  UNL     1       4.077   0.999   0.075  1.00  0.00    -0.306 OA
ENDBRANCH  17  19
ENDBRANCH   3  15
TORSDOF 5
