REMARK  5 active torsions:
REMARK  status: ('A' for Active; 'I' for Inactive)
REMARK    1  A    between atoms: C2_2  and  C3_3 
REMARK    2  A    between atoms: C3_3  and  C4_8 
REMARK    3  A    between atoms: N1_4  and  O1_6 
REMARK    4  A    between atoms: C7_11  and  N2_12 
REMARK    5  A    between atoms: N2_12  and  N3_14 
ROOT
HETATM    1  N3  UNL     1       3.823   0.552   1.500  1.00  0.00    -0.281 N 
ATOM      2  H3  UNL     1       3.474   1.262   2.144  1.00  0.00     0.188 HD
HETATM    3  C8  UNL     1       5.069   0.469   1.243  1.00  0.00     0.209 C 
HETATM    4  C9  UNL     1       5.972   1.382   1.866  1.00  0.00     0.130 C 
HETATM    5  N4  UNL     1       6.693   2.136   2.370  1.00  0.00    -0.189 NA
HETATM    6  C10 UNL     1       5.543  -0.527   0.343  1.00  0.00     0.130 C 
HETATM    7  N5  UNL     1       5.929  -1.349  -0.374  1.00  0.00    -0.189 NA
ENDROOT
BRANCH   1   8
HETATM    8  N2  UNL     1       2.947  -0.337   0.892  1.00  0.00    -0.292 N 
ATOM      9  H2  UNL     1       3.296  -1.236   0.559  1.00  0.00     0.187 HD
BRANCH   8  10
HETATM   10  C7  UNL     1       1.545  -0.009   0.722  1.00  0.00     0.089 A 
HETATM   11  C6  UNL     1       0.918   1.146   1.107  1.00  0.00     0.040 A 
HETATM   12  C5  UNL     1      -0.403   1.245   0.851  1.00  0.00     0.024 A 
HETATM   13  C4  UNL     1      -0.992   0.185   0.232  1.00  0.00     0.031 A 
HETATM   14  S1  UNL     1       0.290  -0.917   0.020  1.00  0.00    -0.069 SA
BRANCH  13  15
HETATM   15  C3  UNL     1      -2.430   0.029  -0.169  1.00  0.00     0.048 C 
HETATM   16  N1  UNL     1      -3.193   0.977   0.091  1.00  0.00    -0.272 N 
ATOM     17  H1  UNL     1      -2.764   1.778   0.555  1.00  0.00     0.194 HD
BRANCH  15  18
HETATM   18  C2  UNL     1      -2.834  -1.222  -0.832  1.00  0.00     0.056 C 
HETATM   19  C1  UNL     1      -4.261  -1.326  -1.210  1.00  0.00     0.011 C 
ENDBRANCH  15  18
BRANCH  16  20
HETATM   20  O1  UNL     1      -4.490   1.082  -0.156  1.00  0.00    -0.290 OA
ATOM     21  H1  UNL     1      -5.073   1.806   0.042  1.00  0.00     0.244 HD
ENDBRANCH  16  20
ENDBRANCH  13  15
ENDBRANCH   8  10
ENDBRANCH   1   8
TORSDOF 5
