REMARK  5 active torsions:
REMARK  status: ('A' for Active; 'I' for Inactive)
REMARK    1  A    between atoms: C2_2  and  C4_4 
REMARK    2  A    between atoms: C2_2  and  N4_18 
REMARK    3  A    between atoms: N2_7  and  N3_9 
REMARK    4  A    between atoms: N3_9  and  C6_11 
REMARK    5  A    between atoms: C9_14  and  O1_15 
ROOT
HETATM    1  C4  UNL     1      -1.077  -0.520   0.087  1.00  0.00     0.139 C 
HETATM    2  C5  UNL     1      -0.878  -1.248   1.296  1.00  0.00     0.117 C 
HETATM    3  N1  UNL     1      -0.722  -1.831   2.269  1.00  0.00    -0.190 NA
HETATM    4  N2  UNL     1      -0.214  -0.548  -0.863  1.00  0.00    -0.291 N 
ATOM      5  H2  UNL     1      -0.374  -0.020  -1.721  1.00  0.00     0.187 HD
ENDROOT
BRANCH   1   6
HETATM    6  C2  UNL     1      -2.300   0.292  -0.092  1.00  0.00     0.142 C 
HETATM    7  C1  UNL     1      -3.552  -0.589  -0.002  1.00  0.00     0.053 C 
HETATM    8  C3  UNL     1      -2.447   1.343   0.979  1.00  0.00     0.053 C 
BRANCH   6   9
HETATM    9  N4  UNL     1      -2.330   0.915  -1.416  1.00  0.00    -0.139 N 
HETATM   10  O2  UNL     1      -2.362   2.153  -1.539  1.00  0.00    -0.536 OA
HETATM   11  O3  UNL     1      -2.323   0.145  -2.551  1.00  0.00    -0.536 OA
ENDBRANCH   6   9
ENDBRANCH   1   6
BRANCH   4  12
HETATM   12  N3  UNL     1       0.941  -1.306  -0.709  1.00  0.00    -0.293 N 
ATOM     13  H3  UNL     1       0.940  -2.302  -0.930  1.00  0.00     0.187 HD
BRANCH  12  14
HETATM   14  C6  UNL     1       2.141  -0.662  -0.231  1.00  0.00     0.091 A 
HETATM   15  C7  UNL     1       3.369  -1.222  -0.012  1.00  0.00     0.042 A 
HETATM   16  C8  UNL     1       4.341  -0.420   0.437  1.00  0.00     0.047 A 
HETATM   17  C9  UNL     1       4.026   0.898   0.641  1.00  0.00     0.109 A 
HETATM   18  S1  UNL     1       2.381   0.969   0.198  1.00  0.00    -0.047 SA
BRANCH  17  19
HETATM   19  O1  UNL     1       4.885   1.918   1.107  1.00  0.00    -0.354 OA
ATOM     20  H1  UNL     1       4.667   2.832   1.248  1.00  0.00     0.218 HD
ENDBRANCH  17  19
ENDBRANCH  12  14
ENDBRANCH   4  12
TORSDOF 5
