REMARK  4 active torsions:
REMARK  status: ('A' for Active; 'I' for Inactive)
REMARK    1  A    between atoms: S1_2  and  N1_5 
REMARK    2  A    between atoms: C2_8  and  N2_9 
REMARK    3  A    between atoms: N3_11  and  N4_13 
REMARK    4  A    between atoms: N4_13  and  C3_15 
ROOT
HETATM    1  N2  UNL     1       1.460  -0.089   1.516  1.00  0.00    -0.267 N 
ATOM      2  H2  UNL     1       1.928   0.072   2.408  1.00  0.00     0.190 HD
HETATM    3  N3  UNL     1       0.352   0.506   1.297  1.00  0.00    -0.241 N 
ATOM      4  H3  UNL     1      -0.041   1.122   2.008  1.00  0.00     0.208 HD
ENDROOT
BRANCH   1   5
HETATM    5  C2  UNL     1       2.078  -0.968   0.577  1.00  0.00     0.188 A 
HETATM    6  N1  UNL     1       3.306  -1.056   0.068  1.00  0.00    -0.101 N 
HETATM    7  O4  UNL     1       2.898  -2.068  -0.637  1.00  0.00    -0.226 OA
HETATM    8  C1  UNL     1       1.653  -2.030  -0.164  1.00  0.00     0.222 A 
BRANCH   6   9
HETATM    9  S1  UNL     1       4.803  -0.230   0.215  1.00  0.00     0.237 S 
HETATM   10  O1  UNL     1       5.377  -0.250   1.588  1.00  0.00    -0.576 OA
HETATM   11  O2  UNL     1       5.818  -0.913  -0.700  1.00  0.00    -0.576 OA
HETATM   12  O3  UNL     1       4.635   1.345  -0.341  1.00  0.00    -0.576 OA
ENDBRANCH   6   9
ENDBRANCH   1   5
BRANCH   3  13
HETATM   13  N4  UNL     1      -0.323   0.319   0.094  1.00  0.00    -0.286 N 
ATOM     14  H4  UNL     1       0.228   0.096  -0.735  1.00  0.00     0.188 HD
BRANCH  13  15
HETATM   15  C3  UNL     1      -1.727   0.419  -0.048  1.00  0.00     0.049 A 
HETATM   16  C4  UNL     1      -2.241   1.486  -0.775  1.00  0.00     0.031 A 
HETATM   17  C5  UNL     1      -3.611   1.607  -0.927  1.00  0.00     0.002 A 
HETATM   18  C6  UNL     1      -4.502   0.704  -0.381  1.00  0.00     0.000 A 
HETATM   19  C7  UNL     1      -3.979  -0.355   0.341  1.00  0.00     0.002 A 
HETATM   20  C8  UNL     1      -2.621  -0.483   0.496  1.00  0.00     0.031 A 
ENDBRANCH  13  15
ENDBRANCH   3  13
TORSDOF 4
