REMARK  5 active torsions:
REMARK  status: ('A' for Active; 'I' for Inactive)
REMARK    1  A    between atoms: C2_3  and  C6_12 
REMARK    2  A    between atoms: N2_4  and  C3_6 
REMARK    3  A    between atoms: C6_12  and  C8_15 
REMARK    4  A    between atoms: C8_15  and  O1_16 
REMARK    5  A    between atoms: N5_18  and  O2_20 
ROOT
HETATM    1  N1  UNL     1       0.440   1.941  -1.459  1.00  0.00    -0.190 NA
HETATM    2  C1  UNL     1       0.161   0.930  -0.954  1.00  0.00     0.115 C 
HETATM    3  C2  UNL     1      -0.171  -0.323  -0.308  1.00  0.00     0.118 C 
HETATM    4  N2  UNL     1       0.622  -0.921   0.486  1.00  0.00    -0.330 N 
ATOM      5  H2  UNL     1       0.330  -1.801   0.912  1.00  0.00     0.168 HD
ENDROOT
BRANCH   3   6
HETATM    6  C6  UNL     1      -1.497  -0.887  -0.614  1.00  0.00     0.229 C 
HETATM    7  C7  UNL     1      -1.658  -2.144   0.123  1.00  0.00     0.079 C 
HETATM    8  N4  UNL     1      -1.788  -3.147   0.695  1.00  0.00    -0.196 NA
BRANCH   6   9
HETATM    9  C8  UNL     1      -2.597   0.051  -0.288  1.00  0.00     0.160 C 
HETATM   10  N5  UNL     1      -2.318   1.204   0.204  1.00  0.00    -0.250 N 
ATOM     11  H5  UNL     1      -1.341   1.452   0.361  1.00  0.00     0.196 HD
BRANCH   9  12
HETATM   12  O1  UNL     1      -3.913  -0.282  -0.499  1.00  0.00    -0.347 OA
ATOM     13  H1  UNL     1      -4.618   0.319  -0.290  1.00  0.00     0.219 HD
ENDBRANCH   9  12
BRANCH  10  14
HETATM   14  O2  UNL     1      -3.297   2.113   0.525  1.00  0.00    -0.288 OA
ATOM     15  H2  UNL     1      -3.091   2.966   0.889  1.00  0.00     0.244 HD
ENDBRANCH  10  14
ENDBRANCH   6   9
ENDBRANCH   3   6
BRANCH   4  16
HETATM   16  C3  UNL     1       1.929  -0.384   0.800  1.00  0.00     0.149 A 
HETATM   17  N3  UNL     1       3.107  -0.986   0.721  1.00  0.00    -0.346 N 
HETATM   18  C4  UNL     1       4.182  -0.348   1.045  1.00  0.00     0.097 A 
ATOM     19  H3  UNL     1       3.165  -1.954   0.404  1.00  0.00     0.167 HD
HETATM   20  C5  UNL     1       4.057   0.951   1.465  1.00  0.00     0.070 A 
HETATM   21  S1  UNL     1       2.361   1.173   1.363  1.00  0.00    -0.064 SA
ENDBRANCH   4  16
TORSDOF 5
