REMARK  5 active torsions:
REMARK  status: ('A' for Active; 'I' for Inactive)
REMARK    1  A    between atoms: O1_1  and  N1_3 
REMARK    2  A    between atoms: C1_4  and  C2_5 
REMARK    3  A    between atoms: C2_5  and  N2_6 
REMARK    4  A    between atoms: N2_6  and  N3_8 
REMARK    5  A    between atoms: N3_8  and  C3_10 
ROOT
HETATM    1  C2  UNL     1       0.955  -1.477  -0.838  1.00  0.00     0.158 C 
ENDROOT
BRANCH   1   2
HETATM    2  C1  UNL     1      -0.306  -0.925  -0.413  1.00  0.00     0.151 A 
HETATM    3  N1  UNL     1      -1.506  -1.158  -0.992  1.00  0.00    -0.205 N 
HETATM    4  C9  UNL     1      -2.447  -0.484  -0.333  1.00  0.00     0.091 A 
HETATM    5  C4  UNL     1      -1.856   0.205   0.698  1.00  0.00     0.063 A 
HETATM    6  C8  UNL     1      -3.829  -0.379  -0.515  1.00  0.00     0.034 A 
HETATM    7  N8  UNL     1      -0.525  -0.097   0.612  1.00  0.00    -0.338 N 
HETATM    8  C5  UNL     1      -2.613   0.993   1.547  1.00  0.00     0.032 A 
ATOM      9  H8  UNL     1       0.196   0.259   1.240  1.00  0.00     0.167 HD
HETATM   10  C6  UNL     1      -3.979   1.117   1.393  1.00  0.00     0.002 A 
HETATM   11  C7  UNL     1      -4.547   0.413   0.347  1.00  0.00     0.002 A 
BRANCH   3  12
HETATM   12  O1  UNL     1      -1.747  -1.950  -2.075  1.00  0.00    -0.281 OA
ATOM     13  H1  UNL     1      -2.590  -2.114  -2.482  1.00  0.00     0.245 HD
ENDBRANCH   3  12
ENDBRANCH   1   2
BRANCH   1  14
HETATM   14  N2  UNL     1       2.067  -1.242  -0.276  1.00  0.00    -0.294 N 
ATOM     15  H2  UNL     1       2.855  -1.719  -0.713  1.00  0.00     0.186 HD
BRANCH  14  16
HETATM   16  N3  UNL     1       2.414  -0.483   0.789  1.00  0.00    -0.130 N 
ATOM     17  H3  UNL     1       1.760  -0.412   1.569  1.00  0.00     0.205 HD
BRANCH  16  18
HETATM   18  C3  UNL     1       3.533   0.155   0.865  1.00  0.00     0.728 A 
HETATM   19  N4  UNL     1       3.944   0.924   1.885  1.00  0.00    -0.114 N 
HETATM   20  N5  UNL     1       5.149   1.390   1.557  1.00  0.00    -0.213 N 
ATOM     21  H4  UNL     1       3.432   1.115   2.746  1.00  0.00     0.207 HD
HETATM   22  N6  UNL     1       5.508   0.942   0.370  1.00  0.00    -0.213 N 
ATOM     23  H5  UNL     1       5.714   2.006   2.142  1.00  0.00     0.210 HD
HETATM   24  N7  UNL     1       4.516   0.187  -0.049  1.00  0.00    -0.114 N 
ATOM     25  H6  UNL     1       6.378   1.141  -0.123  1.00  0.00     0.210 HD
ATOM     26  H7  UNL     1       4.496  -0.305  -0.942  1.00  0.00     0.207 HD
ENDBRANCH  16  18
ENDBRANCH  14  16
ENDBRANCH   1  14
TORSDOF 5
