REMARK  3 active torsions:
REMARK  status: ('A' for Active; 'I' for Inactive)
REMARK    1  A    between atoms: C2_2  and  N1_4 
REMARK    2  A    between atoms: N1_4  and  C4_6 
REMARK    3  A    between atoms: C10_15  and  N2_16 
ROOT
HETATM    1  C4  UNL     1      -0.975  -0.149  -1.027  1.00  0.00     0.245 C 
HETATM    2  O1  UNL     1      -0.380  -1.321  -0.674  1.00  0.00    -0.332 OA
HETATM    3  C5  UNL     1       0.881  -1.294  -1.244  1.00  0.00     0.297 C 
HETATM    4  O2  UNL     1       1.751  -2.162  -0.650  1.00  0.00    -0.323 OA
HETATM    5  C6  UNL     1       2.420  -1.467   0.362  1.00  0.00     0.160 C 
HETATM    6  C7  UNL     1       2.614  -2.381   1.517  1.00  0.00     0.078 C 
HETATM    7  C8  UNL     1       3.748  -0.988  -0.203  1.00  0.00     0.078 C 
HETATM    8  O3  UNL     1       1.629  -0.331   0.624  1.00  0.00    -0.343 OA
HETATM    9  C9  UNL     1       1.356   0.082  -0.653  1.00  0.00     0.207 C 
HETATM   10  C10 UNL     1       0.181   0.888  -0.977  1.00  0.00     0.166 C 
ENDROOT
BRANCH   1  11
HETATM   11  N1  UNL     1      -1.984   0.294  -0.071  1.00  0.00    -0.391 N 
ATOM     12  H1  UNL     1      -1.928   1.196   0.402  1.00  0.00     0.156 HD
BRANCH  11  13
HETATM   13  C2  UNL     1      -3.046  -0.615   0.154  1.00  0.00     0.071 C 
HETATM   14  C1  UNL     1      -4.378   0.051  -0.128  1.00  0.00     0.031 C 
HETATM   15  C3  UNL     1      -3.009  -1.853  -0.715  1.00  0.00     0.031 C 
ENDBRANCH  11  13
ENDBRANCH   1  11
BRANCH  10  16
HETATM   16  N2  UNL     1      -0.162   2.042  -0.329  1.00  0.00    -0.355 N 
HETATM   17  C11 UNL     1       0.467   2.978   0.166  1.00  0.00     0.197 C 
HETATM   18  N3  UNL     1       1.860   3.138   0.209  1.00  0.00    -0.067 NA
HETATM   19  N4  UNL     1      -0.296   4.064   0.732  1.00  0.00    -0.067 NA
ATOM     20  H2  UNL     1      -1.171   2.153  -0.234  1.00  0.00     0.162 HD
ENDBRANCH  10  16
TORSDOF 3
