REMARK  7 active torsions:
REMARK  status: ('A' for Active; 'I' for Inactive)
REMARK    1  A    between atoms: C2_2  and  N1_5 
REMARK       I    between atoms: N1_5  and  C5_7 
REMARK       I    between atoms: C5_7  and  N2_9 
REMARK    2  A    between atoms: N2_9  and  N3_11 
REMARK    3  A    between atoms: N3_11  and  C6_13 
REMARK    4  A    between atoms: C6_13  and  C7_15 
REMARK    5  A    between atoms: C7_15  and  O3_17 
REMARK    6  A    between atoms: O3_17  and  C8_18 
REMARK    7  A    between atoms: C8_18  and  C9_19 
ROOT
HETATM    1  N1  UNL     1      -2.306   0.592  -0.621  1.00  0.00    -0.334 N 
ATOM      2  H1  UNL     1      -2.514   1.267  -1.357  1.00  0.00     0.165 HD
HETATM    3  C5  UNL     1      -1.004   0.563  -0.056  1.00  0.00     0.335 C 
HETATM    4  O1  UNL     1      -0.672  -0.233   0.852  1.00  0.00    -0.246 OA
HETATM    5  N2  UNL     1       0.000   1.471  -0.522  1.00  0.00    -0.250 N 
ATOM      6  H2  UNL     1      -0.238   2.125  -1.267  1.00  0.00     0.191 HD
ENDROOT
BRANCH   5   7
HETATM    7  N3  UNL     1       1.291   1.495   0.004  1.00  0.00    -0.281 N 
ATOM      8  H3  UNL     1       1.629   2.278   0.564  1.00  0.00     0.188 HD
BRANCH   7   9
HETATM    9  C6  UNL     1       2.122   0.355  -0.285  1.00  0.00     0.191 C 
HETATM   10  S1  UNL     1       1.611  -0.883  -1.183  1.00  0.00    -0.052 SA
BRANCH   9  11
HETATM   11  C7  UNL     1       3.466   0.362   0.264  1.00  0.00     0.323 C 
HETATM   12  O2  UNL     1       3.890   1.312   0.958  1.00  0.00    -0.257 OA
BRANCH  11  13
HETATM   13  O3  UNL     1       4.297  -0.706   0.014  1.00  0.00    -0.309 OA
BRANCH  13  14
HETATM   14  C8  UNL     1       5.607  -0.771   0.505  1.00  0.00     0.248 C 
BRANCH  14  15
HETATM   15  C9  UNL     1       6.497   0.316   0.001  1.00  0.00     0.257 C 
HETATM   16  O4  UNL     1       6.091   1.145  -0.820  1.00  0.00    -0.305 OA
ENDBRANCH  14  15
ENDBRANCH  13  14
ENDBRANCH  11  13
ENDBRANCH   9  11
ENDBRANCH   7   9
ENDBRANCH   5   7
BRANCH   1  17
HETATM   17  C2  UNL     1      -3.334  -0.302  -0.183  1.00  0.00     0.023 C 
HETATM   18  C1  UNL     1      -4.630  -0.021  -0.941  1.00  0.00     0.037 C 
HETATM   19  C3  UNL     1      -3.542  -0.169   1.299  1.00  0.00     0.037 C 
HETATM   20  C4  UNL     1      -2.986  -1.757  -0.542  1.00  0.00     0.037 C 
ENDBRANCH   1  17
TORSDOF 7
