REMARK  4 active torsions:
REMARK  status: ('A' for Active; 'I' for Inactive)
REMARK    1  A    between atoms: N2_3  and  C2_5 
REMARK    2  A    between atoms: C2_5  and  N3_7 
REMARK       I    between atoms: N3_7  and  C3_9 
REMARK    3  A    between atoms: C3_9  and  C4_11 
REMARK    4  A    between atoms: N4_12  and  N5_14 
ROOT
HETATM    1  N1  UNL     1       1.209  -2.273   4.668  1.00  0.00    -0.172 NA
HETATM    2  C1  UNL     1       2.250  -2.346   4.163  1.00  0.00     0.184 C 
HETATM    3  N2  UNL     1       3.515  -2.417   3.568  1.00  0.00    -0.270 N 
ATOM      4  H2  UNL     1       4.295  -2.833   4.077  1.00  0.00     0.180 HD
ENDROOT
BRANCH   3   5
HETATM    5  C2  UNL     1       3.714  -1.912   2.261  1.00  0.00     0.187 C 
HETATM    6  S1  UNL     1       5.205  -2.010   1.594  1.00  0.00    -0.040 SA
BRANCH   5   7
HETATM    7  N3  UNL     1       2.619  -1.331   1.552  1.00  0.00    -0.298 N 
HETATM    8  C3  UNL     1       2.793  -0.818   0.241  1.00  0.00     0.264 C 
HETATM    9  O1  UNL     1       3.921  -0.861  -0.337  1.00  0.00    -0.267 OA
ATOM     10  H3  UNL     1       1.701  -1.284   1.994  1.00  0.00     0.171 HD
BRANCH   8  11
HETATM   11  C4  UNL     1       1.687  -0.228  -0.480  1.00  0.00     0.181 C 
HETATM   12  N4  UNL     1       0.532  -0.167   0.070  1.00  0.00    -0.309 N 
ATOM     13  H4  UNL     1       0.425  -0.542   1.013  1.00  0.00     0.186 HD
BRANCH  12  14
HETATM   14  N5  UNL     1      -0.591   0.387  -0.555  1.00  0.00    -0.326 N 
HETATM   15  C5  UNL     1      -1.342   1.265   0.321  1.00  0.00     0.144 C 
HETATM   16  C6  UNL     1      -2.148   2.281  -0.436  1.00  0.00     0.049 C 
HETATM   17  C7  UNL     1      -3.289   1.603  -1.165  1.00  0.00     0.234 C 
HETATM   18  N6  UNL     1      -2.799   1.225  -2.472  1.00  0.00    -0.073 N 
HETATM   19  C8  UNL     1      -2.188  -0.062  -2.367  1.00  0.00     0.253 C 
ATOM     20  H62 UNL     1      -3.525   1.258  -3.188  1.00  0.00     0.277 HD
ATOM     21  H61 UNL     1      -2.175   1.924  -2.875  1.00  0.00     0.277 HD
HETATM   22  C9  UNL     1      -0.756  -0.027  -1.909  1.00  0.00     0.170 C 
ENDBRANCH  12  14
ENDBRANCH   8  11
ENDBRANCH   5   7
ENDBRANCH   3   5
TORSDOF 4
