REMARK  3 active torsions:
REMARK  status: ('A' for Active; 'I' for Inactive)
REMARK       I    between atoms: C2_2  and  N1_4 
REMARK       I    between atoms: N1_4  and  C3_6 
REMARK    1  A    between atoms: C3_6  and  C4_8 
REMARK       I    between atoms: C4_8  and  N2_10 
REMARK    2  A    between atoms: N2_10  and  N3_12 
REMARK    3  A    between atoms: C5_14  and  C6_15 
ROOT
HETATM    1  C4  UNL     1       1.681   0.434  -0.246  1.00  0.00     0.328 C 
HETATM    2  O3  UNL     1       1.302   1.613  -0.453  1.00  0.00    -0.261 OA
HETATM    3  N2  UNL     1       0.757  -0.618  -0.085  1.00  0.00    -0.262 N 
ATOM      4  H2  UNL     1       1.082  -1.570   0.083  1.00  0.00     0.190 HD
ENDROOT
BRANCH   3   5
HETATM    5  N3  UNL     1      -0.606  -0.340  -0.158  1.00  0.00    -0.308 N 
HETATM    6  C5  UNL     1      -1.472  -0.887   0.616  1.00  0.00     0.120 C 
ATOM      7  H3  UNL     1      -0.930   0.328  -0.857  1.00  0.00     0.186 HD
BRANCH   6   8
HETATM    8  C6  UNL     1      -2.893  -0.589   0.530  1.00  0.00     0.005 A 
HETATM    9  C7  UNL     1      -3.821  -1.179   1.364  1.00  0.00     0.015 A 
HETATM   10  C8  UNL     1      -5.164  -0.883   1.267  1.00  0.00     0.001 A 
HETATM   11  C9  UNL     1      -5.561   0.025   0.307  1.00  0.00     0.002 A 
HETATM   12  C10 UNL     1      -4.641   0.627  -0.538  1.00  0.00     0.027 A 
HETATM   13  C11 UNL     1      -3.297   0.332  -0.443  1.00  0.00     0.058 A 
HETATM   14  N4  UNL     1      -2.322   0.926  -1.289  1.00  0.00    -0.102 NA
ENDBRANCH   6   8
ENDBRANCH   3   5
BRANCH   1  15
HETATM   15  C3  UNL     1       3.136   0.139  -0.168  1.00  0.00     0.317 C 
HETATM   16  N1  UNL     1       4.059   1.186  -0.328  1.00  0.00    -0.290 N 
HETATM   17  C2  UNL     1       5.449   0.967  -0.264  1.00  0.00     0.220 C 
ATOM     18  H1  UNL     1       3.713   2.131  -0.495  1.00  0.00     0.172 HD
HETATM   19  C1  UNL     1       6.058  -0.363  -0.027  1.00  0.00     0.117 C 
HETATM   20  O1  UNL     1       6.225   1.980  -0.421  1.00  0.00    -0.274 OA
HETATM   21  O2  UNL     1       3.537  -1.023   0.037  1.00  0.00    -0.262 OA
ENDBRANCH   1  15
TORSDOF 3
