REMARK  2 active torsions:
REMARK  status: ('A' for Active; 'I' for Inactive)
REMARK    1  A    between atoms: C1_2  and  C2_4 
REMARK    2  A    between atoms: C4_6  and  C5_7 
REMARK       I    between atoms: C5_7  and  N2_9 
ROOT
HETATM    1  C2  UNL     1       1.655   0.286   0.574  1.00  0.00     0.061 A 
HETATM    2  C3  UNL     1       0.290   0.115   0.547  1.00  0.00     0.036 A 
HETATM    3  C4  UNL     1      -0.313  -0.994   0.011  1.00  0.00     0.035 A 
HETATM    4  C7  UNL     1       0.484  -1.979  -0.522  1.00  0.00     0.051 A 
HETATM    5  C8  UNL     1       1.854  -1.855  -0.518  1.00  0.00     0.087 A 
HETATM    6  N5  UNL     1       2.864  -2.635  -0.957  1.00  0.00    -0.239 N 
ATOM      7  H5  UNL     1       2.767  -3.542  -1.413  1.00  0.00     0.197 HD
HETATM    8  O3  UNL     1       3.982  -2.026  -0.697  1.00  0.00    -0.156 OA
HETATM    9  N6  UNL     1       3.747  -0.889  -0.112  1.00  0.00    -0.239 N 
ATOM     10  H6  UNL     1       4.459  -0.225   0.192  1.00  0.00     0.197 HD
HETATM   11  C9  UNL     1       2.420  -0.723   0.030  1.00  0.00     0.100 A 
ENDROOT
BRANCH   3  12
HETATM   12  C5  UNL     1      -1.786  -1.139   0.002  1.00  0.00     0.257 C 
HETATM   13  O2  UNL     1      -2.277  -2.180  -0.504  1.00  0.00    -0.267 OA
HETATM   14  N2  UNL     1      -2.590  -0.109   0.558  1.00  0.00    -0.299 N 
HETATM   15  C6  UNL     1      -3.305   0.623  -0.216  1.00  0.00     0.203 C 
ATOM     16  H2  UNL     1      -2.599   0.048   1.566  1.00  0.00     0.171 HD
HETATM   17  N3  UNL     1      -3.289   0.402  -1.607  1.00  0.00    -0.066 NA
HETATM   18  N4  UNL     1      -4.099   1.642   0.353  1.00  0.00    -0.066 NA
ENDBRANCH   3  12
BRANCH   1  19
HETATM   19  C1  UNL     1       2.327   1.448   1.133  1.00  0.00     0.267 C 
HETATM   20  N1  UNL     1       3.720   1.602   1.150  1.00  0.00    -0.057 NA
HETATM   21  O1  UNL     1       1.563   2.346   1.621  1.00  0.00    -0.271 OA
ENDBRANCH   1  19
TORSDOF 2
