REMARK  5 active torsions:
REMARK  status: ('A' for Active; 'I' for Inactive)
REMARK    1  A    between atoms: C2_2  and  N2_5 
REMARK    2  A    between atoms: N2_5  and  C4_7 
REMARK    3  A    between atoms: C4_7  and  N3_9 
REMARK    4  A    between atoms: N3_9  and  N4_11 
REMARK       I    between atoms: N4_11  and  C5_13 
REMARK    5  A    between atoms: C5_13  and  C6_15 
ROOT
HETATM    1  C1  UNL     1      -5.346  -0.058  -0.200  1.00  0.00     0.048 C 
HETATM    2  C2  UNL     1      -4.018  -0.745  -0.261  1.00  0.00     0.187 C 
HETATM    3  C3  UNL     1      -3.874  -1.768   0.779  1.00  0.00     0.084 C 
HETATM    4  N1  UNL     1      -3.761  -2.582   1.591  1.00  0.00    -0.195 NA
ENDROOT
BRANCH   2   5
HETATM    5  N2  UNL     1      -2.951   0.224  -0.204  1.00  0.00    -0.349 N 
ATOM      6  H2  UNL     1      -3.165   1.219  -0.131  1.00  0.00     0.163 HD
BRANCH   5   7
HETATM    7  C4  UNL     1      -1.581  -0.220  -0.250  1.00  0.00     0.187 C 
HETATM    8  S1  UNL     1      -1.253  -1.801  -0.365  1.00  0.00    -0.040 SA
BRANCH   7   9
HETATM    9  N3  UNL     1      -0.554   0.737  -0.194  1.00  0.00    -0.273 N 
ATOM     10  H3  UNL     1      -0.777   1.730  -0.122  1.00  0.00     0.189 HD
BRANCH   9  11
HETATM   11  N4  UNL     1       0.774   0.314  -0.238  1.00  0.00    -0.262 N 
HETATM   12  C5  UNL     1       1.815   1.088   0.335  1.00  0.00     0.288 C 
HETATM   13  O1  UNL     1       1.532   2.169   0.888  1.00  0.00    -0.264 OA
ATOM     14  H4  UNL     1       1.001  -0.571  -0.692  1.00  0.00     0.190 HD
BRANCH  12  15
HETATM   15  C6  UNL     1       3.215   0.641   0.288  1.00  0.00     0.117 A 
HETATM   16  C7  UNL     1       4.229   1.389   0.842  1.00  0.00     0.122 A 
HETATM   17  N5  UNL     1       5.504   0.935   0.774  1.00  0.00    -0.372 N 
HETATM   18  C8  UNL     1       5.835  -0.227   0.183  1.00  0.00     0.104 A 
ATOM     19  H5  UNL     1       6.245   1.499   1.189  1.00  0.00     0.164 HD
HETATM   20  C9  UNL     1       4.813  -0.971  -0.370  1.00  0.00     0.105 A 
HETATM   21  N6  UNL     1       3.548  -0.519  -0.302  1.00  0.00    -0.359 N 
ATOM     22  H6  UNL     1       2.807  -1.083  -0.718  1.00  0.00     0.165 HD
ENDBRANCH  12  15
ENDBRANCH   9  11
ENDBRANCH   7   9
ENDBRANCH   5   7
ENDBRANCH   2   5
TORSDOF 5
