REMARK  4 active torsions:
REMARK  status: ('A' for Active; 'I' for Inactive)
REMARK    1  A    between atoms: C6_6  and  C7_7 
REMARK    2  A    between atoms: N1_8  and  N2_10 
REMARK    3  A    between atoms: N2_10  and  C8_12 
REMARK    4  A    between atoms: C9_21  and  C10_22 
ROOT
HETATM    1  C1  UNL     1       5.549   2.575  -0.452  1.00  0.00     0.018 C 
HETATM    2  C2  UNL     1       4.478   2.019  -0.330  1.00  0.00    -0.078 C 
HETATM    3  C3  UNL     1       3.227   1.345  -0.180  1.00  0.00     0.018 A 
HETATM    4  C4  UNL     1       2.274   1.816   0.700  1.00  0.00     0.021 A 
HETATM    5  C5  UNL     1       1.063   1.194   0.867  1.00  0.00     0.015 A 
HETATM    6  C6  UNL     1       0.796   0.030   0.106  1.00  0.00    -0.004 A 
HETATM    7  C9  UNL     1       1.713  -0.459  -0.765  1.00  0.00     0.042 A 
HETATM    8  C11 UNL     1       2.956   0.220  -0.908  1.00  0.00     0.038 A 
ENDROOT
BRANCH   7   9
HETATM    9  C10 UNL     1       1.529  -1.674  -1.520  1.00  0.00     0.265 C 
HETATM   10  N7  UNL     1       0.555  -2.644  -1.285  1.00  0.00    -0.057 NA
HETATM   11  O1  UNL     1       2.333  -1.907  -2.505  1.00  0.00    -0.271 OA
ENDBRANCH   7   9
BRANCH   6  12
HETATM   12  C7  UNL     1      -0.512  -0.527   0.285  1.00  0.00     0.120 C 
HETATM   13  N1  UNL     1      -1.318  -0.009   1.172  1.00  0.00    -0.297 N 
ATOM     14  H1  UNL     1      -0.995   0.787   1.722  1.00  0.00     0.186 HD
BRANCH  13  15
HETATM   15  N2  UNL     1      -2.593  -0.497   1.396  1.00  0.00    -0.130 N 
ATOM     16  H2  UNL     1      -2.742  -1.125   2.185  1.00  0.00     0.205 HD
BRANCH  15  17
HETATM   17  C8  UNL     1      -3.603  -0.193   0.651  1.00  0.00     0.728 A 
HETATM   18  N3  UNL     1      -3.632   0.604  -0.424  1.00  0.00    -0.114 N 
HETATM   19  N4  UNL     1      -4.891   0.623  -0.872  1.00  0.00    -0.213 N 
ATOM     20  H3  UNL     1      -2.840   1.104  -0.827  1.00  0.00     0.207 HD
HETATM   21  N5  UNL     1      -5.661  -0.135  -0.118  1.00  0.00    -0.213 N 
ATOM     22  H4  UNL     1      -5.211   1.151  -1.684  1.00  0.00     0.210 HD
HETATM   23  N6  UNL     1      -4.864  -0.631   0.812  1.00  0.00    -0.114 N 
ATOM     24  H5  UNL     1      -6.661  -0.303  -0.229  1.00  0.00     0.210 HD
ATOM     25  H6  UNL     1      -5.166  -1.263   1.554  1.00  0.00     0.207 HD
ENDBRANCH  15  17
ENDBRANCH  13  15
ENDBRANCH   6  12
TORSDOF 4
