REMARK  4 active torsions:
REMARK  status: ('A' for Active; 'I' for Inactive)
REMARK    1  A    between atoms: C1_2  and  N1_3 
REMARK    2  A    between atoms: C1_2  and  N4_13 
REMARK    3  A    between atoms: N1_3  and  N2_5 
REMARK    4  A    between atoms: N4_13  and  N5_15 
ROOT
HETATM    1  S1  UNL     1      -0.489   2.993   0.042  1.00  0.00    -0.038 SA
HETATM    2  C1  UNL     1       0.055   1.470  -0.126  1.00  0.00     0.201 C 
ENDROOT
BRANCH   2   3
HETATM    3  N1  UNL     1       1.411   1.234  -0.432  1.00  0.00    -0.274 N 
ATOM      4  H1  UNL     1       2.055   2.016  -0.550  1.00  0.00     0.189 HD
BRANCH   3   5
HETATM    5  N2  UNL     1       1.866  -0.078  -0.572  1.00  0.00    -0.284 N 
HETATM    6  C2  UNL     1       3.008  -0.414  -0.063  1.00  0.00     0.115 A 
HETATM    7  C3  UNL     1       3.646  -1.720  -0.105  1.00  0.00     0.047 A 
HETATM    8  N3  UNL     1       3.897   0.426   0.655  1.00  0.00    -0.372 N 
HETATM    9  C4  UNL     1       4.809  -1.702   0.519  1.00  0.00    -0.004 A 
HETATM   10  C5  UNL     1       5.043  -0.357   1.036  1.00  0.00     0.148 A 
ATOM     11  H3  UNL     1       3.750   1.413   0.865  1.00  0.00     0.161 HD
ATOM     12  H2  UNL     1       1.303  -0.767  -1.071  1.00  0.00     0.188 HD
ENDBRANCH   3   5
ENDBRANCH   2   3
BRANCH   2  13
HETATM   13  N4  UNL     1      -0.849   0.399   0.040  1.00  0.00    -0.294 N 
ATOM     14  H4  UNL     1      -0.515  -0.559  -0.064  1.00  0.00     0.183 HD
BRANCH  13  15
HETATM   15  N5  UNL     1      -2.167   0.623   0.338  1.00  0.00    -0.225 NA
HETATM   16  C6  UNL     1      -2.792  -0.409   1.122  1.00  0.00     0.140 C 
HETATM   17  C7  UNL     1      -4.273  -0.431   0.782  1.00  0.00     0.183 C 
HETATM   18  O1  UNL     1      -4.511  -0.755  -0.539  1.00  0.00    -0.389 OA
HETATM   19  C8  UNL     1      -3.615  -0.172  -1.417  1.00  0.00     0.183 C 
HETATM   20  C9  UNL     1      -2.966   1.039  -0.787  1.00  0.00     0.140 C 
ENDBRANCH  13  15
ENDBRANCH   2  13
TORSDOF 4
