REMARK  4 active torsions:
REMARK  status: ('A' for Active; 'I' for Inactive)
REMARK    1  A    between atoms: C1_4  and  N2_5 
REMARK    2  A    between atoms: C1_4  and  C8_18 
REMARK    3  A    between atoms: N2_5  and  N3_7 
REMARK       I    between atoms: N3_7  and  C2_9 
REMARK    4  A    between atoms: C2_9  and  C3_11 
ROOT
HETATM    1  N2  UNL     1       1.415  -0.990  -0.858  1.00  0.00    -0.283 N 
ATOM      2  H2  UNL     1       1.696  -1.113  -1.831  1.00  0.00     0.188 HD
ENDROOT
BRANCH   1   3
HETATM    3  C1  UNL     1       2.363  -1.204   0.147  1.00  0.00     0.124 C 
HETATM    4  N1  UNL     1       2.226  -2.136   0.992  1.00  0.00    -0.384 N 
ATOM      5  H12 UNL     1       1.405  -2.741   0.983  1.00  0.00     0.157 HD
ATOM      6  H11 UNL     1       2.918  -2.292   1.725  1.00  0.00     0.157 HD
BRANCH   3   7
HETATM    7  C8  UNL     1       3.551  -0.329   0.160  1.00  0.00     0.011 A 
HETATM    8  C9  UNL     1       3.641   0.750  -0.703  1.00  0.00     0.032 A 
HETATM    9  C10 UNL     1       4.724   1.592  -0.783  1.00  0.00     0.088 A 
HETATM   10  N6  UNL     1       5.749   1.322   0.041  1.00  0.00    -0.375 N 
HETATM   11  C11 UNL     1       5.727   0.292   0.901  1.00  0.00     0.088 A 
ATOM     12  H6  UNL     1       6.574   1.921   0.012  1.00  0.00     0.164 HD
HETATM   13  C12 UNL     1       4.628  -0.556   0.979  1.00  0.00     0.032 A 
ENDBRANCH   3   7
ENDBRANCH   1   3
BRANCH   1  14
HETATM   14  N3  UNL     1       0.109  -0.617  -0.585  1.00  0.00    -0.267 N 
HETATM   15  C2  UNL     1      -0.883  -1.392   0.039  1.00  0.00     0.256 C 
HETATM   16  O1  UNL     1      -0.663  -2.537   0.433  1.00  0.00    -0.270 OA
ATOM     17  H3  UNL     1      -0.162   0.324  -0.868  1.00  0.00     0.190 HD
BRANCH  15  18
HETATM   18  C3  UNL     1      -2.241  -0.821   0.229  1.00  0.00     0.182 A 
HETATM   19  C4  UNL     1      -3.093  -0.993  -1.044  1.00  0.00     0.139 A 
HETATM   20  N4  UNL     1      -3.011   0.455  -1.081  1.00  0.00    -0.247 NA
HETATM   21  C5  UNL     1      -4.266   1.125  -0.820  1.00  0.00     0.109 C 
HETATM   22  N5  UNL     1      -2.188   0.627   0.015  1.00  0.00    -0.235 NA
HETATM   23  C6  UNL     1      -4.346   1.004   0.692  1.00  0.00     0.032 C 
HETATM   24  C7  UNL     1      -2.907   1.340   1.044  1.00  0.00     0.110 C 
ENDBRANCH  15  18
ENDBRANCH   1  14
TORSDOF 4
