REMARK  2 active torsions:
REMARK  status: ('A' for Active; 'I' for Inactive)
REMARK    1  A    between atoms: C7_9  and  C8_10 
REMARK    2  A    between atoms: C9_11  and  C10_12 
ROOT
HETATM    1  C8  UNL     1      -0.542  -0.133   0.704  1.00  0.00    -0.042 C 
HETATM    2  C9  UNL     1       0.658  -0.025   0.637  1.00  0.00    -0.042 C 
ENDROOT
BRANCH   1   3
HETATM    3  C7  UNL     1      -1.981  -0.246   0.803  1.00  0.00     0.087 A 
HETATM    4  C6  UNL     1      -2.606  -0.533   1.999  1.00  0.00     0.041 A 
HETATM    5  C5  UNL     1      -3.970  -0.647   2.122  1.00  0.00     0.035 A 
HETATM    6  C4  UNL     1      -4.730  -0.460   0.977  1.00  0.00     0.059 A 
HETATM    7  N1  UNL     1      -6.048  -0.491   0.712  1.00  0.00    -0.363 N 
HETATM    8  C19 UNL     1      -4.098  -0.174  -0.212  1.00  0.00     0.067 A 
HETATM    9  C3  UNL     1      -6.263  -0.237  -0.587  1.00  0.00     0.097 A 
ATOM     10  H1  UNL     1      -6.778  -0.680   1.399  1.00  0.00     0.165 HD
HETATM   11  C2  UNL     1      -5.057  -0.029  -1.219  1.00  0.00    -0.018 A 
HETATM   12  C1  UNL     1      -4.772   0.283  -2.644  1.00  0.00     0.052 C 
HETATM   13  N3  UNL     1      -2.747  -0.072  -0.287  1.00  0.00    -0.347 N 
ATOM     14  H3  UNL     1      -2.307   0.140  -1.183  1.00  0.00     0.167 HD
ENDBRANCH   1   3
BRANCH   2  15
HETATM   15  C10 UNL     1       2.084   0.119   0.577  1.00  0.00     0.087 A 
HETATM   16  C11 UNL     1       2.706   0.001  -0.644  1.00  0.00     0.051 A 
HETATM   17  C12 UNL     1       4.074   0.133  -0.743  1.00  0.00    -0.022 A 
HETATM   18  C13 UNL     1       4.693   0.013  -1.969  1.00  0.00     0.012 A 
HETATM   19  C17 UNL     1       4.813   0.384   0.387  1.00  0.00    -0.010 A 
HETATM   20  C14 UNL     1       6.063   0.155  -2.003  1.00  0.00     0.001 A 
HETATM   21  C15 UNL     1       6.824   0.408  -0.877  1.00  0.00     0.001 A 
HETATM   22  C16 UNL     1       6.192   0.524   0.339  1.00  0.00     0.013 A 
HETATM   23  C18 UNL     1       4.180   0.498   1.592  1.00  0.00     0.101 A 
HETATM   24  N2  UNL     1       2.854   0.367   1.664  1.00  0.00    -0.358 N 
ATOM     25  H2  UNL     1       2.402   0.457   2.574  1.00  0.00     0.166 HD
ENDBRANCH   2  15
TORSDOF 2
