REMARK  5 active torsions:
REMARK  status: ('A' for Active; 'I' for Inactive)
REMARK    1  A    between atoms: C4_5  and  C5_6 
REMARK    2  A    between atoms: C5_6  and  C6_7 
REMARK    3  A    between atoms: C6_7  and  C7_8 
REMARK    4  A    between atoms: C13_14  and  C14_15 
REMARK    5  A    between atoms: C15_16  and  C16_17 
ROOT
HETATM    1  C1  UNL     1       3.243  -0.901   3.731  1.00  0.00     0.058 C 
HETATM    2  C2  UNL     1       1.739  -0.872   3.563  1.00  0.00    -0.001 A 
HETATM    3  S1  UNL     1       0.543  -1.167   4.739  1.00  0.00    -0.104 SA
HETATM    4  C3  UNL     1      -0.843  -0.945   3.785  1.00  0.00     0.072 A 
HETATM    5  C4  UNL     1      -0.335  -0.641   2.548  1.00  0.00     0.044 A 
HETATM    6  C13 UNL     1       1.012  -0.603   2.435  1.00  0.00     0.050 A 
ENDROOT
BRANCH   6   7
HETATM    7  C14 UNL     1       1.727  -0.294   1.185  1.00  0.00    -0.057 C 
HETATM    8  C15 UNL     1       2.312  -0.055   0.141  1.00  0.00    -0.042 C 
BRANCH   8   9
HETATM    9  C16 UNL     1       3.009   0.203  -1.078  1.00  0.00     0.103 A 
HETATM   10  C17 UNL     1       2.549   0.938  -2.138  1.00  0.00     0.128 A 
HETATM   11  N1  UNL     1       3.511   0.943  -3.096  1.00  0.00    -0.359 N 
HETATM   12  C18 UNL     1       4.523   0.219  -2.606  1.00  0.00     0.181 A 
ATOM     13  H1  UNL     1       3.470   1.405  -4.004  1.00  0.00     0.166 HD
HETATM   14  N2  UNL     1       4.259  -0.246  -1.388  1.00  0.00    -0.344 N 
ATOM     15  H2  UNL     1       4.867  -0.821  -0.805  1.00  0.00     0.167 HD
ENDBRANCH   8   9
ENDBRANCH   6   7
BRANCH   5  16
HETATM   16  C5  UNL     1      -1.235  -0.371   1.410  1.00  0.00    -0.059 C 
BRANCH  16  17
HETATM   17  C6  UNL     1      -1.987  -0.153   0.494  1.00  0.00    -0.061 C 
BRANCH  17  18
HETATM   18  C7  UNL     1      -2.899   0.117  -0.581  1.00  0.00     0.018 A 
HETATM   19  C8  UNL     1      -3.440  -0.890  -1.355  1.00  0.00     0.020 A 
HETATM   20  C9  UNL     1      -4.315  -0.617  -2.384  1.00  0.00     0.001 A 
HETATM   21  C10 UNL     1      -4.689   0.675  -2.686  1.00  0.00     0.000 A 
HETATM   22  C11 UNL     1      -4.159   1.693  -1.924  1.00  0.00     0.001 A 
HETATM   23  C12 UNL     1      -3.284   1.416  -0.895  1.00  0.00     0.020 A 
ENDBRANCH  17  18
ENDBRANCH  16  17
ENDBRANCH   5  16
TORSDOF 5
