REMARK  0 active torsions:
REMARK  status: ('A' for Active; 'I' for Inactive)
ROOT
HETATM    1  O1  UNL     1       2.293  -3.261  -0.002  1.00  0.00    -0.200 OA
HETATM    2  S1  UNL     1       1.340  -2.219   0.511  1.00  0.00     0.264 S 
HETATM    3  O2  UNL     1       1.110  -2.463   1.950  1.00  0.00    -0.200 OA
HETATM    4  N1  UNL     1      -0.159  -2.374  -0.348  1.00  0.00    -0.280 N 
ATOM      5  H1  UNL     1      -0.295  -3.204  -0.925  1.00  0.00     0.179 HD
HETATM    6  C1  UNL     1      -1.217  -1.411  -0.299  1.00  0.00     0.054 A 
HETATM    7  C2  UNL     1      -2.417  -2.118  -0.463  1.00  0.00     0.031 A 
HETATM    8  C3  UNL     1      -3.614  -1.490  -0.369  1.00  0.00     0.003 A 
HETATM    9  C4  UNL     1      -3.627  -0.159  -0.112  1.00  0.00     0.012 A 
HETATM   10  C5  UNL     1      -2.436   0.549   0.050  1.00  0.00    -0.023 A 
HETATM   11  C6  UNL     1      -2.624   1.889   0.335  1.00  0.00     0.012 A 
HETATM   12  C7  UNL     1      -1.561   2.702   0.544  1.00  0.00     0.002 A 
HETATM   13  C8  UNL     1      -0.285   2.143   0.458  1.00  0.00     0.013 A 
HETATM   14  C9  UNL     1      -0.093   0.818   0.171  1.00  0.00    -0.011 A 
HETATM   15  C10 UNL     1      -1.184  -0.047  -0.040  1.00  0.00     0.013 A 
HETATM   16  C11 UNL     1       1.348   0.572   0.028  1.00  0.00    -0.002 A 
HETATM   17  C12 UNL     1       2.065   1.692  -0.309  1.00  0.00     0.014 A 
HETATM   18  C13 UNL     1       3.460   1.609  -0.459  1.00  0.00     0.001 A 
HETATM   19  C14 UNL     1       4.081   0.403  -0.267  1.00  0.00     0.002 A 
HETATM   20  C15 UNL     1       3.374  -0.735   0.069  1.00  0.00     0.026 A 
HETATM   21  C16 UNL     1       2.017  -0.646   0.212  1.00  0.00     0.090 A 
ENDROOT
TORSDOF 0
