REMARK  2 active torsions:
REMARK  status: ('A' for Active; 'I' for Inactive)
REMARK    1  A    between atoms: C10_13  and  C11_14 
REMARK    2  A    between atoms: C12_15  and  C13_16 
ROOT
HETATM    1  O1  UNL     1      -4.145  -3.231   0.911  1.00  0.00    -0.266 OA
HETATM    2  C1  UNL     1      -3.827  -2.041   0.582  1.00  0.00     0.273 A 
HETATM    3  N1  UNL     1      -4.730  -1.093   0.331  1.00  0.00    -0.321 N 
ATOM      4  H1  UNL     1      -5.719  -1.330   0.405  1.00  0.00     0.169 HD
HETATM    5  C2  UNL     1      -4.397   0.148  -0.012  1.00  0.00     0.046 A 
HETATM    6  C3  UNL     1      -5.386   1.061  -0.253  1.00  0.00     0.030 A 
HETATM    7  C4  UNL     1      -5.083   2.354  -0.610  1.00  0.00     0.002 A 
HETATM    8  C5  UNL     1      -3.766   2.728  -0.725  1.00  0.00     0.001 A 
HETATM    9  C6  UNL     1      -2.749   1.836  -0.491  1.00  0.00     0.014 A 
HETATM   10  C7  UNL     1      -3.061   0.552  -0.136  1.00  0.00     0.003 A 
HETATM   11  C8  UNL     1      -2.100  -0.386   0.112  1.00  0.00     0.010 A 
HETATM   12  C9  UNL     1      -0.764  -0.083   0.017  1.00  0.00     0.037 A 
HETATM   13  C10 UNL     1       0.143  -1.070   0.279  1.00  0.00     0.034 A 
HETATM   14  C19 UNL     1      -0.293  -2.320   0.625  1.00  0.00     0.109 A 
HETATM   15  N2  UNL     1      -1.589  -2.628   0.722  1.00  0.00    -0.359 N 
ATOM     16  H2  UNL     1      -1.880  -3.570   0.983  1.00  0.00     0.165 HD
HETATM   17  C20 UNL     1      -2.501  -1.678   0.470  1.00  0.00     0.112 A 
ENDROOT
BRANCH  13  18
HETATM   18  C11 UNL     1       1.563  -0.763   0.181  1.00  0.00    -0.060 C 
HETATM   19  C12 UNL     1       2.743  -0.519   0.117  1.00  0.00    -0.061 C 
BRANCH  19  20
HETATM   20  C13 UNL     1       4.152  -0.247   0.058  1.00  0.00     0.018 A 
HETATM   21  C14 UNL     1       5.106  -1.084   0.620  1.00  0.00     0.020 A 
HETATM   22  C15 UNL     1       6.454  -0.806   0.553  1.00  0.00     0.001 A 
HETATM   23  C16 UNL     1       6.917   0.324  -0.080  1.00  0.00     0.000 A 
HETATM   24  C17 UNL     1       5.963   1.169  -0.647  1.00  0.00     0.001 A 
HETATM   25  C18 UNL     1       4.618   0.884  -0.575  1.00  0.00     0.020 A 
ENDBRANCH  19  20
ENDBRANCH  13  18
TORSDOF 2
