REMARK  2 active torsions:
REMARK  status: ('A' for Active; 'I' for Inactive)
REMARK    1  A    between atoms: C6_8  and  C7_9 
REMARK    2  A    between atoms: C8_10  and  C9_11 
ROOT
HETATM    1  C1  UNL     1       7.389   0.198   0.224  1.00  0.00     0.089 C 
HETATM    2  C2  UNL     1       5.935   0.070  -0.083  1.00  0.00     0.079 A 
HETATM    3  N1  UNL     1       5.385  -0.077  -1.296  1.00  0.00    -0.343 N 
ATOM      4  H1  UNL     1       5.908  -0.119  -2.171  1.00  0.00     0.167 HD
HETATM    5  C3  UNL     1       4.033  -0.162  -1.197  1.00  0.00     0.078 A 
HETATM    6  C4  UNL     1       3.012  -0.314  -2.097  1.00  0.00     0.036 A 
HETATM    7  C5  UNL     1       1.716  -0.362  -1.645  1.00  0.00     0.041 A 
HETATM    8  C6  UNL     1       1.485  -0.255  -0.289  1.00  0.00     0.088 A 
HETATM    9  N2  UNL     1       2.511  -0.107   0.566  1.00  0.00    -0.334 N 
ATOM     10  H2  UNL     1       2.314  -0.030   1.564  1.00  0.00     0.168 HD
HETATM   11  C19 UNL     1       3.776  -0.057   0.154  1.00  0.00     0.134 A 
HETATM   12  N3  UNL     1       4.938   0.083   0.818  1.00  0.00    -0.330 N 
ATOM     13  H3  UNL     1       5.044   0.182   1.828  1.00  0.00     0.168 HD
ENDROOT
BRANCH   8  14
HETATM   14  C7  UNL     1       0.122  -0.309   0.158  1.00  0.00    -0.043 C 
HETATM   15  C8  UNL     1      -1.029  -0.343   0.555  1.00  0.00    -0.059 C 
BRANCH  15  16
HETATM   16  C9  UNL     1      -2.376  -0.370   1.042  1.00  0.00     0.029 A 
HETATM   17  C10 UNL     1      -2.674  -0.827   2.309  1.00  0.00     0.021 A 
HETATM   18  C11 UNL     1      -3.991  -0.842   2.756  1.00  0.00     0.002 A 
HETATM   19  C12 UNL     1      -5.006  -0.398   1.934  1.00  0.00     0.012 A 
HETATM   20  C13 UNL     1      -4.686   0.059   0.661  1.00  0.00    -0.025 A 
HETATM   21  C14 UNL     1      -5.726   0.495  -0.134  1.00  0.00     0.012 A 
HETATM   22  C18 UNL     1      -3.371   0.078   0.203  1.00  0.00    -0.007 A 
HETATM   23  C15 UNL     1      -5.432   0.953  -1.401  1.00  0.00     0.001 A 
HETATM   24  C16 UNL     1      -4.136   0.978  -1.868  1.00  0.00     0.001 A 
HETATM   25  C17 UNL     1      -3.107   0.545  -1.077  1.00  0.00     0.014 A 
ENDBRANCH  15  16
ENDBRANCH   8  14
TORSDOF 2
