REMARK  1 active torsions:
REMARK  status: ('A' for Active; 'I' for Inactive)
REMARK    1  A    between atoms: O1_1  and  N1_3 
ROOT
HETATM    1  N1  UNL     1       0.971   0.590   0.031  1.00  0.00    -0.220 N 
HETATM    2  C1  UNL     1       2.351   0.553  -0.008  1.00  0.00     0.089 A 
HETATM    3  C2  UNL     1       3.112   1.699   0.064  1.00  0.00     0.034 A 
HETATM    4  C3  UNL     1       4.510   1.662   0.024  1.00  0.00     0.002 A 
HETATM    5  C4  UNL     1       5.147   0.453  -0.089  1.00  0.00     0.002 A 
HETATM    6  C5  UNL     1       4.381  -0.690  -0.159  1.00  0.00     0.032 A 
HETATM    7  C6  UNL     1       2.997  -0.646  -0.120  1.00  0.00     0.062 A 
HETATM    8  N2  UNL     1       2.311  -1.788  -0.193  1.00  0.00    -0.352 N 
ATOM      9  H2  UNL     1       2.808  -2.675  -0.277  1.00  0.00     0.166 HD
HETATM   10  C7  UNL     1       0.957  -1.773  -0.156  1.00  0.00     0.063 A 
HETATM   11  C8  UNL     1       0.309  -2.994  -0.236  1.00  0.00     0.034 A 
HETATM   12  C9  UNL     1      -1.046  -2.968  -0.199  1.00  0.00     0.033 A 
HETATM   13  C10 UNL     1      -1.759  -1.802  -0.087  1.00  0.00     0.046 A 
HETATM   14  N3  UNL     1      -3.078  -1.559  -0.033  1.00  0.00    -0.355 N 
ATOM     15  H3  UNL     1      -3.814  -2.265  -0.070  1.00  0.00     0.166 HD
HETATM   16  C11 UNL     1      -3.270  -0.236   0.077  1.00  0.00     0.043 A 
HETATM   17  C12 UNL     1      -4.485   0.417   0.160  1.00  0.00     0.030 A 
HETATM   18  C13 UNL     1      -4.477   1.786   0.269  1.00  0.00     0.002 A 
HETATM   19  C14 UNL     1      -3.287   2.456   0.291  1.00  0.00     0.001 A 
HETATM   20  C15 UNL     1      -2.086   1.753   0.204  1.00  0.00     0.014 A 
HETATM   21  C16 UNL     1      -2.045   0.411   0.096  1.00  0.00     0.005 A 
HETATM   22  C17 UNL     1      -1.094  -0.563  -0.006  1.00  0.00     0.035 A 
HETATM   23  C18 UNL     1       0.302  -0.551  -0.042  1.00  0.00     0.103 A 
ENDROOT
BRANCH   1  24
HETATM   24  O1  UNL     1       0.503   1.834   0.143  1.00  0.00    -0.282 OA
ATOM     25  H1  UNL     1      -0.446   1.859   0.170  1.00  0.00     0.245 HD
ENDBRANCH   1  24
TORSDOF 1
