REMARK  6 active torsions:
REMARK  status: ('A' for Active; 'I' for Inactive)
REMARK    1  A    between atoms: C5_5  and  N1_6 
REMARK    2  A    between atoms: N1_6  and  C6_8 
REMARK    3  A    between atoms: C9_13  and  N3_14 
REMARK    4  A    between atoms: N3_14  and  C10_16 
REMARK    5  A    between atoms: C13_19  and  C14_20 
REMARK    6  A    between atoms: C15_21  and  C16_22 
ROOT
HETATM    1  C16 UNL     1       6.556  -0.769  -0.358  1.00  0.00    -0.035 A 
HETATM    2  C17 UNL     1       6.979  -1.887   0.319  1.00  0.00     0.011 A 
HETATM    3  C18 UNL     1       8.246  -2.419   0.137  1.00  0.00     0.002 A 
HETATM    4  C19 UNL     1       9.135  -1.839  -0.740  1.00  0.00     0.023 A 
HETATM    5  C20 UNL     1       8.741  -0.722  -1.430  1.00  0.00     0.045 A 
HETATM    6  C21 UNL     1       9.682  -0.112  -2.355  1.00  0.00     0.099 C 
HETATM    7  N4  UNL     1      10.432   0.389  -3.082  1.00  0.00    -0.191 NA
HETATM    8  C22 UNL     1       7.488  -0.211  -1.237  1.00  0.00     0.034 A 
ENDROOT
BRANCH   1   9
HETATM    9  C15 UNL     1       5.238  -0.174  -0.201  1.00  0.00     0.012 C 
HETATM   10  C14 UNL     1       4.343  -0.659   0.604  1.00  0.00     0.012 C 
BRANCH  10  11
HETATM   11  C13 UNL     1       2.999  -0.072   0.780  1.00  0.00    -0.036 A 
HETATM   12  C12 UNL     1       2.101  -0.649   1.659  1.00  0.00     0.013 A 
HETATM   13  C11 UNL     1       0.833  -0.157   1.873  1.00  0.00     0.030 A 
HETATM   14  C10 UNL     1       0.408   0.965   1.193  1.00  0.00     0.033 A 
HETATM   15  C24 UNL     1       1.297   1.547   0.315  1.00  0.00     0.030 A 
HETATM   16  C23 UNL     1       2.581   1.046   0.100  1.00  0.00     0.013 A 
BRANCH  14  17
HETATM   17  N3  UNL     1      -0.906   1.509   1.389  1.00  0.00    -0.342 N 
ATOM     18  H3  UNL     1      -1.032   2.280   2.045  1.00  0.00     0.167 HD
BRANCH  17  19
HETATM   19  C9  UNL     1      -1.931   1.047   0.756  1.00  0.00     0.122 A 
HETATM   20  C8  UNL     1      -1.834   0.006  -0.145  1.00  0.00     0.066 A 
HETATM   21  C7  UNL     1      -2.967  -0.452  -0.798  1.00  0.00     0.110 A 
HETATM   22  N2  UNL     1      -4.154   0.154  -0.520  1.00  0.00    -0.202 N 
HETATM   23  C6  UNL     1      -4.254   1.168   0.358  1.00  0.00     0.685 A 
ATOM     24  H2  UNL     1      -4.996  -0.172  -0.994  1.00  0.00     0.183 HD
HETATM   25  N5  UNL     1      -3.128   1.604   0.990  1.00  0.00    -0.176 N 
ATOM     26  H5  UNL     1      -3.198   2.373   1.657  1.00  0.00     0.186 HD
BRANCH  23  27
HETATM   27  N1  UNL     1      -5.366   1.757   0.638  1.00  0.00    -0.176 N 
ATOM     28  H1  UNL     1      -5.372   2.521   1.314  1.00  0.00     0.186 HD
BRANCH  27  29
HETATM   29  C5  UNL     1      -6.578   1.362   0.024  1.00  0.00     0.121 A 
HETATM   30  C4  UNL     1      -7.263   2.067  -0.924  1.00  0.00     0.051 A 
HETATM   31  C3  UNL     1      -8.389   1.303  -1.237  1.00  0.00     0.028 A 
HETATM   32  C2  UNL     1      -8.356   0.155  -0.469  1.00  0.00     0.007 A 
HETATM   33  C1  UNL     1      -9.357  -0.943  -0.475  1.00  0.00     0.068 C 
HETATM   34  N6  UNL     1      -7.235   0.229   0.287  1.00  0.00    -0.346 N 
ATOM     35  H6  UNL     1      -6.936  -0.477   0.959  1.00  0.00     0.167 HD
ENDBRANCH  27  29
ENDBRANCH  23  27
ENDBRANCH  17  19
ENDBRANCH  14  17
ENDBRANCH  10  11
ENDBRANCH   1   9
TORSDOF 6
