REMARK  4 active torsions:
REMARK  status: ('A' for Active; 'I' for Inactive)
REMARK    1  A    between atoms: S1_2  and  N1_4 
REMARK    2  A    between atoms: S1_2  and  C17_26 
REMARK    3  A    between atoms: N1_4  and  C1_6 
REMARK    4  A    between atoms: C5_12  and  C6_13 
ROOT
HETATM    1  C1  UNL     1       2.318   0.716   0.736  1.00  0.00     0.043 A 
HETATM    2  C2  UNL     1       2.310  -0.108  -0.351  1.00  0.00     0.032 A 
HETATM    3  C3  UNL     1       1.123  -0.603  -0.918  1.00  0.00     0.033 A 
HETATM    4  C4  UNL     1      -0.094  -0.262  -0.379  1.00  0.00     0.043 A 
HETATM    5  N2  UNL     1      -1.366  -0.567  -0.689  1.00  0.00    -0.354 N 
ATOM      6  H2  UNL     1      -1.643  -1.170  -1.464  1.00  0.00     0.166 HD
HETATM    7  C5  UNL     1      -2.225   0.028   0.158  1.00  0.00     0.060 A 
HETATM    8  C14 UNL     1      -1.478   0.753   1.062  1.00  0.00     0.045 A 
HETATM    9  C15 UNL     1      -0.137   0.566   0.717  1.00  0.00    -0.005 A 
HETATM   10  C16 UNL     1       1.027   1.027   1.241  1.00  0.00     0.043 A 
ENDROOT
BRANCH   1  11
HETATM   11  N1  UNL     1       3.422   1.314   1.373  1.00  0.00    -0.279 N 
ATOM     12  H1  UNL     1       3.309   1.431   2.380  1.00  0.00     0.179 HD
BRANCH  11  13
HETATM   13  S1  UNL     1       4.893   1.871   0.779  1.00  0.00     0.278 S 
HETATM   14  O1  UNL     1       4.702   2.910  -0.325  1.00  0.00    -0.199 OA
HETATM   15  O2  UNL     1       5.693   2.563   1.890  1.00  0.00    -0.199 OA
BRANCH  13  16
HETATM   16  C17 UNL     1       5.933   0.669   0.116  1.00  0.00     0.149 A 
HETATM   17  C18 UNL     1       5.826  -0.680   0.300  1.00  0.00     0.044 A 
HETATM   18  C19 UNL     1       6.719  -1.620  -0.177  1.00  0.00     0.004 A 
HETATM   19  C20 UNL     1       7.801  -1.193  -0.889  1.00  0.00     0.017 A 
HETATM   20  C21 UNL     1       7.923   0.170  -1.082  1.00  0.00     0.089 A 
HETATM   21  N4  UNL     1       7.037   1.054  -0.606  1.00  0.00    -0.355 N 
ATOM     22  H4  UNL     1       7.187   2.047  -0.785  1.00  0.00     0.166 HD
ENDBRANCH  13  16
ENDBRANCH  11  13
ENDBRANCH   1  11
BRANCH   7  23
HETATM   23  C6  UNL     1      -3.687  -0.094   0.104  1.00  0.00     0.060 A 
HETATM   24  C7  UNL     1      -4.606   0.494   0.947  1.00  0.00     0.045 A 
HETATM   25  C8  UNL     1      -5.888   0.134   0.565  1.00  0.00    -0.007 A 
HETATM   26  C9  UNL     1      -7.167   0.398   1.007  1.00  0.00     0.014 A 
HETATM   27  C13 UNL     1      -5.730  -0.692  -0.538  1.00  0.00     0.043 A 
HETATM   28  C10 UNL     1      -8.297  -0.117   0.408  1.00  0.00     0.001 A 
HETATM   29  C11 UNL     1      -8.118  -0.941  -0.693  1.00  0.00     0.002 A 
HETATM   30  C12 UNL     1      -6.849  -1.218  -1.151  1.00  0.00     0.030 A 
HETATM   31  N3  UNL     1      -4.396  -0.804  -0.782  1.00  0.00    -0.354 N 
ATOM     32  H3  UNL     1      -3.991  -1.355  -1.539  1.00  0.00     0.166 HD
ENDBRANCH   7  23
TORSDOF 4
