REMARK  6 active torsions:
REMARK  status: ('A' for Active; 'I' for Inactive)
REMARK    1  A    between atoms: O1_2  and  C2_3 
REMARK    2  A    between atoms: C8_11  and  N2_12 
REMARK    3  A    between atoms: N2_12  and  C9_14 
REMARK    4  A    between atoms: C9_14  and  C10_15 
REMARK    5  A    between atoms: C13_18  and  N3_19 
REMARK    6  A    between atoms: N3_19  and  C14_21 
ROOT
HETATM    1  C10 UNL     1       0.186  -0.686   0.443  1.00  0.00    -0.040 A 
HETATM    2  C11 UNL     1       0.669  -0.537  -0.830  1.00  0.00     0.011 A 
HETATM    3  C12 UNL     1       1.511   0.515  -1.147  1.00  0.00     0.030 A 
HETATM    4  C13 UNL     1       1.872   1.417  -0.198  1.00  0.00     0.033 A 
HETATM    5  C21 UNL     1       1.397   1.285   1.086  1.00  0.00     0.030 A 
HETATM    6  C22 UNL     1       0.557   0.230   1.389  1.00  0.00     0.011 A 
ENDROOT
BRANCH   1   7
HETATM    7  C9  UNL     1      -0.704  -1.792   0.788  1.00  0.00     0.158 C 
BRANCH   7   8
HETATM    8  N2  UNL     1      -2.072  -1.350   0.572  1.00  0.00    -0.385 N 
ATOM      9  H2  UNL     1      -2.254  -0.348   0.507  1.00  0.00     0.160 HD
BRANCH   8  10
HETATM   10  C8  UNL     1      -3.058  -2.156   0.459  1.00  0.00     0.042 A 
HETATM   11  C7  UNL     1      -2.995  -3.508   0.520  1.00  0.00     0.047 A 
HETATM   12  C6  UNL     1      -4.144  -4.257   0.381  1.00  0.00     0.090 A 
HETATM   13  N1  UNL     1      -5.338  -3.699   0.185  1.00  0.00    -0.365 N 
HETATM   14  C5  UNL     1      -5.431  -2.354   0.120  1.00  0.00     0.044 A 
ATOM     15  H1  UNL     1      -6.170  -4.280   0.085  1.00  0.00     0.165 HD
HETATM   16  C4  UNL     1      -6.680  -1.778  -0.084  1.00  0.00     0.033 A 
HETATM   17  C23 UNL     1      -4.311  -1.563   0.253  1.00  0.00     0.020 A 
HETATM   18  C3  UNL     1      -6.781  -0.412  -0.151  1.00  0.00     0.039 A 
HETATM   19  C2  UNL     1      -5.664   0.386  -0.019  1.00  0.00     0.069 A 
HETATM   20  C24 UNL     1      -4.431  -0.187   0.183  1.00  0.00     0.052 A 
BRANCH  19  21
HETATM   21  O1  UNL     1      -5.768   1.770  -0.087  1.00  0.00    -0.356 OA
HETATM   22  C1  UNL     1      -4.617   2.595   0.050  1.00  0.00     0.210 C 
ENDBRANCH  19  21
ENDBRANCH   8  10
ENDBRANCH   7   8
ENDBRANCH   1   7
BRANCH   4  23
HETATM   23  N3  UNL     1       2.749   2.528  -0.488  1.00  0.00    -0.342 N 
ATOM     24  H3  UNL     1       2.375   3.429  -0.787  1.00  0.00     0.167 HD
BRANCH  23  25
HETATM   25  C14 UNL     1       4.039   2.344  -0.356  1.00  0.00     0.107 A 
HETATM   26  C15 UNL     1       4.877   3.402  -0.631  1.00  0.00     0.049 A 
HETATM   27  C16 UNL     1       6.248   3.201  -0.490  1.00  0.00     0.019 A 
HETATM   28  C17 UNL     1       6.749   1.981  -0.087  1.00  0.00     0.009 A 
HETATM   29  C18 UNL     1       8.014   1.483   0.140  1.00  0.00     0.032 A 
HETATM   30  C20 UNL     1       5.877   0.947   0.179  1.00  0.00     0.117 A 
HETATM   31  C19 UNL     1       7.921   0.164   0.538  1.00  0.00     0.090 A 
HETATM   32  N4  UNL     1       6.607  -0.113   0.547  1.00  0.00    -0.352 N 
ATOM     33  H4  UNL     1       6.214  -1.019   0.803  1.00  0.00     0.166 HD
HETATM   34  N5  UNL     1       4.542   1.164   0.035  1.00  0.00    -0.328 N 
ATOM     35  H5  UNL     1       3.898   0.398   0.232  1.00  0.00     0.169 HD
ENDBRANCH  23  25
ENDBRANCH   4  23
TORSDOF 6
