REMARK  1 active torsions:
REMARK  status: ('A' for Active; 'I' for Inactive)
REMARK    1  A    between atoms: N1_2  and  C2_5 
ROOT
HETATM    1  C2  UNL     1       1.420   1.159   0.117  1.00  0.00     0.196 C 
HETATM    2  C3  UNL     1      -0.036   0.788   0.054  1.00  0.00     0.023 C 
HETATM    3  C4  UNL     1      -0.965   1.978   0.287  1.00  0.00     0.028 C 
HETATM    4  C5  UNL     1      -2.341   1.728  -0.189  1.00  0.00     0.021 C 
HETATM    5 BR1  UNL     1      -3.291   3.383  -0.489  1.00  0.00    -0.085 Br
HETATM    6  C6  UNL     1      -2.558   0.729  -1.257  1.00  0.00     0.043 C 
HETATM    7  C7  UNL     1      -2.719  -0.322  -0.228  1.00  0.00     0.029 C 
HETATM    8 BR2  UNL     1      -4.145  -1.544  -0.739  1.00  0.00    -0.085 Br
HETATM    9  C8  UNL     1      -3.133   0.776   0.703  1.00  0.00     0.043 C 
HETATM   10  C9  UNL     1      -1.512  -1.086   0.194  1.00  0.00    -0.022 C 
HETATM   11  C10 UNL     1      -2.018  -2.128   1.191  1.00  0.00     0.017 C 
HETATM   12  C11 UNL     1      -0.793  -1.771  -0.923  1.00  0.00     0.012 C 
HETATM   13  C12 UNL     1       0.688  -1.779  -0.921  1.00  0.00     0.017 C 
HETATM   14  C13 UNL     1       1.427  -1.357   0.253  1.00  0.00     0.035 C 
HETATM   15  C14 UNL     1       0.542  -1.285   1.422  1.00  0.00     0.022 C 
HETATM   16  C15 UNL     1      -0.498  -0.267   0.962  1.00  0.00     0.002 C 
HETATM   17  C16 UNL     1       2.177  -0.056   0.362  1.00  0.00     0.055 C 
HETATM   18  C17 UNL     1       3.172  -0.670  -0.515  1.00  0.00     0.162 C 
HETATM   19 CL1  UNL     1       4.859  -0.161  -0.208  1.00  0.00    -0.118 Cl
HETATM   20  C18 UNL     1       2.799  -1.929   0.289  1.00  0.00     0.268 C 
HETATM   21  F1  UNL     1       2.935  -3.097  -0.413  1.00  0.00    -0.204 F 
HETATM   22  F2  UNL     1       3.420  -1.908   1.530  1.00  0.00    -0.204 F 
ENDROOT
BRANCH   1  23
HETATM   23  N1  UNL     1       1.802   1.909  -1.074  1.00  0.00    -0.074 N 
HETATM   24  C1  UNL     1       2.363   3.206  -0.748  1.00  0.00     0.267 C 
ATOM     25  H12 UNL     1       1.019   1.998  -1.721  1.00  0.00     0.277 HD
ATOM     26  H11 UNL     1       2.437   1.369  -1.662  1.00  0.00     0.277 HD
ENDBRANCH   1  23
TORSDOF 1
