REMARK  0 active torsions:
REMARK  status: ('A' for Active; 'I' for Inactive)
ROOT
HETATM    1  B1  UNL     1      -0.697   2.156  -1.835  1.00  0.00     0.090 B 
HETATM    2  C1  UNL     1      -1.058   1.637  -0.426  1.00  0.00    -0.058 C 
HETATM    3  C2  UNL     1      -2.384   0.849  -0.384  1.00  0.00     0.063 C 
HETATM    4  C3  UNL     1      -1.966  -0.592  -0.426  1.00  0.00    -0.030 C 
HETATM    5  C4  UNL     1      -2.732  -1.288  -1.568  1.00  0.00     0.016 C 
HETATM    6  C5  UNL     1      -2.224  -1.380   0.790  1.00  0.00     0.013 C 
HETATM    7  C6  UNL     1      -3.651  -1.154   1.228  1.00  0.00     0.044 C 
HETATM    8  C7  UNL     1      -4.023   0.260   1.449  1.00  0.00     0.160 C 
HETATM    9 CL1  UNL     1      -5.761   0.416   0.987  1.00  0.00    -0.100 Cl
HETATM   10 BR1  UNL     1      -4.006   0.561   3.387  1.00  0.00    -0.061 Br
HETATM   11  C8  UNL     1      -3.194   1.281   0.756  1.00  0.00     0.278 C 
HETATM   12  F1  UNL     1      -2.463   1.978   1.735  1.00  0.00    -0.203 F 
HETATM   13  F2  UNL     1      -4.086   2.268   0.292  1.00  0.00    -0.203 F 
HETATM   14  C9  UNL     1      -0.551  -0.480  -0.874  1.00  0.00     0.009 A 
HETATM   15  C10 UNL     1      -0.158   0.636   0.185  1.00  0.00    -0.004 A 
HETATM   16  C11 UNL     1       0.667  -0.388  -0.219  1.00  0.00    -0.010 A 
HETATM   17  C12 UNL     1       1.195  -1.463   0.617  1.00  0.00     0.037 A 
HETATM   18  C13 UNL     1       2.014  -0.706  -0.428  1.00  0.00     0.079 A 
HETATM   19  C14 UNL     1       2.603  -1.472  -1.524  1.00  0.00     0.236 A 
HETATM   20  O1  UNL     1       2.015  -2.243  -2.309  1.00  0.00    -0.272 OA
HETATM   21  N1  UNL     1       3.994  -1.197  -1.561  1.00  0.00    -0.326 N 
ATOM     22  H1  UNL     1       4.665  -1.589  -2.221  1.00  0.00     0.169 HD
HETATM   23  C15 UNL     1       4.289  -0.280  -0.518  1.00  0.00     0.042 A 
HETATM   24  C16 UNL     1       5.506   0.290  -0.148  1.00  0.00     0.030 A 
HETATM   25  C17 UNL     1       5.620   1.178   0.908  1.00  0.00     0.002 A 
HETATM   26  C18 UNL     1       4.470   1.483   1.591  1.00  0.00     0.001 A 
HETATM   27  C19 UNL     1       3.256   0.935   1.247  1.00  0.00     0.011 A 
HETATM   28  C20 UNL     1       3.148   0.037   0.177  1.00  0.00    -0.013 A 
ENDROOT
TORSDOF 0
