REMARK  4 active torsions:
REMARK  status: ('A' for Active; 'I' for Inactive)
REMARK       I    between atoms: C2_2  and  N1_4 
REMARK    1  A    between atoms: N1_4  and  C3_6 
REMARK    2  A    between atoms: C14_18  and  C15_19 
REMARK    3  A    between atoms: C21_29  and  O2_30 
REMARK    4  A    between atoms: C21_29  and  N3_32 
ROOT
HETATM    1  C3  UNL     1      -2.220  -1.271  -0.195  1.00  0.00     0.048 C 
HETATM    2  C4  UNL     1      -3.788  -1.154  -0.113  1.00  0.00     0.040 C 
HETATM    3  C5  UNL     1      -2.152  -2.273  -1.401  1.00  0.00     0.033 C 
HETATM    4  C6  UNL     1      -3.303  -3.202  -1.463  1.00  0.00     0.017 C 
HETATM    5  C7  UNL     1      -1.946  -1.441  -2.540  1.00  0.00    -0.023 C 
HETATM    6  C8  UNL     1      -1.660  -0.232  -2.157  1.00  0.00    -0.017 C 
HETATM    7  C9  UNL     1      -1.630  -0.053  -0.649  1.00  0.00     0.019 C 
HETATM    8  C10 UNL     1      -2.621   1.108  -0.521  1.00  0.00     0.059 C 
HETATM    9  C11 UNL     1      -1.838   2.299  -0.200  1.00  0.00    -0.011 A 
HETATM   10  C12 UNL     1      -2.365   3.583   0.029  1.00  0.00     0.124 A 
HETATM   11  F1  UNL     1      -3.698   3.748   0.172  1.00  0.00    -0.206 F 
HETATM   12  C13 UNL     1      -1.484   4.641   0.128  1.00  0.00     0.059 A 
HETATM   13  C14 UNL     1      -0.106   4.404  -0.002  1.00  0.00     0.051 A 
HETATM   14  C16 UNL     1       0.339   3.121  -0.211  1.00  0.00     0.025 A 
HETATM   15  C17 UNL     1      -0.540   2.027  -0.315  1.00  0.00    -0.038 A 
HETATM   16  C18 UNL     1      -0.334   0.568  -0.370  1.00  0.00     0.004 C 
HETATM   17  C19 UNL     1       0.315   0.285   0.971  1.00  0.00     0.035 C 
HETATM   18  C20 UNL     1       1.202  -0.920   0.990  1.00  0.00     0.127 C 
HETATM   19  N2  UNL     1       2.445  -0.568   0.226  1.00  0.00    -0.347 N 
HETATM   20  C21 UNL     1       3.642  -0.889   0.794  1.00  0.00     0.216 C 
HETATM   21  C24 UNL     1       2.134   0.119  -0.974  1.00  0.00     0.127 C 
HETATM   22  C25 UNL     1       0.715   0.236  -1.382  1.00  0.00     0.035 C 
ENDROOT
BRANCH   1  23
HETATM   23  N1  UNL     1      -1.947  -2.100   0.900  1.00  0.00    -0.351 N 
HETATM   24  C2  UNL     1      -2.232  -1.987   2.283  1.00  0.00     0.214 C 
HETATM   25  C1  UNL     1      -1.858  -3.071   3.251  1.00  0.00     0.117 C 
HETATM   26  O1  UNL     1      -2.804  -0.994   2.752  1.00  0.00    -0.274 OA
ATOM     27  H1  UNL     1      -1.444  -2.953   0.653  1.00  0.00     0.163 HD
ENDBRANCH   1  23
BRANCH  13  28
HETATM   28  C15 UNL     1       0.854   5.532   0.080  1.00  0.00     0.417 C 
HETATM   29  F2  UNL     1       0.142   6.616   0.621  1.00  0.00    -0.166 F 
HETATM   30  F3  UNL     1       1.187   5.989  -1.212  1.00  0.00    -0.166 F 
HETATM   31  F4  UNL     1       2.009   5.284   0.712  1.00  0.00    -0.166 F 
ENDBRANCH  13  28
BRANCH  20  32
HETATM   32  O2  UNL     1       3.520  -1.371   2.043  1.00  0.00    -0.333 OA
ATOM     33  H2  UNL     1       4.354  -1.595   2.439  1.00  0.00     0.220 HD
ENDBRANCH  20  32
BRANCH  20  34
HETATM   34  N3  UNL     1       4.964  -0.842   0.383  1.00  0.00    -0.356 N 
HETATM   35  C22 UNL     1       5.432  -0.462  -0.922  1.00  0.00     0.152 C 
HETATM   36  C23 UNL     1       6.075  -1.159   1.327  1.00  0.00     0.152 C 
ENDBRANCH  20  34
TORSDOF 4
