REMARK  1 active torsions:
REMARK  status: ('A' for Active; 'I' for Inactive)
REMARK    1  A    between atoms: C2_2  and  O1_3 
ROOT
HETATM    1  C1  UNL     1      -1.770   2.523  -0.683  1.00  0.00     0.046 C 
HETATM    2  C2  UNL     1      -2.000   1.019  -0.441  1.00  0.00     0.060 C 
HETATM    3  C3  UNL     1      -2.326   0.866   0.999  1.00  0.00     0.059 C 
HETATM    4  C4  UNL     1      -3.252  -0.323   1.143  1.00  0.00     0.104 C 
HETATM    5 CL1  UNL     1      -3.876  -0.298   2.815  1.00  0.00    -0.123 Cl
HETATM    6  C5  UNL     1      -2.523  -1.573   0.813  1.00  0.00     0.115 C 
HETATM    7 CL2  UNL     1      -3.104  -2.334  -0.708  1.00  0.00    -0.122 Cl
HETATM    8  C6  UNL     1      -1.038  -1.482   0.838  1.00  0.00     0.083 C 
HETATM    9 BR1  UNL     1      -0.469  -3.363   0.963  1.00  0.00    -0.089 Br
HETATM   10  C7  UNL     1      -0.413  -0.967  -0.398  1.00  0.00     0.017 C 
HETATM   11  C8  UNL     1      -0.821   0.312  -0.948  1.00  0.00     0.026 C 
HETATM   12  C9  UNL     1       0.425   1.197  -0.773  1.00  0.00     0.019 C 
HETATM   13  C10 UNL     1       1.483   0.168  -1.140  1.00  0.00     0.068 C 
HETATM   14  C11 UNL     1       2.809   0.772  -0.957  1.00  0.00     0.261 C 
HETATM   15  F1  UNL     1       2.802   2.024  -1.592  1.00  0.00    -0.205 F 
HETATM   16  F2  UNL     1       3.863   0.085  -1.492  1.00  0.00    -0.205 F 
HETATM   17  C12 UNL     1       3.149   1.061   0.493  1.00  0.00     0.130 C 
HETATM   18 BR2  UNL     1       4.999   1.572   0.584  1.00  0.00    -0.085 Br
HETATM   19  C13 UNL     1       2.975  -0.230   1.229  1.00  0.00     0.022 C 
HETATM   20  C14 UNL     1       1.524  -0.689   1.174  1.00  0.00     0.011 C 
HETATM   21  C15 UNL     1       1.112  -0.965  -0.240  1.00  0.00    -0.029 C 
HETATM   22  C16 UNL     1       1.740  -2.232  -0.744  1.00  0.00     0.016 C 
ENDROOT
BRANCH   2  23
HETATM   23  O1  UNL     1      -3.184   0.746  -1.169  1.00  0.00    -0.390 OA
ATOM     24  H1  UNL     1      -3.326  -0.181  -1.020  1.00  0.00     0.210 HD
ENDBRANCH   2  23
TORSDOF 1
