REMARK  1 active torsions:
REMARK  status: ('A' for Active; 'I' for Inactive)
REMARK    1  A    between atoms: C18_23  and  O1_25 
ROOT
HETATM    1  C1  UNL     1       3.543   1.804  -0.462  1.00  0.00     0.013 C 
HETATM    2  C2  UNL     1       2.400   1.138   0.342  1.00  0.00     0.017 C 
HETATM    3  C3  UNL     1       1.202   1.958   0.314  1.00  0.00     0.028 C 
HETATM    4  C4  UNL     1      -0.060   1.475  -0.229  1.00  0.00     0.023 C 
HETATM    5 BR1  UNL     1      -1.016   2.996  -1.058  1.00  0.00    -0.085 Br
HETATM    6  C5  UNL     1      -0.031   0.462  -1.320  1.00  0.00     0.037 C 
HETATM    7  C6  UNL     1       0.060  -0.974  -0.854  1.00  0.00     0.034 C 
HETATM    8  C7  UNL     1       0.697  -1.763  -2.017  1.00  0.00     0.022 C 
HETATM    9  C8  UNL     1       1.069  -1.009   0.243  1.00  0.00     0.048 C 
HETATM   10  C9  UNL     1       0.695  -0.694   1.625  1.00  0.00     0.066 C 
HETATM   11 BR2  UNL     1       0.500  -2.323   2.735  1.00  0.00    -0.091 Br
HETATM   12  C10 UNL     1      -0.375   0.226   1.954  1.00  0.00     0.023 C 
HETATM   13  C11 UNL     1      -1.000   1.070   0.921  1.00  0.00     0.013 C 
HETATM   14  C12 UNL     1      -2.226   0.576   0.296  1.00  0.00     0.037 C 
HETATM   15  C13 UNL     1      -3.515   0.755   1.105  1.00  0.00     0.008 C 
HETATM   16  C14 UNL     1      -4.499   0.101   0.123  1.00  0.00     0.004 C 
HETATM   17  C15 UNL     1      -3.653  -0.746  -0.825  1.00  0.00     0.050 C 
HETATM   18  C16 UNL     1      -2.349  -0.876   0.011  1.00  0.00     0.173 C 
HETATM   19  F1  UNL     1      -2.857  -1.612   1.097  1.00  0.00    -0.236 F 
HETATM   20  C17 UNL     1      -1.258  -1.564  -0.649  1.00  0.00     0.287 C 
HETATM   21  F2  UNL     1      -1.088  -2.826  -0.054  1.00  0.00    -0.202 F 
HETATM   22  F3  UNL     1      -1.785  -1.893  -1.922  1.00  0.00    -0.202 F 
HETATM   23  C18 UNL     1       2.355  -0.283  -0.116  1.00  0.00     0.063 C 
HETATM   24  C19 UNL     1       3.491  -1.031   0.628  1.00  0.00     0.046 C 
ENDROOT
BRANCH  23  25
HETATM   25  O1  UNL     1       2.755  -0.336  -1.415  1.00  0.00    -0.389 OA
ATOM     26  H1  UNL     1       2.726  -1.240  -1.706  1.00  0.00     0.210 HD
ENDBRANCH  23  25
TORSDOF 1
