REMARK  2 active torsions:
REMARK  status: ('A' for Active; 'I' for Inactive)
REMARK    1  A    between atoms: C7_7  and  C8_8 
REMARK       I    between atoms: C8_8  and  N1_10 
REMARK    2  A    between atoms: N1_10  and  C9_12 
ROOT
HETATM    1  C1  UNL     1      -4.715   0.523   0.038  1.00  0.00     0.045 C 
HETATM    2  C2  UNL     1      -3.599   1.124  -0.771  1.00  0.00    -0.064 C 
HETATM    3  C3  UNL     1      -3.279   2.490  -0.379  1.00  0.00     0.004 C 
HETATM    4  C4  UNL     1      -2.238   3.196  -0.025  1.00  0.00     0.000 C 
HETATM    5  C5  UNL     1      -0.839   2.905   0.146  1.00  0.00    -0.003 C 
HETATM    6  C6  UNL     1      -0.144   1.817   0.216  1.00  0.00    -0.006 C 
HETATM    7  C7  UNL     1      -0.227   0.339   0.182  1.00  0.00     0.083 C 
HETATM    8  C14 UNL     1       0.304  -0.070   1.574  1.00  0.00     0.027 C 
HETATM    9  C15 UNL     1       0.398  -1.537   1.723  1.00  0.00     0.019 C 
HETATM   10  C16 UNL     1      -0.798  -2.273   1.295  1.00  0.00     0.078 C 
HETATM   11 BR1  UNL     1      -0.159  -3.987   0.579  1.00  0.00    -0.090 Br
HETATM   12  C17 UNL     1      -1.690  -1.693   0.274  1.00  0.00     0.123 C 
HETATM   13 CL1  UNL     1      -1.727  -2.639  -1.232  1.00  0.00    -0.122 Cl
HETATM   14  C18 UNL     1      -1.592  -0.202   0.083  1.00  0.00     0.095 C 
HETATM   15 CL2  UNL     1      -2.345   0.388   1.651  1.00  0.00    -0.114 Cl
HETATM   16  C19 UNL     1      -2.444   0.213  -1.050  1.00  0.00     0.137 C 
HETATM   17 CL3  UNL     1      -1.564   0.967  -2.418  1.00  0.00    -0.118 Cl
ENDROOT
BRANCH   7  18
HETATM   18  C8  UNL     1       0.812  -0.118  -0.755  1.00  0.00     0.237 C 
HETATM   19  O1  UNL     1       0.716  -0.874  -1.720  1.00  0.00    -0.272 OA
HETATM   20  N1  UNL     1       2.118   0.378  -0.521  1.00  0.00    -0.312 N 
ATOM     21  H1  UNL     1       2.158   1.354  -0.228  1.00  0.00     0.170 HD
BRANCH  20  22
HETATM   22  C9  UNL     1       3.236  -0.190  -0.616  1.00  0.00     0.110 A 
HETATM   23  C10 UNL     1       3.489  -1.480  -0.981  1.00  0.00     0.090 A 
HETATM   24  C11 UNL     1       4.768  -1.959  -1.044  1.00  0.00     0.121 A 
HETATM   25  F1  UNL     1       5.054  -3.249  -1.408  1.00  0.00    -0.206 F 
HETATM   26  C12 UNL     1       5.837  -1.153  -0.741  1.00  0.00     0.059 A 
HETATM   27  C13 UNL     1       5.558   0.146  -0.375  1.00  0.00     0.092 A 
HETATM   28  N2  UNL     1       4.315   0.595  -0.318  1.00  0.00    -0.352 N 
ATOM     29  H2  UNL     1       4.155   1.564  -0.041  1.00  0.00     0.166 HD
ENDBRANCH  20  22
ENDBRANCH   7  18
TORSDOF 2
