REMARK  1 active torsions:
REMARK  status: ('A' for Active; 'I' for Inactive)
REMARK    1  A    between atoms: C3_4  and  C4_5 
ROOT
HETATM    1  O1  UNL     1       1.521  -2.175  -3.150  1.00  0.00    -0.274 OA
HETATM    2  C1  UNL     1       0.970  -1.600  -2.179  1.00  0.00     0.218 C 
HETATM    3  C2  UNL     1       1.212  -0.188  -1.945  1.00  0.00     0.117 C 
HETATM    4  C3  UNL     1       1.119   0.268  -0.519  1.00  0.00    -0.002 C 
HETATM    5  C8  UNL     1       0.257   1.545  -0.585  1.00  0.00     0.019 C 
HETATM    6  C9  UNL     1      -0.186   2.057   0.718  1.00  0.00     0.028 C 
HETATM    7  C10 UNL     1      -1.622   2.420   0.774  1.00  0.00    -0.027 C 
HETATM    8  C11 UNL     1      -2.745   1.822   0.613  1.00  0.00    -0.008 C 
HETATM    9  C12 UNL     1      -3.343   0.551   0.308  1.00  0.00    -0.027 C 
HETATM   10  C13 UNL     1      -2.659  -0.693  -0.005  1.00  0.00     0.027 C 
HETATM   11  C14 UNL     1      -2.083  -1.478   1.149  1.00  0.00     0.006 C 
HETATM   12  C15 UNL     1      -1.087  -2.495   0.746  1.00  0.00     0.025 C 
HETATM   13  C16 UNL     1       0.179  -2.024   0.084  1.00  0.00     0.085 C 
HETATM   14  C17 UNL     1       0.624  -0.685   0.469  1.00  0.00     0.040 C 
HETATM   15  N1  UNL     1       0.125  -2.313  -1.321  1.00  0.00    -0.356 N 
ATOM     16  H1  UNL     1      -0.513  -3.020  -1.685  1.00  0.00     0.162 HD
ENDROOT
BRANCH   4  17
HETATM   17  C4  UNL     1       2.516   0.762  -0.164  1.00  0.00    -0.042 A 
HETATM   18  C5  UNL     1       3.316   0.131   0.733  1.00  0.00     0.015 A 
HETATM   19  C6  UNL     1       4.543   0.680   0.976  1.00  0.00     0.050 A 
HETATM   20  S1  UNL     1       4.588   2.043  -0.021  1.00  0.00    -0.113 SA
HETATM   21  C7  UNL     1       3.026   1.890  -0.739  1.00  0.00     0.057 A 
ENDBRANCH   4  17
TORSDOF 1
