REMARK  6 active torsions:
REMARK  status: ('A' for Active; 'I' for Inactive)
REMARK    1  A    between atoms: C9_9  and  O1_10 
REMARK    2  A    between atoms: O1_10  and  C10_11 
REMARK    3  A    between atoms: C10_11  and  N1_12 
REMARK    4  A    between atoms: C10_11  and  S1_18 
REMARK    5  A    between atoms: N1_12  and  C11_14 
REMARK    6  A    between atoms: S1_18  and  N2_19 
ROOT
HETATM    1  O1  UNL     1      -0.291   0.011  -1.152  1.00  0.00    -0.323 OA
ENDROOT
BRANCH   1   2
HETATM    2  C9  UNL     1      -1.482  -0.281  -0.526  1.00  0.00     0.142 C 
HETATM    3  C2  UNL     1      -1.445  -1.437   0.429  1.00  0.00     0.012 C 
HETATM    4  C1  UNL     1      -0.926  -2.643  -0.330  1.00  0.00     0.012 C 
HETATM    5  C3  UNL     1      -2.905  -1.774   0.755  1.00  0.00     0.007 C 
HETATM    6  C4  UNL     1      -3.621  -0.613   1.354  1.00  0.00     0.001 C 
HETATM    7  C5  UNL     1      -3.615   0.513   0.320  1.00  0.00     0.011 C 
HETATM    8  C6  UNL     1      -2.188   0.939   0.041  1.00  0.00    -0.021 C 
HETATM    9  C7  UNL     1      -1.592   1.497   1.274  1.00  0.00     0.017 C 
HETATM   10  C8  UNL     1      -2.256   1.954  -1.088  1.00  0.00     0.017 C 
ENDBRANCH   1   2
BRANCH   1  11
HETATM   11  C10 UNL     1       0.920   0.374  -0.777  1.00  0.00     0.197 C 
BRANCH  11  12
HETATM   12  N1  UNL     1       1.995  -0.415  -0.470  1.00  0.00    -0.356 N 
ATOM     13  H1  UNL     1       1.848  -1.419  -0.576  1.00  0.00     0.163 HD
BRANCH  12  14
HETATM   14  C11 UNL     1       3.315  -0.020  -0.014  1.00  0.00     0.021 C 
HETATM   15  C12 UNL     1       4.167   0.729  -0.960  1.00  0.00     0.037 C 
HETATM   16  C13 UNL     1       3.208   0.785   1.282  1.00  0.00     0.037 C 
HETATM   17  C14 UNL     1       4.088  -1.286   0.381  1.00  0.00     0.037 C 
ENDBRANCH  12  14
ENDBRANCH  11  12
BRANCH  11  18
HETATM   18  S1  UNL     1       1.177   1.990  -0.685  1.00  0.00     0.038 SA
BRANCH  18  19
HETATM   19  N2  UNL     1       1.530   2.490  -2.241  1.00  0.00    -0.060 NA
HETATM   20 CL1  UNL     1       1.276   1.172  -3.398  1.00  0.00     0.010 Cl
ENDBRANCH  18  19
ENDBRANCH  11  18
ENDBRANCH   1  11
TORSDOF 6
