REMARK  2 active torsions:
REMARK  status: ('A' for Active; 'I' for Inactive)
REMARK    1  A    between atoms: C5_5  and  C7_7 
REMARK    2  A    between atoms: C9_9  and  O1_10 
ROOT
HETATM    1  C1  UNL     1      -3.227  -0.450   0.877  1.00  0.00     0.045 C 
HETATM    2  C2  UNL     1      -1.928  -0.152   0.188  1.00  0.00    -0.062 C 
HETATM    3  C3  UNL     1      -0.837  -0.892   0.144  1.00  0.00    -0.067 C 
HETATM    4  C4  UNL     1      -0.722  -2.228   0.818  1.00  0.00     0.045 C 
HETATM    5  C5  UNL     1       0.191  -0.224  -0.637  1.00  0.00     0.015 C 
HETATM    6  C6  UNL     1       0.336  -0.799  -2.047  1.00  0.00     0.026 C 
HETATM    7  C11 UNL     1      -0.209   1.207  -0.744  1.00  0.00     0.044 C 
HETATM    8  C12 UNL     1      -1.723   1.103  -0.570  1.00  0.00     0.039 C 
HETATM    9  C13 UNL     1      -2.156   2.258   0.321  1.00  0.00     0.032 C 
HETATM   10 BR1  UNL     1      -2.631   1.116  -2.261  1.00  0.00    -0.081 Br
ENDROOT
BRANCH   5  11
HETATM   11  C7  UNL     1       1.563  -0.370  -0.017  1.00  0.00    -0.002 A 
HETATM   12  C8  UNL     1       2.509   0.606   0.151  1.00  0.00     0.052 A 
HETATM   13  C9  UNL     1       3.669   0.249   0.732  1.00  0.00     0.073 A 
HETATM   14  C10 UNL     1       3.799  -1.064   1.105  1.00  0.00     0.086 A 
HETATM   15  S1  UNL     1       2.313  -1.750   0.636  1.00  0.00    -0.102 SA
BRANCH  13  16
HETATM   16  O1  UNL     1       4.743   1.159   0.971  1.00  0.00    -0.360 OA
ATOM     17  H1  UNL     1       5.562   0.907   1.381  1.00  0.00     0.217 HD
ENDBRANCH  13  16
ENDBRANCH   5  11
TORSDOF 2
