REMARK  3 active torsions:
REMARK  status: ('A' for Active; 'I' for Inactive)
REMARK    1  A    between atoms: C2_2  and  C4_5 
REMARK    2  A    between atoms: C6_7  and  C7_8 
REMARK    3  A    between atoms: C7_8  and  O1_9 
ROOT
HETATM    1  C4  UNL     1       3.519  -0.346   0.398  1.00  0.00     0.022 A 
HETATM    2  C5  UNL     1       2.271  -0.087  -0.173  1.00  0.00     0.041 A 
HETATM    3  C6  UNL     1       1.074  -0.222   0.479  1.00  0.00     0.044 A 
HETATM    4  N1  UNL     1       1.151  -0.652   1.778  1.00  0.00    -0.364 N 
ATOM      5  H1  UNL     1       0.286  -0.771   2.305  1.00  0.00     0.165 HD
HETATM    6  C17 UNL     1       2.316  -0.923   2.386  1.00  0.00     0.131 A 
HETATM    7  C18 UNL     1       3.529  -0.770   1.696  1.00  0.00     0.141 A 
HETATM    8  F2  UNL     1       4.696  -1.060   2.344  1.00  0.00    -0.204 F 
ENDROOT
BRANCH   3   9
HETATM    9  C7  UNL     1      -0.246   0.168  -0.071  1.00  0.00     0.100 C 
HETATM   10  C8  UNL     1      -0.891   1.014   1.029  1.00  0.00     0.045 C 
HETATM   11  C9  UNL     1      -2.295   0.541   1.318  1.00  0.00     0.013 C 
HETATM   12  C10 UNL     1      -3.096   0.444   0.001  1.00  0.00    -0.041 C 
HETATM   13  C11 UNL     1      -4.522   0.133   0.471  1.00  0.00     0.015 C 
HETATM   14  C12 UNL     1      -3.148   1.778  -0.631  1.00  0.00     0.015 C 
HETATM   15  C13 UNL     1      -2.508  -0.696  -0.754  1.00  0.00    -0.038 C 
HETATM   16  C14 UNL     1      -2.754  -0.674  -2.223  1.00  0.00     0.015 C 
HETATM   17  C15 UNL     1      -3.266  -1.953  -0.274  1.00  0.00     0.015 C 
HETATM   18  C16 UNL     1      -1.059  -1.001  -0.446  1.00  0.00     0.053 C 
BRANCH   9  19
HETATM   19  O1  UNL     1       0.065   0.988  -1.183  1.00  0.00    -0.384 OA
ATOM     20  H1  UNL     1      -0.781   1.238  -1.536  1.00  0.00     0.211 HD
ENDBRANCH   9  19
ENDBRANCH   3   9
BRANCH   1  21
HETATM   21  C2  UNL     1       4.789  -0.061  -0.338  1.00  0.00     0.126 C 
HETATM   22  C1  UNL     1       5.514   1.100   0.343  1.00  0.00     0.057 C 
HETATM   23  C3  UNL     1       4.612   0.222  -1.785  1.00  0.00     0.057 C 
HETATM   24  F1  UNL     1       5.639  -1.151  -0.185  1.00  0.00    -0.238 F 
ENDBRANCH   1  21
TORSDOF 3
