REMARK  4 active torsions:
REMARK  status: ('A' for Active; 'I' for Inactive)
REMARK    1  A    between atoms: C2_2  and  C3_4 
REMARK    2  A    between atoms: C6_7  and  N1_9 
REMARK       I    between atoms: N1_9  and  C8_11 
REMARK    3  A    between atoms: C8_11  and  O2_13 
REMARK    4  A    between atoms: O2_13  and  C9_14 
ROOT
HETATM    1  C3  UNL     1      -2.470  -0.026   0.604  1.00  0.00    -0.018 C 
HETATM    2  C4  UNL     1      -2.107   1.142   1.478  1.00  0.00     0.018 C 
HETATM    3  C5  UNL     1      -1.526  -1.193   0.931  1.00  0.00     0.042 C 
HETATM    4  C6  UNL     1      -0.342  -1.032   0.041  1.00  0.00     0.033 C 
HETATM    5  C7  UNL     1       0.074  -2.344  -0.591  1.00  0.00     0.038 C 
HETATM    6  C13 UNL     1      -0.737  -0.104  -1.082  1.00  0.00     0.040 C 
HETATM    7  C14 UNL     1      -2.218   0.226  -0.848  1.00  0.00    -0.037 C 
HETATM    8  C15 UNL     1      -2.391   1.654  -1.261  1.00  0.00     0.015 C 
HETATM    9  C16 UNL     1      -3.009  -0.649  -1.766  1.00  0.00     0.015 C 
ENDROOT
BRANCH   4  10
HETATM   10  N1  UNL     1       0.821  -0.526   0.765  1.00  0.00    -0.328 N 
HETATM   11  C8  UNL     1       2.052  -0.297   0.124  1.00  0.00     0.361 C 
HETATM   12  O1  UNL     1       2.228  -0.515  -1.118  1.00  0.00    -0.238 OA
ATOM     13  H1  UNL     1       0.738  -0.333   1.763  1.00  0.00     0.165 HD
BRANCH  11  14
HETATM   14  O2  UNL     1       3.137   0.179   0.816  1.00  0.00    -0.294 OA
BRANCH  14  15
HETATM   15  C9  UNL     1       4.385   0.429   0.244  1.00  0.00     0.061 C 
HETATM   16  C10 UNL     1       5.295   0.945   1.361  1.00  0.00     0.046 C 
HETATM   17  C11 UNL     1       5.051  -0.819  -0.292  1.00  0.00     0.046 C 
HETATM   18  C12 UNL     1       4.360   1.492  -0.820  1.00  0.00     0.046 C 
ENDBRANCH  14  15
ENDBRANCH  11  14
ENDBRANCH   4  10
BRANCH   1  19
HETATM   19  C2  UNL     1      -3.843  -0.501   0.936  1.00  0.00     0.087 C 
HETATM   20  C1  UNL     1      -4.916   0.534   0.746  1.00  0.00     0.027 C 
HETATM   21 CL1  UNL     1      -3.845  -0.919   2.688  1.00  0.00    -0.125 Cl
ENDBRANCH   1  19
TORSDOF 4
