REMARK  1 active torsions:
REMARK  status: ('A' for Active; 'I' for Inactive)
REMARK    1  A    between atoms: N1_1  and  C1_4 
REMARK       I    between atoms: N3_7  and  C2_8 
REMARK       I    between atoms: C2_8  and  N4_9 
REMARK       I    between atoms: C2_8  and  N5_13 
ROOT
HETATM    1  C1  UNL     1      -0.949   1.721  -0.752  1.00  0.00     0.143 A 
HETATM    2  N2  UNL     1       0.345   1.538  -0.439  1.00  0.00    -0.278 N 
ATOM      3  H2  UNL     1       1.078   2.234  -0.576  1.00  0.00     0.189 HD
HETATM    4  N3  UNL     1       0.541   0.327   0.074  1.00  0.00    -0.228 N 
HETATM    5  C2  UNL     1       1.799  -0.209   0.519  1.00  0.00     0.502 C 
HETATM    6  N4  UNL     1       2.369  -1.060  -0.532  1.00  0.00    -0.031 N 
ATOM      7  H41 UNL     1       3.261  -1.440  -0.216  1.00  0.00     0.279 HD
ATOM      8  H42 UNL     1       2.453  -0.569  -1.422  1.00  0.00     0.279 HD
ATOM      9  H43 UNL     1       1.722  -1.791  -0.829  1.00  0.00     0.279 HD
HETATM   10  N5  UNL     1       2.699   0.900   0.782  1.00  0.00    -0.031 N 
ATOM     11  H51 UNL     1       3.591   0.520   1.098  1.00  0.00     0.279 HD
ATOM     12  H52 UNL     1       2.307   1.577   1.436  1.00  0.00     0.279 HD
ATOM     13  H53 UNL     1       2.799   1.523  -0.019  1.00  0.00     0.279 HD
HETATM   14  C3  UNL     1      -0.616  -0.329   0.117  1.00  0.00     0.153 A 
HETATM   15  C4  UNL     1      -0.956  -1.588   0.549  1.00  0.00     0.277 A 
HETATM   16  O1  UNL     1      -0.136  -2.404   1.023  1.00  0.00    -0.266 OA
HETATM   17  N6  UNL     1      -2.237  -1.973   0.462  1.00  0.00    -0.318 N 
ATOM     18  H6  UNL     1      -2.498  -2.906   0.781  1.00  0.00     0.169 HD
HETATM   19  C5  UNL     1      -3.186  -1.164  -0.034  1.00  0.00     0.184 A 
HETATM   20  N7  UNL     1      -2.827   0.053  -0.446  1.00  0.00    -0.347 N 
ATOM     21  H7  UNL     1      -3.558   0.658  -0.820  1.00  0.00     0.167 HD
HETATM   22  C6  UNL     1      -1.577   0.544  -0.406  1.00  0.00     0.113 A 
ENDROOT
BRANCH   1  23
HETATM   23  N1  UNL     1      -1.534   2.764  -1.272  1.00  0.00    -0.383 N 
ATOM     24  H12 UNL     1      -1.069   3.635  -1.528  1.00  0.00     0.157 HD
ATOM     25  H11 UNL     1      -2.516   2.903  -1.510  1.00  0.00     0.157 HD
ENDBRANCH   1  23
TORSDOF 1
