REMARK  3 active torsions:
REMARK  status: ('A' for Active; 'I' for Inactive)
REMARK    1  A    between atoms: N1_1  and  C1_4 
REMARK    2  A    between atoms: N2_7  and  N3_8 
REMARK       I    between atoms: N3_8  and  C4_10 
REMARK       I    between atoms: C4_10  and  N4_12 
REMARK    3  A    between atoms: N4_12  and  N5_14 
ROOT
HETATM    1  C1  UNL     1       3.045   0.572   0.376  1.00  0.00     0.103 A 
HETATM    2  C2  UNL     1       2.025   1.480   0.203  1.00  0.00     0.067 A 
HETATM    3  C3  UNL     1       0.731   1.008   0.014  1.00  0.00     0.125 A 
HETATM    4  N2  UNL     1       0.411  -0.295  -0.011  1.00  0.00    -0.213 N 
HETATM    5  C5  UNL     1       1.461  -1.162   0.166  1.00  0.00     0.346 A 
HETATM    6  O2  UNL     1       1.254  -2.416   0.158  1.00  0.00    -0.245 OA
HETATM    7  N6  UNL     1       2.709  -0.729   0.349  1.00  0.00    -0.293 N 
ATOM      8  H6  UNL     1       3.447  -1.422   0.475  1.00  0.00     0.172 HD
ENDROOT
BRANCH   4   9
HETATM    9  N3  UNL     1      -0.851  -0.820  -0.194  1.00  0.00    -0.240 N 
HETATM   10  C4  UNL     1      -2.072  -0.152  -0.394  1.00  0.00     0.353 C 
HETATM   11  O1  UNL     1      -2.199   1.087  -0.436  1.00  0.00    -0.244 OA
HETATM   12  N4  UNL     1      -3.290  -0.901  -0.566  1.00  0.00    -0.257 N 
ATOM     13  H4  UNL     1      -3.270  -1.921  -0.543  1.00  0.00     0.191 HD
ATOM     14  H3  UNL     1      -0.907  -1.838  -0.183  1.00  0.00     0.192 HD
BRANCH  12  15
HETATM   15  N5  UNL     1      -4.491  -0.233  -0.763  1.00  0.00    -0.341 N 
ATOM     16  H52 UNL     1      -4.493   0.787  -0.783  1.00  0.00     0.177 HD
ATOM     17  H51 UNL     1      -5.354  -0.763  -0.885  1.00  0.00     0.177 HD
ENDBRANCH  12  15
ENDBRANCH   4   9
BRANCH   1  18
HETATM   18  N1  UNL     1       4.269   0.907   0.557  1.00  0.00    -0.385 N 
ATOM     19  H12 UNL     1       4.524   1.894   0.577  1.00  0.00     0.157 HD
ATOM     20  H11 UNL     1       5.025   0.234   0.685  1.00  0.00     0.157 HD
ENDBRANCH   1  18
TORSDOF 3
