REMARK  9 active torsions:
REMARK  status: ('A' for Active; 'I' for Inactive)
REMARK    1  A    between atoms: C5_5  and  C6_6 
REMARK    2  A    between atoms: C7_7  and  C8_8 
REMARK    3  A    between atoms: C10_12  and  N2_13 
REMARK    4  A    between atoms: C13_21  and  C14_22 
REMARK    5  A    between atoms: C14_22  and  C15_23 
REMARK    6  A    between atoms: C15_23  and  S1_24 
REMARK    7  A    between atoms: S1_24  and  C16_26 
REMARK    8  A    between atoms: C16_26  and  C17_27 
REMARK    9  A    between atoms: C17_27  and  N4_28 
ROOT
HETATM    1  C1  UNL     1       1.088  -4.338  -1.756  1.00  0.00     0.049 C 
HETATM    2  C2  UNL     1       2.211  -3.410  -1.411  1.00  0.00    -0.056 A 
HETATM    3  C3  UNL     1       3.268  -3.212  -2.274  1.00  0.00     0.009 A 
HETATM    4  C4  UNL     1       4.308  -2.359  -1.968  1.00  0.00     0.021 A 
HETATM    5  C5  UNL     1       4.344  -1.657  -0.774  1.00  0.00     0.018 A 
HETATM    6  C12 UNL     1       3.281  -1.864   0.081  1.00  0.00     0.028 A 
HETATM    7  C13 UNL     1       2.238  -2.715  -0.220  1.00  0.00    -0.050 A 
ENDROOT
BRANCH   7   8
HETATM    8  C14 UNL     1       1.161  -2.858   0.763  1.00  0.00     0.051 C 
BRANCH   8   9
HETATM    9  C15 UNL     1      -0.096  -2.122   0.388  1.00  0.00     0.113 C 
BRANCH   9  10
HETATM   10  S1  UNL     1       0.151  -0.387   0.206  1.00  0.00     0.016 S 
HETATM   11  O2  UNL     1       0.700   0.335   1.600  1.00  0.00    -0.258 OA
BRANCH  10  12
HETATM   12  C16 UNL     1      -1.421   0.319  -0.286  1.00  0.00     0.136 C 
BRANCH  12  13
HETATM   13  C17 UNL     1      -2.398   0.007   0.803  1.00  0.00     0.250 C 
BRANCH  13  14
HETATM   14  N4  UNL     1      -3.734   0.508   0.562  1.00  0.00    -0.063 N 
HETATM   15  C18 UNL     1      -4.504  -0.550  -0.020  1.00  0.00     0.239 C 
HETATM   16  C19 UNL     1      -5.559  -0.103  -0.986  1.00  0.00     0.056 C 
HETATM   17  C20 UNL     1      -6.608   0.718  -0.252  1.00  0.00     0.238 C 
HETATM   18  N5  UNL     1      -6.004   1.858   0.417  1.00  0.00    -0.068 N 
HETATM   19  C21 UNL     1      -7.051   2.887   0.524  1.00  0.00     0.272 C 
HETATM   20  C22 UNL     1      -4.961   2.412  -0.389  1.00  0.00     0.265 C 
HETATM   21  C24 UNL     1      -5.625   1.518   1.753  1.00  0.00     0.265 C 
HETATM   22  C23 UNL     1      -3.638   1.690  -0.245  1.00  0.00     0.265 C 
HETATM   23  C25 UNL     1      -4.320   0.798   1.870  1.00  0.00     0.265 C 
ENDBRANCH  13  14
ENDBRANCH  12  13
ENDBRANCH  10  12
ENDBRANCH   9  10
ENDBRANCH   8   9
ENDBRANCH   7   8
BRANCH   5  24
HETATM   24  C6  UNL     1       5.428  -0.768  -0.451  1.00  0.00    -0.061 C 
HETATM   25  C7  UNL     1       6.344  -0.035  -0.164  1.00  0.00    -0.054 C 
BRANCH  25  26
HETATM   26  C8  UNL     1       7.441   0.820   0.196  1.00  0.00     0.102 A 
HETATM   27  C9  UNL     1       8.055   1.665  -0.717  1.00  0.00     0.132 A 
HETATM   28  N1  UNL     1       9.081   2.455  -0.356  1.00  0.00    -0.201 N 
HETATM   29  C10 UNL     1       9.558   2.463   0.900  1.00  0.00     0.678 A 
ATOM     30  H1  UNL     1       9.508   3.064  -1.054  1.00  0.00     0.183 HD
HETATM   31  N3  UNL     1       8.983   1.650   1.822  1.00  0.00    -0.155 N 
HETATM   32  C11 UNL     1       7.958   0.856   1.475  1.00  0.00     0.279 A 
ATOM     33  H3  UNL     1       9.331   1.642   2.781  1.00  0.00     0.187 HD
HETATM   34  O1  UNL     1       7.409   0.087   2.335  1.00  0.00    -0.266 OA
BRANCH  29  35
HETATM   35  N2  UNL     1      10.557   3.235   1.238  1.00  0.00    -0.234 N 
ATOM     36  H22 UNL     1      10.989   3.846   0.545  1.00  0.00     0.174 HD
ATOM     37  H21 UNL     1      10.919   3.241   2.192  1.00  0.00     0.174 HD
ENDBRANCH  29  35
ENDBRANCH  25  26
ENDBRANCH   5  24
TORSDOF 9
