REMARK  10 active torsions:
REMARK  status: ('A' for Active; 'I' for Inactive)
REMARK    1  A    between atoms: N1_2  and  C2_5 
REMARK    2  A    between atoms: C2_5  and  C3_6 
REMARK    3  A    between atoms: C3_6  and  N2_8 
REMARK    4  A    between atoms: N2_8  and  C5_10 
REMARK    5  A    between atoms: C5_10  and  O1_11 
REMARK    6  A    between atoms: C5_10  and  C6_13 
REMARK    7  A    between atoms: C6_13  and  N3_14 
REMARK    8  A    between atoms: C6_13  and  C17_31 
REMARK    9  A    between atoms: N3_14  and  S1_16 
REMARK   10  A    between atoms: S1_16  and  N4_19 
ROOT
HETATM    1  C6  UNL     1      -1.773  -0.743   0.199  1.00  0.00     0.176 C 
ENDROOT
BRANCH   1   2
HETATM    2  C5  UNL     1      -2.750  -1.568  -0.529  1.00  0.00     0.136 C 
BRANCH   2   3
HETATM    3  N2  UNL     1      -3.910  -2.201  -0.101  1.00  0.00    -0.367 N 
ATOM      4  H2  UNL     1      -4.182  -2.110   0.878  1.00  0.00     0.161 HD
BRANCH   3   5
HETATM    5  C3  UNL     1      -4.761  -2.995  -0.996  1.00  0.00     0.104 C 
HETATM    6  C4  UNL     1      -4.691  -4.463  -0.615  1.00  0.00     0.034 C 
BRANCH   5   7
HETATM    7  C2  UNL     1      -6.172  -2.461  -0.976  1.00  0.00     0.256 C 
BRANCH   7   8
HETATM    8  N1  UNL     1      -6.117  -1.065  -1.353  1.00  0.00    -0.077 N 
HETATM    9  C1  UNL     1      -7.446  -0.473  -1.378  1.00  0.00     0.267 C 
ATOM     10  H12 UNL     1      -5.632  -0.935  -2.241  1.00  0.00     0.276 HD
ATOM     11  H11 UNL     1      -5.484  -0.539  -0.751  1.00  0.00     0.276 HD
ENDBRANCH   7   8
ENDBRANCH   5   7
ENDBRANCH   3   5
ENDBRANCH   2   3
BRANCH   2  12
HETATM   12  O1  UNL     1      -2.484  -1.741  -1.793  1.00  0.00    -0.348 OA
ATOM     13  H1  UNL     1      -1.691  -1.308  -2.086  1.00  0.00     0.219 HD
ENDBRANCH   2  12
ENDBRANCH   1   2
BRANCH   1  14
HETATM   14  N3  UNL     1      -0.476  -1.116  -0.373  1.00  0.00    -0.289 N 
ATOM     15  H3  UNL     1      -0.029  -2.010  -0.169  1.00  0.00     0.174 HD
BRANCH  14  16
HETATM   16  S1  UNL     1       0.230   0.030  -1.391  1.00  0.00     0.321 S 
HETATM   17  O2  UNL     1      -0.765   1.064  -1.842  1.00  0.00    -0.182 OA
HETATM   18  O3  UNL     1       0.706  -0.663  -2.668  1.00  0.00    -0.182 OA
BRANCH  16  19
HETATM   19  N4  UNL     1       1.564   0.773  -0.617  1.00  0.00    -0.271 N 
HETATM   20  C7  UNL     1       2.594  -0.150  -0.285  1.00  0.00     0.170 C 
HETATM   21  C8  UNL     1       3.710   0.027  -1.255  1.00  0.00     0.259 C 
HETATM   22  N5  UNL     1       4.305   1.348  -1.228  1.00  0.00    -0.053 N 
HETATM   23  C9  UNL     1       5.055   1.443  -2.494  1.00  0.00     0.239 C 
HETATM   24  C12 UNL     1       5.308   1.445  -0.198  1.00  0.00     0.123 C 
HETATM   25  C15 UNL     1       3.354   2.400  -1.199  1.00  0.00     0.283 C 
HETATM   26  C10 UNL     1       6.393   2.002  -2.198  1.00  0.00     0.030 C 
HETATM   27  C11 UNL     1       6.311   2.455  -0.778  1.00  0.00     0.040 C 
HETATM   28  C13 UNL     1       4.843   2.007   1.104  1.00  0.00     0.046 C 
HETATM   29  C14 UNL     1       6.077   0.179   0.035  1.00  0.00     0.046 C 
HETATM   30  C16 UNL     1       1.921   2.029  -1.119  1.00  0.00     0.105 C 
ENDBRANCH  16  19
ENDBRANCH  14  16
ENDBRANCH   1  14
BRANCH   1  31
HETATM   31  C17 UNL     1      -1.790  -0.789   1.674  1.00  0.00    -0.015 C 
HETATM   32  C18 UNL     1      -1.555  -2.187   2.226  1.00  0.00     0.018 C 
HETATM   33  C19 UNL     1      -3.077  -0.248   2.209  1.00  0.00     0.012 C 
HETATM   34  C20 UNL     1      -2.922   0.836   3.244  1.00  0.00     0.001 C 
HETATM   35  C21 UNL     1      -2.050   1.975   2.892  1.00  0.00     0.000 C 
HETATM   36  C22 UNL     1      -0.904   1.527   2.033  1.00  0.00     0.001 C 
HETATM   37  C23 UNL     1      -0.665   0.060   2.282  1.00  0.00     0.012 C 
ENDBRANCH   1  31
TORSDOF 10
