REMARK  5 active torsions:
REMARK  status: ('A' for Active; 'I' for Inactive)
REMARK    1  A    between atoms: N1_1  and  S1_4 
REMARK    2  A    between atoms: S1_4  and  N2_5 
REMARK    3  A    between atoms: S1_4  and  N3_8 
REMARK    4  A    between atoms: S1_4  and  C1_11 
REMARK    5  A    between atoms: C3_13  and  N4_14 
ROOT
HETATM    1  S1  UNL     1      -1.641   0.237   0.388  1.00  0.00    -0.031 SA
ENDROOT
BRANCH   1   2
HETATM    2  N1  UNL     1      -1.917   0.447  -1.130  1.00  0.00    -0.361 N 
ATOM      3  H12 UNL     1      -2.404   1.244  -1.541  1.00  0.00     0.165 HD
ATOM      4  H11 UNL     1      -1.522  -0.354  -1.622  1.00  0.00     0.165 HD
ENDBRANCH   1   2
BRANCH   1   5
HETATM    5  N2  UNL     1      -2.242   1.456   1.136  1.00  0.00    -0.361 N 
ATOM      6  H22 UNL     1      -2.725   2.241   0.700  1.00  0.00     0.165 HD
ATOM      7  H21 UNL     1      -2.061   1.318   2.130  1.00  0.00     0.165 HD
ENDBRANCH   1   5
BRANCH   1   8
HETATM    8  N3  UNL     1      -2.412  -1.238   0.838  1.00  0.00    -0.361 N 
ATOM      9  H32 UNL     1      -2.944  -1.847   0.216  1.00  0.00     0.165 HD
ATOM     10  H31 UNL     1      -2.231  -1.376   1.832  1.00  0.00     0.165 HD
ENDBRANCH   1   8
BRANCH   1  11
HETATM   11  C1  UNL     1       0.088   0.064   0.717  1.00  0.00     0.088 C 
HETATM   12  C2  UNL     1       0.954   1.195   0.215  1.00  0.00     0.051 C 
HETATM   13  C3  UNL     1       1.821   0.170  -0.467  1.00  0.00     0.186 C 
HETATM   14  C4  UNL     1       0.727  -0.867  -0.280  1.00  0.00     0.051 C 
BRANCH  13  15
HETATM   15  N4  UNL     1       2.997  -0.239   0.271  1.00  0.00    -0.075 N 
ATOM     16  H43 UNL     1       3.554   0.578   0.523  1.00  0.00     0.274 HD
ATOM     17  H42 UNL     1       2.730  -0.568   1.199  1.00  0.00     0.274 HD
ATOM     18  H41 UNL     1       3.584  -0.933  -0.191  1.00  0.00     0.274 HD
ENDBRANCH  13  15
ENDBRANCH   1  11
TORSDOF 5
