REMARK  3 active torsions:
REMARK  status: ('A' for Active; 'I' for Inactive)
REMARK    1  A    between atoms: C2_2  and  N1_3 
REMARK    2  A    between atoms: C2_2  and  C3_7 
REMARK    3  A    between atoms: N3_14  and  O1_16 
ROOT
HETATM    1  C3  UNL     1      -0.316   0.286  -0.462  1.00  0.00     0.315 C 
HETATM    2  N2  UNL     1      -0.041  -0.834  -1.306  1.00  0.00    -0.052 N 
ATOM      3  H21 UNL     1       0.349  -0.523  -2.196  1.00  0.00     0.279 HD
ATOM      4  H22 UNL     1      -0.910  -1.255  -1.635  1.00  0.00     0.279 HD
HETATM    5  C4  UNL     1       0.804  -1.830  -0.708  1.00  0.00     0.242 C 
HETATM    6  C5  UNL     1       2.196  -1.216  -0.554  1.00  0.00     0.105 C 
HETATM    7  C6  UNL     1       2.018   0.008   0.272  1.00  0.00     0.100 C 
HETATM    8  N3  UNL     1       3.066   0.613   0.745  1.00  0.00    -0.257 N 
ATOM      9  H3  UNL     1       3.996   0.245   0.546  1.00  0.00     0.195 HD
HETATM   10  N4  UNL     1       0.700   0.487   0.525  1.00  0.00    -0.349 N 
ATOM     11  H4  UNL     1       0.484   0.967   1.399  1.00  0.00     0.163 HD
ENDROOT
BRANCH   1  12
HETATM   12  C2  UNL     1      -1.693   0.107   0.139  1.00  0.00     0.229 C 
HETATM   13  C1  UNL     1      -2.009   1.279   1.036  1.00  0.00     0.043 C 
BRANCH  12  14
HETATM   14  N1  UNL     1      -2.644   0.016  -0.926  1.00  0.00    -0.072 N 
ATOM     15  H13 UNL     1      -3.601  -0.023  -0.576  1.00  0.00     0.274 HD
ATOM     16  H12 UNL     1      -2.708   0.888  -1.451  1.00  0.00     0.274 HD
ATOM     17  H11 UNL     1      -2.430  -0.776  -1.532  1.00  0.00     0.274 HD
ENDBRANCH  12  14
ENDBRANCH   1  12
BRANCH   8  18
HETATM   18  O1  UNL     1       2.929   1.744   1.510  1.00  0.00    -0.288 OA
ATOM     19  H1  UNL     1       3.695   2.186   1.856  1.00  0.00     0.244 HD
ENDBRANCH   8  18
TORSDOF 3
