REMARK  16 active torsions:
REMARK  status: ('A' for Active; 'I' for Inactive)
REMARK    1  A    between atoms: C2_2  and  C3_3 
REMARK    2  A    between atoms: C3_3  and  C5_5 
REMARK    3  A    between atoms: C6_8  and  O1_9 
REMARK    4  A    between atoms: C7_12  and  C8_13 
REMARK       I    between atoms: N2_17  and  C12_18 
REMARK       I    between atoms: C12_18  and  N3_20 
REMARK    5  A    between atoms: N3_20  and  C13_22 
REMARK    6  A    between atoms: C13_22  and  C14_23 
REMARK    7  A    between atoms: C13_22  and  C26_43 
REMARK       I    between atoms: C14_23  and  N4_25 
REMARK    8  A    between atoms: N4_25  and  C15_27 
REMARK    9  A    between atoms: C15_27  and  C16_28 
REMARK   10  A    between atoms: C15_27  and  C20_32 
REMARK   11  A    between atoms: C16_28  and  C17_29 
REMARK   12  A    between atoms: C20_32  and  O5_33 
REMARK   13  A    between atoms: C20_32  and  C21_35 
REMARK       I    between atoms: C21_35  and  N5_37 
REMARK   14  A    between atoms: N5_37  and  C22_39 
REMARK   15  A    between atoms: C22_39  and  C23_40 
REMARK   16  A    between atoms: C26_43  and  C28_45 
ROOT
HETATM    1  C5  UNL     1      -6.795   1.165   0.351  1.00  0.00     0.181 C 
HETATM    2  N1  UNL     1      -6.543   1.230  -1.041  1.00  0.00    -0.337 N 
ATOM      3  H1  UNL     1      -6.687   2.156  -1.445  1.00  0.00     0.164 HD
HETATM    4  C6  UNL     1      -6.122   0.238  -1.993  1.00  0.00     0.264 C 
HETATM    5  O2  UNL     1      -4.933  -0.322  -2.008  1.00  0.00    -0.277 OA
HETATM    6  C7  UNL     1      -3.917  -0.962  -2.598  1.00  0.00     0.076 C 
HETATM    7  C11 UNL     1      -2.507  -0.765  -2.326  1.00  0.00     0.134 C 
HETATM    8  N2  UNL     1      -1.993  -0.138  -1.156  1.00  0.00    -0.287 N 
HETATM    9  C12 UNL     1      -0.607   0.197  -1.164  1.00  0.00     0.326 C 
HETATM   10  O3  UNL     1       0.078  -0.038  -2.231  1.00  0.00    -0.246 OA
HETATM   11  N3  UNL     1       0.111   0.759  -0.131  1.00  0.00    -0.329 N 
ATOM     12  H3  UNL     1      -0.389   0.957   0.736  1.00  0.00     0.165 HD
HETATM   13  C30 UNL     1      -2.761   0.171  -0.024  1.00  0.00     0.075 C 
HETATM   14  C31 UNL     1      -3.189   1.601   0.122  1.00  0.00     0.065 C 
HETATM   15  C32 UNL     1      -4.013   1.831   1.365  1.00  0.00     0.128 C 
HETATM   16  N6  UNL     1      -4.715   0.639   1.728  1.00  0.00    -0.359 N 
ATOM     17  H6  UNL     1      -4.313   0.047   2.455  1.00  0.00     0.162 HD
HETATM   18  C33 UNL     1      -5.946   0.230   1.131  1.00  0.00     0.240 C 
HETATM   19  O7  UNL     1      -6.372  -0.954   1.240  1.00  0.00    -0.271 OA
ENDROOT
BRANCH  11  20
HETATM   20  C13 UNL     1       1.557   1.100  -0.181  1.00  0.00     0.182 C 
BRANCH  20  21
HETATM   21  C14 UNL     1       2.320   0.135   0.597  1.00  0.00     0.241 C 
HETATM   22  O4  UNL     1       1.827  -0.228   1.725  1.00  0.00    -0.271 OA
HETATM   23  N4  UNL     1       3.544  -0.483   0.268  1.00  0.00    -0.352 N 
ATOM     24  H4  UNL     1       3.998  -0.216  -0.605  1.00  0.00     0.163 HD
BRANCH  23  25
HETATM   25  C15 UNL     1       4.204  -1.491   1.112  1.00  0.00     0.122 C 
BRANCH  25  26
HETATM   26  C16 UNL     1       3.605  -2.787   0.647  1.00  0.00     0.032 C 
BRANCH  26  27
HETATM   27  C17 UNL     1       3.957  -4.065   1.263  1.00  0.00    -0.021 C 
HETATM   28  C18 UNL     1       3.057  -5.112   0.500  1.00  0.00     0.009 C 
HETATM   29  C19 UNL     1       5.331  -4.619   1.087  1.00  0.00     0.009 C 
ENDBRANCH  26  27
ENDBRANCH  25  26
BRANCH  25  30
HETATM   30  C20 UNL     1       5.671  -1.417   0.927  1.00  0.00     0.232 C 
BRANCH  30  31
HETATM   31  O5  UNL     1       6.055  -1.594  -0.417  1.00  0.00    -0.384 OA
ATOM     32  H5  UNL     1       6.996  -1.547  -0.536  1.00  0.00     0.210 HD
ENDBRANCH  30  31
BRANCH  30  33
HETATM   33  C21 UNL     1       6.345  -0.194   1.417  1.00  0.00     0.248 C 
HETATM   34  O6  UNL     1       6.107   0.203   2.580  1.00  0.00    -0.271 OA
HETATM   35  N5  UNL     1       7.254   0.527   0.596  1.00  0.00    -0.358 N 
ATOM     36  H5  UNL     1       7.424   0.185  -0.350  1.00  0.00     0.162 HD
BRANCH  35  37
HETATM   37  C22 UNL     1       7.949   1.713   1.024  1.00  0.00     0.126 C 
BRANCH  37  38
HETATM   38  C23 UNL     1       8.842   2.247  -0.082  1.00  0.00    -0.005 C 
HETATM   39  C24 UNL     1       9.880   1.225  -0.490  1.00  0.00     0.011 C 
HETATM   40  C25 UNL     1       9.577   3.468   0.429  1.00  0.00     0.011 C 
ENDBRANCH  37  38
ENDBRANCH  35  37
ENDBRANCH  30  33
ENDBRANCH  25  30
ENDBRANCH  23  25
ENDBRANCH  20  21
BRANCH  20  41
HETATM   41  C26 UNL     1       1.751   2.535  -0.047  1.00  0.00     0.013 C 
HETATM   42  C27 UNL     1       1.055   3.285  -1.217  1.00  0.00     0.012 C 
BRANCH  41  43
HETATM   43  C28 UNL     1       3.089   3.160   0.049  1.00  0.00     0.002 C 
HETATM   44  C29 UNL     1       3.935   2.794   1.216  1.00  0.00     0.005 C 
ENDBRANCH  41  43
ENDBRANCH  20  41
ENDBRANCH  11  20
BRANCH   6  45
HETATM   45  C8  UNL     1      -4.158  -2.505  -2.694  1.00  0.00     0.036 C 
HETATM   46  C9  UNL     1      -5.409  -2.790  -3.513  1.00  0.00     0.016 C 
HETATM   47  C10 UNL     1      -4.360  -3.132  -1.365  1.00  0.00     0.016 C 
ENDBRANCH   6  45
BRANCH   4  48
HETATM   48  O1  UNL     1      -7.143   0.020  -2.814  1.00  0.00    -0.327 OA
ATOM     49  H1  UNL     1      -6.865  -0.635  -3.443  1.00  0.00     0.221 HD
ENDBRANCH   4  48
BRANCH   1  50
HETATM   50  C3  UNL     1      -8.274   1.030   0.695  1.00  0.00     0.013 C 
HETATM   51  C4  UNL     1      -8.946  -0.117   0.027  1.00  0.00     0.012 C 
BRANCH  50  52
HETATM   52  C2  UNL     1      -8.533   0.973   2.172  1.00  0.00     0.002 C 
HETATM   53  C1  UNL     1     -10.024   1.043   2.451  1.00  0.00     0.005 C 
ENDBRANCH  50  52
ENDBRANCH   1  50
TORSDOF 16
