REMARK  14 active torsions:
REMARK  status: ('A' for Active; 'I' for Inactive)
REMARK       I    between atoms: C1_4  and  N3_6 
REMARK    1  A    between atoms: N3_6  and  C2_8 
REMARK    2  A    between atoms: C2_8  and  C3_9 
REMARK    3  A    between atoms: C3_9  and  C4_10 
REMARK    4  A    between atoms: C4_10  and  C5_11 
REMARK    5  A    between atoms: C5_11  and  N4_12 
REMARK    6  A    between atoms: C5_11  and  C32_48 
REMARK       I    between atoms: N4_12  and  C6_14 
REMARK    7  A    between atoms: C6_14  and  C7_16 
REMARK    8  A    between atoms: C7_16  and  C8_17 
REMARK    9  A    between atoms: C7_16  and  N6_38 
REMARK   10  A    between atoms: C8_17  and  C9_18 
REMARK   11  A    between atoms: C9_18  and  C10_19 
REMARK   12  A    between atoms: C10_19  and  N5_20 
REMARK       I    between atoms: N6_38  and  C26_40 
REMARK   13  A    between atoms: C26_40  and  C27_42 
REMARK   14  A    between atoms: C27_42  and  C28_43 
ROOT
HETATM    1  C7  UNL     1      -2.801  -1.541   0.300  1.00  0.00     0.176 C 
ENDROOT
BRANCH   1   2
HETATM    2  C6  UNL     1      -3.867  -0.566   0.572  1.00  0.00     0.241 C 
HETATM    3  N4  UNL     1      -4.402   0.264  -0.419  1.00  0.00    -0.345 N 
ATOM      4  H4  UNL     1      -4.061   0.215  -1.379  1.00  0.00     0.163 HD
HETATM    5  O1  UNL     1      -4.299  -0.501   1.775  1.00  0.00    -0.271 OA
BRANCH   3   6
HETATM    6  C5  UNL     1      -5.495   1.233  -0.038  1.00  0.00     0.185 C 
BRANCH   6   7
HETATM    7  C4  UNL     1      -6.679   0.774  -0.793  1.00  0.00     0.038 C 
BRANCH   7   8
HETATM    8  C3  UNL     1      -7.987   1.402  -0.715  1.00  0.00     0.022 C 
BRANCH   8   9
HETATM    9  C2  UNL     1      -8.177   2.807  -1.161  1.00  0.00     0.122 C 
BRANCH   9  10
HETATM   10  N3  UNL     1      -9.601   3.170  -1.020  1.00  0.00    -0.365 N 
HETATM   11  C1  UNL     1      -9.971   4.483  -1.405  1.00  0.00     0.181 C 
HETATM   12  N1  UNL     1      -9.762   5.515  -0.665  1.00  0.00    -0.374 N 
HETATM   13  N2  UNL     1     -10.603   4.693  -2.665  1.00  0.00    -0.064 NA
ATOM     14  H12 UNL     1     -10.028   6.460  -0.942  1.00  0.00     0.158 HD
ATOM     15  H11 UNL     1      -9.310   5.365   0.237  1.00  0.00     0.158 HD
ATOM     16  H3  UNL     1     -10.287   2.506  -0.662  1.00  0.00     0.162 HD
ENDBRANCH   9  10
ENDBRANCH   8   9
ENDBRANCH   7   8
ENDBRANCH   6   7
BRANCH   6  17
HETATM   17  C32 UNL     1      -5.025   2.567  -0.448  1.00  0.00     0.196 C 
HETATM   18  O5  UNL     1      -4.489   2.632  -1.600  1.00  0.00    -0.646 OA
HETATM   19  O6  UNL     1      -5.104   3.718   0.291  1.00  0.00    -0.646 OA
ENDBRANCH   6  17
ENDBRANCH   3   6
ENDBRANCH   1   2
BRANCH   1  20
HETATM   20  C8  UNL     1      -1.528  -0.806  -0.194  1.00  0.00     0.036 C 
BRANCH  20  21
HETATM   21  C9  UNL     1      -1.062   0.144   0.845  1.00  0.00     0.033 C 
BRANCH  21  22
HETATM   22  C10 UNL     1       0.119   0.954   0.503  1.00  0.00     0.272 C 
BRANCH  22  23
HETATM   23  N5  UNL     1       1.310   0.244   0.221  1.00  0.00     0.092 N 
HETATM   24  C11 UNL     1       2.488   1.171   0.450  1.00  0.00     0.298 C 
HETATM   25  C12 UNL     1       2.218   2.516  -0.098  1.00  0.00     0.198 C 
HETATM   26  O2  UNL     1       3.293   3.344  -0.218  1.00  0.00    -0.389 OA
HETATM   27  C13 UNL     1       4.540   2.803  -0.189  1.00  0.00     0.167 C 
HETATM   28  C14 UNL     1       5.102   2.485  -1.556  1.00  0.00     0.026 C 
HETATM   29  C15 UNL     1       6.504   2.957  -1.743  1.00  0.00     0.002 C 
HETATM   30  C16 UNL     1       7.492   2.302  -0.773  1.00  0.00     0.000 C 
HETATM   31  C17 UNL     1       8.009   1.012  -1.303  1.00  0.00     0.000 C 
HETATM   32  C18 UNL     1       8.368  -0.025  -0.306  1.00  0.00     0.000 C 
HETATM   33  C19 UNL     1       7.524  -0.123   0.907  1.00  0.00     0.000 C 
HETATM   34  C20 UNL     1       7.203  -1.510   1.370  1.00  0.00     0.000 C 
HETATM   35  C21 UNL     1       6.406  -2.341   0.430  1.00  0.00     0.002 C 
HETATM   36  C22 UNL     1       5.609  -1.605  -0.588  1.00  0.00     0.026 C 
HETATM   37  C23 UNL     1       4.240  -2.244  -0.864  1.00  0.00     0.167 C 
HETATM   38  O3  UNL     1       3.458  -1.328  -1.583  1.00  0.00    -0.389 OA
HETATM   39  C24 UNL     1       2.101  -1.500  -1.351  1.00  0.00     0.198 C 
HETATM   40  C25 UNL     1       1.449  -0.171  -1.178  1.00  0.00     0.298 C 
ENDBRANCH  22  23
ENDBRANCH  21  22
ENDBRANCH  20  21
ENDBRANCH   1  20
BRANCH   1  41
HETATM   41  N6  UNL     1      -2.428  -2.286   1.468  1.00  0.00    -0.348 N 
HETATM   42  C26 UNL     1      -2.421  -3.706   1.451  1.00  0.00     0.222 C 
HETATM   43  O4  UNL     1      -2.746  -4.313   0.402  1.00  0.00    -0.273 OA
ATOM     44  H6  UNL     1      -2.165  -1.790   2.320  1.00  0.00     0.163 HD
BRANCH  42  45
HETATM   45  C27 UNL     1      -2.042  -4.501   2.639  1.00  0.00     0.141 C 
BRANCH  45  46
HETATM   46  C28 UNL     1      -2.145  -5.987   2.319  1.00  0.00    -0.043 A 
HETATM   47  C29 UNL     1      -3.285  -6.677   2.487  1.00  0.00     0.015 A 
HETATM   48  C30 UNL     1      -3.266  -8.006   2.168  1.00  0.00     0.050 A 
HETATM   49  S1  UNL     1      -1.665  -8.255   1.647  1.00  0.00    -0.113 SA
HETATM   50  C31 UNL     1      -1.061  -6.675   1.843  1.00  0.00     0.057 A 
ENDBRANCH  45  46
ENDBRANCH  42  45
ENDBRANCH   1  41
TORSDOF 14
