REMARK  15 active torsions:
REMARK  status: ('A' for Active; 'I' for Inactive)
REMARK    1  A    between atoms: C2_2  and  C3_3 
REMARK    2  A    between atoms: C3_3  and  N1_4 
REMARK    3  A    between atoms: N1_4  and  C4_7 
REMARK    4  A    between atoms: C4_7  and  C5_8 
REMARK    5  A    between atoms: C5_8  and  C6_9 
REMARK    6  A    between atoms: C6_9  and  C7_10 
REMARK    7  A    between atoms: C18_24  and  C19_25 
REMARK    8  A    between atoms: C22_33  and  O2_34 
REMARK    9  A    between atoms: C23_36  and  C24_37 
REMARK   10  A    between atoms: C24_37  and  C26_39 
REMARK   11  A    between atoms: C28_43  and  O3_44 
REMARK   12  A    between atoms: C29_46  and  C30_47 
REMARK   13  A    between atoms: C30_47  and  C31_48 
REMARK   14  A    between atoms: C31_48  and  C32_49 
REMARK   15  A    between atoms: C33_54  and  O6_55 
ROOT
HETATM    1  C7  UNL     1       3.232   0.246  -1.762  1.00  0.00     0.060 C 
HETATM    2  C8  UNL     1       1.995  -0.572  -1.706  1.00  0.00     0.013 C 
HETATM    3  C9  UNL     1       2.412  -2.029  -1.779  1.00  0.00     0.001 C 
HETATM    4  C10 UNL     1       1.409  -2.930  -1.086  1.00  0.00     0.000 C 
HETATM    5  C11 UNL     1       1.917  -4.348  -1.245  1.00  0.00     0.002 C 
HETATM    6  C12 UNL     1       0.779  -5.362  -1.124  1.00  0.00     0.020 C 
HETATM    7  C13 UNL     1      -0.005  -4.975   0.106  1.00  0.00     0.122 C 
HETATM    8  N2  UNL     1      -1.246  -5.696   0.226  1.00  0.00    -0.361 N 
ATOM      9  H2  UNL     1      -1.219  -6.685   0.473  1.00  0.00     0.162 HD
HETATM   10  C14 UNL     1      -2.499  -5.081   0.013  1.00  0.00     0.217 C 
HETATM   11  O1  UNL     1      -3.578  -5.543   0.504  1.00  0.00    -0.274 OA
HETATM   12  C15 UNL     1      -2.671  -3.837  -0.807  1.00  0.00     0.103 C 
HETATM   13  C16 UNL     1      -3.300  -2.747   0.013  1.00  0.00     0.012 C 
HETATM   14  C17 UNL     1      -2.515  -1.431  -0.049  1.00  0.00     0.032 C 
HETATM   15  C18 UNL     1      -3.468  -0.382  -0.506  1.00  0.00     0.140 C 
HETATM   16  N4  UNL     1      -2.907   0.845  -0.948  1.00  0.00    -0.362 N 
ATOM     17  H4  UNL     1      -2.452   0.780  -1.858  1.00  0.00     0.162 HD
HETATM   18  C22 UNL     1      -2.853   2.119  -0.389  1.00  0.00     0.135 C 
HETATM   19  C23 UNL     1      -2.169   2.508   0.878  1.00  0.00     0.161 C 
HETATM   20  N5  UNL     1      -0.734   2.338   0.865  1.00  0.00    -0.360 N 
ATOM     21  H5  UNL     1      -0.392   1.771   1.641  1.00  0.00     0.162 HD
HETATM   22  C28 UNL     1       0.271   2.776   0.032  1.00  0.00     0.135 C 
HETATM   23  C29 UNL     1       0.643   2.431  -1.369  1.00  0.00     0.158 C 
HETATM   24  N6  UNL     1       2.091   2.570  -1.545  1.00  0.00    -0.362 N 
ATOM     25  H6  UNL     1       2.441   3.504  -1.330  1.00  0.00     0.162 HD
HETATM   26  C33 UNL     1       3.064   1.701  -1.939  1.00  0.00     0.116 C 
ENDROOT
BRANCH   1  27
HETATM   27  C6  UNL     1       4.082   0.040  -0.504  1.00  0.00     0.014 C 
BRANCH  27  28
HETATM   28  C5  UNL     1       3.337   0.412   0.752  1.00  0.00     0.028 C 
BRANCH  28  29
HETATM   29  C4  UNL     1       4.202   0.219   1.981  1.00  0.00     0.232 C 
BRANCH  29  30
HETATM   30  N1  UNL     1       4.664  -1.133   2.142  1.00  0.00    -0.072 N 
ATOM     31  H12 UNL     1       5.119  -1.508   1.310  1.00  0.00     0.277 HD
ATOM     32  H11 UNL     1       3.909  -1.817   2.190  1.00  0.00     0.277 HD
BRANCH  30  33
HETATM   33  C3  UNL     1       5.524  -1.132   3.325  1.00  0.00     0.259 C 
BRANCH  33  34
HETATM   34  C2  UNL     1       6.133  -2.456   3.555  1.00  0.00    -0.010 C 
HETATM   35  C1  UNL     1       7.462  -2.563   3.547  1.00  0.00     0.008 C 
ENDBRANCH  33  34
ENDBRANCH  30  33
ENDBRANCH  29  30
ENDBRANCH  28  29
ENDBRANCH  27  28
ENDBRANCH   1  27
BRANCH  26  36
HETATM   36  O6  UNL     1       4.059   2.217  -2.603  1.00  0.00    -0.349 OA
ATOM     37  H6  UNL     1       3.951   3.154  -2.717  1.00  0.00     0.219 HD
ENDBRANCH  26  36
BRANCH  23  38
HETATM   38  C30 UNL     1       0.095   3.478  -2.359  1.00  0.00     0.044 C 
BRANCH  38  39
HETATM   39  C31 UNL     1       0.495   3.068  -3.760  1.00  0.00     0.116 C 
BRANCH  39  40
HETATM   40  C32 UNL     1       0.013   4.015  -4.773  1.00  0.00     0.172 C 
HETATM   41  O4  UNL     1       0.285   3.849  -5.992  1.00  0.00    -0.648 OA
HETATM   42  O5  UNL     1      -0.748   5.104  -4.406  1.00  0.00    -0.648 OA
ENDBRANCH  39  40
ENDBRANCH  38  39
ENDBRANCH  23  38
BRANCH  22  43
HETATM   43  O3  UNL     1       1.079   3.667   0.528  1.00  0.00    -0.348 OA
ATOM     44  H3  UNL     1       1.772   3.969  -0.047  1.00  0.00     0.219 HD
ENDBRANCH  22  43
BRANCH  19  45
HETATM   45  C24 UNL     1      -2.604   3.845   1.389  1.00  0.00     0.012 C 
HETATM   46  C25 UNL     1      -2.404   5.017   0.524  1.00  0.00     0.012 C 
BRANCH  45  47
HETATM   47  C26 UNL     1      -3.985   3.887   1.986  1.00  0.00     0.002 C 
HETATM   48  C27 UNL     1      -3.995   2.929   3.156  1.00  0.00     0.005 C 
ENDBRANCH  45  47
ENDBRANCH  19  45
BRANCH  18  49
HETATM   49  O2  UNL     1      -3.473   3.046  -1.065  1.00  0.00    -0.348 OA
ATOM     50  H2  UNL     1      -3.436   3.915  -0.684  1.00  0.00     0.219 HD
ENDBRANCH  18  49
BRANCH  15  51
HETATM   51  C19 UNL     1      -4.598  -0.266   0.460  1.00  0.00     0.073 A 
HETATM   52  N3  UNL     1      -4.799  -0.937   1.581  1.00  0.00    -0.361 N 
HETATM   53  C20 UNL     1      -5.849  -0.711   2.294  1.00  0.00     0.096 A 
ATOM     54  H3  UNL     1      -4.121  -1.636   1.883  1.00  0.00     0.165 HD
HETATM   55  C21 UNL     1      -6.734   0.240   1.848  1.00  0.00     0.068 A 
HETATM   56  S1  UNL     1      -5.969   0.750   0.399  1.00  0.00    -0.085 SA
ENDBRANCH  15  51
TORSDOF 15
