REMARK  18 active torsions:
REMARK  status: ('A' for Active; 'I' for Inactive)
REMARK    1  A    between atoms: S1_2  and  C2_3 
REMARK    2  A    between atoms: C2_3  and  N3_15 
REMARK    3  A    between atoms: N1_4  and  S2_6 
REMARK    4  A    between atoms: S2_6  and  N2_9 
REMARK    5  A    between atoms: N3_15  and  C8_17 
REMARK    6  A    between atoms: C8_17  and  C9_18 
REMARK    7  A    between atoms: C9_18  and  C10_19 
REMARK    8  A    between atoms: C10_19  and  C11_20 
REMARK    9  A    between atoms: C11_20  and  C12_21 
REMARK       I    between atoms: C12_21  and  N4_23 
REMARK   10  A    between atoms: N4_23  and  C13_25 
REMARK   11  A    between atoms: C17_29  and  O4_30 
REMARK   12  A    between atoms: C18_32  and  C19_33 
REMARK   13  A    between atoms: C19_33  and  O5_34 
REMARK   14  A    between atoms: C19_33  and  N5_36 
REMARK   15  A    between atoms: N5_36  and  C20_38 
REMARK   16  A    between atoms: C20_38  and  C21_39 
REMARK   17  A    between atoms: C22_42  and  C23_43 
REMARK   18  A    between atoms: C23_43  and  C26_46 
ROOT
HETATM    1  C13 UNL     1      -2.909   0.252   0.697  1.00  0.00     0.052 A 
HETATM    2  C14 UNL     1      -3.287   1.391  -0.036  1.00  0.00     0.038 A 
HETATM    3  C15 UNL     1      -4.497   1.511  -0.675  1.00  0.00    -0.046 A 
HETATM    4  C16 UNL     1      -5.402   0.475  -0.605  1.00  0.00    -0.012 A 
HETATM    5  C17 UNL     1      -5.040  -0.650   0.103  1.00  0.00     0.089 A 
HETATM    6  C18 UNL     1      -3.787  -0.795   0.772  1.00  0.00     0.075 A 
HETATM    7  C22 UNL     1      -6.725   0.589  -1.231  1.00  0.00     0.036 C 
HETATM    8  C27 UNL     1      -6.695   1.387  -2.520  1.00  0.00     0.011 C 
HETATM    9  C28 UNL     1      -5.576   2.329  -2.705  1.00  0.00     0.005 C 
HETATM   10  C29 UNL     1      -4.780   2.714  -1.516  1.00  0.00     0.039 C 
ENDROOT
BRANCH   1  11
HETATM   11  N4  UNL     1      -1.729   0.318   1.465  1.00  0.00    -0.326 N 
HETATM   12  C12 UNL     1      -0.553   1.047   1.188  1.00  0.00     0.222 C 
HETATM   13  O3  UNL     1      -0.405   1.761   0.175  1.00  0.00    -0.273 OA
ATOM     14  H4  UNL     1      -1.725  -0.228   2.327  1.00  0.00     0.169 HD
BRANCH  12  15
HETATM   15  C11 UNL     1       0.598   0.994   2.123  1.00  0.00     0.103 C 
BRANCH  15  16
HETATM   16  C10 UNL     1       1.753   1.845   1.777  1.00  0.00     0.011 C 
BRANCH  16  17
HETATM   17  C9  UNL     1       2.443   1.568   0.470  1.00  0.00     0.020 C 
BRANCH  17  18
HETATM   18  C8  UNL     1       2.964   0.161   0.435  1.00  0.00     0.121 C 
BRANCH  18  19
HETATM   19  N3  UNL     1       3.587  -0.104  -0.838  1.00  0.00    -0.370 N 
ATOM     20  H3  UNL     1       3.139  -0.758  -1.480  1.00  0.00     0.161 HD
BRANCH  19  21
HETATM   21  C2  UNL     1       4.796   0.512  -1.224  1.00  0.00     0.150 C 
HETATM   22  N1  UNL     1       5.894  -0.151  -1.273  1.00  0.00    -0.251 N 
ATOM     23  H1  UNL     1       6.740   0.336  -1.568  1.00  0.00     0.182 HD
BRANCH  21  24
HETATM   24  S1  UNL     1       4.822   2.233  -1.675  1.00  0.00    -0.098 SA
HETATM   25  C1  UNL     1       6.505   2.725  -2.120  1.00  0.00     0.099 C 
ENDBRANCH  21  24
BRANCH  22  26
HETATM   26  S2  UNL     1       6.011  -1.791  -0.874  1.00  0.00     0.304 S 
HETATM   27  O1  UNL     1       5.341  -2.176   0.411  1.00  0.00    -0.188 OA
HETATM   28  O2  UNL     1       5.438  -2.666  -1.975  1.00  0.00    -0.188 OA
BRANCH  26  29
HETATM   29  N2  UNL     1       7.682  -2.205  -0.701  1.00  0.00    -0.193 NA
HETATM   30  C3  UNL     1       8.398  -2.005  -1.923  1.00  0.00     0.109 C 
HETATM   31  C4  UNL     1       9.855  -1.758  -1.682  1.00  0.00     0.015 C 
HETATM   32  C5  UNL     1       9.994  -0.429  -0.968  1.00  0.00     0.002 C 
HETATM   33  C6  UNL     1       8.963  -0.272   0.109  1.00  0.00     0.015 C 
HETATM   34  C7  UNL     1       8.273  -1.567   0.449  1.00  0.00     0.109 C 
ENDBRANCH  26  29
ENDBRANCH  22  26
ENDBRANCH  19  21
ENDBRANCH  18  19
ENDBRANCH  17  18
ENDBRANCH  16  17
ENDBRANCH  15  16
ENDBRANCH  12  15
ENDBRANCH   1  11
BRANCH   6  35
HETATM   35  C19 UNL     1      -3.528  -2.042   1.441  1.00  0.00     0.151 C 
BRANCH  35  36
HETATM   36  O5  UNL     1      -4.536  -2.884   1.424  1.00  0.00    -0.346 OA
ATOM     37  H5  UNL     1      -4.365  -3.707   1.866  1.00  0.00     0.219 HD
ENDBRANCH  35  36
BRANCH  35  38
HETATM   38  N5  UNL     1      -2.412  -2.553   2.106  1.00  0.00    -0.360 N 
ATOM     39  H5  UNL     1      -1.555  -2.004   2.167  1.00  0.00     0.162 HD
BRANCH  38  40
HETATM   40  C20 UNL     1      -2.481  -3.902   2.724  1.00  0.00     0.235 C 
BRANCH  40  41
HETATM   41  C21 UNL     1      -1.193  -4.193   3.354  1.00  0.00     0.191 C 
HETATM   42  O6  UNL     1      -0.217  -3.377   3.338  1.00  0.00    -0.647 OA
HETATM   43  O7  UNL     1      -0.989  -5.398   4.004  1.00  0.00    -0.647 OA
ENDBRANCH  40  41
ENDBRANCH  38  40
ENDBRANCH  35  38
ENDBRANCH   6  35
BRANCH   5  44
HETATM   44  O4  UNL     1      -5.858  -1.742   0.213  1.00  0.00    -0.359 OA
ATOM     45  H4  UNL     1      -5.608  -2.518   0.701  1.00  0.00     0.217 HD
ENDBRANCH   5  44
BRANCH   7  46
HETATM   46  C23 UNL     1      -7.833   1.140  -0.380  1.00  0.00     0.013 C 
HETATM   47  C24 UNL     1      -9.110   1.120  -1.252  1.00  0.00     0.023 C 
HETATM   48  C25 UNL     1      -8.164   0.395   0.863  1.00  0.00     0.023 C 
BRANCH  46  49
HETATM   49  C26 UNL     1      -7.663   2.567   0.009  1.00  0.00     0.240 C 
HETATM   50  O8  UNL     1      -8.222   3.483  -0.571  1.00  0.00    -0.306 OA
ENDBRANCH  46  49
ENDBRANCH   7  46
TORSDOF 18
