REMARK  15 active torsions:
REMARK  status: ('A' for Active; 'I' for Inactive)
REMARK    1  A    between atoms: C2_2  and  C3_3 
REMARK    2  A    between atoms: C3_3  and  C5_5 
REMARK    3  A    between atoms: C12_15  and  C13_16 
REMARK    4  A    between atoms: C13_16  and  C14_17 
REMARK    5  A    between atoms: C14_17  and  C15_18 
REMARK    6  A    between atoms: C15_18  and  C16_19 
REMARK    7  A    between atoms: C16_19  and  N2_20 
REMARK    8  A    between atoms: C19_29  and  C20_30 
REMARK    9  A    between atoms: C21_33  and  C22_34 
REMARK   10  A    between atoms: C22_34  and  C23_35 
REMARK       I    between atoms: C23_35  and  N6_37 
REMARK   11  A    between atoms: N6_37  and  C24_39 
REMARK   12  A    between atoms: C24_39  and  C25_40 
REMARK   13  A    between atoms: C25_40  and  C26_41 
REMARK   14  A    between atoms: C26_41  and  C27_42 
REMARK   15  A    between atoms: C27_42  and  C28_43 
ROOT
HETATM    1  C5  UNL     1       1.467   2.878   0.738  1.00  0.00     0.089 C 
HETATM    2  C6  UNL     1       2.756   2.919   1.475  1.00  0.00     0.047 C 
HETATM    3  C7  UNL     1       3.996   2.698   0.667  1.00  0.00     0.154 A 
HETATM    4  C8  UNL     1       4.267   3.809  -0.254  1.00  0.00     0.275 A 
HETATM    5  O1  UNL     1       4.445   5.036   0.076  1.00  0.00    -0.264 OA
HETATM    6  O2  UNL     1       4.288   3.263  -1.499  1.00  0.00    -0.280 OA
HETATM    7  C9  UNL     1       4.080   1.892  -1.432  1.00  0.00     0.090 A 
HETATM    8  C10 UNL     1       4.086   1.131  -2.744  1.00  0.00     0.080 C 
HETATM    9  C11 UNL     1       3.909   1.474  -0.201  1.00  0.00     0.128 A 
HETATM   10  N1  UNL     1       3.729   0.286   0.395  1.00  0.00    -0.405 NA
HETATM   11  C12 UNL     1       3.479  -0.825   0.805  1.00  0.00     0.152 C 
HETATM   12  C18 UNL     1       2.674  -1.838   0.054  1.00  0.00     0.282 C 
HETATM   13  O3  UNL     1       3.165  -3.028  -0.093  1.00  0.00    -0.265 OA
HETATM   14  N5  UNL     1       1.402  -1.564  -0.511  1.00  0.00    -0.318 N 
ATOM     15  H5  UNL     1       1.316  -1.711  -1.517  1.00  0.00     0.169 HD
HETATM   16  C19 UNL     1       0.209  -1.100   0.170  1.00  0.00     0.103 C 
HETATM   17  C21 UNL     1      -0.224   0.272  -0.180  1.00  0.00     0.143 C 
HETATM   18  C31 UNL     1      -0.465   1.223   0.897  1.00  0.00     0.228 C 
HETATM   19  O7  UNL     1      -1.633   1.339   1.351  1.00  0.00    -0.273 OA
HETATM   20  N7  UNL     1       0.544   2.050   1.485  1.00  0.00    -0.355 N 
ATOM     21  H7  UNL     1       0.618   2.057   2.502  1.00  0.00     0.162 HD
ENDROOT
BRANCH  17  22
HETATM   22  C22 UNL     1      -1.314   0.343  -1.197  1.00  0.00     0.123 C 
BRANCH  22  23
HETATM   23  C23 UNL     1      -2.576  -0.315  -0.889  1.00  0.00     0.218 C 
HETATM   24  O6  UNL     1      -2.825  -0.955   0.190  1.00  0.00    -0.274 OA
HETATM   25  N6  UNL     1      -3.665  -0.293  -1.806  1.00  0.00    -0.361 N 
ATOM     26  H6  UNL     1      -3.531   0.200  -2.689  1.00  0.00     0.162 HD
BRANCH  25  27
HETATM   27  C24 UNL     1      -4.926  -0.910  -1.578  1.00  0.00     0.122 C 
BRANCH  27  28
HETATM   28  C25 UNL     1      -5.713  -0.421  -0.417  1.00  0.00     0.020 C 
BRANCH  28  29
HETATM   29  C26 UNL     1      -7.032  -1.121  -0.217  1.00  0.00     0.002 C 
BRANCH  29  30
HETATM   30  C27 UNL     1      -7.917  -0.940  -1.408  1.00  0.00     0.004 C 
BRANCH  30  31
HETATM   31  C28 UNL     1      -9.260  -1.632  -1.224  1.00  0.00    -0.023 C 
HETATM   32  C29 UNL     1     -10.058  -1.380  -2.481  1.00  0.00     0.009 C 
HETATM   33  C30 UNL     1     -10.031  -1.106  -0.055  1.00  0.00     0.009 C 
ENDBRANCH  30  31
ENDBRANCH  29  30
ENDBRANCH  28  29
ENDBRANCH  27  28
ENDBRANCH  25  27
ENDBRANCH  22  23
ENDBRANCH  17  22
BRANCH  16  34
HETATM   34  C20 UNL     1       0.108  -1.520   1.570  1.00  0.00     0.223 C 
HETATM   35  O4  UNL     1       0.703  -2.624   1.856  1.00  0.00    -0.643 OA
HETATM   36  O5  UNL     1      -0.517  -0.926   2.617  1.00  0.00    -0.643 OA
ENDBRANCH  16  34
BRANCH   1  37
HETATM   37  C3  UNL     1       0.850   4.211   0.449  1.00  0.00     0.004 C 
HETATM   38  C4  UNL     1      -0.319   4.145  -0.506  1.00  0.00     0.012 C 
BRANCH  37  39
HETATM   39  C2  UNL     1       0.512   5.078   1.600  1.00  0.00     0.002 C 
HETATM   40  C1  UNL     1      -0.652   4.689   2.437  1.00  0.00     0.005 C 
ENDBRANCH  37  39
ENDBRANCH   1  37
BRANCH  11  41
HETATM   41  C13 UNL     1       4.003  -1.292   2.123  1.00  0.00     0.079 C 
BRANCH  41  42
HETATM   42  C14 UNL     1       4.952  -2.474   2.001  1.00  0.00     0.009 C 
BRANCH  42  43
HETATM   43  C15 UNL     1       6.124  -2.122   1.121  1.00  0.00     0.020 C 
BRANCH  43  44
HETATM   44  C16 UNL     1       7.056  -3.290   0.998  1.00  0.00     0.122 C 
BRANCH  44  45
HETATM   45  N2  UNL     1       6.384  -4.426   0.416  1.00  0.00    -0.367 N 
HETATM   46  C17 UNL     1       6.633  -4.766  -0.803  1.00  0.00     0.196 C 
HETATM   47  N3  UNL     1       7.561  -4.051  -1.612  1.00  0.00    -0.067 NA
HETATM   48  N4  UNL     1       5.988  -5.887  -1.414  1.00  0.00    -0.067 NA
ATOM     49  H2  UNL     1       5.713  -4.960   0.968  1.00  0.00     0.161 HD
ENDBRANCH  44  45
ENDBRANCH  43  44
ENDBRANCH  42  43
ENDBRANCH  41  42
ENDBRANCH  11  41
TORSDOF 15
