REMARK  20 active torsions:
REMARK  status: ('A' for Active; 'I' for Inactive)
REMARK    1  A    between atoms: C2_2  and  C3_3 
REMARK    2  A    between atoms: C3_3  and  C4_4 
REMARK    3  A    between atoms: C4_4  and  N1_5 
REMARK       I    between atoms: N1_5  and  C5_7 
REMARK    4  A    between atoms: C5_7  and  C6_9 
REMARK    5  A    between atoms: N2_11  and  C8_12 
REMARK    6  A    between atoms: C8_12  and  O2_13 
REMARK    7  A    between atoms: C8_12  and  C9_15 
REMARK    8  A    between atoms: C9_15  and  C10_16 
REMARK    9  A    between atoms: C9_15  and  N4_24 
REMARK   10  A    between atoms: C10_16  and  C11_17 
REMARK   11  A    between atoms: C11_17  and  C12_18 
REMARK   12  A    between atoms: C12_18  and  C13_19 
REMARK   13  A    between atoms: C13_19  and  N3_20 
REMARK       I    between atoms: N4_24  and  C14_26 
REMARK   14  A    between atoms: C14_26  and  O4_28 
REMARK   15  A    between atoms: O4_28  and  C15_29 
REMARK   16  A    between atoms: C15_29  and  C16_30 
REMARK   17  A    between atoms: C15_29  and  C27_46 
REMARK   18  A    between atoms: C16_30  and  C17_31 
REMARK       I    between atoms: N5_35  and  C21_36 
REMARK   19  A    between atoms: C22_41  and  C23_42 
REMARK   20  A    between atoms: C28_49  and  C29_50 
ROOT
HETATM    1  C9  UNL     1       1.783   0.500   0.756  1.00  0.00     0.161 C 
ENDROOT
BRANCH   1   2
HETATM    2  C8  UNL     1       2.833  -0.414   1.180  1.00  0.00     0.138 C 
BRANCH   2   3
HETATM    3  N2  UNL     1       4.132  -0.115   1.653  1.00  0.00    -0.347 N 
HETATM    4  C7  UNL     1       4.914   1.041   1.989  1.00  0.00     0.142 C 
HETATM    5  C6  UNL     1       5.967   0.165   2.601  1.00  0.00     0.129 C 
HETATM    6  C28 UNL     1       5.267  -0.959   1.917  1.00  0.00     0.201 C 
BRANCH   5   7
HETATM    7  C5  UNL     1       7.351   0.445   2.100  1.00  0.00     0.226 C 
HETATM    8  N1  UNL     1       7.598   0.692   0.731  1.00  0.00    -0.361 N 
ATOM      9  H1  UNL     1       6.812   0.689   0.080  1.00  0.00     0.162 HD
HETATM   10  O1  UNL     1       8.277   0.454   2.915  1.00  0.00    -0.273 OA
BRANCH   8  11
HETATM   11  C4  UNL     1       8.917   0.947   0.224  1.00  0.00     0.122 C 
BRANCH  11  12
HETATM   12  C3  UNL     1       9.796  -0.244   0.451  1.00  0.00     0.019 C 
BRANCH  12  13
HETATM   13  C2  UNL     1       9.155  -1.417  -0.275  1.00  0.00    -0.003 C 
HETATM   14  C1  UNL     1       9.943  -2.692  -0.100  1.00  0.00     0.005 C 
ENDBRANCH  12  13
ENDBRANCH  11  12
ENDBRANCH   8  11
ENDBRANCH   5   7
BRANCH   6  15
HETATM   15  C29 UNL     1       5.026  -2.139   2.804  1.00  0.00     0.197 C 
HETATM   16  O7  UNL     1       3.975  -2.282   3.455  1.00  0.00    -0.646 OA
HETATM   17  O8  UNL     1       6.047  -3.092   2.870  1.00  0.00    -0.646 OA
ENDBRANCH   6  15
ENDBRANCH   2   3
BRANCH   2  18
HETATM   18  O2  UNL     1       2.500  -1.673   1.098  1.00  0.00    -0.348 OA
ATOM     19  H2  UNL     1       1.628  -1.874   0.780  1.00  0.00     0.219 HD
ENDBRANCH   2  18
ENDBRANCH   1   2
BRANCH   1  20
HETATM   20  C10 UNL     1       1.792   0.450  -0.823  1.00  0.00     0.034 C 
BRANCH  20  21
HETATM   21  C11 UNL     1       3.134   0.869  -1.322  1.00  0.00     0.004 C 
BRANCH  21  22
HETATM   22  C12 UNL     1       3.154   0.848  -2.827  1.00  0.00     0.027 C 
BRANCH  22  23
HETATM   23  C13 UNL     1       2.116   1.821  -3.341  1.00  0.00     0.229 C 
BRANCH  23  24
HETATM   24  N3  UNL     1       2.147   1.805  -4.801  1.00  0.00    -0.079 N 
ATOM     25  H33 UNL     1       3.077   1.992  -5.175  1.00  0.00     0.274 HD
ATOM     26  H32 UNL     1       2.028   0.867  -5.185  1.00  0.00     0.274 HD
ATOM     27  H31 UNL     1       1.447   2.461  -5.148  1.00  0.00     0.274 HD
ENDBRANCH  23  24
ENDBRANCH  22  23
ENDBRANCH  21  22
ENDBRANCH  20  21
ENDBRANCH   1  20
BRANCH   1  28
HETATM   28  N4  UNL     1       0.454   0.076   1.146  1.00  0.00    -0.325 N 
HETATM   29  C14 UNL     1      -0.725   0.846   1.005  1.00  0.00     0.362 C 
HETATM   30  O3  UNL     1      -0.649   1.983   0.485  1.00  0.00    -0.238 OA
ATOM     31  H4  UNL     1       0.360  -0.853   1.556  1.00  0.00     0.165 HD
BRANCH  29  32
HETATM   32  O4  UNL     1      -1.939   0.369   1.421  1.00  0.00    -0.288 OA
BRANCH  32  33
HETATM   33  C15 UNL     1      -3.122   1.258   1.154  1.00  0.00     0.234 C 
BRANCH  33  34
HETATM   34  C16 UNL     1      -4.141   0.336   0.624  1.00  0.00     0.050 C 
BRANCH  34  35
HETATM   35  C17 UNL     1      -5.443   0.708   0.097  1.00  0.00     0.012 C 
HETATM   36  C18 UNL     1      -6.410   1.412   0.980  1.00  0.00     0.008 C 
HETATM   37  C19 UNL     1      -6.878   0.652   2.174  1.00  0.00     0.020 C 
HETATM   38  C20 UNL     1      -7.156  -0.761   1.711  1.00  0.00     0.126 C 
HETATM   39  N5  UNL     1      -7.297  -0.828   0.243  1.00  0.00    -0.350 N 
HETATM   40  C21 UNL     1      -8.584  -1.196  -0.190  1.00  0.00     0.184 C 
HETATM   41  C22 UNL     1      -6.143  -0.540  -0.522  1.00  0.00     0.098 C 
HETATM   42  N6  UNL     1      -8.949  -2.418  -0.069  1.00  0.00    -0.374 N 
HETATM   43  N7  UNL     1      -9.471  -0.265  -0.738  1.00  0.00    -0.064 NA
ATOM     44  H62 UNL     1      -8.302  -3.097   0.331  1.00  0.00     0.158 HD
ATOM     45  H61 UNL     1      -9.882  -2.685  -0.383  1.00  0.00     0.158 HD
BRANCH  41  46
HETATM   46  C23 UNL     1      -6.232  -0.516  -1.987  1.00  0.00    -0.030 C 
HETATM   47  C24 UNL     1      -4.798  -0.454  -2.559  1.00  0.00     0.016 C 
HETATM   48  C25 UNL     1      -6.762  -1.851  -2.545  1.00  0.00     0.016 C 
HETATM   49  C26 UNL     1      -6.970   0.586  -2.649  1.00  0.00     0.016 C 
ENDBRANCH  41  46
ENDBRANCH  34  35
ENDBRANCH  33  34
BRANCH  33  50
HETATM   50  C27 UNL     1      -3.407   1.696   2.566  1.00  0.00     0.203 C 
HETATM   51  O5  UNL     1      -4.057   2.719   2.878  1.00  0.00    -0.646 OA
HETATM   52  O6  UNL     1      -2.900   0.885   3.591  1.00  0.00    -0.646 OA
ENDBRANCH  33  50
ENDBRANCH  32  33
ENDBRANCH  29  32
ENDBRANCH   1  28
TORSDOF 20
