REMARK  5 active torsions:
REMARK  status: ('A' for Active; 'I' for Inactive)
REMARK    1  A    between atoms: N1_2  and  C2_4 
REMARK    2  A    between atoms: C2_4  and  N2_6 
REMARK    3  A    between atoms: N2_6  and  C4_8 
REMARK    4  A    between atoms: C4_8  and  C5_9 
REMARK    5  A    between atoms: C6_12  and  N4_13 
ROOT
HETATM    1  C5  UNL     1       1.365   0.203  -0.301  1.00  0.00     0.107 A 
HETATM    2  N3  UNL     1       2.165   1.134  -0.755  1.00  0.00    -0.324 N 
ATOM      3  H3  UNL     1       2.235   1.310  -1.757  1.00  0.00     0.169 HD
HETATM    4  C6  UNL     1       2.878   1.841   0.097  1.00  0.00     0.160 A 
HETATM    5  S2  UNL     1       2.408   1.172   1.593  1.00  0.00     0.024 SA
HETATM    6  N5  UNL     1       1.321   0.022   1.025  1.00  0.00    -0.312 N 
ATOM      7  H5  UNL     1       0.766  -0.647   1.558  1.00  0.00     0.175 HD
ENDROOT
BRANCH   1   8
HETATM    8  C4  UNL     1       0.537  -0.624  -1.288  1.00  0.00     0.201 C 
BRANCH   8   9
HETATM    9  N2  UNL     1      -0.451  -1.354  -0.576  1.00  0.00    -0.356 N 
HETATM   10  C3  UNL     1      -0.359  -2.796  -0.532  1.00  0.00     0.152 C 
BRANCH   9  11
HETATM   11  C2  UNL     1      -1.501  -0.688   0.098  1.00  0.00     0.169 C 
HETATM   12  S1  UNL     1      -2.629  -1.558   0.953  1.00  0.00    -0.041 SA
BRANCH  11  13
HETATM   13  N1  UNL     1      -1.697   0.717   0.117  1.00  0.00    -0.371 N 
HETATM   14  C1  UNL     1      -2.757   1.378   0.804  1.00  0.00     0.148 C 
ATOM     15  H1  UNL     1      -1.032   1.295  -0.397  1.00  0.00     0.161 HD
ENDBRANCH  11  13
ENDBRANCH   9  11
ENDBRANCH   8   9
ENDBRANCH   1   8
BRANCH   4  16
HETATM   16  N4  UNL     1       3.725   2.808  -0.185  1.00  0.00    -0.379 N 
ATOM     17  H42 UNL     1       4.006   3.208  -1.080  1.00  0.00     0.158 HD
ATOM     18  H41 UNL     1       4.277   3.356   0.475  1.00  0.00     0.158 HD
ENDBRANCH   4  16
TORSDOF 5
