REMARK  7 active torsions:
REMARK  status: ('A' for Active; 'I' for Inactive)
REMARK    1  A    between atoms: C3_6  and  C4_7 
REMARK    2  A    between atoms: C5_8  and  C6_9 
REMARK    3  A    between atoms: C6_9  and  C7_10 
REMARK    4  A    between atoms: C7_10  and  O1_11 
REMARK    5  A    between atoms: O1_11  and  C8_12 
REMARK    6  A    between atoms: C9_19  and  C10_20 
REMARK    7  A    between atoms: C11_21  and  C12_22 
ROOT
HETATM    1  N1  UNL     1       4.836   3.036   0.164  1.00  0.00    -0.190 NA
HETATM    2  C1  UNL     1       3.970   2.292   0.057  1.00  0.00     0.120 C 
HETATM    3  C2  UNL     1       2.872   1.378  -0.088  1.00  0.00     0.151 A 
HETATM    4  N2  UNL     1       1.706   1.704  -0.655  1.00  0.00    -0.324 N 
ATOM      5  H2  UNL     1       1.467   2.617  -1.041  1.00  0.00     0.169 HD
HETATM    6  C3  UNL     1       0.900   0.626  -0.632  1.00  0.00     0.163 A 
HETATM    7  N5  UNL     1       1.582  -0.378  -0.041  1.00  0.00    -0.326 N 
ATOM      8  H5  UNL     1       1.218  -1.318   0.114  1.00  0.00     0.169 HD
HETATM    9  C9  UNL     1       2.808   0.039   0.313  1.00  0.00     0.127 A 
ENDROOT
BRANCH   9  10
HETATM   10  C10 UNL     1       3.867  -0.688   0.965  1.00  0.00    -0.043 C 
HETATM   11  C11 UNL     1       4.765  -1.298   1.493  1.00  0.00    -0.068 C 
BRANCH  11  12
HETATM   12  C12 UNL     1       5.874  -2.045   2.119  1.00  0.00     0.316 C 
HETATM   13  F1  UNL     1       6.373  -1.351   3.195  1.00  0.00    -0.242 F 
ENDBRANCH  11  12
ENDBRANCH   9  10
BRANCH   6  14
HETATM   14  C4  UNL     1      -0.452   0.527  -1.137  1.00  0.00    -0.030 C 
HETATM   15  C5  UNL     1      -1.580   0.459  -1.574  1.00  0.00    -0.096 C 
BRANCH  15  16
HETATM   16  C6  UNL     1      -2.946   0.390  -2.127  1.00  0.00     0.121 C 
BRANCH  16  17
HETATM   17  C7  UNL     1      -3.492  -0.972  -1.844  1.00  0.00     0.190 C 
BRANCH  17  18
HETATM   18  O1  UNL     1      -3.540  -1.235  -0.447  1.00  0.00    -0.324 OA
BRANCH  18  19
HETATM   19  C8  UNL     1      -4.299  -0.419   0.374  1.00  0.00     0.225 C 
HETATM   20  N3  UNL     1      -5.353   0.170  -0.087  1.00  0.00    -0.368 N 
ATOM     21  H32 UNL     1      -5.629   0.035  -1.060  1.00  0.00     0.159 HD
ATOM     22  H31 UNL     1      -5.912   0.771   0.518  1.00  0.00     0.159 HD
HETATM   23  N4  UNL     1      -3.916  -0.231   1.724  1.00  0.00    -0.057 NA
ENDBRANCH  18  19
ENDBRANCH  17  18
ENDBRANCH  16  17
ENDBRANCH  15  16
ENDBRANCH   6  14
TORSDOF 7
