REMARK  3 active torsions:
REMARK  status: ('A' for Active; 'I' for Inactive)
REMARK    1  A    between atoms: C4_5  and  N1_6 
REMARK       I    between atoms: N1_6  and  C5_8 
REMARK    2  A    between atoms: C6_15  and  C7_16 
REMARK    3  A    between atoms: N5_17  and  O1_19 
ROOT
HETATM    1  C1  UNL     1      -0.004  -3.865   2.350  1.00  0.00     0.018 C 
HETATM    2  C2  UNL     1       0.183  -2.860   1.706  1.00  0.00    -0.068 C 
HETATM    3  C3  UNL     1       0.389  -1.652   0.915  1.00  0.00     0.089 A 
HETATM    4  S1  UNL     1       1.813  -1.111   0.155  1.00  0.00    -0.043 SA
HETATM    5  C4  UNL     1       1.200   0.323  -0.524  1.00  0.00     0.152 A 
HETATM    6  N4  UNL     1      -0.080   0.324  -0.136  1.00  0.00    -0.334 N 
ATOM      7  H4  UNL     1      -0.703   1.085  -0.407  1.00  0.00     0.168 HD
HETATM    8  C6  UNL     1      -0.518  -0.664   0.594  1.00  0.00     0.077 A 
ENDROOT
BRANCH   8   9
HETATM    9  C7  UNL     1      -1.912  -0.779   1.087  1.00  0.00     0.145 C 
HETATM   10  N5  UNL     1      -2.871   0.012   0.901  1.00  0.00    -0.276 N 
ATOM     11  H5  UNL     1      -3.761  -0.246   1.327  1.00  0.00     0.193 HD
BRANCH  10  12
HETATM   12  O1  UNL     1      -2.853   1.151   0.208  1.00  0.00    -0.286 OA
HETATM   13  C8  UNL     1      -4.002   1.757  -0.364  1.00  0.00     0.237 C 
ENDBRANCH  10  12
ENDBRANCH   8   9
BRANCH   5  14
HETATM   14  N1  UNL     1       1.815   1.228  -1.257  1.00  0.00    -0.311 N 
HETATM   15  C5  UNL     1       3.184   0.979  -1.523  1.00  0.00     0.187 C 
HETATM   16  N2  UNL     1       3.610   0.628  -2.684  1.00  0.00    -0.373 N 
HETATM   17  N3  UNL     1       4.108   1.127  -0.458  1.00  0.00    -0.064 NA
ATOM     18  H22 UNL     1       2.945   0.522  -3.450  1.00  0.00     0.158 HD
ATOM     19  H21 UNL     1       4.596   0.449  -2.876  1.00  0.00     0.158 HD
ATOM     20  H1  UNL     1       1.336   2.056  -1.611  1.00  0.00     0.170 HD
ENDBRANCH   5  14
TORSDOF 3
