REMARK  3 active torsions:
REMARK  status: ('A' for Active; 'I' for Inactive)
REMARK    1  A    between atoms: C3_3  and  C4_4 
REMARK    2  A    between atoms: C4_4  and  C5_5 
REMARK    3  A    between atoms: C9_16  and  N5_17 
ROOT
HETATM    1  C5  UNL     1       0.406  -0.371  -0.860  1.00  0.00     0.088 A 
HETATM    2  N1  UNL     1      -0.367  -1.259  -1.585  1.00  0.00    -0.332 N 
ATOM      3  H1  UNL     1       0.097  -1.901  -2.228  1.00  0.00     0.168 HD
HETATM    4  C6  UNL     1      -1.687  -1.310  -1.478  1.00  0.00     0.147 A 
HETATM    5  N2  UNL     1      -2.534  -2.197  -2.193  1.00  0.00    -0.080 NA
HETATM    6  C7  UNL     1      -2.268  -0.421  -0.592  1.00  0.00     0.105 A 
HETATM    7  N3  UNL     1      -3.607  -0.401  -0.414  1.00  0.00    -0.348 N 
ATOM      8  H3  UNL     1      -4.175  -1.057  -0.950  1.00  0.00     0.167 HD
HETATM    9  C8  UNL     1      -4.230   0.434   0.429  1.00  0.00     0.182 A 
HETATM   10  N4  UNL     1      -3.517   1.306   1.148  1.00  0.00    -0.337 N 
ATOM     11  H4  UNL     1      -3.987   1.943   1.792  1.00  0.00     0.168 HD
HETATM   12  C9  UNL     1      -2.151   1.343   1.018  1.00  0.00     0.129 A 
HETATM   13  C10 UNL     1      -1.516   0.497   0.162  1.00  0.00     0.110 A 
HETATM   14  N6  UNL     1      -0.148   0.496   0.000  1.00  0.00    -0.336 N 
HETATM   15  C11 UNL     1       0.606   1.437   0.759  1.00  0.00     0.158 C 
ENDROOT
BRANCH   1  16
HETATM   16  C4  UNL     1       1.881  -0.429  -1.080  1.00  0.00     0.103 C 
BRANCH  16  17
HETATM   17  C3  UNL     1       2.524  -1.466  -0.240  1.00  0.00    -0.024 C 
HETATM   18  C2  UNL     1       3.584  -1.247   0.469  1.00  0.00    -0.035 C 
HETATM   19  C1  UNL     1       4.361  -0.001   0.604  1.00  0.00     0.036 C 
ENDBRANCH  16  17
ENDBRANCH   1  16
BRANCH  12  20
HETATM   20  N5  UNL     1      -1.508   2.192   1.729  1.00  0.00    -0.384 N 
ATOM     21  H52 UNL     1      -1.984   2.826   2.371  1.00  0.00     0.157 HD
ATOM     22  H51 UNL     1      -0.493   2.219   1.632  1.00  0.00     0.157 HD
ENDBRANCH  12  20
TORSDOF 3
