REMARK  5 active torsions:
REMARK  status: ('A' for Active; 'I' for Inactive)
REMARK    1  A    between atoms: C2_2  and  N1_3 
REMARK    2  A    between atoms: N1_3  and  N2_4 
REMARK    3  A    between atoms: N2_4  and  C3_6 
REMARK    4  A    between atoms: C3_6  and  N3_8 
REMARK       I    between atoms: C4_10  and  N4_11 
REMARK       I    between atoms: C4_10  and  N5_18 
REMARK    5  A    between atoms: N4_11  and  C5_13 
ROOT
HETATM    1  N3  UNL     1       0.070  -0.190   0.855  1.00  0.00    -0.165 N 
ATOM      2  H3  UNL     1      -0.194  -1.123   1.172  1.00  0.00     0.186 HD
HETATM    3  C4  UNL     1      -0.880   0.487   0.378  1.00  0.00     0.680 C 
HETATM    4  N4  UNL     1      -2.173  -0.152   0.354  1.00  0.00    -0.221 N 
ATOM      5  H4  UNL     1      -2.962   0.273   0.841  1.00  0.00     0.178 HD
HETATM    6  N5  UNL     1      -0.835   1.804  -0.140  1.00  0.00    -0.196 N 
HETATM    7  C10 UNL     1       0.136   2.272  -1.108  1.00  0.00     0.169 C 
HETATM    8  C11 UNL     1       0.496   3.680  -0.746  1.00  0.00     0.188 C 
HETATM    9  O1  UNL     1      -0.588   4.526  -0.914  1.00  0.00    -0.386 OA
HETATM   10  C12 UNL     1      -1.806   3.878  -0.811  1.00  0.00     0.209 C 
HETATM   11  C13 UNL     1      -1.808   2.827   0.278  1.00  0.00     0.222 C 
HETATM   12 CL1  UNL     1      -1.437   3.531   1.837  1.00  0.00    -0.100 Cl
ENDROOT
BRANCH   1  13
HETATM   13  C3  UNL     1       1.415   0.115   1.024  1.00  0.00     0.202 C 
HETATM   14  S1  UNL     1       1.817   1.282   2.111  1.00  0.00    -0.039 SA
BRANCH  13  15
HETATM   15  N2  UNL     1       2.484  -0.508   0.329  1.00  0.00    -0.280 N 
ATOM     16  H2  UNL     1       2.260  -1.237  -0.349  1.00  0.00     0.184 HD
BRANCH  15  17
HETATM   17  N1  UNL     1       3.821  -0.178   0.523  1.00  0.00    -0.140 NA
BRANCH  17  18
HETATM   18  C2  UNL     1       4.706  -1.271   0.176  1.00  0.00     0.130 C 
HETATM   19  C1  UNL     1       6.144  -0.864   0.403  1.00  0.00     0.024 C 
ENDBRANCH  17  18
ENDBRANCH  15  17
ENDBRANCH  13  15
ENDBRANCH   1  13
BRANCH   4  20
HETATM   20  C5  UNL     1      -2.348  -1.384  -0.354  1.00  0.00     0.099 C 
HETATM   21  C6  UNL     1      -1.451  -2.491   0.181  1.00  0.00     0.026 C 
HETATM   22  C7  UNL     1      -2.349  -3.720   0.047  1.00  0.00     0.002 C 
HETATM   23  C8  UNL     1      -3.670  -3.144   0.575  1.00  0.00     0.002 C 
HETATM   24  C9  UNL     1      -3.757  -1.866  -0.244  1.00  0.00     0.026 C 
ENDBRANCH   4  20
TORSDOF 5
