REMARK  2 active torsions:
REMARK  status: ('A' for Active; 'I' for Inactive)
REMARK    1  A    between atoms: C8_15  and  C9_16 
REMARK    2  A    between atoms: N4_20  and  C12_21 
ROOT
HETATM    1  C1  UNL     1       2.652  -2.862  -1.195  1.00  0.00     0.065 C 
HETATM    2  C2  UNL     1       1.465  -2.344  -1.149  1.00  0.00     0.114 A 
HETATM    3  N1  UNL     1       0.348  -2.988  -1.693  1.00  0.00    -0.284 N 
ATOM      4  H1  UNL     1       0.341  -3.908  -2.134  1.00  0.00     0.188 HD
HETATM    5  N2  UNL     1      -0.758  -2.146  -1.525  1.00  0.00    -0.282 N 
ATOM      6  H2  UNL     1      -1.706  -2.364  -1.832  1.00  0.00     0.188 HD
HETATM    7  C3  UNL     1      -0.376  -0.945  -0.868  1.00  0.00     0.152 A 
HETATM    8  C4  UNL     1      -1.220  -0.003  -0.436  1.00  0.00     0.087 A 
HETATM    9  N3  UNL     1      -0.814   1.151   0.131  1.00  0.00    -0.319 N 
ATOM     10  H3  UNL     1       0.186   1.348   0.085  1.00  0.00     0.169 HD
HETATM   11  C5  UNL     1      -1.567   2.065   0.745  1.00  0.00     0.256 A 
HETATM   12  O1  UNL     1      -1.064   3.119   1.251  1.00  0.00    -0.267 OA
HETATM   13  C6  UNL     1      -2.920   1.900   0.854  1.00  0.00     0.030 A 
HETATM   14  C7  UNL     1      -3.632   2.824   1.470  1.00  0.00     0.030 C 
HETATM   15  C8  UNL     1      -3.443   0.756   0.304  1.00  0.00    -0.021 A 
HETATM   16  C10 UNL     1      -2.597  -0.185  -0.328  1.00  0.00    -0.023 A 
HETATM   17  C11 UNL     1      -3.298  -1.437  -0.670  1.00  0.00     0.051 C 
HETATM   18  N4  UNL     1       1.057  -1.074  -0.619  1.00  0.00    -0.311 N 
ENDROOT
BRANCH  18  19
HETATM   19  C12 UNL     1       1.931  -0.264   0.095  1.00  0.00     0.100 C 
HETATM   20  C13 UNL     1       2.686  -0.919   1.268  1.00  0.00     0.053 C 
HETATM   21  C14 UNL     1       3.472   0.310   1.698  1.00  0.00    -0.022 C 
HETATM   22  C15 UNL     1       3.704   1.066   0.634  1.00  0.00    -0.086 C 
HETATM   23  C16 UNL     1       4.441   2.362   0.597  1.00  0.00     0.043 C 
HETATM   24  C17 UNL     1       3.071   0.413  -0.594  1.00  0.00     0.059 C 
ENDBRANCH  18  19
BRANCH  15  25
HETATM   25  C9  UNL     1      -4.912   0.557   0.343  1.00  0.00     0.154 C 
HETATM   26 CL1  UNL     1      -5.515  -0.048   1.878  1.00  0.00    -0.126 Cl
ENDBRANCH  15  25
TORSDOF 2
