REMARK  5 active torsions:
REMARK  status: ('A' for Active; 'I' for Inactive)
REMARK    1  A    between atoms: C10_10  and  C11_11 
REMARK    2  A    between atoms: C11_11  and  O1_12 
REMARK    3  A    between atoms: C11_11  and  C12_14 
REMARK    4  A    between atoms: C12_14  and  C13_15 
REMARK    5  A    between atoms: C15_17  and  O2_18 
ROOT
HETATM    1  C1  UNL     1      -4.319   1.461  -1.121  1.00  0.00     0.022 C 
HETATM    2  C2  UNL     1      -3.208   1.095  -0.507  1.00  0.00    -0.018 C 
HETATM    3  C3  UNL     1      -1.995   1.891  -0.639  1.00  0.00     0.042 C 
HETATM    4  C4  UNL     1      -0.704   1.133  -0.657  1.00  0.00     0.018 C 
HETATM    5  C5  UNL     1      -0.705  -0.280  -0.280  1.00  0.00     0.005 C 
HETATM    6  C6  UNL     1      -1.310  -1.247  -1.318  1.00  0.00     0.021 C 
HETATM    7  C7  UNL     1      -1.812  -2.047  -0.144  1.00  0.00     0.030 C 
HETATM    8  C8  UNL     1      -0.786  -2.976   0.400  1.00  0.00     0.009 C 
HETATM    9  C9  UNL     1       0.414  -2.217   0.898  1.00  0.00     0.009 C 
HETATM   10  C10 UNL     1       0.575  -0.903   0.123  1.00  0.00     0.026 C 
HETATM   11  C15 UNL     1      -1.846  -0.709   0.609  1.00  0.00     0.134 C 
HETATM   12  C16 UNL     1      -3.138  -0.096   0.314  1.00  0.00     0.190 C 
HETATM   13  O3  UNL     1      -4.208  -0.574   0.756  1.00  0.00    -0.289 OA
ENDROOT
BRANCH  10  14
HETATM   14  C11 UNL     1       1.688  -0.105   0.665  1.00  0.00     0.123 C 
BRANCH  14  15
HETATM   15  O1  UNL     1       2.686  -1.115   1.003  1.00  0.00    -0.395 OA
ATOM     16  H1  UNL     1       3.404  -0.600   1.353  1.00  0.00     0.210 HD
ENDBRANCH  14  15
BRANCH  14  17
HETATM   17  C12 UNL     1       2.458   0.666  -0.401  1.00  0.00     0.032 C 
BRANCH  17  18
HETATM   18  C13 UNL     1       3.578   1.448   0.269  1.00  0.00    -0.002 C 
HETATM   19  C14 UNL     1       4.315   2.198  -0.824  1.00  0.00     0.005 C 
ENDBRANCH  17  18
ENDBRANCH  14  17
ENDBRANCH  10  14
BRANCH  11  20
HETATM   20  O2  UNL     1      -1.607  -0.780   1.956  1.00  0.00    -0.380 OA
ATOM     21  H2  UNL     1      -2.325  -1.050   2.516  1.00  0.00     0.211 HD
ENDBRANCH  11  20
TORSDOF 5
