REMARK  4 active torsions:
REMARK  status: ('A' for Active; 'I' for Inactive)
REMARK    1  A    between atoms: C2_2  and  C3_3 
REMARK    2  A    between atoms: C2_2  and  C4_6 
REMARK    3  A    between atoms: C3_3  and  O1_4 
REMARK    4  A    between atoms: C4_6  and  O2_7 
ROOT
HETATM    1  C4  UNL     1       1.006   0.511  -0.132  1.00  0.00     0.091 C 
HETATM    2  C5  UNL     1       1.114  -0.126  -1.504  1.00  0.00     0.045 C 
HETATM    3  C6  UNL     1      -0.283  -0.493  -1.876  1.00  0.00     0.022 C 
HETATM    4  C7  UNL     1      -1.168   0.036  -0.754  1.00  0.00     0.030 A 
HETATM    5  C8  UNL     1      -1.949   1.115  -1.211  1.00  0.00    -0.072 A 
HETATM    6  C9  UNL     1      -1.807   2.523  -1.783  1.00  0.00     0.044 C 
HETATM    7  C10 UNL     1      -3.067   0.493  -1.004  1.00  0.00     0.018 A 
HETATM    8  C11 UNL     1      -2.422  -0.654  -0.523  1.00  0.00     0.118 A 
HETATM    9  O3  UNL     1      -2.778  -0.647   0.956  1.00  0.00    -0.364 OA
HETATM   10  C12 UNL     1      -2.528  -1.763   0.205  1.00  0.00     0.163 A 
HETATM   11  C13 UNL     1      -1.211  -2.383   0.646  1.00  0.00     0.036 C 
HETATM   12  C14 UNL     1      -0.065  -1.470   0.767  1.00  0.00     0.016 C 
HETATM   13  C15 UNL     1      -0.274  -0.007   0.452  1.00  0.00     0.006 C 
HETATM   14  C16 UNL     1      -0.736   0.705   1.657  1.00  0.00     0.020 C 
ENDROOT
BRANCH   1  15
HETATM   15  C2  UNL     1       2.256   0.361   0.623  1.00  0.00    -0.031 C 
HETATM   16  C1  UNL     1       2.794   1.493   1.094  1.00  0.00     0.019 C 
BRANCH  15  17
HETATM   17  C3  UNL     1       3.012  -0.877   0.907  1.00  0.00     0.200 C 
BRANCH  17  18
HETATM   18  O1  UNL     1       4.187  -0.536   1.639  1.00  0.00    -0.397 OA
ATOM     19  H1  UNL     1       4.673  -1.332   1.822  1.00  0.00     0.209 HD
ENDBRANCH  17  18
ENDBRANCH  15  17
ENDBRANCH   1  15
BRANCH   1  20
HETATM   20  O2  UNL     1       0.840   1.911  -0.427  1.00  0.00    -0.384 OA
ATOM     21  H2  UNL     1       0.031   2.008  -0.916  1.00  0.00     0.211 HD
ENDBRANCH   1  20
TORSDOF 4
