REMARK  3 active torsions:
REMARK  status: ('A' for Active; 'I' for Inactive)
REMARK       I    between atoms: C1_2  and  N1_3 
REMARK       I    between atoms: C1_2  and  N2_12 
REMARK    1  A    between atoms: N1_3  and  C2_5 
REMARK    2  A    between atoms: C2_5  and  C3_6 
REMARK    3  A    between atoms: N2_12  and  C8_14 
ROOT
HETATM    1  O1  UNL     1       0.086  -0.730   1.555  1.00  0.00    -0.247 OA
HETATM    2  C1  UNL     1       0.109   0.248   0.760  1.00  0.00     0.316 C 
HETATM    3  N1  UNL     1      -1.008   1.019   0.419  1.00  0.00    -0.343 N 
ATOM      4  H1  UNL     1      -0.854   1.788  -0.233  1.00  0.00     0.164 HD
HETATM    5  N2  UNL     1       1.386   0.542   0.200  1.00  0.00    -0.332 N 
ATOM      6  H2  UNL     1       1.469   1.322  -0.452  1.00  0.00     0.165 HD
ENDROOT
BRANCH   3   7
HETATM    7  C2  UNL     1      -2.342   0.834   0.894  1.00  0.00     0.129 C 
BRANCH   7   8
HETATM    8  C3  UNL     1      -2.837  -0.547   0.465  1.00  0.00     0.005 C 
HETATM    9  C4  UNL     1      -2.831  -0.694  -1.006  1.00  0.00     0.016 C 
HETATM   10  C5  UNL     1      -4.242  -0.773  -1.540  1.00  0.00     0.074 C 
HETATM   11  S1  UNL     1      -5.134   0.656  -0.859  1.00  0.00    -0.169 SA
HETATM   12  C6  UNL     1      -5.147   0.357   0.953  1.00  0.00     0.074 C 
HETATM   13  C7  UNL     1      -4.146  -0.757   1.163  1.00  0.00     0.016 C 
ENDBRANCH   7   8
ENDBRANCH   3   7
BRANCH   5  14
HETATM   14  C8  UNL     1       2.584  -0.237   0.527  1.00  0.00     0.155 C 
HETATM   15  C9  UNL     1       3.192  -0.815  -0.689  1.00  0.00     0.033 C 
HETATM   16  C10 UNL     1       4.667  -0.743  -0.814  1.00  0.00     0.003 C 
HETATM   17  C11 UNL     1       5.356   0.359  -0.123  1.00  0.00     0.007 C 
HETATM   18  C12 UNL     1       4.450   1.431   0.424  1.00  0.00     0.080 C 
HETATM   19  C13 UNL     1       3.467   0.682   1.287  1.00  0.00     0.149 C 
HETATM   20  O2  UNL     1       3.420   0.834   2.487  1.00  0.00    -0.296 OA
ENDBRANCH   5  14
TORSDOF 3
