REMARK  3 active torsions:
REMARK  status: ('A' for Active; 'I' for Inactive)
REMARK    1  A    between atoms: C2_3  and  C3_4 
REMARK    2  A    between atoms: C3_4  and  N2_5 
REMARK    3  A    between atoms: C4_8  and  N4_9 
ROOT
HETATM    1  N1  UNL     1       2.272   2.027  -0.931  1.00  0.00    -0.197 NA
HETATM    2  C1  UNL     1       2.187   0.893  -0.704  1.00  0.00     0.060 C 
HETATM    3  C2  UNL     1       2.089  -0.539  -0.405  1.00  0.00     0.146 C 
ENDROOT
BRANCH   3   4
HETATM    4  C3  UNL     1       1.119  -0.760   0.765  1.00  0.00     0.182 C 
BRANCH   4   5
HETATM    5  N2  UNL     1      -0.166  -0.247   0.376  1.00  0.00    -0.108 N 
HETATM    6  N3  UNL     1      -0.574   1.000   0.578  1.00  0.00    -0.115 N 
HETATM    7  C4  UNL     1      -1.822   1.105   0.082  1.00  0.00     0.705 A 
ATOM      8  H3  UNL     1      -0.040   1.744   1.027  1.00  0.00     0.206 HD
HETATM    9  N5  UNL     1      -2.146  -0.106  -0.419  1.00  0.00    -0.020 N 
HETATM   10  C5  UNL     1      -1.123  -0.962  -0.243  1.00  0.00     0.707 A 
ATOM     11  H5  UNL     1      -3.034  -0.337  -0.864  1.00  0.00     0.203 HD
HETATM   12  N6  UNL     1      -1.096  -2.213  -0.608  1.00  0.00    -0.233 N 
ATOM     13  H62 UNL     1      -0.320  -2.862  -0.475  1.00  0.00     0.174 HD
ATOM     14  H61 UNL     1      -1.822  -2.755  -1.077  1.00  0.00     0.174 HD
BRANCH   7  15
HETATM   15  N4  UNL     1      -2.610   2.133   0.058  1.00  0.00    -0.233 N 
ATOM     16  H42 UNL     1      -2.365   3.048   0.437  1.00  0.00     0.174 HD
ATOM     17  H41 UNL     1      -3.555   2.213  -0.318  1.00  0.00     0.174 HD
ENDBRANCH   7  15
ENDBRANCH   4   5
ENDBRANCH   3   4
TORSDOF 3
