REMARK  3 active torsions:
REMARK  status: ('A' for Active; 'I' for Inactive)
REMARK       I    between atoms: C1_4  and  N3_6 
REMARK    1  A    between atoms: N3_6  and  C2_8 
REMARK    2  A    between atoms: C2_8  and  N4_9 
REMARK    3  A    between atoms: C2_8  and  C3_13 
ROOT
HETATM    1  C2  UNL     1       0.205  -1.016  -0.297  1.00  0.00     0.336 C 
ENDROOT
BRANCH   1   2
HETATM    2  N3  UNL     1      -0.925  -1.035   0.596  1.00  0.00    -0.332 N 
HETATM    3  C1  UNL     1      -1.917  -0.051   0.493  1.00  0.00     0.183 C 
HETATM    4  N1  UNL     1      -2.550   0.468   1.488  1.00  0.00    -0.374 N 
HETATM    5  N2  UNL     1      -2.256   0.416  -0.823  1.00  0.00    -0.064 NA
ATOM      6  H12 UNL     1      -3.272   1.184   1.413  1.00  0.00     0.158 HD
ATOM      7  H11 UNL     1      -2.309   0.137   2.422  1.00  0.00     0.158 HD
ATOM      8  H3  UNL     1      -1.003  -1.765   1.304  1.00  0.00     0.164 HD
ENDBRANCH   1   2
BRANCH   1   9
HETATM    9  N4  UNL     1       1.105  -2.136  -0.002  1.00  0.00    -0.053 N 
ATOM     10  H43 UNL     1       1.393  -2.145   0.976  1.00  0.00     0.277 HD
ATOM     11  H42 UNL     1       0.618  -3.032  -0.024  1.00  0.00     0.277 HD
ATOM     12  H41 UNL     1       1.905  -2.123  -0.634  1.00  0.00     0.277 HD
ENDBRANCH   1   9
BRANCH   1  13
HETATM   13  C3  UNL     1       0.978   0.221  -0.006  1.00  0.00     0.084 A 
HETATM   14  C4  UNL     1       1.527   1.148  -0.839  1.00  0.00     0.057 A 
HETATM   15  C5  UNL     1       2.129   2.085  -0.017  1.00  0.00     0.169 A 
HETATM   16  O1  UNL     1       1.922   1.694   1.231  1.00  0.00    -0.250 OA
HETATM   17  N5  UNL     1       1.250   0.603   1.276  1.00  0.00    -0.262 N 
ATOM     18  H5  UNL     1       0.968   0.107   2.122  1.00  0.00     0.194 HD
ENDBRANCH   1  13
TORSDOF 3
