REMARK  8 active torsions:
REMARK  status: ('A' for Active; 'I' for Inactive)
REMARK    1  A    between atoms: N1_1  and  C1_4 
REMARK    2  A    between atoms: C2_7  and  N3_8 
REMARK    3  A    between atoms: N3_8  and  C3_10 
REMARK    4  A    between atoms: C3_10  and  C4_11 
REMARK    5  A    between atoms: C4_11  and  N4_12 
REMARK    6  A    between atoms: N5_16  and  C8_17 
REMARK    7  A    between atoms: C13_25  and  N7_26 
REMARK    8  A    between atoms: N7_26  and  N8_28 
ROOT
HETATM    1  C1  UNL     1       2.651  -2.708  -0.740  1.00  0.00     0.679 A 
HETATM    2  N2  UNL     1       1.733  -1.727  -0.812  1.00  0.00    -0.176 N 
ATOM      3  H2  UNL     1       0.766  -1.970  -1.028  1.00  0.00     0.186 HD
HETATM    4  C2  UNL     1       2.050  -0.438  -0.608  1.00  0.00     0.132 A 
HETATM    5  C11 UNL     1       3.368  -0.076  -0.311  1.00  0.00     0.069 A 
HETATM    6  C12 UNL     1       3.710   1.243  -0.099  1.00  0.00     0.125 A 
HETATM    7  N6  UNL     1       5.000   1.492   0.180  1.00  0.00    -0.199 N 
ATOM      8  H6  UNL     1       5.293   2.455   0.343  1.00  0.00     0.183 HD
HETATM    9  C13 UNL     1       5.920   0.508   0.252  1.00  0.00     0.697 A 
HETATM   10  N9  UNL     1       5.601  -0.783   0.048  1.00  0.00    -0.174 N 
ATOM     11  H9  UNL     1       6.309  -1.515   0.106  1.00  0.00     0.186 HD
HETATM   12  C14 UNL     1       4.313  -1.079  -0.236  1.00  0.00     0.152 A 
HETATM   13  N10 UNL     1       3.910  -2.348  -0.455  1.00  0.00    -0.175 N 
ATOM     14  H10 UNL     1       4.613  -3.085  -0.400  1.00  0.00     0.186 HD
ENDROOT
BRANCH   4  15
HETATM   15  N3  UNL     1       1.207   0.529  -0.667  1.00  0.00    -0.373 N 
ATOM     16  H3  UNL     1       1.560   1.470  -0.495  1.00  0.00     0.161 HD
BRANCH  15  17
HETATM   17  C3  UNL     1      -0.191   0.391  -0.955  1.00  0.00     0.141 C 
BRANCH  17  18
HETATM   18  C4  UNL     1      -0.908   0.037   0.337  1.00  0.00     0.141 C 
BRANCH  18  19
HETATM   19  N4  UNL     1      -2.289  -0.102   0.069  1.00  0.00    -0.390 N 
HETATM   20  C5  UNL     1      -3.132  -0.432   1.153  1.00  0.00     0.123 C 
HETATM   21  C6  UNL     1      -3.740   0.785   1.837  1.00  0.00     0.040 C 
HETATM   22  C7  UNL     1      -4.852   1.388   1.028  1.00  0.00     0.127 C 
HETATM   23  N5  UNL     1      -5.129   0.567  -0.128  1.00  0.00    -0.354 N 
HETATM   24  C9  UNL     1      -4.261   0.293  -1.234  1.00  0.00     0.169 C 
HETATM   25  C10 UNL     1      -2.828   0.647  -0.991  1.00  0.00     0.078 C 
BRANCH  23  26
HETATM   26  C8  UNL     1      -6.407  -0.047  -0.189  1.00  0.00     0.351 C 
HETATM   27  O1  UNL     1      -6.754  -0.777  -1.142  1.00  0.00    -0.284 OA
ENDBRANCH  23  26
ENDBRANCH  18  19
ENDBRANCH  17  18
ENDBRANCH  15  17
ENDBRANCH   4  15
BRANCH   1  28
HETATM   28  N1  UNL     1       2.357  -3.963  -0.936  1.00  0.00    -0.234 N 
ATOM     29  H12 UNL     1       1.399  -4.237  -1.153  1.00  0.00     0.174 HD
ATOM     30  H11 UNL     1       3.053  -4.707  -0.881  1.00  0.00     0.174 HD
ENDBRANCH   1  28
BRANCH   9  31
HETATM   31  N7  UNL     1       7.146   0.788   0.523  1.00  0.00    -0.138 N 
ATOM     32  H7  UNL     1       7.845   0.047   0.579  1.00  0.00     0.205 HD
BRANCH  31  33
HETATM   33  N8  UNL     1       7.504   2.107   0.737  1.00  0.00    -0.331 N 
ATOM     34  H82 UNL     1       6.793   2.836   0.677  1.00  0.00     0.177 HD
ATOM     35  H81 UNL     1       8.476   2.329   0.952  1.00  0.00     0.177 HD
ENDBRANCH  31  33
ENDBRANCH   9  31
TORSDOF 8
