REMARK  6 active torsions:
REMARK  status: ('A' for Active; 'I' for Inactive)
REMARK    1  A    between atoms: C2_2  and  C3_3 
REMARK    2  A    between atoms: C3_3  and  C4_4 
REMARK    3  A    between atoms: C4_4  and  C5_5 
REMARK    4  A    between atoms: N4_19  and  N5_20 
REMARK    5  A    between atoms: C13_24  and  N6_25 
REMARK    6  A    between atoms: N7_28  and  N8_29 
ROOT
HETATM    1  C5  UNL     1       2.347   0.262  -1.366  1.00  0.00    -0.014 C 
HETATM    2  C6  UNL     1       2.138  -1.030  -1.056  1.00  0.00    -0.022 A 
HETATM    3  C7  UNL     1       3.239  -1.782  -0.800  1.00  0.00     0.029 A 
HETATM    4  C8  UNL     1       3.145  -3.183  -0.787  1.00  0.00     0.090 A 
HETATM    5  N1  UNL     1       1.972  -3.706  -1.027  1.00  0.00    -0.352 N 
ATOM      6  H1  UNL     1       1.888  -4.722  -1.027  1.00  0.00     0.166 HD
HETATM    7  C9  UNL     1       0.858  -2.968  -1.277  1.00  0.00     0.112 A 
HETATM    8  N2  UNL     1      -0.233  -3.572  -1.449  1.00  0.00    -0.385 N 
ATOM      9  H21 UNL     1      -1.069  -3.018  -1.637  1.00  0.00     0.157 HD
ATOM     10  H22 UNL     1      -0.249  -4.592  -1.433  1.00  0.00     0.157 HD
HETATM   11  C10 UNL     1       0.881  -1.533  -1.300  1.00  0.00     0.051 A 
HETATM   12  C11 UNL     1      -0.276  -0.924  -1.103  1.00  0.00     0.134 A 
HETATM   13  N3  UNL     1      -1.490  -1.556  -1.479  1.00  0.00    -0.272 N 
ATOM     14  H3  UNL     1      -1.409  -2.343  -2.123  1.00  0.00     0.189 HD
HETATM   15  N4  UNL     1      -2.767  -1.228  -1.074  1.00  0.00    -0.182 N 
HETATM   16  C12 UNL     1      -2.951  -0.120  -0.166  1.00  0.00     0.184 A 
HETATM   17  C13 UNL     1      -4.181   0.176   0.206  1.00  0.00     0.139 C 
HETATM   18  N7  UNL     1      -1.807   0.573   0.265  1.00  0.00    -0.204 N 
HETATM   19  C16 UNL     1      -0.465   0.201  -0.177  1.00  0.00     0.297 A 
HETATM   20  O1  UNL     1       0.410   0.929   0.336  1.00  0.00    -0.264 OA
ENDROOT
BRANCH  15  21
HETATM   21  N5  UNL     1      -3.903  -1.920  -1.506  1.00  0.00    -0.322 N 
ATOM     22  H52 UNL     1      -3.773  -2.703  -2.147  1.00  0.00     0.179 HD
ATOM     23  H51 UNL     1      -4.847  -1.677  -1.206  1.00  0.00     0.179 HD
ENDBRANCH  15  21
BRANCH  18  24
HETATM   24  N8  UNL     1      -1.928   1.674   1.157  1.00  0.00    -0.334 N 
ATOM     25  H82 UNL     1      -2.865   1.934   1.466  1.00  0.00     0.177 HD
ATOM     26  H81 UNL     1      -1.098   2.177   1.470  1.00  0.00     0.177 HD
ENDBRANCH  18  24
BRANCH   1  27
HETATM   27  C4  UNL     1       3.682   0.855  -1.419  1.00  0.00     0.028 C 
BRANCH  27  28
HETATM   28  C3  UNL     1       4.035   1.782  -0.307  1.00  0.00     0.003 C 
BRANCH  28  29
HETATM   29  C2  UNL     1       4.028   1.186   1.057  1.00  0.00    -0.004 C 
HETATM   30  C1  UNL     1       4.395   2.218   2.099  1.00  0.00     0.005 C 
ENDBRANCH  28  29
ENDBRANCH  27  28
ENDBRANCH   1  27
BRANCH  17  31
HETATM   31  N6  UNL     1      -4.561   1.218   1.082  1.00  0.00    -0.395 N 
HETATM   32  C14 UNL     1      -4.671   0.977   2.532  1.00  0.00     0.148 C 
HETATM   33  C15 UNL     1      -4.893   2.572   0.623  1.00  0.00     0.148 C 
ENDBRANCH  17  31
TORSDOF 6
