REMARK  9 active torsions:
REMARK  status: ('A' for Active; 'I' for Inactive)
REMARK    1  A    between atoms: C1_2  and  C2_3 
REMARK       I    between atoms: C1_2  and  N2_10 
REMARK    2  A    between atoms: C2_3  and  C3_4 
REMARK    3  A    between atoms: N2_10  and  C6_12 
REMARK    4  A    between atoms: C6_12  and  C7_13 
REMARK    5  A    between atoms: C7_13  and  O2_14 
REMARK    6  A    between atoms: O2_14  and  C8_15 
REMARK    7  A    between atoms: C8_15  and  C9_16 
REMARK    8  A    between atoms: C9_16  and  N3_17 
REMARK       I    between atoms: N3_17  and  C10_19 
REMARK    9  A    between atoms: C10_19  and  C11_21 
ROOT
HETATM    1  O2  UNL     1      -0.171   0.072  -1.823  1.00  0.00    -0.388 OA
ENDROOT
BRANCH   1   2
HETATM    2  C7  UNL     1      -0.284   1.392  -1.481  1.00  0.00     0.187 C 
BRANCH   2   3
HETATM    3  C6  UNL     1      -1.005   1.494  -0.162  1.00  0.00     0.148 C 
BRANCH   3   4
HETATM    4  N2  UNL     1      -2.334   0.920  -0.228  1.00  0.00    -0.359 N 
HETATM    5  C1  UNL     1      -3.214   0.892   0.880  1.00  0.00     0.219 C 
HETATM    6  O1  UNL     1      -2.842   1.383   1.979  1.00  0.00    -0.274 OA
ATOM      7  H2  UNL     1      -2.649   0.519  -1.111  1.00  0.00     0.162 HD
BRANCH   5   8
HETATM    8  C2  UNL     1      -4.557   0.295   0.760  1.00  0.00     0.128 C 
BRANCH   8   9
HETATM    9  C3  UNL     1      -5.288   0.390   2.069  1.00  0.00     0.100 A 
HETATM   10  C4  UNL     1      -4.616  -0.303   3.198  1.00  0.00     0.115 A 
HETATM   11  C5  UNL     1      -5.711  -1.278   3.169  1.00  0.00     0.163 A 
HETATM   12  F1  UNL     1      -6.032  -2.395   3.874  1.00  0.00    -0.191 F 
HETATM   13  N1  UNL     1      -6.246  -0.645   2.201  1.00  0.00    -0.365 N 
ATOM     14  H1  UNL     1      -7.103  -0.828   1.680  1.00  0.00     0.162 HD
ENDBRANCH   8   9
ENDBRANCH   5   8
ENDBRANCH   3   4
ENDBRANCH   2   3
ENDBRANCH   1   2
BRANCH   1  15
HETATM   15  C8  UNL     1       0.484  -0.137  -3.030  1.00  0.00     0.187 C 
BRANCH  15  16
HETATM   16  C9  UNL     1       1.894   0.409  -3.013  1.00  0.00     0.149 C 
BRANCH  16  17
HETATM   17  N3  UNL     1       2.630  -0.263  -1.961  1.00  0.00    -0.354 N 
HETATM   18  C10 UNL     1       3.990   0.068  -1.731  1.00  0.00     0.268 C 
HETATM   19  O3  UNL     1       4.587   0.943  -2.426  1.00  0.00    -0.266 OA
ATOM     20  H3  UNL     1       2.172  -0.972  -1.388  1.00  0.00     0.162 HD
BRANCH  18  21
HETATM   21  C11 UNL     1       4.763  -0.586  -0.683  1.00  0.00     0.102 A 
HETATM   22  C12 UNL     1       6.064  -0.393  -0.329  1.00  0.00     0.057 A 
HETATM   23  C13 UNL     1       6.379  -1.228   0.718  1.00  0.00     0.047 A 
HETATM   24 BR1  UNL     1       8.059  -1.380   1.613  1.00  0.00    -0.048 Br
HETATM   25  C14 UNL     1       5.231  -1.937   0.993  1.00  0.00     0.098 A 
HETATM   26 BR2  UNL     1       5.011  -3.261   2.342  1.00  0.00    -0.030 Br
HETATM   27  N4  UNL     1       4.269  -1.540   0.143  1.00  0.00    -0.345 N 
ATOM     28  H4  UNL     1       3.315  -1.901   0.123  1.00  0.00     0.167 HD
ENDBRANCH  18  21
ENDBRANCH  16  17
ENDBRANCH  15  16
ENDBRANCH   1  15
TORSDOF 9
