REMARK  10 active torsions:
REMARK  status: ('A' for Active; 'I' for Inactive)
REMARK    1  A    between atoms: C2_2  and  C3_3 
REMARK    2  A    between atoms: C3_3  and  C4_4 
REMARK    3  A    between atoms: C4_4  and  N1_5 
REMARK    4  A    between atoms: C4_4  and  C7_12 
REMARK    5  A    between atoms: C5_7  and  C6_8 
REMARK    6  A    between atoms: C7_12  and  O1_13 
REMARK    7  A    between atoms: C7_12  and  N2_15 
REMARK    8  A    between atoms: N2_15  and  C8_18 
REMARK    9  A    between atoms: C8_18  and  C9_19 
REMARK   10  A    between atoms: C8_18  and  C11_21 
ROOT
HETATM    1  C7  UNL     1       0.143   0.370   0.417  1.00  0.00     0.342 C 
ENDROOT
BRANCH   1   2
HETATM    2  C4  UNL     1      -1.256   0.008  -0.052  1.00  0.00     0.137 C 
BRANCH   2   3
HETATM    3  C3  UNL     1      -1.920  -0.985   0.838  1.00  0.00     0.029 C 
BRANCH   3   4
HETATM    4  C2  UNL     1      -3.272  -1.372   0.281  1.00  0.00    -0.002 C 
HETATM    5  C1  UNL     1      -3.964  -2.387   1.201  1.00  0.00     0.005 C 
ENDBRANCH   3   4
ENDBRANCH   2   3
BRANCH   2   6
HETATM    6  N1  UNL     1      -1.984   1.226  -0.215  1.00  0.00    -0.390 N 
HETATM    7  C5  UNL     1      -2.211   1.744  -1.348  1.00  0.00     0.100 C 
ATOM      8  H1  UNL     1      -2.336   1.699   0.617  1.00  0.00     0.159 HD
BRANCH   7   9
HETATM    9  C6  UNL     1      -2.952   2.981  -1.598  1.00  0.00     0.164 C 
HETATM   10 BR1  UNL     1      -4.647   2.420  -2.407  1.00  0.00    -0.054 Br
HETATM   11 BR2  UNL     1      -2.093   4.137  -2.892  1.00  0.00    -0.054 Br
HETATM   12 BR3  UNL     1      -3.389   3.925   0.014  1.00  0.00    -0.054 Br
ENDBRANCH   7   9
ENDBRANCH   2   6
ENDBRANCH   1   2
BRANCH   1  13
HETATM   13  O1  UNL     1       0.133   1.004   1.644  1.00  0.00    -0.368 OA
ATOM     14  H1  UNL     1       1.008   1.230   1.937  1.00  0.00     0.212 HD
ENDBRANCH   1  13
BRANCH   1  15
HETATM   15  N2  UNL     1       1.028  -0.713   0.366  1.00  0.00    -0.035 N 
ATOM     16  H22 UNL     1       1.042  -1.222   1.250  1.00  0.00     0.281 HD
ATOM     17  H21 UNL     1       0.673  -1.453  -0.240  1.00  0.00     0.281 HD
BRANCH  15  18
HETATM   18  C8  UNL     1       2.379  -0.300  -0.032  1.00  0.00     0.277 C 
BRANCH  18  19
HETATM   19  C9  UNL     1       3.014   0.548   1.015  1.00  0.00     0.038 C 
HETATM   20  C10 UNL     1       4.401   0.949   0.635  1.00  0.00     0.007 C 
ENDBRANCH  18  19
BRANCH  18  21
HETATM   21  C11 UNL     1       3.165  -1.475  -0.440  1.00  0.00     0.262 C 
HETATM   22  N3  UNL     1       4.061  -1.454  -1.556  1.00  0.00    -0.060 NA
HETATM   23  O2  UNL     1       3.062  -2.548   0.192  1.00  0.00    -0.275 OA
ENDBRANCH  18  21
ENDBRANCH  15  18
ENDBRANCH   1  15
TORSDOF 10
