REMARK  10 active torsions:
REMARK  status: ('A' for Active; 'I' for Inactive)
REMARK    1  A    between atoms: N1_2  and  S1_4 
REMARK    2  A    between atoms: S1_4  and  N2_6 
REMARK    3  A    between atoms: S1_4  and  C9_19 
REMARK    4  A    between atoms: N2_6  and  C2_8 
REMARK    5  A    between atoms: C2_8  and  C3_9 
REMARK    6  A    between atoms: C3_9  and  C4_10 
REMARK    7  A    between atoms: C4_10  and  C5_11 
REMARK    8  A    between atoms: C5_11  and  C6_12 
REMARK    9  A    between atoms: C6_12  and  C7_13 
REMARK   10  A    between atoms: C7_13  and  N3_14 
ROOT
HETATM    1  S1  UNL     1      -3.069   0.588   0.437  1.00  0.00     0.137 S 
HETATM    2  O1  UNL     1      -3.441   1.795  -0.455  1.00  0.00    -0.223 OA
ENDROOT
BRANCH   1   3
HETATM    3  N1  UNL     1      -3.368   1.085   1.895  1.00  0.00    -0.336 N 
HETATM    4  C1  UNL     1      -3.568   2.473   2.148  1.00  0.00     0.158 C 
ATOM      5  H1  UNL     1      -3.419   0.414   2.662  1.00  0.00     0.170 HD
ENDBRANCH   1   3
BRANCH   1   6
HETATM    6  N2  UNL     1      -1.411   0.399   0.281  1.00  0.00    -0.332 N 
ATOM      7  H2  UNL     1      -0.790   0.514   1.082  1.00  0.00     0.170 HD
BRANCH   6   8
HETATM    8  C2  UNL     1      -0.890   0.067  -1.026  1.00  0.00     0.131 C 
BRANCH   8   9
HETATM    9  C3  UNL     1      -0.052   1.194  -1.542  1.00  0.00     0.020 C 
BRANCH   9  10
HETATM   10  C4  UNL     1       1.130   1.635  -0.830  1.00  0.00     0.002 C 
BRANCH  10  11
HETATM   11  C5  UNL     1       2.275   0.619  -0.828  1.00  0.00     0.005 C 
BRANCH  11  12
HETATM   12  C6  UNL     1       3.432   1.271  -0.088  1.00  0.00     0.044 C 
BRANCH  12  13
HETATM   13  C7  UNL     1       4.718   0.602  -0.086  1.00  0.00     0.063 C 
BRANCH  13  14
HETATM   14  N3  UNL     1       4.828  -0.726   0.488  1.00  0.00    -0.347 N 
HETATM   15  C8  UNL     1       6.016  -1.287   0.499  1.00  0.00     0.200 C 
HETATM   16  N4  UNL     1       6.215  -2.564   1.028  1.00  0.00    -0.067 NA
HETATM   17  N5  UNL     1       7.085  -0.518  -0.071  1.00  0.00    -0.067 NA
ATOM     18  H3  UNL     1       4.013  -1.206   0.869  1.00  0.00     0.167 HD
ENDBRANCH  13  14
ENDBRANCH  12  13
ENDBRANCH  11  12
ENDBRANCH  10  11
ENDBRANCH   9  10
ENDBRANCH   8   9
ENDBRANCH   6   8
ENDBRANCH   1   6
BRANCH   1  19
HETATM   19  C9  UNL     1      -4.153  -0.670   0.053  1.00  0.00     0.097 A 
HETATM   20  C10 UNL     1      -4.522  -1.648   0.990  1.00  0.00     0.058 A 
HETATM   21 CL1  UNL     1      -3.830  -1.605   2.593  1.00  0.00    -0.083 Cl
HETATM   22  C11 UNL     1      -5.434  -2.617   0.668  1.00  0.00     0.049 A 
HETATM   23  C12 UNL     1      -6.036  -2.698  -0.573  1.00  0.00     0.037 A 
HETATM   24 CL2  UNL     1      -7.206  -3.947  -0.969  1.00  0.00    -0.084 Cl
HETATM   25  C13 UNL     1      -5.694  -1.763  -1.488  1.00  0.00     0.044 A 
HETATM   26  C14 UNL     1      -4.762  -0.761  -1.173  1.00  0.00     0.036 A 
HETATM   27 BR1  UNL     1      -4.438   0.518  -2.575  1.00  0.00    -0.049 Br
ENDBRANCH   1  19
TORSDOF 10
