REMARK  8 active torsions:
REMARK  status: ('A' for Active; 'I' for Inactive)
REMARK    1  A    between atoms: N1_2  and  S1_4 
REMARK    2  A    between atoms: S1_4  and  N2_7 
REMARK    3  A    between atoms: N2_7  and  C2_9 
REMARK    4  A    between atoms: C2_9  and  C3_10 
REMARK    5  A    between atoms: C3_10  and  C4_12 
REMARK    6  A    between atoms: C4_12  and  N3_13 
REMARK    7  A    between atoms: N3_13  and  C5_16 
REMARK    8  A    between atoms: C5_16  and  C6_17 
ROOT
HETATM    1  C4  UNL     1      -0.540   0.746  -0.597  1.00  0.00     0.250 C 
ENDROOT
BRANCH   1   2
HETATM    2  C3  UNL     1       0.756   1.061   0.080  1.00  0.00     0.102 C 
HETATM    3 BR1  UNL     1       0.519   0.837   2.028  1.00  0.00    -0.088 Br
BRANCH   2   4
HETATM    4  C2  UNL     1       1.819   0.088  -0.293  1.00  0.00     0.151 C 
BRANCH   4   5
HETATM    5  N2  UNL     1       3.087   0.307   0.404  1.00  0.00    -0.302 N 
ATOM      6  H2  UNL     1       3.281   1.020   1.107  1.00  0.00     0.173 HD
BRANCH   5   7
HETATM    7  S1  UNL     1       4.197  -0.884  -0.199  1.00  0.00     0.314 S 
HETATM    8  O1  UNL     1       3.620  -1.528  -1.466  1.00  0.00    -0.183 OA
HETATM    9  O2  UNL     1       4.359  -1.953   0.810  1.00  0.00    -0.183 OA
BRANCH   7  10
HETATM   10  N1  UNL     1       5.680  -0.148  -0.697  1.00  0.00    -0.307 N 
HETATM   11  C1  UNL     1       6.559  -0.234   0.466  1.00  0.00     0.161 C 
ATOM     12  H1  UNL     1       5.895   0.259  -1.607  1.00  0.00     0.173 HD
ENDBRANCH   7  10
ENDBRANCH   5   7
ENDBRANCH   4   5
ENDBRANCH   2   4
ENDBRANCH   1   2
BRANCH   1  13
HETATM   13  N3  UNL     1      -1.054  -0.526  -0.130  1.00  0.00    -0.070 N 
ATOM     14  H32 UNL     1      -0.358  -1.270  -0.187  1.00  0.00     0.277 HD
ATOM     15  H31 UNL     1      -1.196  -0.539   0.880  1.00  0.00     0.277 HD
BRANCH  13  16
HETATM   16  C5  UNL     1      -2.275  -0.850  -0.867  1.00  0.00     0.270 C 
BRANCH  16  17
HETATM   17  C6  UNL     1      -3.482  -0.463  -0.089  1.00  0.00    -0.031 A 
HETATM   18  C7  UNL     1      -3.738  -0.796   1.189  1.00  0.00     0.010 A 
HETATM   19  C8  UNL     1      -4.868  -0.323   1.857  1.00  0.00     0.026 A 
HETATM   20  C9  UNL     1      -5.720   0.501   1.168  1.00  0.00     0.051 A 
HETATM   21 CL1  UNL     1      -7.148   1.149   1.942  1.00  0.00    -0.083 Cl
HETATM   22  C10 UNL     1      -5.487   0.857  -0.128  1.00  0.00     0.033 A 
HETATM   23 BR2  UNL     1      -6.661   2.004  -1.100  1.00  0.00    -0.049 Br
HETATM   24  C11 UNL     1      -4.370   0.377  -0.760  1.00  0.00     0.029 A 
ENDBRANCH  16  17
ENDBRANCH  13  16
ENDBRANCH   1  13
TORSDOF 8
