REMARK  13 active torsions:
REMARK  status: ('A' for Active; 'I' for Inactive)
REMARK    1  A    between atoms: C1_2  and  C2_3 
REMARK    2  A    between atoms: C2_3  and  C3_4 
REMARK    3  A    between atoms: C3_4  and  N2_5 
REMARK       I    between atoms: N2_5  and  C4_7 
REMARK    4  A    between atoms: C4_7  and  C5_9 
REMARK    5  A    between atoms: N3_12  and  C8_13 
REMARK    6  A    between atoms: C8_13  and  C9_14 
REMARK    7  A    between atoms: C9_14  and  C10_15 
REMARK    8  A    between atoms: C10_15  and  C11_16 
REMARK    9  A    between atoms: C11_16  and  C12_17 
REMARK   10  A    between atoms: C12_17  and  C13_18 
REMARK   11  A    between atoms: C13_18  and  C14_19 
REMARK   12  A    between atoms: C14_19  and  N4_20 
REMARK   13  A    between atoms: N5_31  and  O2_33 
ROOT
HETATM    1  C5  UNL     1      -3.143   1.300   0.800  1.00  0.00     0.034 A 
HETATM    2  C6  UNL     1      -2.871   2.214  -0.188  1.00  0.00     0.034 A 
HETATM    3  C7  UNL     1      -1.601   2.736  -0.389  1.00  0.00     0.091 A 
HETATM    4  N3  UNL     1      -0.563   2.372   0.379  1.00  0.00    -0.366 N 
HETATM    5  C20 UNL     1      -0.816   1.477   1.351  1.00  0.00     0.091 A 
HETATM    6  C21 UNL     1      -2.047   0.934   1.590  1.00  0.00     0.034 A 
ENDROOT
BRANCH   4   7
HETATM    7  C8  UNL     1       0.771   2.905   0.197  1.00  0.00     0.128 C 
BRANCH   7   8
HETATM    8  C9  UNL     1       1.628   2.135  -0.748  1.00  0.00     0.020 C 
BRANCH   8   9
HETATM    9  C10 UNL     1       1.821   0.713  -0.289  1.00  0.00     0.002 C 
BRANCH   9  10
HETATM   10  C11 UNL     1       2.695  -0.097  -1.236  1.00  0.00     0.000 C 
BRANCH  10  11
HETATM   11  C12 UNL     1       4.063   0.518  -1.356  1.00  0.00     0.002 C 
BRANCH  11  12
HETATM   12  C13 UNL     1       4.973  -0.232  -2.256  1.00  0.00     0.020 C 
BRANCH  12  13
HETATM   13  C14 UNL     1       5.323  -1.624  -1.876  1.00  0.00     0.128 C 
BRANCH  13  14
HETATM   14  N4  UNL     1       6.037  -1.755  -0.622  1.00  0.00    -0.363 N 
HETATM   15  C15 UNL     1       5.402  -1.944   0.532  1.00  0.00     0.117 A 
HETATM   16  C16 UNL     1       6.039  -2.067   1.762  1.00  0.00     0.089 A 
HETATM   17 CL1  UNL     1       5.138  -2.315   3.244  1.00  0.00    -0.080 Cl
HETATM   18  C17 UNL     1       7.412  -1.987   1.780  1.00  0.00     0.162 A 
HETATM   19  F1  UNL     1       8.117  -2.096   2.937  1.00  0.00    -0.202 F 
HETATM   20  C18 UNL     1       8.077  -1.792   0.594  1.00  0.00     0.089 A 
HETATM   21 CL2  UNL     1       9.835  -1.690   0.615  1.00  0.00    -0.080 Cl
HETATM   22  C19 UNL     1       7.398  -1.678  -0.591  1.00  0.00     0.117 A 
ENDBRANCH  13  14
ENDBRANCH  12  13
ENDBRANCH  11  12
ENDBRANCH  10  11
ENDBRANCH   9  10
ENDBRANCH   8   9
ENDBRANCH   7   8
ENDBRANCH   4   7
BRANCH   1  23
HETATM   23  C4  UNL     1      -4.448   0.712   1.069  1.00  0.00     0.251 C 
HETATM   24  N2  UNL     1      -5.588   1.108   0.345  1.00  0.00    -0.356 N 
ATOM     25  H2  UNL     1      -5.483   1.824  -0.374  1.00  0.00     0.162 HD
HETATM   26  O1  UNL     1      -4.517  -0.175   1.986  1.00  0.00    -0.268 OA
BRANCH  24  27
HETATM   27  C3  UNL     1      -6.888   0.552   0.571  1.00  0.00     0.130 C 
BRANCH  27  28
HETATM   28  C2  UNL     1      -6.896  -0.916   0.289  1.00  0.00     0.094 C 
BRANCH  28  29
HETATM   29  C1  UNL     1      -8.237  -1.513   0.513  1.00  0.00     0.114 C 
HETATM   30  N1  UNL     1      -9.337  -1.049  -0.232  1.00  0.00    -0.086 NA
HETATM   31  N5  UNL     1      -8.363  -2.441   1.383  1.00  0.00    -0.259 N 
ATOM     32  H5  UNL     1      -9.288  -2.845   1.529  1.00  0.00     0.195 HD
BRANCH  31  33
HETATM   33  O2  UNL     1      -7.320  -2.922   2.130  1.00  0.00    -0.289 OA
ATOM     34  H2  UNL     1      -7.414  -3.612   2.777  1.00  0.00     0.244 HD
ENDBRANCH  31  33
ENDBRANCH  28  29
ENDBRANCH  27  28
ENDBRANCH  24  27
ENDBRANCH   1  23
TORSDOF 13
