REMARK  12 active torsions:
REMARK  status: ('A' for Active; 'I' for Inactive)
REMARK    1  A    between atoms: N3_4  and  C2_6 
REMARK    2  A    between atoms: C2_6  and  C3_7 
REMARK    3  A    between atoms: C3_7  and  C4_8 
REMARK    4  A    between atoms: C4_8  and  C5_9 
REMARK    5  A    between atoms: C5_9  and  C6_10 
REMARK    6  A    between atoms: C9_14  and  C10_15 
REMARK    7  A    between atoms: C10_15  and  C11_16 
REMARK    8  A    between atoms: C11_16  and  N4_17 
REMARK       I    between atoms: N4_17  and  C12_19 
REMARK    9  A    between atoms: C12_19  and  C13_21 
REMARK   10  A    between atoms: C13_21  and  C14_22 
REMARK   11  A    between atoms: C14_22  and  N5_23 
REMARK       I    between atoms: N5_23  and  C15_25 
REMARK   12  A    between atoms: C15_25  and  C16_27 
ROOT
HETATM    1  C6  UNL     1       2.944   1.192  -0.014  1.00  0.00    -0.032 A 
HETATM    2  C7  UNL     1       2.316   2.197   0.743  1.00  0.00     0.051 A 
HETATM    3  C8  UNL     1       1.182   1.922   1.465  1.00  0.00     0.125 A 
HETATM    4  F1  UNL     1       0.638   2.933   2.184  1.00  0.00    -0.205 F 
HETATM    5  C9  UNL     1       0.578   0.659   1.505  1.00  0.00     0.005 A 
HETATM    6  C20 UNL     1       1.198  -0.310   0.768  1.00  0.00     0.065 A 
HETATM    7 CL1  UNL     1       0.621  -1.973   0.762  1.00  0.00    -0.082 Cl
HETATM    8  C21 UNL     1       2.357  -0.039   0.024  1.00  0.00     0.062 A 
HETATM    9 CL2  UNL     1       3.047  -1.335  -0.959  1.00  0.00    -0.082 Cl
ENDROOT
BRANCH   5  10
HETATM   10  C10 UNL     1      -0.623   0.452   2.327  1.00  0.00     0.063 C 
BRANCH  10  11
HETATM   11  C11 UNL     1      -1.851   1.146   1.871  1.00  0.00     0.127 C 
BRANCH  11  12
HETATM   12  N4  UNL     1      -2.344   0.757   0.582  1.00  0.00    -0.360 N 
HETATM   13  C12 UNL     1      -2.851  -0.531   0.311  1.00  0.00     0.222 C 
HETATM   14  O1  UNL     1      -2.885  -1.387   1.262  1.00  0.00    -0.273 OA
ATOM     15  H4  UNL     1      -2.327   1.443  -0.173  1.00  0.00     0.162 HD
BRANCH  13  16
HETATM   16  C13 UNL     1      -3.327  -0.894  -1.002  1.00  0.00     0.147 C 
BRANCH  16  17
HETATM   17  C14 UNL     1      -4.454  -1.859  -1.027  1.00  0.00     0.073 C 
BRANCH  17  18
HETATM   18  N5  UNL     1      -5.736  -1.428  -0.631  1.00  0.00    -0.340 N 
HETATM   19  C15 UNL     1      -6.354  -0.903   0.484  1.00  0.00     0.225 C 
HETATM   20  O2  UNL     1      -5.812  -0.655   1.574  1.00  0.00    -0.273 OA
ATOM     21  H5  UNL     1      -6.404  -1.536  -1.395  1.00  0.00     0.167 HD
BRANCH  19  22
HETATM   22  C16 UNL     1      -7.835  -0.559   0.479  1.00  0.00     0.078 C 
HETATM   23  C17 UNL     1      -8.040   0.475  -0.604  1.00  0.00     0.014 C 
HETATM   24  C18 UNL     1      -9.184  -0.359  -1.134  1.00  0.00     0.002 C 
HETATM   25  C19 UNL     1      -8.698  -1.499  -0.283  1.00  0.00     0.014 C 
ENDBRANCH  19  22
ENDBRANCH  17  18
ENDBRANCH  16  17
ENDBRANCH  13  16
ENDBRANCH  11  12
ENDBRANCH  10  11
ENDBRANCH   5  10
BRANCH   1  26
HETATM   26  C5  UNL     1       4.187   1.562  -0.716  1.00  0.00     0.040 C 
BRANCH  26  27
HETATM   27  C4  UNL     1       5.449   1.341   0.027  1.00  0.00     0.006 C 
BRANCH  27  28
HETATM   28  C3  UNL     1       5.794  -0.034   0.456  1.00  0.00     0.020 C 
BRANCH  28  29
HETATM   29  C2  UNL     1       7.142   0.040   1.209  1.00  0.00     0.122 C 
BRANCH  29  30
HETATM   30  N3  UNL     1       8.152   0.563   0.341  1.00  0.00    -0.367 N 
HETATM   31  C1  UNL     1       8.984  -0.207  -0.249  1.00  0.00     0.196 C 
HETATM   32  N1  UNL     1       8.904  -1.615  -0.037  1.00  0.00    -0.067 NA
HETATM   33  N2  UNL     1       9.967   0.359  -1.103  1.00  0.00    -0.067 NA
ATOM     34  H3  UNL     1       8.209   1.570   0.190  1.00  0.00     0.161 HD
ENDBRANCH  29  30
ENDBRANCH  28  29
ENDBRANCH  27  28
ENDBRANCH  26  27
ENDBRANCH   1  26
TORSDOF 12
