REMARK  11 active torsions:
REMARK  status: ('A' for Active; 'I' for Inactive)
REMARK    1  A    between atoms: O1_2  and  C2_3 
REMARK    2  A    between atoms: C7_10  and  C8_11 
REMARK    3  A    between atoms: C8_11  and  C9_12 
REMARK    4  A    between atoms: C9_12  and  C10_13 
REMARK    5  A    between atoms: C10_13  and  N1_14 
REMARK       I    between atoms: N1_14  and  C11_16 
REMARK       I    between atoms: C11_16  and  N5_24 
REMARK       I    between atoms: N2_17  and  C12_19 
REMARK    6  A    between atoms: N5_24  and  C13_26 
REMARK    7  A    between atoms: C13_26  and  C14_27 
REMARK    8  A    between atoms: C14_27  and  C15_28 
REMARK    9  A    between atoms: C15_28  and  O2_29 
REMARK   10  A    between atoms: O2_29  and  C16_30 
REMARK   11  A    between atoms: C16_30  and  C17_31 
ROOT
HETATM    1  N1  UNL     1       0.271  -0.544  -0.364  1.00  0.00    -0.226 N 
ATOM      2  H1  UNL     1       0.480   0.389  -0.010  1.00  0.00     0.177 HD
HETATM    3  C11 UNL     1       1.306  -1.535  -0.456  1.00  0.00     0.676 C 
HETATM    4  N2  UNL     1       1.652  -1.971  -1.612  1.00  0.00    -0.164 N 
ATOM      5  H2  UNL     1       1.155  -1.575  -2.410  1.00  0.00     0.187 HD
HETATM    6  C12 UNL     1       2.627  -2.922  -1.904  1.00  0.00     0.200 C 
HETATM    7  N3  UNL     1       3.412  -2.753  -2.920  1.00  0.00    -0.373 N 
ATOM      8  H31 UNL     1       4.126  -3.449  -3.134  1.00  0.00     0.158 HD
ATOM      9  H32 UNL     1       3.244  -1.898  -3.450  1.00  0.00     0.158 HD
HETATM   10  N4  UNL     1       2.862  -4.120  -1.161  1.00  0.00    -0.063 NA
HETATM   11  N5  UNL     1       1.923  -2.059   0.702  1.00  0.00    -0.226 N 
ATOM     12  H5  UNL     1       1.761  -3.052   0.870  1.00  0.00     0.177 HD
ENDROOT
BRANCH   1  13
HETATM   13  C10 UNL     1      -1.065  -0.884  -0.778  1.00  0.00     0.138 C 
BRANCH  13  14
HETATM   14  C9  UNL     1      -2.061   0.221  -0.566  1.00  0.00     0.025 C 
BRANCH  14  15
HETATM   15  C8  UNL     1      -3.438  -0.221  -1.026  1.00  0.00     0.045 C 
BRANCH  15  16
HETATM   16  C7  UNL     1      -4.471   0.819  -0.820  1.00  0.00    -0.002 A 
HETATM   17  C2  UNL     1      -4.985   1.064   0.449  1.00  0.00     0.076 A 
HETATM   18  C3  UNL     1      -5.951   2.016   0.691  1.00  0.00     0.039 A 
HETATM   19  C4  UNL     1      -6.426   2.755  -0.367  1.00  0.00     0.024 A 
HETATM   20  C5  UNL     1      -5.944   2.545  -1.643  1.00  0.00     0.033 A 
HETATM   21 BR1  UNL     1      -6.649   3.608  -3.063  1.00  0.00    -0.049 Br
HETATM   22  C6  UNL     1      -4.967   1.575  -1.858  1.00  0.00     0.060 A 
HETATM   23 CL1  UNL     1      -4.408   1.366  -3.506  1.00  0.00    -0.082 Cl
BRANCH  17  24
HETATM   24  O1  UNL     1      -4.506   0.323   1.502  1.00  0.00    -0.355 OA
HETATM   25  C1  UNL     1      -5.005   0.546   2.799  1.00  0.00     0.210 C 
ENDBRANCH  17  24
ENDBRANCH  15  16
ENDBRANCH  14  15
ENDBRANCH  13  14
ENDBRANCH   1  13
BRANCH  11  26
HETATM   26  C13 UNL     1       2.733  -1.409   1.664  1.00  0.00     0.140 C 
BRANCH  26  27
HETATM   27  C14 UNL     1       4.086  -0.952   1.277  1.00  0.00     0.046 C 
BRANCH  27  28
HETATM   28  C15 UNL     1       4.182   0.092   0.216  1.00  0.00     0.169 C 
BRANCH  28  29
HETATM   29  O2  UNL     1       5.559   0.355   0.015  1.00  0.00    -0.389 OA
BRANCH  29  30
HETATM   30  C16 UNL     1       5.789   1.295  -0.958  1.00  0.00     0.199 C 
BRANCH  30  31
HETATM   31  C17 UNL     1       5.167   2.642  -0.666  1.00  0.00     0.248 C 
HETATM   32  F1  UNL     1       5.661   3.149   0.507  1.00  0.00    -0.253 F 
ENDBRANCH  30  31
ENDBRANCH  29  30
ENDBRANCH  28  29
ENDBRANCH  27  28
ENDBRANCH  26  27
ENDBRANCH  11  26
TORSDOF 11
