REMARK  12 active torsions:
REMARK  status: ('A' for Active; 'I' for Inactive)
REMARK    1  A    between atoms: C2_2  and  C3_3 
REMARK    2  A    between atoms: C3_3  and  C4_4 
REMARK    3  A    between atoms: C4_4  and  N1_5 
REMARK    4  A    between atoms: N1_5  and  C5_8 
REMARK    5  A    between atoms: C5_8  and  C6_9 
REMARK    6  A    between atoms: C6_9  and  C7_10 
REMARK    7  A    between atoms: C7_10  and  C8_11 
REMARK    8  A    between atoms: C8_11  and  N2_12 
REMARK    9  A    between atoms: N2_12  and  C9_14 
REMARK   10  A    between atoms: C9_14  and  C10_15 
REMARK   11  A    between atoms: C10_15  and  N3_16 
REMARK       I    between atoms: N3_16  and  C11_18 
REMARK   12  A    between atoms: C11_18  and  C12_20 
ROOT
HETATM    1  C9  UNL     1       2.229  -0.255  -1.721  1.00  0.00     0.133 C 
ENDROOT
BRANCH   1   2
HETATM    2  N2  UNL     1       0.827  -0.293  -1.930  1.00  0.00    -0.420 N 
ATOM      3  H2  UNL     1       0.366  -1.139  -2.265  1.00  0.00     0.153 HD
BRANCH   2   4
HETATM    4  C8  UNL     1       0.083   0.893  -1.655  1.00  0.00     0.113 C 
BRANCH   4   5
HETATM    5  C7  UNL     1      -1.360   0.703  -2.011  1.00  0.00     0.021 C 
BRANCH   5   6
HETATM    6  C6  UNL     1      -2.032  -0.407  -1.255  1.00  0.00     0.029 C 
BRANCH   6   7
HETATM    7  C5  UNL     1      -3.477  -0.578  -1.692  1.00  0.00     0.232 C 
BRANCH   7   8
HETATM    8  N1  UNL     1      -4.200   0.616  -1.464  1.00  0.00    -0.075 N 
ATOM      9  H12 UNL     1      -5.084   0.605  -1.973  1.00  0.00     0.277 HD
ATOM     10  H11 UNL     1      -3.748   1.405  -1.926  1.00  0.00     0.277 HD
BRANCH   8  11
HETATM   11  C4  UNL     1      -4.417   0.898  -0.085  1.00  0.00     0.232 C 
BRANCH  11  12
HETATM   12  C3  UNL     1      -5.386  -0.085   0.530  1.00  0.00     0.027 C 
BRANCH  12  13
HETATM   13  C2  UNL     1      -5.586   0.278   1.983  1.00  0.00    -0.003 C 
HETATM   14  C1  UNL     1      -6.578  -0.724   2.545  1.00  0.00     0.005 C 
ENDBRANCH  12  13
ENDBRANCH  11  12
ENDBRANCH   8  11
ENDBRANCH   7   8
ENDBRANCH   6   7
ENDBRANCH   5   6
ENDBRANCH   4   5
ENDBRANCH   2   4
ENDBRANCH   1   2
BRANCH   1  15
HETATM   15  C10 UNL     1       2.598  -0.128  -0.278  1.00  0.00     0.142 C 
BRANCH  15  16
HETATM   16  N3  UNL     1       4.039  -0.143  -0.126  1.00  0.00    -0.354 N 
HETATM   17  C11 UNL     1       4.689  -0.022   1.132  1.00  0.00     0.270 C 
HETATM   18  O1  UNL     1       4.037   0.116   2.175  1.00  0.00    -0.266 OA
ATOM     19  H3  UNL     1       4.614  -0.245  -0.962  1.00  0.00     0.162 HD
BRANCH  17  20
HETATM   20  C12 UNL     1       6.153  -0.066   1.168  1.00  0.00     0.125 A 
HETATM   21  N4  UNL     1       6.975  -0.247   0.114  1.00  0.00    -0.343 N 
HETATM   22  C13 UNL     1       8.251  -0.239   0.508  1.00  0.00     0.099 A 
ATOM     23  H4  UNL     1       6.665  -0.372  -0.850  1.00  0.00     0.167 HD
HETATM   24 BR1  UNL     1       9.813  -0.454  -0.554  1.00  0.00    -0.030 Br
HETATM   25  C14 UNL     1       8.245  -0.046   1.865  1.00  0.00     0.069 A 
HETATM   26 BR2  UNL     1       9.831   0.044   2.951  1.00  0.00    -0.046 Br
HETATM   27  C15 UNL     1       6.928   0.064   2.289  1.00  0.00     0.086 A 
HETATM   28 CL1  UNL     1       6.396   0.319   3.917  1.00  0.00    -0.080 Cl
ENDBRANCH  17  20
ENDBRANCH  15  16
ENDBRANCH   1  15
TORSDOF 12
