REMARK  12 active torsions:
REMARK  status: ('A' for Active; 'I' for Inactive)
REMARK    1  A    between atoms: N3_4  and  C2_6 
REMARK    2  A    between atoms: C2_6  and  C3_7 
REMARK    3  A    between atoms: C3_7  and  C4_8 
REMARK    4  A    between atoms: C4_8  and  N4_9 
REMARK       I    between atoms: N4_9  and  C5_11 
REMARK    5  A    between atoms: C5_11  and  C6_13 
REMARK    6  A    between atoms: C6_13  and  C7_14 
REMARK    7  A    between atoms: C7_14  and  C8_15 
REMARK    8  A    between atoms: C8_15  and  C9_16 
REMARK    9  A    between atoms: C9_16  and  C10_17 
REMARK   10  A    between atoms: C10_17  and  N5_18 
REMARK   11  A    between atoms: N5_18  and  S1_20 
REMARK   12  A    between atoms: S1_20  and  C11_23 
ROOT
HETATM    1  C9  UNL     1       2.822   1.884   1.355  1.00  0.00     0.020 C 
ENDROOT
BRANCH   1   2
HETATM    2  C8  UNL     1       1.545   1.613   2.057  1.00  0.00     0.002 C 
BRANCH   2   3
HETATM    3  C7  UNL     1       0.529   0.917   1.238  1.00  0.00     0.009 C 
BRANCH   3   4
HETATM    4  C6  UNL     1      -0.789   0.748   2.048  1.00  0.00     0.103 C 
BRANCH   4   5
HETATM    5  C5  UNL     1      -1.739   0.049   1.159  1.00  0.00     0.217 C 
HETATM    6  N4  UNL     1      -3.038  -0.240   1.644  1.00  0.00    -0.361 N 
ATOM      7  H4  UNL     1      -3.272   0.044   2.595  1.00  0.00     0.162 HD
HETATM    8  O1  UNL     1      -1.366  -0.267   0.005  1.00  0.00    -0.274 OA
BRANCH   6   9
HETATM    9  C4  UNL     1      -4.047  -0.914   0.864  1.00  0.00     0.124 C 
BRANCH   9  10
HETATM   10  C3  UNL     1      -4.362  -0.105  -0.352  1.00  0.00     0.039 C 
BRANCH  10  11
HETATM   11  C2  UNL     1      -5.431  -0.773  -1.211  1.00  0.00     0.123 C 
BRANCH  11  12
HETATM   12  N3  UNL     1      -6.661  -0.956  -0.504  1.00  0.00    -0.367 N 
HETATM   13  C1  UNL     1      -7.833  -0.851  -1.031  1.00  0.00     0.196 C 
HETATM   14  N1  UNL     1      -7.920  -0.534  -2.402  1.00  0.00    -0.067 NA
HETATM   15  N2  UNL     1      -8.957  -1.064  -0.188  1.00  0.00    -0.067 NA
ATOM     16  H3  UNL     1      -6.607  -1.186   0.488  1.00  0.00     0.161 HD
ENDBRANCH  11  12
ENDBRANCH  10  11
ENDBRANCH   9  10
ENDBRANCH   6   9
ENDBRANCH   4   5
ENDBRANCH   3   4
ENDBRANCH   2   3
ENDBRANCH   1   2
BRANCH   1  17
HETATM   17  C10 UNL     1       3.560   0.705   0.881  1.00  0.00     0.132 C 
BRANCH  17  18
HETATM   18  N5  UNL     1       2.955  -0.130  -0.103  1.00  0.00    -0.315 N 
ATOM     19  H5  UNL     1       2.036   0.015  -0.521  1.00  0.00     0.172 HD
BRANCH  18  20
HETATM   20  S1  UNL     1       4.028  -1.423  -0.471  1.00  0.00     0.260 S 
HETATM   21  O2  UNL     1       3.360  -2.309  -1.483  1.00  0.00    -0.200 OA
HETATM   22  O3  UNL     1       4.294  -2.162   0.809  1.00  0.00    -0.200 OA
BRANCH  20  23
HETATM   23  C11 UNL     1       5.501  -0.744  -1.123  1.00  0.00     0.104 A 
HETATM   24  C12 UNL     1       6.725  -0.919  -0.502  1.00  0.00     0.050 A 
HETATM   25  C13 UNL     1       7.877  -0.376  -1.019  1.00  0.00     0.037 A 
HETATM   26 CL1  UNL     1       9.438  -0.602  -0.224  1.00  0.00    -0.084 Cl
HETATM   27  C14 UNL     1       7.833   0.360  -2.178  1.00  0.00     0.049 A 
HETATM   28  C15 UNL     1       6.614   0.530  -2.788  1.00  0.00     0.059 A 
HETATM   29 CL2  UNL     1       6.509   1.464  -4.271  1.00  0.00    -0.082 Cl
HETATM   30  C16 UNL     1       5.431  -0.009  -2.285  1.00  0.00     0.079 A 
HETATM   31 CL3  UNL     1       3.930   0.268  -3.158  1.00  0.00    -0.081 Cl
ENDBRANCH  20  23
ENDBRANCH  18  20
ENDBRANCH  17  18
ENDBRANCH   1  17
TORSDOF 12
