REMARK  11 active torsions:
REMARK  status: ('A' for Active; 'I' for Inactive)
REMARK       I    between atoms: C1_2  and  N2_4 
REMARK    1  A    between atoms: C3_7  and  C4_8 
REMARK    2  A    between atoms: C4_8  and  C5_9 
REMARK    3  A    between atoms: C5_9  and  C6_10 
REMARK    4  A    between atoms: C6_10  and  N3_11 
REMARK    5  A    between atoms: N7_22  and  C10_23 
REMARK    6  A    between atoms: C10_23  and  C11_24 
REMARK    7  A    between atoms: C11_24  and  C12_25 
REMARK    8  A    between atoms: C12_25  and  C13_26 
REMARK    9  A    between atoms: C13_26  and  C14_27 
REMARK   10  A    between atoms: C14_27  and  C15_28 
REMARK   11  A    between atoms: C15_28  and  C16_29 
ROOT
HETATM    1  N1  UNL     1       1.547  -0.842  -3.463  1.00  0.00    -0.040 NA
HETATM    2  C1  UNL     1       1.090  -0.063  -2.371  1.00  0.00     0.334 C 
HETATM    3  O1  UNL     1       0.892   1.165  -2.607  1.00  0.00    -0.251 OA
HETATM    4  N2  UNL     1       0.867  -0.581  -1.124  1.00  0.00    -0.299 N 
ATOM      5  H2  UNL     1      -0.131  -0.625  -0.917  1.00  0.00     0.171 HD
HETATM    6  C2  UNL     1       1.544  -1.014  -0.171  1.00  0.00     0.121 C 
HETATM    7  C3  UNL     1       2.959  -1.177   0.078  1.00  0.00     0.254 C 
HETATM    8  N6  UNL     1       3.198  -2.636   0.100  1.00  0.00    -0.056 N 
ATOM      9  H61 UNL     1       4.193  -2.861   0.082  1.00  0.00     0.278 HD
ATOM     10  H62 UNL     1       2.929  -3.081  -0.778  1.00  0.00     0.278 HD
HETATM   11  C8  UNL     1       2.527  -3.232   1.239  1.00  0.00     0.336 C 
HETATM   12  C9  UNL     1       1.422  -2.450   1.783  1.00  0.00     0.251 C 
HETATM   13  O2  UNL     1       1.080  -2.578   2.977  1.00  0.00    -0.271 OA
HETATM   14  N7  UNL     1       0.739  -1.541   0.936  1.00  0.00    -0.304 N 
ENDROOT
BRANCH  14  15
HETATM   15  C10 UNL     1      -0.655  -1.152   1.104  1.00  0.00     0.133 C 
BRANCH  15  16
HETATM   16  C11 UNL     1      -1.575  -2.031   0.367  1.00  0.00     0.020 C 
BRANCH  16  17
HETATM   17  C12 UNL     1      -3.012  -1.874   0.400  1.00  0.00     0.002 C 
BRANCH  17  18
HETATM   18  C13 UNL     1      -3.662  -0.677  -0.175  1.00  0.00     0.000 C 
BRANCH  18  19
HETATM   19  C14 UNL     1      -3.288   0.611   0.415  1.00  0.00     0.005 C 
BRANCH  19  20
HETATM   20  C15 UNL     1      -4.089   1.779  -0.128  1.00  0.00     0.040 C 
BRANCH  20  21
HETATM   21  C16 UNL     1      -5.541   1.672   0.058  1.00  0.00    -0.035 A 
HETATM   22  C17 UNL     1      -6.123   2.021   1.291  1.00  0.00     0.011 A 
HETATM   23  C18 UNL     1      -7.453   1.857   1.546  1.00  0.00     0.026 A 
HETATM   24  C19 UNL     1      -8.319   1.335   0.604  1.00  0.00     0.057 A 
HETATM   25 CL1  UNL     1     -10.021   1.126   0.953  1.00  0.00    -0.082 Cl
HETATM   26  C20 UNL     1      -7.776   0.988  -0.611  1.00  0.00     0.078 A 
HETATM   27 CL2  UNL     1      -8.855   0.327  -1.825  1.00  0.00    -0.081 Cl
HETATM   28  C21 UNL     1      -6.406   1.160  -0.868  1.00  0.00     0.063 A 
HETATM   29 CL3  UNL     1      -5.850   0.786  -2.492  1.00  0.00    -0.082 Cl
ENDBRANCH  20  21
ENDBRANCH  19  20
ENDBRANCH  18  19
ENDBRANCH  17  18
ENDBRANCH  16  17
ENDBRANCH  15  16
ENDBRANCH  14  15
BRANCH   7  30
HETATM   30  C4  UNL     1       3.997  -0.537  -0.702  1.00  0.00     0.042 C 
BRANCH  30  31
HETATM   31  C5  UNL     1       4.132   0.923  -0.770  1.00  0.00     0.022 C 
BRANCH  31  32
HETATM   32  C6  UNL     1       4.374   1.581   0.580  1.00  0.00     0.122 C 
BRANCH  32  33
HETATM   33  N3  UNL     1       5.592   1.093   1.196  1.00  0.00    -0.367 N 
HETATM   34  C7  UNL     1       6.704   1.754   1.080  1.00  0.00     0.196 C 
HETATM   35  N4  UNL     1       7.912   1.296   1.675  1.00  0.00    -0.067 NA
HETATM   36  N5  UNL     1       6.762   2.977   0.343  1.00  0.00    -0.067 NA
ATOM     37  H3  UNL     1       5.576   0.222   1.726  1.00  0.00     0.161 HD
ENDBRANCH  32  33
ENDBRANCH  31  32
ENDBRANCH  30  31
ENDBRANCH   7  30
TORSDOF 11
