REMARK  12 active torsions:
REMARK  status: ('A' for Active; 'I' for Inactive)
REMARK    1  A    between atoms: N1_1  and  C1_5 
REMARK    2  A    between atoms: C1_5  and  C2_6 
REMARK    3  A    between atoms: C2_6  and  C3_7 
REMARK    4  A    between atoms: C3_7  and  C4_8 
REMARK    5  A    between atoms: C4_8  and  N2_9 
REMARK    6  A    between atoms: N2_9  and  C5_10 
REMARK       I    between atoms: N2_9  and  C14_29 
REMARK    7  A    between atoms: C5_10  and  C6_11 
REMARK    8  A    between atoms: C6_11  and  C7_12 
REMARK    9  A    between atoms: C7_12  and  C8_13 
REMARK   10  A    between atoms: C8_13  and  N3_14 
REMARK       I    between atoms: N3_14  and  C9_16 
REMARK       I    between atoms: C9_16  and  N5_20 
REMARK   11  A    between atoms: N5_20  and  C10_22 
REMARK   12  A    between atoms: C14_29  and  C15_31 
ROOT
HETATM    1  C7  UNL     1       0.665  -1.061   0.406  1.00  0.00     0.022 C 
ENDROOT
BRANCH   1   2
HETATM    2  C6  UNL     1      -0.157  -1.250  -0.803  1.00  0.00     0.021 C 
BRANCH   2   3
HETATM    3  C5  UNL     1      -1.505  -1.800  -0.526  1.00  0.00     0.126 C 
BRANCH   3   4
HETATM    4  N2  UNL     1      -2.266  -0.963   0.346  1.00  0.00    -0.351 N 
HETATM    5  C14 UNL     1      -2.421  -1.153   1.730  1.00  0.00     0.229 C 
HETATM    6  O1  UNL     1      -3.001  -0.210   2.381  1.00  0.00    -0.273 OA
BRANCH   4   7
HETATM    7  C4  UNL     1      -2.860   0.229  -0.299  1.00  0.00     0.126 C 
BRANCH   7   8
HETATM    8  C3  UNL     1      -4.249  -0.091  -0.751  1.00  0.00     0.022 C 
BRANCH   8   9
HETATM    9  C2  UNL     1      -4.864   1.120  -1.412  1.00  0.00     0.029 C 
BRANCH   9  10
HETATM   10  C1  UNL     1      -4.935   2.298  -0.466  1.00  0.00     0.229 C 
BRANCH  10  11
HETATM   11  N1  UNL     1      -5.741   1.947   0.680  1.00  0.00    -0.079 N 
ATOM     12  H13 UNL     1      -6.666   1.611   0.412  1.00  0.00     0.274 HD
ATOM     13  H12 UNL     1      -5.407   1.101   1.142  1.00  0.00     0.274 HD
ATOM     14  H11 UNL     1      -5.789   2.741   1.318  1.00  0.00     0.274 HD
ENDBRANCH  10  11
ENDBRANCH   9  10
ENDBRANCH   8   9
ENDBRANCH   7   8
ENDBRANCH   4   7
BRANCH   5  15
HETATM   15  C15 UNL     1      -1.973  -2.348   2.440  1.00  0.00     0.188 C 
HETATM   16 BR2  UNL     1      -2.503  -2.218   4.311  1.00  0.00    -0.087 Br
ENDBRANCH   5  15
ENDBRANCH   3   4
ENDBRANCH   2   3
ENDBRANCH   1   2
BRANCH   1  17
HETATM   17  C8  UNL     1       2.026  -0.488   0.054  1.00  0.00     0.138 C 
BRANCH  17  18
HETATM   18  N3  UNL     1       2.759  -1.353  -0.834  1.00  0.00    -0.226 N 
HETATM   19  C9  UNL     1       4.049  -0.962  -1.260  1.00  0.00     0.684 C 
HETATM   20  N4  UNL     1       4.341  -0.889  -2.501  1.00  0.00    -0.156 N 
HETATM   21  N5  UNL     1       5.000  -0.655  -0.238  1.00  0.00    -0.188 N 
HETATM   22 BR1  UNL     1       3.024  -1.312  -3.789  1.00  0.00     0.063 Br
ATOM     23  H4  UNL     1       5.276  -0.605  -2.794  1.00  0.00     0.192 HD
ATOM     24  H5  UNL     1       5.388  -1.419   0.315  1.00  0.00     0.184 HD
ATOM     25  H3  UNL     1       2.354  -2.234  -1.151  1.00  0.00     0.177 HD
BRANCH  21  26
HETATM   26  C10 UNL     1       5.424   0.662   0.037  1.00  0.00     0.089 A 
HETATM   27  C11 UNL     1       5.073   1.852  -0.544  1.00  0.00     0.050 A 
HETATM   28  C12 UNL     1       5.763   2.856   0.078  1.00  0.00     0.091 A 
HETATM   29  N6  UNL     1       6.527   2.326   1.021  1.00  0.00    -0.355 N 
HETATM   30  C13 UNL     1       6.335   1.000   1.011  1.00  0.00     0.130 A 
ATOM     31  H6  UNL     1       7.151   2.837   1.645  1.00  0.00     0.166 HD
HETATM   32 CL1  UNL     1       7.145  -0.132   2.100  1.00  0.00    -0.062 Cl
ENDBRANCH  21  26
ENDBRANCH  17  18
ENDBRANCH   1  17
TORSDOF 12
