REMARK  12 active torsions:
REMARK  status: ('A' for Active; 'I' for Inactive)
REMARK    1  A    between atoms: C3_4  and  C4_5 
REMARK    2  A    between atoms: C4_5  and  C5_6 
REMARK    3  A    between atoms: C5_6  and  C6_7 
REMARK       I    between atoms: C6_7  and  N2_9 
REMARK    4  A    between atoms: N2_9  and  C7_11 
REMARK    5  A    between atoms: C7_11  and  C8_12 
REMARK    6  A    between atoms: C8_12  and  C9_13 
REMARK    7  A    between atoms: C9_13  and  C10_14 
REMARK    8  A    between atoms: C10_14  and  C11_15 
REMARK    9  A    between atoms: C11_15  and  N3_16 
REMARK       I    between atoms: N3_16  and  C12_18 
REMARK       I    between atoms: C12_18  and  N4_20 
REMARK   10  A    between atoms: N4_20  and  C13_22 
REMARK   11  A    between atoms: C13_22  and  C14_23 
REMARK   12  A    between atoms: C14_23  and  N5_24 
ROOT
HETATM    1  N1  UNL     1       8.863   2.416   0.075  1.00  0.00    -0.191 NA
HETATM    2  C1  UNL     1       8.499   1.335  -0.139  1.00  0.00     0.103 C 
HETATM    3  C2  UNL     1       8.079  -0.023  -0.411  1.00  0.00     0.092 A 
HETATM    4  C3  UNL     1       6.955  -0.263  -1.168  1.00  0.00    -0.032 A 
HETATM    5  C19 UNL     1       6.637  -1.600  -1.402  1.00  0.00     0.031 A 
HETATM    6  C20 UNL     1       7.387  -2.640  -0.914  1.00  0.00     0.053 A 
HETATM    7 BR1  UNL     1       6.908  -4.466  -1.260  1.00  0.00    -0.048 Br
HETATM    8  C21 UNL     1       8.505  -2.382  -0.158  1.00  0.00     0.173 A 
HETATM    9  F1  UNL     1       9.228  -3.439   0.312  1.00  0.00    -0.201 F 
HETATM   10  C22 UNL     1       8.843  -1.081   0.087  1.00  0.00     0.177 A 
HETATM   11  F2  UNL     1       9.934  -0.798   0.824  1.00  0.00    -0.201 F 
ENDROOT
BRANCH   4  12
HETATM   12  C4  UNL     1       6.135   0.818  -1.724  1.00  0.00     0.049 C 
BRANCH  12  13
HETATM   13  C5  UNL     1       5.292   1.526  -0.739  1.00  0.00     0.107 C 
BRANCH  13  14
HETATM   14  C6  UNL     1       4.293   0.712  -0.041  1.00  0.00     0.217 C 
HETATM   15  O1  UNL     1       4.073  -0.501  -0.225  1.00  0.00    -0.274 OA
HETATM   16  N2  UNL     1       3.491   1.373   0.946  1.00  0.00    -0.361 N 
ATOM     17  H2  UNL     1       3.637   2.364   1.136  1.00  0.00     0.162 HD
BRANCH  16  18
HETATM   18  C7  UNL     1       2.493   0.658   1.663  1.00  0.00     0.122 C 
BRANCH  18  19
HETATM   19  C8  UNL     1       1.401   0.087   0.807  1.00  0.00     0.020 C 
BRANCH  19  20
HETATM   20  C9  UNL     1       0.707   1.210   0.063  1.00  0.00     0.003 C 
BRANCH  20  21
HETATM   21  C10 UNL     1       0.079   2.228   0.959  1.00  0.00     0.020 C 
BRANCH  21  22
HETATM   22  C11 UNL     1      -0.944   1.554   1.818  1.00  0.00     0.124 C 
BRANCH  22  23
HETATM   23  N3  UNL     1      -1.949   0.952   0.941  1.00  0.00    -0.343 N 
HETATM   24  C12 UNL     1      -3.055   0.237   1.475  1.00  0.00     0.316 C 
HETATM   25  O2  UNL     1      -3.186   0.115   2.743  1.00  0.00    -0.247 OA
HETATM   26  N4  UNL     1      -4.002  -0.334   0.607  1.00  0.00    -0.341 N 
ATOM     27  H4  UNL     1      -3.895  -0.235  -0.403  1.00  0.00     0.164 HD
ATOM     28  H3  UNL     1      -1.854   1.047  -0.070  1.00  0.00     0.164 HD
BRANCH  26  29
HETATM   29  C13 UNL     1      -5.123  -1.058   1.145  1.00  0.00     0.154 C 
BRANCH  29  30
HETATM   30  C14 UNL     1      -6.018  -1.594   0.050  1.00  0.00     0.292 C 
BRANCH  30  31
HETATM   31  N5  UNL     1      -6.562  -0.567  -0.783  1.00  0.00     0.090 N 
HETATM   32  C15 UNL     1      -7.513   0.286  -0.120  1.00  0.00     0.272 C 
HETATM   33  C16 UNL     1      -8.891  -0.124  -0.543  1.00  0.00     0.032 C 
HETATM   34  C17 UNL     1      -8.706  -1.273  -1.504  1.00  0.00     0.032 C 
HETATM   35  C18 UNL     1      -7.248  -1.208  -1.879  1.00  0.00     0.272 C 
ENDBRANCH  30  31
ENDBRANCH  29  30
ENDBRANCH  26  29
ENDBRANCH  22  23
ENDBRANCH  21  22
ENDBRANCH  20  21
ENDBRANCH  19  20
ENDBRANCH  18  19
ENDBRANCH  16  18
ENDBRANCH  13  14
ENDBRANCH  12  13
ENDBRANCH   4  12
TORSDOF 12
