REMARK  8 active torsions:
REMARK  status: ('A' for Active; 'I' for Inactive)
REMARK    1  A    between atoms: C1_2  and  C2_4 
REMARK    2  A    between atoms: C2_4  and  C3_5 
REMARK    3  A    between atoms: C3_5  and  C4_6 
REMARK       I    between atoms: C4_6  and  N2_8 
REMARK    4  A    between atoms: N2_8  and  C5_10 
REMARK    5  A    between atoms: C5_10  and  C6_11 
REMARK    6  A    between atoms: C13_21  and  C14_22 
REMARK    7  A    between atoms: C13_21  and  C15_25 
REMARK    8  A    between atoms: C14_22  and  O3_23 
ROOT
HETATM    1  C3  UNL     1      -0.153  -1.187  -0.093  1.00  0.00     0.051 C 
HETATM    2  C12 UNL     1      -1.243  -1.665  -0.974  1.00  0.00     0.034 C 
HETATM    3  C13 UNL     1      -2.553  -1.066  -0.572  1.00  0.00     0.016 C 
HETATM    4  C16 UNL     1      -2.192   0.101   0.256  1.00  0.00    -0.027 C 
HETATM    5  C17 UNL     1      -2.099   1.327  -0.641  1.00  0.00     0.016 C 
HETATM    6  C18 UNL     1      -1.991   2.599   0.197  1.00  0.00     0.080 C 
HETATM    7  C19 UNL     1      -3.347   2.890   0.798  1.00  0.00     0.243 C 
HETATM    8  F5  UNL     1      -3.277   3.527   2.003  1.00  0.00    -0.206 F 
HETATM    9  F6  UNL     1      -4.024   3.684  -0.116  1.00  0.00    -0.206 F 
HETATM   10  C20 UNL     1      -4.112   1.595   0.915  1.00  0.00     0.080 C 
HETATM   11  C21 UNL     1      -3.211   0.437   1.300  1.00  0.00     0.016 C 
HETATM   12  C22 UNL     1      -0.850  -0.246   0.854  1.00  0.00     0.030 C 
ENDROOT
BRANCH   1  13
HETATM   13  C2  UNL     1       0.525  -2.329   0.671  1.00  0.00     0.118 C 
BRANCH  13  14
HETATM   14  C1  UNL     1       1.184  -3.286  -0.218  1.00  0.00     0.232 C 
HETATM   15  N1  UNL     1       1.903  -4.430   0.252  1.00  0.00    -0.062 NA
HETATM   16  O1  UNL     1       1.152  -3.152  -1.463  1.00  0.00    -0.277 OA
ENDBRANCH  13  14
ENDBRANCH   1  13
BRANCH   1  17
HETATM   17  C4  UNL     1       0.934  -0.498  -0.851  1.00  0.00     0.230 C 
HETATM   18  O2  UNL     1       0.940  -0.370  -2.094  1.00  0.00    -0.272 OA
HETATM   19  N2  UNL     1       2.077   0.078  -0.183  1.00  0.00    -0.335 N 
ATOM     20  H2  UNL     1       2.150   0.016   0.832  1.00  0.00     0.168 HD
BRANCH  19  21
HETATM   21  C5  UNL     1       3.089   0.722  -0.913  1.00  0.00     0.108 C 
BRANCH  21  22
HETATM   22  C6  UNL     1       4.213   1.284  -0.194  1.00  0.00     0.057 A 
HETATM   23  C7  UNL     1       5.197   1.919  -0.997  1.00  0.00     0.134 A 
HETATM   24  F1  UNL     1       5.033   1.961  -2.335  1.00  0.00    -0.205 F 
HETATM   25  C8  UNL     1       6.312   2.495  -0.474  1.00  0.00     0.085 A 
HETATM   26  C9  UNL     1       6.536   2.485   0.888  1.00  0.00     0.122 A 
HETATM   27  F2  UNL     1       7.654   3.065   1.389  1.00  0.00    -0.206 F 
HETATM   28  C10 UNL     1       5.613   1.885   1.681  1.00  0.00     0.085 A 
HETATM   29  C11 UNL     1       4.474   1.298   1.134  1.00  0.00     0.134 A 
HETATM   30  F3  UNL     1       3.649   0.741   2.050  1.00  0.00    -0.205 F 
ENDBRANCH  21  22
ENDBRANCH  19  21
ENDBRANCH   1  17
BRANCH   3  31
HETATM   31  C14 UNL     1      -3.480  -2.075   0.055  1.00  0.00     0.176 C 
BRANCH  31  32
HETATM   32  O3  UNL     1      -3.039  -2.678   1.190  1.00  0.00    -0.400 OA
ATOM     33  H3  UNL     1      -3.623  -3.314   1.585  1.00  0.00     0.209 HD
ENDBRANCH  31  32
ENDBRANCH   3  31
BRANCH   3  34
HETATM   34  C15 UNL     1      -3.309  -0.650  -1.853  1.00  0.00     0.234 C 
HETATM   35  F4  UNL     1      -3.465  -1.852  -2.561  1.00  0.00    -0.255 F 
ENDBRANCH   3  34
TORSDOF 8
