REMARK  8 active torsions:
REMARK  status: ('A' for Active; 'I' for Inactive)
REMARK       I    between atoms: C1_4  and  N3_6 
REMARK    1  A    between atoms: C5_10  and  C6_11 
REMARK       I    between atoms: C6_11  and  N4_13 
REMARK    2  A    between atoms: N4_13  and  C7_15 
REMARK    3  A    between atoms: C7_15  and  C8_16 
REMARK    4  A    between atoms: C8_16  and  C9_17 
REMARK    5  A    between atoms: C9_17  and  C10_18 
REMARK    6  A    between atoms: C10_18  and  O2_19 
REMARK    7  A    between atoms: C10_18  and  C11_21 
REMARK    8  A    between atoms: C16_29  and  C17_30 
ROOT
HETATM    1  C9  UNL     1       2.153  -0.153  -1.342  1.00  0.00     0.067 C 
ENDROOT
BRANCH   1   2
HETATM    2  C8  UNL     1       0.654  -0.455  -1.343  1.00  0.00     0.026 C 
BRANCH   2   3
HETATM    3  C7  UNL     1       0.215  -1.492  -0.383  1.00  0.00     0.123 C 
BRANCH   3   4
HETATM    4  N4  UNL     1      -1.226  -1.730  -0.466  1.00  0.00    -0.359 N 
HETATM    5  C6  UNL     1      -2.180  -0.729  -0.193  1.00  0.00     0.240 C 
HETATM    6  O1  UNL     1      -1.824   0.424   0.142  1.00  0.00    -0.271 OA
ATOM      7  H4  UNL     1      -1.554  -2.658  -0.732  1.00  0.00     0.162 HD
BRANCH   5   8
HETATM    8  C5  UNL     1      -3.643  -0.979  -0.284  1.00  0.00     0.179 C 
HETATM    9  N3  UNL     1      -4.414   0.190   0.048  1.00  0.00    -0.342 N 
HETATM   10  C1  UNL     1      -4.292   1.502  -0.480  1.00  0.00     0.184 C 
HETATM   11  C2  UNL     1      -5.413  -0.146   1.068  1.00  0.00     0.126 C 
HETATM   12  N1  UNL     1      -4.107   1.681  -1.741  1.00  0.00    -0.374 N 
HETATM   13  N2  UNL     1      -4.372   2.633   0.367  1.00  0.00    -0.064 NA
ATOM     14  H12 UNL     1      -4.019   2.624  -2.120  1.00  0.00     0.158 HD
ATOM     15  H11 UNL     1      -4.049   0.866  -2.351  1.00  0.00     0.158 HD
HETATM   16  C3  UNL     1      -5.532  -1.660   0.941  1.00  0.00     0.022 C 
HETATM   17  C4  UNL     1      -4.100  -2.052   0.649  1.00  0.00     0.037 C 
ENDBRANCH   5   8
ENDBRANCH   3   4
ENDBRANCH   2   3
ENDBRANCH   1   2
BRANCH   1  18
HETATM   18  C10 UNL     1       2.678   0.392  -0.137  1.00  0.00     0.054 C 
BRANCH  18  19
HETATM   19  O2  UNL     1       1.858   0.539   0.873  1.00  0.00    -0.364 OA
ATOM     20  H2  UNL     1       2.209   0.903   1.678  1.00  0.00     0.217 HD
ENDBRANCH  18  19
BRANCH  18  21
HETATM   21  C11 UNL     1       4.000   0.847   0.187  1.00  0.00     0.010 A 
HETATM   22  C12 UNL     1       4.007   2.187   0.664  1.00  0.00     0.060 A 
HETATM   23  C13 UNL     1       5.173   2.799   1.003  1.00  0.00     0.159 A 
HETATM   24  F1  UNL     1       5.187   4.074   1.458  1.00  0.00    -0.203 F 
HETATM   25  C14 UNL     1       6.374   2.140   0.895  1.00  0.00     0.194 A 
HETATM   26  F2  UNL     1       7.549   2.743   1.232  1.00  0.00    -0.200 F 
HETATM   27  C15 UNL     1       6.362   0.849   0.435  1.00  0.00     0.169 A 
HETATM   28  F3  UNL     1       7.568   0.200   0.322  1.00  0.00    -0.202 F 
HETATM   29  C16 UNL     1       5.175   0.187   0.076  1.00  0.00     0.050 A 
BRANCH  29  30
HETATM   30  C17 UNL     1       5.310  -1.180  -0.420  1.00  0.00     0.220 C 
HETATM   31 CL1  UNL     1       4.252  -2.368   0.362  1.00  0.00    -0.078 Cl
HETATM   32 CL2  UNL     1       5.410  -1.282  -2.156  1.00  0.00    -0.078 Cl
HETATM   33 CL3  UNL     1       6.981  -1.742   0.146  1.00  0.00    -0.078 Cl
ENDBRANCH  29  30
ENDBRANCH  18  21
ENDBRANCH   1  18
TORSDOF 8
