REMARK  8 active torsions:
REMARK  status: ('A' for Active; 'I' for Inactive)
REMARK    1  A    between atoms: C1_2  and  C2_3 
REMARK       I    between atoms: C1_2  and  N2_23 
REMARK    2  A    between atoms: C2_3  and  C3_4 
REMARK    3  A    between atoms: C3_4  and  C4_5 
REMARK    4  A    between atoms: C3_4  and  C5_8 
REMARK    5  A    between atoms: C3_4  and  N1_10 
REMARK    6  A    between atoms: C4_5  and  O2_6 
REMARK       I    between atoms: N1_10  and  C6_12 
REMARK    7  A    between atoms: C6_12  and  C7_14 
REMARK    8  A    between atoms: N2_23  and  C13_25 
ROOT
HETATM    1  C3  UNL     1       0.369  -0.556   0.948  1.00  0.00     0.088 C 
ENDROOT
BRANCH   1   2
HETATM    2  C2  UNL     1      -0.757  -0.006   0.122  1.00  0.00     0.138 C 
BRANCH   2   3
HETATM    3  C1  UNL     1      -2.104  -0.418   0.375  1.00  0.00     0.220 C 
HETATM    4  O1  UNL     1      -2.542  -1.320   1.141  1.00  0.00    -0.274 OA
HETATM    5  N2  UNL     1      -3.157   0.270  -0.325  1.00  0.00    -0.356 N 
ATOM      6  H2  UNL     1      -2.892   1.016  -0.968  1.00  0.00     0.162 HD
BRANCH   5   7
HETATM    7  C13 UNL     1      -4.548  -0.022  -0.180  1.00  0.00     0.090 C 
HETATM    8  C14 UNL     1      -5.354   1.234   0.110  1.00  0.00     0.067 C 
HETATM    9  C15 UNL     1      -6.332   0.868  -0.987  1.00  0.00     0.117 C 
HETATM   10 CL4  UNL     1      -6.523   2.171  -2.165  1.00  0.00    -0.102 Cl
HETATM   11 CL5  UNL     1      -7.849   0.201  -0.392  1.00  0.00    -0.102 Cl
HETATM   12  C16 UNL     1      -5.321  -0.144  -1.478  1.00  0.00     0.067 C 
ENDBRANCH   5   7
ENDBRANCH   2   3
ENDBRANCH   1   2
BRANCH   1  13
HETATM   13  C4  UNL     1       0.438  -2.056   0.881  1.00  0.00     0.198 C 
BRANCH  13  14
HETATM   14  O2  UNL     1       0.457  -2.533  -0.427  1.00  0.00    -0.398 OA
ATOM     15  H2  UNL     1       0.501  -3.481  -0.469  1.00  0.00     0.209 HD
ENDBRANCH  13  14
ENDBRANCH   1  13
BRANCH   1  16
HETATM   16  C5  UNL     1       0.385  -0.106   2.363  1.00  0.00     0.255 C 
HETATM   17  F1  UNL     1      -0.750  -0.448   3.047  1.00  0.00    -0.253 F 
ENDBRANCH   1  16
BRANCH   1  18
HETATM   18  N1  UNL     1       1.579  -0.087   0.229  1.00  0.00    -0.343 N 
HETATM   19  C6  UNL     1       2.897  -0.292   0.608  1.00  0.00     0.255 C 
HETATM   20  O3  UNL     1       3.109  -0.958   1.680  1.00  0.00    -0.268 OA
ATOM     21  H1  UNL     1       1.426   0.439  -0.631  1.00  0.00     0.163 HD
BRANCH  19  22
HETATM   22  C7  UNL     1       4.105   0.149  -0.056  1.00  0.00     0.075 A 
HETATM   23  C8  UNL     1       5.313  -0.512   0.224  1.00  0.00     0.053 A 
HETATM   24 CL1  UNL     1       5.295  -1.849   1.327  1.00  0.00    -0.083 Cl
HETATM   25  C9  UNL     1       6.509  -0.159  -0.328  1.00  0.00     0.048 A 
HETATM   26  C10 UNL     1       6.577   0.880  -1.201  1.00  0.00     0.037 A 
HETATM   27 CL2  UNL     1       8.118   1.341  -1.921  1.00  0.00    -0.084 Cl
HETATM   28  C11 UNL     1       5.431   1.569  -1.516  1.00  0.00     0.048 A 
HETATM   29  C12 UNL     1       4.210   1.194  -0.939  1.00  0.00     0.053 A 
HETATM   30 CL3  UNL     1       2.836   2.191  -1.388  1.00  0.00    -0.083 Cl
ENDBRANCH  19  22
ENDBRANCH   1  18
TORSDOF 8
