REMARK  1 active torsions:
REMARK  status: ('A' for Active; 'I' for Inactive)
REMARK    1  A    between atoms: N1_2  and  C2_5 
ROOT
HETATM    1  C2  UNL     1      -0.540   0.076   0.871  1.00  0.00     0.241 A 
HETATM    2  C3  UNL     1       0.228   1.108   0.125  1.00  0.00     0.306 A 
HETATM    3  N2  UNL     1       1.505   0.482   0.432  1.00  0.00     0.088 N 
HETATM    4  C4  UNL     1       2.212  -0.077  -0.710  1.00  0.00     0.310 C 
HETATM    5  C5  UNL     1       0.785  -0.527   1.186  1.00  0.00     0.306 A 
ENDROOT
BRANCH   1   6
HETATM    6  N1  UNL     1      -1.361  -0.807   0.078  1.00  0.00    -0.071 N 
HETATM    7  C1  UNL     1      -2.410  -0.089  -0.621  1.00  0.00     0.267 C 
ATOM      8  H12 UNL     1      -1.744  -1.565   0.644  1.00  0.00     0.277 HD
ATOM      9  H11 UNL     1      -0.796  -1.359  -0.568  1.00  0.00     0.277 HD
ENDBRANCH   1   6
TORSDOF 1
