REMARK  3 active torsions:
REMARK  status: ('A' for Active; 'I' for Inactive)
REMARK    1  A    between atoms: C4_5  and  N2_6 
REMARK    2  A    between atoms: N2_6  and  N3_8 
REMARK    3  A    between atoms: N3_8  and  N4_9 
ROOT
HETATM    1  N2  UNL     1       1.926  -0.019  -0.456  1.00  0.00    -0.219 N 
ATOM      2  H2  UNL     1       2.437   0.027  -1.338  1.00  0.00     0.199 HD
ENDROOT
BRANCH   1   3
HETATM    3  C4  UNL     1       0.679  -0.739  -0.356  1.00  0.00     0.342 A 
HETATM    4  N1  UNL     1      -0.524  -0.075   0.026  1.00  0.00    -0.046 N 
HETATM    5  C1  UNL     1      -1.387  -0.806   0.929  1.00  0.00     0.274 C 
HETATM    6  C2  UNL     1      -0.613   1.346   0.134  1.00  0.00     0.274 C 
HETATM    7  C3  UNL     1      -0.404  -0.554  -1.353  1.00  0.00     0.296 A 
ENDBRANCH   1   3
BRANCH   1   8
HETATM    8  N3  UNL     1       2.397   0.593   0.654  1.00  0.00    -0.246 NA
BRANCH   8   9
HETATM    9  N4  UNL     1       2.776   1.093   1.589  1.00  0.00    -0.261 N 
ATOM     10  H42 UNL     1       2.059   0.418   1.324  1.00  0.00     0.193 HD
ATOM     11  H41 UNL     1       3.131   1.555   2.426  1.00  0.00     0.193 HD
ENDBRANCH   8   9
ENDBRANCH   1   8
TORSDOF 3
