REMARK  2 active torsions:
REMARK  status: ('A' for Active; 'I' for Inactive)
REMARK    1  A    between atoms: C3_3  and  N1_4 
REMARK    2  A    between atoms: C5_6  and  N2_7 
ROOT
HETATM    1  C1  UNL     1       2.893   0.703   0.597  1.00  0.00     0.013 C 
HETATM    2  C2  UNL     1       2.219  -0.091  -0.030  1.00  0.00    -0.087 C 
HETATM    3  C3  UNL     1       1.410  -1.055  -0.742  1.00  0.00     0.365 C 
ENDROOT
BRANCH   3   4
HETATM    4  N1  UNL     1       0.013  -0.984  -0.495  1.00  0.00     0.103 N 
HETATM    5  C4  UNL     1      -0.706   0.155  -1.005  1.00  0.00     0.308 C 
HETATM    6  C5  UNL     1      -1.674  -0.093   0.150  1.00  0.00     0.240 C 
HETATM    7  C6  UNL     1      -0.392  -0.537   0.824  1.00  0.00     0.308 C 
BRANCH   6   8
HETATM    8  N2  UNL     1      -2.237   1.096   0.722  1.00  0.00    -0.072 N 
ATOM      9  H23 UNL     1      -1.497   1.736   1.011  1.00  0.00     0.274 HD
ATOM     10  H22 UNL     1      -2.684   1.660  -0.001  1.00  0.00     0.274 HD
ATOM     11  H21 UNL     1      -2.883   0.930   1.493  1.00  0.00     0.274 HD
ENDBRANCH   6   8
ENDBRANCH   3   4
TORSDOF 2
