REMARK  2 active torsions:
REMARK  status: ('A' for Active; 'I' for Inactive)
REMARK    1  A    between atoms: C4_5  and  C5_6 
REMARK    2  A    between atoms: C5_6  and  N2_7 
ROOT
HETATM    1  C1  UNL     1      -1.621  -1.332  -0.106  1.00  0.00     0.310 C 
HETATM    2  N1  UNL     1      -0.820  -0.320   0.534  1.00  0.00     0.090 N 
HETATM    3  C2  UNL     1      -1.401   1.031   0.479  1.00  0.00     0.274 C 
HETATM    4  C3  UNL     1       0.052   1.512   0.468  1.00  0.00     0.067 C 
HETATM    5  C4  UNL     1       0.214   0.227  -0.357  1.00  0.00     0.249 C 
ENDROOT
BRANCH   5   6
HETATM    6  C5  UNL     1       1.520  -0.469  -0.159  1.00  0.00     0.265 C 
BRANCH   6   7
HETATM    7  N2  UNL     1       1.999  -0.333   1.191  1.00  0.00    -0.077 N 
ATOM      8  H23 UNL     1       2.055   0.647   1.468  1.00  0.00     0.274 HD
ATOM      9  H22 UNL     1       1.303  -0.651   1.866  1.00  0.00     0.274 HD
ATOM     10  H21 UNL     1       2.891  -0.808   1.326  1.00  0.00     0.274 HD
ENDBRANCH   6   7
ENDBRANCH   5   6
TORSDOF 2
