REMARK  2 active torsions:
REMARK  status: ('A' for Active; 'I' for Inactive)
REMARK    1  A    between atoms: C2_2  and  N1_3 
REMARK    2  A    between atoms: C5_6  and  N2_7 
ROOT
HETATM    1  N1  UNL     1      -0.499   0.142  -0.188  1.00  0.00     0.090 N 
HETATM    2  C3  UNL     1      -0.318  -0.388   1.123  1.00  0.00     0.274 C 
HETATM    3  C4  UNL     1       1.142  -0.033   1.391  1.00  0.00     0.064 C 
HETATM    4  C5  UNL     1       1.775  -0.410   0.054  1.00  0.00     0.213 C 
HETATM    5  C6  UNL     1       0.668  -0.162  -0.955  1.00  0.00     0.305 C 
ENDROOT
BRANCH   4   6
HETATM    6  N2  UNL     1       2.863   0.523  -0.240  1.00  0.00    -0.073 N 
ATOM      7  H23 UNL     1       2.557   1.496  -0.216  1.00  0.00     0.274 HD
ATOM      8  H22 UNL     1       3.548   0.570   0.514  1.00  0.00     0.274 HD
ATOM      9  H21 UNL     1       3.286   0.271  -1.133  1.00  0.00     0.274 HD
ENDBRANCH   4   6
BRANCH   1  10
HETATM   10  C2  UNL     1      -1.737  -0.139  -0.825  1.00  0.00     0.268 C 
HETATM   11  C1  UNL     1      -2.822   0.721  -0.217  1.00  0.00     0.037 C 
ENDBRANCH   1  10
TORSDOF 2
