REMARK  2 active torsions:
REMARK  status: ('A' for Active; 'I' for Inactive)
REMARK    1  A    between atoms: C3_3  and  C4_4 
REMARK    2  A    between atoms: C5_6  and  N1_8 
ROOT
HETATM    1  C1  UNL     1       3.518  -0.552   0.174  1.00  0.00     0.012 C 
HETATM    2  C2  UNL     1       2.410  -0.364   0.616  1.00  0.00    -0.115 C 
HETATM    3  C3  UNL     1       1.042  -0.133   1.135  1.00  0.00     0.130 C 
ENDROOT
BRANCH   3   4
HETATM    4  C4  UNL     1       0.228   0.643   0.130  1.00  0.00     0.198 A 
HETATM    5  O1  UNL     1       0.134  -0.109  -1.136  1.00  0.00    -0.342 OA
HETATM    6  C5  UNL     1      -1.037   0.269  -0.377  1.00  0.00     0.248 A 
HETATM    7  C6  UNL     1      -1.832  -0.939   0.031  1.00  0.00     0.081 C 
BRANCH   6   8
HETATM    8  N1  UNL     1      -1.839   1.267  -1.063  1.00  0.00    -0.045 N 
ATOM      9  H13 UNL     1      -1.955   2.074  -0.451  1.00  0.00     0.278 HD
ATOM     10  H12 UNL     1      -1.287   1.670  -1.820  1.00  0.00     0.278 HD
ATOM     11  H11 UNL     1      -2.752   0.997  -1.429  1.00  0.00     0.278 HD
ENDBRANCH   6   8
ENDBRANCH   3   4
TORSDOF 2
