REMARK  11 active torsions:
REMARK  status: ('A' for Active; 'I' for Inactive)
REMARK    1  A    between atoms: C1_2  and  C2_3 
REMARK       I    between atoms: C1_2  and  N1_15 
REMARK    2  A    between atoms: C2_3  and  C3_4 
REMARK    3  A    between atoms: C3_4  and  C4_5 
REMARK    4  A    between atoms: C4_5  and  C5_6 
REMARK    5  A    between atoms: C5_6  and  C6_7 
REMARK    6  A    between atoms: N1_15  and  C12_17 
REMARK    7  A    between atoms: C12_17  and  C13_18 
REMARK    8  A    between atoms: C13_18  and  C14_19 
REMARK    9  A    between atoms: C14_19  and  N2_20 
REMARK   10  A    between atoms: C17_23  and  C18_24 
REMARK   11  A    between atoms: C25_36  and  O3_37 
ROOT
HETATM    1  C12 UNL     1      -0.923   0.505   2.134  1.00  0.00     0.036 C 
HETATM    2  C23 UNL     1      -2.009   1.497   2.380  1.00  0.00     0.033 C 
HETATM    3  C24 UNL     1      -2.255   1.540   3.891  1.00  0.00     0.034 C 
HETATM    4  C25 UNL     1      -1.911   0.149   4.310  1.00  0.00     0.120 C 
HETATM    5  C26 UNL     1      -0.769  -0.282   3.415  1.00  0.00     0.062 C 
ENDROOT
BRANCH   1   6
HETATM    6  N1  UNL     1       0.337   1.230   1.960  1.00  0.00    -0.352 N 
HETATM    7  C1  UNL     1       1.597   0.605   1.825  1.00  0.00     0.218 C 
HETATM    8  O1  UNL     1       1.764  -0.641   1.845  1.00  0.00    -0.274 OA
ATOM      9  H1  UNL     1       0.303   2.249   1.935  1.00  0.00     0.163 HD
BRANCH   7  10
HETATM   10  C2  UNL     1       2.850   1.423   1.644  1.00  0.00     0.103 C 
BRANCH  10  11
HETATM   11  C3  UNL     1       4.062   0.559   1.553  1.00  0.00     0.009 C 
BRANCH  11  12
HETATM   12  C4  UNL     1       5.276   1.429   1.372  1.00  0.00     0.001 C 
BRANCH  12  13
HETATM   13  C5  UNL     1       5.193   2.264   0.106  1.00  0.00     0.005 C 
BRANCH  13  14
HETATM   14  C6  UNL     1       5.071   1.394  -1.107  1.00  0.00    -0.014 C 
HETATM   15  C7  UNL     1       6.297   0.490  -1.184  1.00  0.00     0.010 C 
HETATM   16  C8  UNL     1       6.268  -0.402  -2.385  1.00  0.00     0.079 C 
HETATM   17  C9  UNL     1       5.936   0.296  -3.661  1.00  0.00     0.243 C 
HETATM   18  F1  UNL     1       7.019   0.928  -4.241  1.00  0.00    -0.206 F 
HETATM   19  F2  UNL     1       5.517  -0.683  -4.572  1.00  0.00    -0.206 F 
HETATM   20  C10 UNL     1       4.802   1.281  -3.532  1.00  0.00     0.079 C 
HETATM   21  C11 UNL     1       5.107   2.238  -2.373  1.00  0.00     0.010 C 
ENDBRANCH  13  14
ENDBRANCH  12  13
ENDBRANCH  11  12
ENDBRANCH  10  11
ENDBRANCH   7  10
ENDBRANCH   1   6
BRANCH   1  22
HETATM   22  C13 UNL     1      -1.214  -0.352   0.957  1.00  0.00     0.051 C 
BRANCH  22  23
HETATM   23  C14 UNL     1      -2.463  -1.157   1.009  1.00  0.00     0.129 C 
BRANCH  23  24
HETATM   24  N2  UNL     1      -2.616  -1.944  -0.203  1.00  0.00    -0.374 N 
HETATM   25  C15 UNL     1      -2.868  -1.182  -1.359  1.00  0.00     0.064 C 
HETATM   26  C16 UNL     1      -3.595  -1.967  -2.404  1.00  0.00     0.056 C 
HETATM   27  C17 UNL     1      -4.902  -2.492  -1.901  1.00  0.00     0.046 C 
HETATM   28  C21 UNL     1      -4.792  -3.068  -0.515  1.00  0.00     0.056 C 
HETATM   29  C22 UNL     1      -3.350  -3.132  -0.063  1.00  0.00     0.064 C 
BRANCH  27  30
HETATM   30  C18 UNL     1      -5.889  -1.395  -1.873  1.00  0.00     0.036 A 
HETATM   31  C19 UNL     1      -6.830  -1.052  -2.830  1.00  0.00     0.102 A 
HETATM   32  C20 UNL     1      -7.527   0.022  -2.334  1.00  0.00     0.261 A 
HETATM   33  O2  UNL     1      -8.477   0.624  -2.926  1.00  0.00    -0.267 OA
HETATM   34  N3  UNL     1      -7.036   0.328  -1.126  1.00  0.00    -0.266 N 
HETATM   35  N4  UNL     1      -6.048  -0.534  -0.857  1.00  0.00    -0.301 N 
ATOM     36  H3  UNL     1      -7.357   1.083  -0.520  1.00  0.00     0.190 HD
ATOM     37  H4  UNL     1      -5.494  -0.536  -0.000  1.00  0.00     0.186 HD
ENDBRANCH  27  30
ENDBRANCH  23  24
ENDBRANCH  22  23
ENDBRANCH   1  22
BRANCH   4  38
HETATM   38  O3  UNL     1      -1.487   0.103   5.654  1.00  0.00    -0.395 OA
ATOM     39  H3  UNL     1      -1.268  -0.782   5.921  1.00  0.00     0.210 HD
ENDBRANCH   4  38
TORSDOF 11
