REMARK  13 active torsions:
REMARK  status: ('A' for Active; 'I' for Inactive)
REMARK    1  A    between atoms: C2_2  and  C4_4 
REMARK    2  A    between atoms: C4_4  and  C5_5 
REMARK    3  A    between atoms: C5_5  and  O1_6 
REMARK    4  A    between atoms: C6_8  and  O2_9 
REMARK    5  A    between atoms: C7_11  and  O3_12 
REMARK    6  A    between atoms: O3_12  and  C8_13 
REMARK    7  A    between atoms: C8_13  and  C9_14 
REMARK    8  A    between atoms: C9_14  and  C10_15 
REMARK    9  A    between atoms: C10_15  and  C11_16 
REMARK   10  A    between atoms: C11_16  and  C12_17 
REMARK   11  A    between atoms: C12_17  and  C13_18 
REMARK   12  A    between atoms: C13_18  and  C14_19 
REMARK   13  A    between atoms: C14_19  and  C15_20 
ROOT
HETATM    1  C5  UNL     1      -3.553  -0.018  -0.665  1.00  0.00     0.100 C 
HETATM    2  C6  UNL     1      -2.183   0.041  -1.175  1.00  0.00     0.183 C 
HETATM    3  C7  UNL     1      -1.191  -0.847  -0.473  1.00  0.00     0.167 C 
HETATM    4  C16 UNL     1      -1.718  -2.248  -0.269  1.00  0.00     0.094 C 
HETATM    5 BR1  UNL     1      -0.475  -3.311   0.715  1.00  0.00    -0.088 Br
HETATM    6  C17 UNL     1      -2.994  -2.151   0.497  1.00  0.00     0.016 C 
HETATM    7  C18 UNL     1      -3.576  -3.500   0.856  1.00  0.00     0.012 C 
HETATM    8  C19 UNL     1      -4.005  -1.463  -0.386  1.00  0.00     0.100 C 
HETATM    9 BR2  UNL     1      -4.207  -2.336  -2.084  1.00  0.00    -0.087 Br
ENDROOT
BRANCH   3  10
HETATM   10  O3  UNL     1      -0.051  -0.942  -1.264  1.00  0.00    -0.382 OA
BRANCH  10  11
HETATM   11  C8  UNL     1       1.084  -0.476  -0.579  1.00  0.00     0.168 C 
BRANCH  11  12
HETATM   12  C9  UNL     1       2.309  -0.582  -1.440  1.00  0.00     0.026 C 
BRANCH  12  13
HETATM   13  C10 UNL     1       3.532  -0.032  -0.683  1.00  0.00     0.002 C 
BRANCH  13  14
HETATM   14  C11 UNL     1       3.833  -0.747   0.557  1.00  0.00     0.000 C 
BRANCH  14  15
HETATM   15  C12 UNL     1       4.980  -0.292   1.364  1.00  0.00     0.001 C 
BRANCH  15  16
HETATM   16  C13 UNL     1       6.332  -0.404   0.833  1.00  0.00     0.010 C 
BRANCH  16  17
HETATM   17  C14 UNL     1       6.779   0.290  -0.385  1.00  0.00     0.113 C 
BRANCH  17  18
HETATM   18  C15 UNL     1       6.651   1.757  -0.373  1.00  0.00     0.172 C 
HETATM   19  O4  UNL     1       6.225   2.352   0.637  1.00  0.00    -0.648 OA
HETATM   20  O5  UNL     1       7.010   2.493  -1.500  1.00  0.00    -0.648 OA
ENDBRANCH  17  18
ENDBRANCH  16  17
ENDBRANCH  15  16
ENDBRANCH  14  15
ENDBRANCH  13  14
ENDBRANCH  12  13
ENDBRANCH  11  12
ENDBRANCH  10  11
ENDBRANCH   3  10
BRANCH   2  21
HETATM   21  O2  UNL     1      -1.695   1.326  -1.180  1.00  0.00    -0.390 OA
ATOM     22  H2  UNL     1      -0.805   1.364  -1.511  1.00  0.00     0.210 HD
ENDBRANCH   2  21
BRANCH   1  23
HETATM   23  C4  UNL     1      -3.898   0.747   0.568  1.00  0.00     0.045 C 
BRANCH  23  24
HETATM   24  C2  UNL     1      -3.831   2.226   0.506  1.00  0.00    -0.020 C 
HETATM   25  C1  UNL     1      -4.250   2.736   1.895  1.00  0.00     0.009 C 
HETATM   26  C3  UNL     1      -4.816   2.833  -0.472  1.00  0.00     0.009 C 
ENDBRANCH  23  24
ENDBRANCH   1  23
BRANCH   1  27
HETATM   27  O1  UNL     1      -4.441   0.396  -1.687  1.00  0.00    -0.386 OA
ATOM     28  H1  UNL     1      -4.221  -0.091  -2.472  1.00  0.00     0.210 HD
ENDBRANCH   1  27
TORSDOF 13
