REMARK  12 active torsions:
REMARK  status: ('A' for Active; 'I' for Inactive)
REMARK    1  A    between atoms: C2_2  and  C3_3 
REMARK    2  A    between atoms: C3_3  and  C4_4 
REMARK    3  A    between atoms: C4_4  and  C5_5 
REMARK    4  A    between atoms: C5_5  and  N1_6 
REMARK    5  A    between atoms: C6_8  and  O1_9 
REMARK    6  A    between atoms: C6_8  and  C7_11 
REMARK    7  A    between atoms: C11_15  and  N2_16 
REMARK       I    between atoms: N2_16  and  C12_18 
REMARK       I    between atoms: C12_18  and  N3_20 
REMARK    8  A    between atoms: N3_20  and  C13_22 
REMARK    9  A    between atoms: C13_22  and  C14_23 
REMARK   10  A    between atoms: C13_22  and  C17_27 
REMARK   11  A    between atoms: C14_23  and  C15_24 
REMARK   12  A    between atoms: C15_24  and  S1_25 
ROOT
HETATM    1  C7  UNL     1      -1.860  -1.455  -0.114  1.00  0.00     0.028 C 
HETATM    2  C8  UNL     1      -1.545  -2.547   0.892  1.00  0.00     0.023 C 
HETATM    3  C9  UNL     1      -0.480  -3.308   0.097  1.00  0.00     0.001 C 
HETATM    4  C10 UNL     1       0.764  -2.477   0.198  1.00  0.00     0.036 C 
HETATM    5  C11 UNL     1       0.643  -1.088  -0.362  1.00  0.00     0.042 C 
HETATM    6  C18 UNL     1       1.079  -0.981  -1.796  1.00  0.00     0.118 C 
HETATM    7  C19 UNL     1       1.000  -2.200  -2.624  1.00  0.00     0.305 C 
HETATM    8  F1  UNL     1       0.656  -1.798  -3.931  1.00  0.00    -0.198 F 
HETATM    9  F2  UNL     1       2.265  -2.784  -2.834  1.00  0.00    -0.198 F 
HETATM   10  C20 UNL     1       0.000  -3.205  -2.262  1.00  0.00     0.202 C 
HETATM   11  O5  UNL     1       0.095  -4.203  -3.002  1.00  0.00    -0.291 OA
HETATM   12  C21 UNL     1      -1.068  -3.350  -1.271  1.00  0.00     0.067 C 
HETATM   13  C22 UNL     1      -2.122  -2.271  -1.361  1.00  0.00     0.030 C 
HETATM   14  C23 UNL     1      -0.739  -0.501  -0.252  1.00  0.00     0.049 C 
ENDROOT
BRANCH   5  15
HETATM   15  N2  UNL     1       1.512  -0.253   0.441  1.00  0.00    -0.334 N 
HETATM   16  C12 UNL     1       2.907  -0.414   0.603  1.00  0.00     0.317 C 
HETATM   17  O2  UNL     1       3.479  -1.356   0.014  1.00  0.00    -0.247 OA
HETATM   18  N3  UNL     1       3.686   0.463   1.417  1.00  0.00    -0.329 N 
ATOM     19  H3  UNL     1       3.225   1.231   1.904  1.00  0.00     0.165 HD
ATOM     20  H2  UNL     1       1.076   0.525   0.937  1.00  0.00     0.165 HD
BRANCH  18  21
HETATM   21  C13 UNL     1       5.097   0.289   1.565  1.00  0.00     0.188 C 
BRANCH  21  22
HETATM   22  C14 UNL     1       5.879   1.545   1.249  1.00  0.00     0.046 C 
BRANCH  22  23
HETATM   23  C15 UNL     1       5.652   2.006  -0.174  1.00  0.00     0.076 C 
BRANCH  23  24
HETATM   24  S1  UNL     1       6.149   0.782  -1.384  1.00  0.00    -0.173 SA
HETATM   25  C16 UNL     1       5.808   1.431  -3.041  1.00  0.00     0.089 C 
ENDBRANCH  23  24
ENDBRANCH  22  23
ENDBRANCH  21  22
BRANCH  21  26
HETATM   26  C17 UNL     1       5.425  -0.081   2.970  1.00  0.00     0.196 C 
HETATM   27  O3  UNL     1       4.497  -0.193   3.808  1.00  0.00    -0.646 OA
HETATM   28  O4  UNL     1       6.720  -0.313   3.407  1.00  0.00    -0.646 OA
ENDBRANCH  21  26
ENDBRANCH  18  21
ENDBRANCH   5  15
BRANCH   1  29
HETATM   29  C6  UNL     1      -3.055  -0.733   0.345  1.00  0.00     0.120 C 
HETATM   30  N1  UNL     1      -3.049   0.536   0.534  1.00  0.00    -0.374 N 
ATOM     31  H1  UNL     1      -2.179   1.038   0.355  1.00  0.00     0.161 HD
BRANCH  30  32
HETATM   32  C5  UNL     1      -4.198   1.312   0.987  1.00  0.00     0.121 C 
BRANCH  32  33
HETATM   33  C4  UNL     1      -5.238   1.441  -0.060  1.00  0.00     0.020 C 
BRANCH  33  34
HETATM   34  C3  UNL     1      -6.470   2.176   0.266  1.00  0.00     0.001 C 
BRANCH  34  35
HETATM   35  C2  UNL     1      -6.408   3.600   0.644  1.00  0.00    -0.004 C 
HETATM   36  C1  UNL     1      -5.656   3.983   1.858  1.00  0.00     0.005 C 
ENDBRANCH  34  35
ENDBRANCH  33  34
ENDBRANCH  32  33
ENDBRANCH  30  32
BRANCH  29  37
HETATM   37  O1  UNL     1      -4.224  -1.428   0.581  1.00  0.00    -0.349 OA
ATOM     38  H1  UNL     1      -4.228  -2.368   0.441  1.00  0.00     0.219 HD
ENDBRANCH  29  37
ENDBRANCH   1  29
TORSDOF 12
