REMARK  14 active torsions:
REMARK  status: ('A' for Active; 'I' for Inactive)
REMARK    1  A    between atoms: C2_2  and  C5_5 
REMARK    2  A    between atoms: C5_5  and  C6_6 
REMARK    3  A    between atoms: C6_6  and  N1_7 
REMARK    4  A    between atoms: N1_7  and  C7_9 
REMARK    5  A    between atoms: C7_9  and  C8_10 
REMARK    6  A    between atoms: C7_9  and  C25_37 
REMARK    7  A    between atoms: C8_10  and  O1_11 
REMARK    8  A    between atoms: C8_10  and  C9_13 
REMARK    9  A    between atoms: C9_13  and  N2_14 
REMARK   10  A    between atoms: N2_14  and  C10_17 
REMARK   11  A    between atoms: C10_17  and  C11_18 
REMARK   12  A    between atoms: C10_17  and  C19_29 
REMARK       I    between atoms: C11_18  and  N3_20 
REMARK   13  A    between atoms: N3_20  and  C12_22 
REMARK   14  A    between atoms: C12_22  and  C13_23 
ROOT
HETATM    1  N2  UNL     1      -0.567  -2.328  -0.931  1.00  0.00    -0.059 N 
ATOM      2  H21 UNL     1      -0.241  -3.232  -1.272  1.00  0.00     0.278 HD
ATOM      3  H22 UNL     1      -1.046  -2.010  -1.773  1.00  0.00     0.278 HD
ENDROOT
BRANCH   1   4
HETATM    4  C9  UNL     1       0.574  -1.428  -0.568  1.00  0.00     0.266 C 
BRANCH   4   5
HETATM    5  C8  UNL     1       1.253  -1.233  -1.879  1.00  0.00     0.167 C 
BRANCH   5   6
HETATM    6  C7  UNL     1       2.518  -0.519  -1.986  1.00  0.00     0.118 C 
BRANCH   6   7
HETATM    7  N1  UNL     1       2.686   0.809  -1.566  1.00  0.00    -0.394 N 
ATOM      8  H1  UNL     1       2.831   1.535  -2.268  1.00  0.00     0.159 HD
BRANCH   7   9
HETATM    9  C6  UNL     1       2.661   1.168  -0.211  1.00  0.00     0.057 C 
BRANCH   9  10
HETATM   10  C5  UNL     1       2.973   2.643   0.018  1.00  0.00     0.052 C 
BRANCH  10  11
HETATM   11  C2  UNL     1       3.030   3.004   1.470  1.00  0.00    -0.047 C 
HETATM   12  C1  UNL     1       1.769   2.762   2.246  1.00  0.00     0.015 C 
HETATM   13  C3  UNL     1       3.355   4.481   1.602  1.00  0.00     0.015 C 
HETATM   14  C4  UNL     1       4.149   2.262   2.190  1.00  0.00     0.015 C 
ENDBRANCH  10  11
ENDBRANCH   9  10
ENDBRANCH   7   9
ENDBRANCH   6   7
BRANCH   6  15
HETATM   15  C25 UNL     1       3.014  -0.537  -3.425  1.00  0.00    -0.029 C 
HETATM   16  C26 UNL     1       2.987  -1.806  -4.155  1.00  0.00     0.016 C 
HETATM   17  C27 UNL     1       2.214   0.480  -4.247  1.00  0.00     0.016 C 
HETATM   18  C28 UNL     1       4.456  -0.018  -3.392  1.00  0.00     0.016 C 
ENDBRANCH   6  15
ENDBRANCH   5   6
BRANCH   5  19
HETATM   19  O1  UNL     1       1.526  -2.581  -2.299  1.00  0.00    -0.392 OA
ATOM     20  H1  UNL     1       0.701  -3.047  -2.229  1.00  0.00     0.210 HD
ENDBRANCH   5  19
ENDBRANCH   4   5
ENDBRANCH   1   4
BRANCH   1  21
HETATM   21  C10 UNL     1      -1.486  -2.473   0.191  1.00  0.00     0.284 C 
BRANCH  21  22
HETATM   22  C11 UNL     1      -2.091  -1.099   0.370  1.00  0.00     0.252 C 
HETATM   23  O2  UNL     1      -2.169  -0.433  -0.676  1.00  0.00    -0.271 OA
HETATM   24  N3  UNL     1      -2.536  -0.581   1.588  1.00  0.00    -0.339 N 
ATOM     25  H3  UNL     1      -2.431  -1.229   2.369  1.00  0.00     0.167 HD
BRANCH  24  26
HETATM   26  C12 UNL     1      -3.100   0.655   1.956  1.00  0.00     0.068 C 
BRANCH  26  27
HETATM   27  C13 UNL     1      -2.347   1.921   1.921  1.00  0.00     0.024 C 
HETATM   28  C14 UNL     1      -1.760   2.460   0.692  1.00  0.00     0.010 C 
HETATM   29  C15 UNL     1      -2.762   3.071  -0.261  1.00  0.00     0.001 C 
HETATM   30  C16 UNL     1      -3.315   4.295   0.492  1.00  0.00     0.000 C 
HETATM   31  C17 UNL     1      -4.044   3.748   1.697  1.00  0.00     0.001 C 
HETATM   32  C18 UNL     1      -3.156   3.032   2.648  1.00  0.00     0.010 C 
ENDBRANCH  26  27
ENDBRANCH  24  26
ENDBRANCH  21  22
BRANCH  21  33
HETATM   33  C19 UNL     1      -2.486  -3.495  -0.243  1.00  0.00     0.062 C 
HETATM   34  C20 UNL     1      -1.848  -4.823  -0.570  1.00  0.00     0.010 C 
HETATM   35  C21 UNL     1      -1.941  -5.828   0.536  1.00  0.00     0.004 C 
HETATM   36  C22 UNL     1      -2.118  -5.262   1.906  1.00  0.00     0.040 C 
HETATM   37  C23 UNL     1      -3.294  -4.325   1.989  1.00  0.00     0.204 C 
HETATM   38  F1  UNL     1      -4.419  -5.037   2.429  1.00  0.00    -0.246 F 
HETATM   39  C24 UNL     1      -3.644  -3.731   0.649  1.00  0.00     0.210 C 
HETATM   40  F2  UNL     1      -4.507  -2.700   0.829  1.00  0.00    -0.246 F 
ENDBRANCH  21  33
ENDBRANCH   1  21
TORSDOF 14
