REMARK  3 active torsions:
REMARK  status: ('A' for Active; 'I' for Inactive)
REMARK    1  A    between atoms: C5_5  and  O1_7 
REMARK    2  A    between atoms: C7_9  and  O2_10 
REMARK    3  A    between atoms: C9_13  and  O3_14 
ROOT
HETATM    1  C1  UNL     1       3.088   2.372  -0.094  1.00  0.00     0.012 C 
HETATM    2  C2  UNL     1       2.167   1.600  -0.215  1.00  0.00    -0.110 C 
HETATM    3  C3  UNL     1       1.064   0.688  -0.379  1.00  0.00     0.096 C 
HETATM    4  C4  UNL     1      -0.084   0.958   0.581  1.00  0.00     0.059 C 
HETATM    5  C5  UNL     1      -1.247   0.097   0.073  1.00  0.00     0.081 C 
HETATM    6  C6  UNL     1      -2.465   0.516   0.824  1.00  0.00     0.049 C 
HETATM    7  C7  UNL     1      -0.863  -1.332   0.274  1.00  0.00     0.154 C 
HETATM    8  C8  UNL     1       0.398  -1.650  -0.456  1.00  0.00     0.067 C 
HETATM    9  C9  UNL     1       1.536  -0.721  -0.070  1.00  0.00     0.136 C 
ENDROOT
BRANCH   9  10
HETATM   10  O3  UNL     1       2.667  -1.055  -0.776  1.00  0.00    -0.394 OA
ATOM     11  H3  UNL     1       2.962  -1.937  -0.583  1.00  0.00     0.210 HD
ENDBRANCH   9  10
BRANCH   5  12
HETATM   12  O1  UNL     1      -1.420   0.371  -1.295  1.00  0.00    -0.388 OA
ATOM     13  H1  UNL     1      -2.140  -0.162  -1.610  1.00  0.00     0.210 HD
ENDBRANCH   5  12
BRANCH   7  14
HETATM   14  O2  UNL     1      -1.866  -2.170  -0.217  1.00  0.00    -0.392 OA
ATOM     15  H2  UNL     1      -1.622  -3.079  -0.089  1.00  0.00     0.210 HD
ENDBRANCH   7  14
TORSDOF 3
