REMARK  3 active torsions:
REMARK  status: ('A' for Active; 'I' for Inactive)
REMARK    1  A    between atoms: O1_1  and  C1_3 
REMARK    2  A    between atoms: C3_5  and  O2_6 
REMARK    3  A    between atoms: C5_9  and  O3_10 
ROOT
HETATM    1  C1  UNL     1      -2.199  -0.337  -0.338  1.00  0.00     0.120 C 
HETATM    2  C2  UNL     1      -1.840   1.098  -0.329  1.00  0.00     0.064 C 
HETATM    3  C3  UNL     1      -0.501   1.408   0.298  1.00  0.00     0.127 C 
HETATM    4  C4  UNL     1       0.515   0.496  -0.295  1.00  0.00     0.047 C 
HETATM    5  C5  UNL     1       1.903   0.668   0.187  1.00  0.00     0.125 C 
HETATM    6  C6  UNL     1       2.504  -0.729   0.195  1.00  0.00     0.032 C 
HETATM    7  C7  UNL     1       1.369  -1.678  -0.159  1.00  0.00     0.008 C 
HETATM    8  C8  UNL     1       0.162  -0.898   0.188  1.00  0.00    -0.003 C 
HETATM    9  C9  UNL     1      -1.092  -1.300  -0.507  1.00  0.00     0.037 C 
ENDROOT
BRANCH   1  10
HETATM   10  O1  UNL     1      -2.933  -0.701   0.814  1.00  0.00    -0.395 OA
ATOM     11  H1  UNL     1      -3.164  -1.623   0.808  1.00  0.00     0.210 HD
ENDBRANCH   1  10
BRANCH   3  12
HETATM   12  O2  UNL     1      -0.639   1.223   1.670  1.00  0.00    -0.395 OA
ATOM     13  H2  UNL     1       0.203   1.418   2.064  1.00  0.00     0.210 HD
ENDBRANCH   3  12
BRANCH   5  14
HETATM   14  O3  UNL     1       2.645   1.463  -0.715  1.00  0.00    -0.395 OA
ATOM     15  H3  UNL     1       3.536   1.573  -0.405  1.00  0.00     0.210 HD
ENDBRANCH   5  14
TORSDOF 3
