REMARK  2 active torsions:
REMARK  status: ('A' for Active; 'I' for Inactive)
REMARK    1  A    between atoms: O1_1  and  C1_3 
REMARK    2  A    between atoms: C3_5  and  O2_6 
ROOT
HETATM    1  C1  UNL     1      -2.327  -0.516  -0.710  1.00  0.00     0.149 C 
HETATM    2  C2  UNL     1      -2.267   0.897  -0.245  1.00  0.00     0.067 C 
HETATM    3  C3  UNL     1      -0.916   1.476  -0.102  1.00  0.00     0.154 C 
HETATM    4  C4  UNL     1       0.156   0.513   0.310  1.00  0.00     0.251 C 
HETATM    5  C5  UNL     1       1.460   1.240   0.210  1.00  0.00     0.038 C 
HETATM    6  C6  UNL     1       2.671   0.402   0.281  1.00  0.00     0.004 C 
HETATM    7  C7  UNL     1       2.512  -1.034  -0.014  1.00  0.00     0.030 C 
HETATM    8  C8  UNL     1       1.144  -1.548  -0.167  1.00  0.00     0.273 C 
HETATM    9  N1  UNL     1       0.144  -0.604  -0.576  1.00  0.00     0.098 N 
HETATM   10  C9  UNL     1      -1.105  -1.318  -0.601  1.00  0.00     0.304 C 
ENDROOT
BRANCH   1  11
HETATM   11  O1  UNL     1      -3.355  -1.156   0.006  1.00  0.00    -0.394 OA
ATOM     12  H1  UNL     1      -3.393  -2.058  -0.291  1.00  0.00     0.210 HD
ENDBRANCH   1  11
BRANCH   3  13
HETATM   13  O2  UNL     1      -0.920   2.513   0.857  1.00  0.00    -0.393 OA
ATOM     14  H2  UNL     1      -0.051   2.885   0.949  1.00  0.00     0.210 HD
ENDBRANCH   3  13
TORSDOF 2
