REMARK  3 active torsions:
REMARK  status: ('A' for Active; 'I' for Inactive)
REMARK    1  A    between atoms: C6_6  and  O1_7 
REMARK    2  A    between atoms: C7_9  and  O2_11 
REMARK    3  A    between atoms: C9_13  and  O3_14 
ROOT
HETATM    1  C1  UNL     1      -2.322  -1.175  -0.600  1.00  0.00     0.017 C 
HETATM    2  C2  UNL     1      -1.309  -0.195  -0.027  1.00  0.00    -0.019 C 
HETATM    3  C3  UNL     1      -1.952   0.414   1.218  1.00  0.00     0.017 C 
HETATM    4  C4  UNL     1      -1.113   0.917  -1.010  1.00  0.00     0.014 C 
HETATM    5  C5  UNL     1       0.005   1.797  -0.493  1.00  0.00     0.036 C 
HETATM    6  C6  UNL     1       1.282   0.960  -0.585  1.00  0.00     0.154 C 
HETATM    7  C7  UNL     1       1.169  -0.153   0.398  1.00  0.00     0.106 C 
HETATM    8  C8  UNL     1       2.350  -1.114   0.250  1.00  0.00     0.051 C 
HETATM    9  C9  UNL     1      -0.079  -0.951   0.315  1.00  0.00     0.162 C 
ENDROOT
BRANCH   7  10
HETATM   10  O2  UNL     1       1.288   0.395   1.683  1.00  0.00    -0.385 OA
ATOM     11  H2  UNL     1       1.216  -0.315   2.310  1.00  0.00     0.210 HD
ENDBRANCH   7  10
BRANCH   6  12
HETATM   12  O1  UNL     1       2.324   1.808  -0.212  1.00  0.00    -0.392 OA
ATOM     13  H1  UNL     1       3.117   1.288  -0.269  1.00  0.00     0.210 HD
ENDBRANCH   6  12
BRANCH   9  14
HETATM   14  O3  UNL     1       0.137  -2.019  -0.554  1.00  0.00    -0.392 OA
ATOM     15  H3  UNL     1       0.925  -2.503  -0.335  1.00  0.00     0.210 HD
ENDBRANCH   9  14
TORSDOF 3
