REMARK  1 active torsions:
REMARK  status: ('A' for Active; 'I' for Inactive)
REMARK    1  A    between atoms: C2_2  and  C4_7 
ROOT
HETATM    1  C1  UNL     1       2.096   1.361   0.423  1.00  0.00     0.066 C 
HETATM    2  C2  UNL     1       1.288   0.232  -0.100  1.00  0.00     0.015 C 
HETATM    3  N1  UNL     1       1.872  -0.913  -0.140  1.00  0.00    -0.300 N 
ATOM      4  H1  UNL     1       1.336  -1.705  -0.495  1.00  0.00     0.177 HD
HETATM    5  C3  UNL     1       3.179  -1.150   0.265  1.00  0.00     0.181 C 
HETATM    6  N2  UNL     1       4.252  -1.355   0.616  1.00  0.00    -0.172 NA
ENDROOT
BRANCH   2   7
HETATM    7  C4  UNL     1      -0.101   0.327  -0.564  1.00  0.00     0.129 C 
HETATM    8  C5  UNL     1      -0.583  -1.025  -1.020  1.00  0.00     0.038 C 
HETATM    9  C6  UNL     1      -2.057  -1.085  -0.753  1.00  0.00     0.078 C 
HETATM   10  C7  UNL     1      -2.280   0.082   0.167  1.00  0.00     0.071 C 
HETATM   11  N3  UNL     1      -3.466   0.402   0.568  1.00  0.00    -0.389 N 
HETATM   12  N4  UNL     1      -1.033   0.683   0.459  1.00  0.00    -0.370 N 
ATOM     13  H32 UNL     1      -4.365  -0.031   0.357  1.00  0.00     0.157 HD
ATOM     14  H31 UNL     1      -3.617   1.194   1.192  1.00  0.00     0.157 HD
ATOM     15  H4  UNL     1      -0.832   1.273   1.266  1.00  0.00     0.161 HD
ENDBRANCH   2   7
TORSDOF 1
