REMARK  2 active torsions:
REMARK  status: ('A' for Active; 'I' for Inactive)
REMARK    1  A    between atoms: O1_1  and  N1_3 
REMARK    2  A    between atoms: C3_6  and  S1_7 
ROOT
HETATM    1  N1  UNL     1      -1.524  -0.358  -0.105  1.00  0.00    -0.199 NA
HETATM    2  C1  UNL     1      -0.280  -1.096  -0.315  1.00  0.00     0.121 C 
HETATM    3  C2  UNL     1       0.445  -0.106  -1.243  1.00  0.00     0.034 C 
HETATM    4  C3  UNL     1       0.204   1.180  -0.452  1.00  0.00     0.076 C 
HETATM    5  C4  UNL     1      -1.007   0.902   0.413  1.00  0.00     0.136 C 
ENDROOT
BRANCH   1   6
HETATM    6  O1  UNL     1      -2.284  -1.018   0.776  1.00  0.00    -0.313 OA
ATOM      7  H1  UNL     1      -3.093  -0.538   0.912  1.00  0.00     0.237 HD
ENDBRANCH   1   6
BRANCH   4   8
HETATM    8  S1  UNL     1       1.647   1.641   0.497  1.00  0.00    -0.079 SA
HETATM    9  S2  UNL     1       3.074   0.050   0.425  1.00  0.00    -0.013 SA
ENDBRANCH   4   8
TORSDOF 2
