REMARK  16 active torsions:
REMARK  status: ('A' for Active; 'I' for Inactive)
REMARK    1  A    between atoms: N3_4  and  C2_6 
REMARK    2  A    between atoms: C2_6  and  C3_7 
REMARK    3  A    between atoms: C3_7  and  C4_8 
REMARK    4  A    between atoms: C4_8  and  N4_9 
REMARK    5  A    between atoms: N4_9  and  C5_12 
REMARK    6  A    between atoms: C5_12  and  C6_13 
REMARK    7  A    between atoms: C6_13  and  C7_14 
REMARK    8  A    between atoms: C7_14  and  N5_15 
REMARK    9  A    between atoms: C7_14  and  C14_28 
REMARK   10  A    between atoms: N5_15  and  S1_17 
REMARK   11  A    between atoms: S1_17  and  C8_20 
REMARK   12  A    between atoms: C21_35  and  S2_36 
REMARK   13  A    between atoms: S2_36  and  N6_39 
REMARK   14  A    between atoms: N6_39  and  C22_41 
REMARK   15  A    between atoms: C22_41  and  C23_42 
REMARK   16  A    between atoms: C23_42  and  O5_43 
ROOT
HETATM    1  C7  UNL     1      -0.108   1.847  -0.741  1.00  0.00     0.127 C 
ENDROOT
BRANCH   1   2
HETATM    2  C6  UNL     1       0.205   1.128  -2.047  1.00  0.00     0.058 C 
BRANCH   2   3
HETATM    3  C5  UNL     1       1.410   0.271  -1.889  1.00  0.00     0.234 C 
BRANCH   3   4
HETATM    4  N4  UNL     1       2.630   0.916  -1.552  1.00  0.00    -0.075 N 
ATOM      5  H42 UNL     1       2.558   1.508  -0.725  1.00  0.00     0.277 HD
ATOM      6  H41 UNL     1       2.894   1.649  -2.211  1.00  0.00     0.277 HD
BRANCH   4   7
HETATM    7  C4  UNL     1       3.631  -0.130  -1.424  1.00  0.00     0.234 C 
BRANCH   7   8
HETATM    8  C3  UNL     1       4.991   0.394  -1.085  1.00  0.00     0.047 C 
BRANCH   8   9
HETATM    9  C2  UNL     1       5.928  -0.794  -0.970  1.00  0.00     0.123 C 
BRANCH   9  10
HETATM   10  N3  UNL     1       6.000  -1.547  -2.204  1.00  0.00    -0.367 N 
HETATM   11  C1  UNL     1       6.946  -2.411  -2.366  1.00  0.00     0.196 C 
HETATM   12  N1  UNL     1       7.916  -2.617  -1.326  1.00  0.00    -0.067 NA
HETATM   13  N2  UNL     1       7.046  -3.169  -3.564  1.00  0.00    -0.067 NA
ATOM     14  H3  UNL     1       5.309  -1.396  -2.939  1.00  0.00     0.161 HD
ENDBRANCH   9  10
ENDBRANCH   8   9
ENDBRANCH   7   8
ENDBRANCH   4   7
ENDBRANCH   3   4
ENDBRANCH   2   3
ENDBRANCH   1   2
BRANCH   1  15
HETATM   15  N5  UNL     1      -1.196   2.670  -0.758  1.00  0.00    -0.306 N 
ATOM     16  H5  UNL     1      -2.056   2.232  -1.089  1.00  0.00     0.173 HD
BRANCH  15  17
HETATM   17  S1  UNL     1      -1.351   4.243  -0.336  1.00  0.00     0.262 S 
HETATM   18  O1  UNL     1      -0.573   5.217  -1.217  1.00  0.00    -0.200 OA
HETATM   19  O2  UNL     1      -2.805   4.660  -0.621  1.00  0.00    -0.200 OA
BRANCH  17  20
HETATM   20  C8  UNL     1      -1.032   4.709   1.313  1.00  0.00     0.118 A 
HETATM   21  C9  UNL     1      -2.113   5.040   2.133  1.00  0.00     0.030 A 
HETATM   22  C10 UNL     1      -1.947   5.374   3.457  1.00  0.00     0.021 A 
HETATM   23  C11 UNL     1      -0.693   5.389   4.006  1.00  0.00     0.013 A 
HETATM   24 BR1  UNL     1      -0.476   5.852   5.841  1.00  0.00    -0.051 Br
HETATM   25  C12 UNL     1       0.394   5.070   3.231  1.00  0.00     0.063 A 
HETATM   26  C13 UNL     1       0.205   4.735   1.890  1.00  0.00     0.141 A 
HETATM   27  F1  UNL     1       1.330   4.470   1.165  1.00  0.00    -0.204 F 
ENDBRANCH  17  20
ENDBRANCH  15  17
ENDBRANCH   1  15
BRANCH   1  28
HETATM   28  C14 UNL     1      -0.387   0.727   0.242  1.00  0.00    -0.034 A 
HETATM   29  C15 UNL     1       0.472   0.336   1.216  1.00  0.00     0.010 A 
HETATM   30  C16 UNL     1       0.203  -0.692   2.094  1.00  0.00     0.013 A 
HETATM   31  C17 UNL     1      -1.004  -1.367   1.983  1.00  0.00    -0.024 A 
HETATM   32  C18 UNL     1      -1.311  -2.393   2.848  1.00  0.00     0.012 A 
HETATM   33  C24 UNL     1      -1.896  -0.989   0.999  1.00  0.00    -0.002 A 
HETATM   34  C19 UNL     1      -2.509  -3.035   2.722  1.00  0.00     0.002 A 
HETATM   35  C20 UNL     1      -3.398  -2.642   1.724  1.00  0.00     0.026 A 
HETATM   36  C21 UNL     1      -3.134  -1.621   0.833  1.00  0.00     0.090 A 
HETATM   37  C25 UNL     1      -1.605   0.050   0.127  1.00  0.00     0.023 A 
BRANCH  36  38
HETATM   38  S2  UNL     1      -4.256  -1.136  -0.415  1.00  0.00     0.259 S 
HETATM   39  O3  UNL     1      -4.710   0.279  -0.218  1.00  0.00    -0.201 OA
HETATM   40  O4  UNL     1      -3.551  -1.187  -1.785  1.00  0.00    -0.201 OA
BRANCH  38  41
HETATM   41  N6  UNL     1      -5.635  -2.141  -0.525  1.00  0.00    -0.313 N 
ATOM     42  H6  UNL     1      -6.580  -1.801  -0.346  1.00  0.00     0.172 HD
BRANCH  41  43
HETATM   43  C22 UNL     1      -5.359  -3.498  -0.888  1.00  0.00     0.158 C 
BRANCH  43  44
HETATM   44  C23 UNL     1      -6.657  -4.306  -0.948  1.00  0.00     0.184 C 
BRANCH  44  45
HETATM   45  O5  UNL     1      -7.300  -4.305   0.295  1.00  0.00    -0.399 OA
ATOM     46  H5  UNL     1      -8.106  -4.807   0.258  1.00  0.00     0.209 HD
ENDBRANCH  44  45
ENDBRANCH  43  44
ENDBRANCH  41  43
ENDBRANCH  38  41
ENDBRANCH  36  38
ENDBRANCH   1  28
TORSDOF 16
