REMARK  18 active torsions:
REMARK  status: ('A' for Active; 'I' for Inactive)
REMARK    1  A    between atoms: C2_2  and  C3_3 
REMARK    2  A    between atoms: C3_3  and  C4_7 
REMARK    3  A    between atoms: C4_7  and  O1_8 
REMARK    4  A    between atoms: C4_7  and  C5_10 
REMARK    5  A    between atoms: C6_11  and  C7_12 
REMARK    6  A    between atoms: C7_12  and  C8_14 
REMARK    7  A    between atoms: C9_15  and  C10_16 
REMARK    8  A    between atoms: C11_17  and  N2_18 
REMARK    9  A    between atoms: N3_27  and  C16_28 
REMARK   10  A    between atoms: C16_28  and  C17_29 
REMARK   11  A    between atoms: C17_29  and  C19_31 
REMARK       I    between atoms: C19_31  and  N4_33 
REMARK       I    between atoms: N4_33  and  C20_35 
REMARK   12  A    between atoms: C20_35  and  C21_37 
REMARK   13  A    between atoms: C21_37  and  N5_38 
REMARK   14  A    between atoms: C21_37  and  C22_46 
REMARK   15  A    between atoms: N5_38  and  S1_40 
REMARK   16  A    between atoms: S1_40  and  N6_41 
REMARK   17  A    between atoms: C25_49  and  C26_50 
REMARK   18  A    between atoms: C27_51  and  C28_52 
ROOT
HETATM    1  C10 UNL     1       2.672  -1.785  -1.025  1.00  0.00     0.068 C 
HETATM    2  C11 UNL     1       2.695  -2.394  -2.369  1.00  0.00     0.229 C 
HETATM    3  C12 UNL     1       1.437  -2.354  -3.139  1.00  0.00     0.228 C 
HETATM    4  F2  UNL     1       0.737  -3.561  -3.017  1.00  0.00    -0.245 F 
HETATM    5  C13 UNL     1       0.487  -1.219  -2.816  1.00  0.00     0.058 C 
HETATM    6  C14 UNL     1       0.889  -0.008  -3.619  1.00  0.00     0.041 C 
HETATM    7  C15 UNL     1      -0.844  -1.673  -3.441  1.00  0.00     0.041 C 
HETATM    8  N3  UNL     1       0.391  -0.913  -1.459  1.00  0.00    -0.372 N 
HETATM    9  C25 UNL     1       1.275  -1.464  -0.523  1.00  0.00     0.116 C 
ENDROOT
BRANCH   8  10
HETATM   10  C16 UNL     1      -0.825  -0.488  -0.886  1.00  0.00     0.073 C 
BRANCH  10  11
HETATM   11  C17 UNL     1      -1.293   0.897  -1.219  1.00  0.00     0.112 C 
HETATM   12  C18 UNL     1      -0.318   1.909  -0.728  1.00  0.00     0.025 C 
BRANCH  11  13
HETATM   13  C19 UNL     1      -2.686   1.078  -0.680  1.00  0.00     0.233 C 
HETATM   14  O2  UNL     1      -3.550   1.560  -1.499  1.00  0.00    -0.272 OA
HETATM   15  N4  UNL     1      -3.010   0.743   0.632  1.00  0.00    -0.295 N 
HETATM   16  C20 UNL     1      -4.236   0.860   1.254  1.00  0.00     0.248 C 
ATOM     17  H4  UNL     1      -2.251   0.367   1.201  1.00  0.00     0.171 HD
HETATM   18  O3  UNL     1      -4.271   0.509   2.504  1.00  0.00    -0.271 OA
BRANCH  16  19
HETATM   19  C21 UNL     1      -5.490   1.336   0.667  1.00  0.00     0.190 C 
BRANCH  19  20
HETATM   20  N5  UNL     1      -6.150   2.198   1.714  1.00  0.00    -0.289 N 
ATOM     21  H5  UNL     1      -6.504   1.848   2.604  1.00  0.00     0.174 HD
BRANCH  20  22
HETATM   22  S1  UNL     1      -6.230   3.826   1.226  1.00  0.00     0.313 S 
HETATM   23  O4  UNL     1      -5.094   4.064   0.252  1.00  0.00    -0.183 OA
HETATM   24  O5  UNL     1      -6.047   4.769   2.397  1.00  0.00    -0.183 OA
BRANCH  22  25
HETATM   25  N6  UNL     1      -7.686   4.263   0.425  1.00  0.00    -0.312 N 
ATOM     26  H62 UNL     1      -8.433   3.588   0.263  1.00  0.00     0.170 HD
ATOM     27  H61 UNL     1      -7.734   5.239   0.132  1.00  0.00     0.170 HD
ENDBRANCH  22  25
ENDBRANCH  20  22
ENDBRANCH  19  20
BRANCH  19  28
HETATM   28  C22 UNL     1      -6.472   0.251   0.346  1.00  0.00     0.010 C 
HETATM   29  C23 UNL     1      -7.717   0.850  -0.275  1.00  0.00     0.012 C 
HETATM   30  C24 UNL     1      -5.922  -0.798  -0.537  1.00  0.00     0.012 C 
ENDBRANCH  19  28
ENDBRANCH  16  19
ENDBRANCH  11  13
ENDBRANCH  10  11
ENDBRANCH   8  10
BRANCH   9  31
HETATM   31  C26 UNL     1       0.690  -2.613   0.251  1.00  0.00    -0.004 C 
HETATM   32  C27 UNL     1       1.231  -3.017   1.372  1.00  0.00    -0.020 C 
BRANCH  32  33
HETATM   33  C28 UNL     1       0.586  -4.172   2.087  1.00  0.00    -0.034 C 
HETATM   34  C29 UNL     1       0.120  -5.230   1.128  1.00  0.00     0.018 C 
HETATM   35  C30 UNL     1      -0.671  -3.568   2.724  1.00  0.00     0.018 C 
HETATM   36  C31 UNL     1       1.463  -4.736   3.159  1.00  0.00     0.018 C 
ENDBRANCH  32  33
ENDBRANCH   9  31
BRANCH   1  37
HETATM   37  C9  UNL     1       3.567  -0.625  -0.806  1.00  0.00    -0.019 C 
HETATM   38  C8  UNL     1       4.226   0.069  -1.678  1.00  0.00     0.010 C 
BRANCH  38  39
HETATM   39  C7  UNL     1       5.110   1.236  -1.324  1.00  0.00     0.215 C 
HETATM   40  F1  UNL     1       4.643   2.276  -2.149  1.00  0.00    -0.241 F 
BRANCH  39  41
HETATM   41  C6  UNL     1       4.914   1.704   0.057  1.00  0.00     0.013 C 
HETATM   42  C5  UNL     1       5.946   2.176   0.733  1.00  0.00     0.010 C 
BRANCH  42  43
HETATM   43  C4  UNL     1       5.853   2.677   2.148  1.00  0.00     0.190 C 
BRANCH  43  44
HETATM   44  C3  UNL     1       5.642   4.135   2.120  1.00  0.00     0.034 C 
HETATM   45  N1  UNL     1       5.556   4.768   1.011  1.00  0.00    -0.400 N 
ATOM     46  H12 UNL     1       5.410   5.777   0.992  1.00  0.00     0.156 HD
ATOM     47  H11 UNL     1       5.636   4.258   0.131  1.00  0.00     0.156 HD
BRANCH  44  48
HETATM   48  C2  UNL     1       5.528   4.862   3.373  1.00  0.00     0.017 C 
HETATM   49  C1  UNL     1       5.333   6.186   3.372  1.00  0.00     0.013 C 
ENDBRANCH  44  48
ENDBRANCH  43  44
BRANCH  43  50
HETATM   50  O1  UNL     1       7.009   2.339   2.872  1.00  0.00    -0.386 OA
ATOM     51  H1  UNL     1       7.145   1.399   2.890  1.00  0.00     0.210 HD
ENDBRANCH  43  50
ENDBRANCH  42  43
ENDBRANCH  39  41
ENDBRANCH  38  39
ENDBRANCH   1  37
BRANCH   2  52
HETATM   52  N2  UNL     1       3.037  -3.831  -2.224  1.00  0.00    -0.071 N 
ATOM     53  H23 UNL     1       3.907  -3.978  -1.711  1.00  0.00     0.274 HD
ATOM     54  H22 UNL     1       2.413  -4.320  -1.582  1.00  0.00     0.274 HD
ATOM     55  H21 UNL     1       3.053  -4.252  -3.153  1.00  0.00     0.274 HD
ENDBRANCH   2  52
TORSDOF 18
