REMARK  16 active torsions:
REMARK  status: ('A' for Active; 'I' for Inactive)
REMARK    1  A    between atoms: C2_2  and  C3_3 
REMARK    2  A    between atoms: C3_3  and  C5_5 
REMARK    3  A    between atoms: C7_10  and  C8_11 
REMARK    4  A    between atoms: C8_11  and  C9_12 
REMARK    5  A    between atoms: C9_12  and  C10_13 
REMARK    6  A    between atoms: C11_18  and  O4_19 
REMARK    7  A    between atoms: C14_23  and  C15_24 
REMARK       I    between atoms: C15_24  and  N3_26 
REMARK    8  A    between atoms: N3_26  and  C16_28 
REMARK    9  A    between atoms: C16_28  and  C17_29 
REMARK   10  A    between atoms: C16_28  and  C22_37 
REMARK   11  A    between atoms: C17_29  and  O6_30 
REMARK   12  A    between atoms: O6_30  and  C18_31 
REMARK   13  A    between atoms: C18_31  and  C19_32 
REMARK   14  A    between atoms: C19_32  and  C20_33 
REMARK   15  A    between atoms: C22_37  and  C23_38 
REMARK   16  A    between atoms: C27_45  and  C28_46 
ROOT
HETATM    1  C5  UNL     1      -4.664  -0.743  -0.967  1.00  0.00     0.180 C 
HETATM    2  N1  UNL     1      -4.413   0.502  -1.634  1.00  0.00    -0.346 N 
ATOM      3  H1  UNL     1      -5.244   1.093  -1.664  1.00  0.00     0.163 HD
HETATM    4  C6  UNL     1      -3.320   1.108  -2.251  1.00  0.00     0.241 C 
HETATM    5  O1  UNL     1      -3.290   1.220  -3.545  1.00  0.00    -0.271 OA
HETATM    6  C7  UNL     1      -2.070   1.712  -1.716  1.00  0.00     0.176 C 
HETATM    7  N2  UNL     1      -2.024   1.882  -0.302  1.00  0.00    -0.361 N 
ATOM      8  H2  UNL     1      -2.950   1.902   0.126  1.00  0.00     0.162 HD
HETATM    9  C11 UNL     1      -1.006   2.025   0.616  1.00  0.00     0.118 C 
HETATM   10  C12 UNL     1       0.124   1.254   1.098  1.00  0.00     0.088 C 
HETATM   11  C13 UNL     1       0.381   1.607   2.597  1.00  0.00     0.021 C 
HETATM   12  C14 UNL     1       0.316  -0.167   0.912  1.00  0.00     0.188 C 
HETATM   13  N4  UNL     1      -0.585  -0.999   0.193  1.00  0.00    -0.345 N 
ATOM     14  H4  UNL     1      -0.568  -0.863  -0.818  1.00  0.00     0.163 HD
HETATM   15  C26 UNL     1      -1.502  -1.984   0.635  1.00  0.00     0.241 C 
HETATM   16  O7  UNL     1      -1.447  -3.157   0.093  1.00  0.00    -0.271 OA
HETATM   17  C27 UNL     1      -2.550  -1.830   1.680  1.00  0.00     0.180 C 
HETATM   18  N5  UNL     1      -3.568  -0.903   1.407  1.00  0.00    -0.346 N 
ATOM     19  H5  UNL     1      -3.530  -0.113   2.051  1.00  0.00     0.163 HD
HETATM   20  C31 UNL     1      -4.622  -0.763   0.495  1.00  0.00     0.241 C 
HETATM   21  O8  UNL     1      -5.768  -0.627   1.080  1.00  0.00    -0.271 OA
ENDROOT
BRANCH  12  22
HETATM   22  C15 UNL     1       1.729  -0.434   0.430  1.00  0.00     0.241 C 
HETATM   23  O5  UNL     1       1.843  -1.358  -0.430  1.00  0.00    -0.271 OA
HETATM   24  N3  UNL     1       2.859   0.265   0.875  1.00  0.00    -0.353 N 
ATOM     25  H3  UNL     1       2.762   1.014   1.561  1.00  0.00     0.163 HD
BRANCH  24  26
HETATM   26  C16 UNL     1       4.157  -0.080   0.359  1.00  0.00     0.108 C 
BRANCH  26  27
HETATM   27  C17 UNL     1       4.621   1.092  -0.483  1.00  0.00     0.192 C 
BRANCH  27  28
HETATM   28  O6  UNL     1       5.848   0.856  -0.998  1.00  0.00    -0.389 OA
BRANCH  28  29
HETATM   29  C18 UNL     1       5.932  -0.203  -1.851  1.00  0.00     0.173 C 
BRANCH  29  30
HETATM   30  C19 UNL     1       7.378  -0.365  -2.334  1.00  0.00     0.105 C 
BRANCH  30  31
HETATM   31  C20 UNL     1       7.759   0.895  -3.049  1.00  0.00     0.242 C 
HETATM   32  C21 UNL     1       9.197   0.804  -3.558  1.00  0.00     0.090 C 
HETATM   33  F1  UNL     1       7.692   1.999  -2.233  1.00  0.00    -0.207 F 
HETATM   34  F2  UNL     1       6.897   1.022  -4.141  1.00  0.00    -0.207 F 
ENDBRANCH  30  31
ENDBRANCH  29  30
ENDBRANCH  28  29
ENDBRANCH  27  28
ENDBRANCH  26  27
BRANCH  26  35
HETATM   35  C22 UNL     1       5.162  -0.529   1.339  1.00  0.00     0.031 C 
BRANCH  35  36
HETATM   36  C23 UNL     1       5.577   0.393   2.425  1.00  0.00    -0.021 C 
HETATM   37  C24 UNL     1       6.650  -0.389   3.234  1.00  0.00     0.009 C 
HETATM   38  C25 UNL     1       4.517   0.734   3.439  1.00  0.00     0.009 C 
ENDBRANCH  35  36
ENDBRANCH  26  35
ENDBRANCH  24  26
ENDBRANCH  12  22
BRANCH   9  39
HETATM   39  O4  UNL     1      -1.053   3.178   1.247  1.00  0.00    -0.349 OA
ATOM     40  H4  UNL     1      -0.351   3.277   1.880  1.00  0.00     0.219 HD
ENDBRANCH   9  39
BRANCH  17  41
HETATM   41  C28 UNL     1      -2.989  -3.171   2.221  1.00  0.00     0.009 C 
HETATM   42  C29 UNL     1      -3.578  -4.100   1.206  1.00  0.00     0.012 C 
HETATM   43  C30 UNL     1      -3.775  -3.036   3.483  1.00  0.00     0.012 C 
ENDBRANCH  17  41
BRANCH   6  44
HETATM   44  C8  UNL     1      -1.615   2.904  -2.531  1.00  0.00     0.045 C 
BRANCH  44  45
HETATM   45  C9  UNL     1      -2.513   4.040  -2.693  1.00  0.00     0.116 C 
BRANCH  45  46
HETATM   46  C10 UNL     1      -2.910   4.689  -1.435  1.00  0.00     0.172 C 
HETATM   47  O2  UNL     1      -3.955   4.430  -0.812  1.00  0.00    -0.648 OA
HETATM   48  O3  UNL     1      -2.040   5.667  -0.911  1.00  0.00    -0.648 OA
ENDBRANCH  45  46
ENDBRANCH  44  45
ENDBRANCH   6  44
BRANCH   1  49
HETATM   49  C3  UNL     1      -6.002  -1.276  -1.486  1.00  0.00     0.013 C 
HETATM   50  C4  UNL     1      -7.103  -0.264  -1.281  1.00  0.00     0.012 C 
BRANCH  49  51
HETATM   51  C2  UNL     1      -6.453  -2.567  -0.955  1.00  0.00     0.002 C 
HETATM   52  C1  UNL     1      -7.723  -2.948  -1.743  1.00  0.00     0.005 C 
ENDBRANCH  49  51
ENDBRANCH   1  49
TORSDOF 16
