REMARK  15 active torsions:
REMARK  status: ('A' for Active; 'I' for Inactive)
REMARK    1  A    between atoms: C3_4  and  O1_5 
REMARK    2  A    between atoms: O1_5  and  C4_6 
REMARK    3  A    between atoms: C4_6  and  C5_7 
REMARK    4  A    between atoms: C5_7  and  C6_8 
REMARK    5  A    between atoms: C6_8  and  O2_9 
REMARK    6  A    between atoms: O2_9  and  C7_10 
REMARK    7  A    between atoms: C16_21  and  C17_22 
REMARK       I    between atoms: C17_22  and  N2_24 
REMARK    8  A    between atoms: C19_27  and  C20_28 
REMARK    9  A    between atoms: C20_28  and  C21_29 
REMARK   10  A    between atoms: C21_29  and  C22_30 
REMARK   11  A    between atoms: C22_30  and  N3_31 
REMARK       I    between atoms: N3_31  and  C23_33 
REMARK   12  A    between atoms: C25_42  and  C26_43 
REMARK   13  A    between atoms: C26_43  and  C27_44 
REMARK   14  A    between atoms: C27_44  and  C28_45 
REMARK   15  A    between atoms: C28_45  and  N7_46 
ROOT
HETATM    1  N1  UNL     1       1.556  -1.283   1.468  1.00  0.00    -0.191 NA
HETATM    2  C1  UNL     1       1.420  -1.052   0.363  1.00  0.00     0.103 C 
HETATM    3  C2  UNL     1       1.270  -0.745  -1.043  1.00  0.00     0.093 A 
HETATM    4  C3  UNL     1       2.335  -0.188  -1.748  1.00  0.00     0.090 A 
HETATM    5  C13 UNL     1       2.266   0.117  -3.088  1.00  0.00     0.038 A 
HETATM    6  C14 UNL     1       1.095  -0.139  -3.764  1.00  0.00     0.004 A 
HETATM    7  C15 UNL     1       0.031  -0.683  -3.111  1.00  0.00     0.019 A 
HETATM    8  C16 UNL     1       0.109  -0.989  -1.751  1.00  0.00     0.056 A 
ENDROOT
BRANCH   4   9
HETATM    9  O1  UNL     1       3.499   0.059  -1.036  1.00  0.00    -0.349 OA
BRANCH   9  10
HETATM   10  C4  UNL     1       4.601   0.614  -1.683  1.00  0.00     0.178 C 
BRANCH  10  11
HETATM   11  C5  UNL     1       5.751   0.803  -0.700  1.00  0.00     0.053 C 
BRANCH  11  12
HETATM   12  C6  UNL     1       6.107  -0.544  -0.145  1.00  0.00     0.178 C 
BRANCH  12  13
HETATM   13  O2  UNL     1       7.130  -0.543   0.763  1.00  0.00    -0.349 OA
BRANCH  13  14
HETATM   14  C7  UNL     1       8.429  -0.218   0.737  1.00  0.00     0.090 A 
HETATM   15  C8  UNL     1       9.159   0.241  -0.335  1.00  0.00     0.040 A 
HETATM   16  C9  UNL     1      10.506   0.550  -0.261  1.00  0.00     0.026 A 
HETATM   17  C10 UNL     1      11.170   0.398   0.934  1.00  0.00     0.035 A 
HETATM   18 CL1  UNL     1      12.870   0.791   1.023  1.00  0.00    -0.084 Cl
HETATM   19  C11 UNL     1      10.480  -0.059   2.037  1.00  0.00     0.050 A 
HETATM   20  C12 UNL     1       9.149  -0.355   1.932  1.00  0.00     0.069 A 
HETATM   21 CL2  UNL     1       8.336  -0.929   3.364  1.00  0.00    -0.081 Cl
ENDBRANCH  13  14
ENDBRANCH  12  13
ENDBRANCH  11  12
ENDBRANCH  10  11
ENDBRANCH   9  10
ENDBRANCH   4   9
BRANCH   8  22
HETATM   22  C17 UNL     1      -1.049  -1.560  -1.092  1.00  0.00     0.263 C 
HETATM   23  O3  UNL     1      -1.090  -2.807  -1.020  1.00  0.00    -0.267 OA
HETATM   24  N2  UNL     1      -2.138  -0.826  -0.529  1.00  0.00    -0.268 N 
HETATM   25  C18 UNL     1      -2.053   0.579  -0.733  1.00  0.00     0.250 C 
HETATM   26  C25 UNL     1      -3.252  -1.379   0.127  1.00  0.00     0.188 C 
HETATM   27  O4  UNL     1      -1.021   1.236  -0.921  1.00  0.00    -0.271 OA
HETATM   28  C19 UNL     1      -3.386   1.371  -0.718  1.00  0.00     0.177 C 
HETATM   29  N6  UNL     1      -3.786   1.022   0.662  1.00  0.00    -0.346 N 
HETATM   30  C24 UNL     1      -3.973  -0.350   0.921  1.00  0.00     0.241 C 
ATOM     31  H6  UNL     1      -3.918   1.732   1.383  1.00  0.00     0.163 HD
HETATM   32  O5  UNL     1      -4.773  -0.701   1.850  1.00  0.00    -0.271 OA
BRANCH  28  33
HETATM   33  C20 UNL     1      -3.115   2.781  -0.965  1.00  0.00     0.036 C 
BRANCH  33  34
HETATM   34  C21 UNL     1      -4.319   3.644  -1.071  1.00  0.00     0.022 C 
BRANCH  34  35
HETATM   35  C22 UNL     1      -5.192   3.658   0.116  1.00  0.00     0.122 C 
BRANCH  35  36
HETATM   36  N3  UNL     1      -6.292   4.607  -0.131  1.00  0.00    -0.365 N 
HETATM   37  C23 UNL     1      -6.027   5.977  -0.214  1.00  0.00     0.181 C 
HETATM   38  N4  UNL     1      -4.973   6.529   0.296  1.00  0.00    -0.374 N 
HETATM   39  N5  UNL     1      -6.953   6.817  -0.887  1.00  0.00    -0.064 NA
ATOM     40  H42 UNL     1      -4.308   5.926   0.779  1.00  0.00     0.158 HD
ATOM     41  H41 UNL     1      -4.780   7.529   0.235  1.00  0.00     0.158 HD
ATOM     42  H3  UNL     1      -7.246   4.264  -0.241  1.00  0.00     0.162 HD
ENDBRANCH  35  36
ENDBRANCH  34  35
ENDBRANCH  33  34
ENDBRANCH  28  33
BRANCH  26  43
HETATM   43  C26 UNL     1      -3.126  -2.652   0.885  1.00  0.00     0.037 C 
BRANCH  43  44
HETATM   44  C27 UNL     1      -2.195  -2.711   2.025  1.00  0.00     0.022 C 
BRANCH  44  45
HETATM   45  C28 UNL     1      -2.295  -4.140   2.597  1.00  0.00     0.122 C 
BRANCH  45  46
HETATM   46  N7  UNL     1      -3.645  -4.416   3.032  1.00  0.00    -0.367 N 
HETATM   47  C29 UNL     1      -4.262  -5.393   2.458  1.00  0.00     0.196 C 
HETATM   48  N8  UNL     1      -5.606  -5.643   2.915  1.00  0.00    -0.067 NA
HETATM   49  N9  UNL     1      -3.722  -6.206   1.444  1.00  0.00    -0.067 NA
ATOM     50  H7  UNL     1      -4.092  -3.862   3.762  1.00  0.00     0.161 HD
ENDBRANCH  45  46
ENDBRANCH  44  45
ENDBRANCH  43  44
ENDBRANCH  26  43
ENDBRANCH   8  22
TORSDOF 15
