REMARK  6 active torsions:
REMARK  status: ('A' for Active; 'I' for Inactive)
REMARK    1  A    between atoms: C4_4  and  C5_5 
REMARK    2  A    between atoms: C9_9  and  C10_10 
REMARK    3  A    between atoms: C10_10  and  C11_11 
REMARK    4  A    between atoms: C11_11  and  C12_12 
REMARK    5  A    between atoms: C12_12  and  C13_13 
REMARK    6  A    between atoms: C15_17  and  C16_18 
ROOT
HETATM    1  C11 UNL     1       0.102  -0.112  -1.131  1.00  0.00     0.011 C 
ENDROOT
BRANCH   1   2
HETATM    2  C10 UNL     1      -1.097  -0.414  -2.028  1.00  0.00     0.039 C 
BRANCH   2   3
HETATM    3  C9  UNL     1      -2.208  -0.998  -1.231  1.00  0.00    -0.057 A 
HETATM    4  C8  UNL     1      -2.269  -2.369  -1.081  1.00  0.00     0.007 A 
HETATM    5  C7  UNL     1      -3.299  -2.942  -0.339  1.00  0.00     0.001 A 
HETATM    6  C6  UNL     1      -4.257  -2.141   0.246  1.00  0.00     0.012 A 
HETATM    7  C5  UNL     1      -4.192  -0.776   0.093  1.00  0.00    -0.025 A 
HETATM    8  C22 UNL     1      -3.165  -0.186  -0.648  1.00  0.00     0.019 A 
BRANCH   7   9
HETATM    9  C4  UNL     1      -5.218   0.032   0.723  1.00  0.00    -0.026 A 
HETATM   10  C3  UNL     1      -6.501  -0.480   0.857  1.00  0.00     0.012 A 
HETATM   11  C2  UNL     1      -7.518   0.248   1.450  1.00  0.00     0.001 A 
HETATM   12  C1  UNL     1      -7.264   1.518   1.925  1.00  0.00     0.000 A 
HETATM   13  C24 UNL     1      -5.994   2.056   1.804  1.00  0.00     0.001 A 
HETATM   14  C23 UNL     1      -4.999   1.305   1.207  1.00  0.00     0.012 A 
ENDBRANCH   7   9
ENDBRANCH   2   3
ENDBRANCH   1   2
BRANCH   1  15
HETATM   15  C12 UNL     1       1.163   0.471  -2.029  1.00  0.00     0.059 C 
BRANCH  15  16
HETATM   16  C13 UNL     1       2.407   0.822  -1.299  1.00  0.00     0.026 A 
HETATM   17  C14 UNL     1       2.680   2.039  -0.711  1.00  0.00     0.114 A 
HETATM   18  N1  UNL     1       3.910   1.947  -0.154  1.00  0.00    -0.350 N 
HETATM   19  C15 UNL     1       4.421   0.727  -0.366  1.00  0.00     0.115 A 
ATOM     20  H1  UNL     1       4.379   2.697   0.353  1.00  0.00     0.166 HD
HETATM   21  N2  UNL     1       3.493   0.053  -1.066  1.00  0.00    -0.344 N 
ATOM     22  H2  UNL     1       3.595  -0.912  -1.380  1.00  0.00     0.167 HD
BRANCH  19  23
HETATM   23  C16 UNL     1       5.734   0.263   0.090  1.00  0.00     0.008 A 
HETATM   24  C17 UNL     1       6.178  -1.007  -0.172  1.00  0.00     0.015 A 
HETATM   25  C18 UNL     1       7.414  -1.474   0.247  1.00  0.00     0.001 A 
HETATM   26  C19 UNL     1       8.258  -0.648   0.960  1.00  0.00     0.000 A 
HETATM   27  C20 UNL     1       7.815   0.631   1.225  1.00  0.00     0.001 A 
HETATM   28  C21 UNL     1       6.566   1.101   0.802  1.00  0.00     0.015 A 
ENDBRANCH  19  23
ENDBRANCH  15  16
ENDBRANCH   1  15
TORSDOF 6
