REMARK  6 active torsions:
REMARK  status: ('A' for Active; 'I' for Inactive)
REMARK    1  A    between atoms: C4_4  and  C5_5 
REMARK    2  A    between atoms: C5_5  and  C6_6 
REMARK    3  A    between atoms: C6_6  and  C7_7 
REMARK    4  A    between atoms: C7_7  and  C8_8 
REMARK    5  A    between atoms: C8_8  and  C9_9 
REMARK    6  A    between atoms: C8_8  and  C15_15 
ROOT
HETATM    1  C8  UNL     1      -0.637   0.981   0.020  1.00  0.00     0.054 C 
ENDROOT
BRANCH   1   2
HETATM    2  C7  UNL     1       0.536   1.515   0.771  1.00  0.00     0.014 C 
BRANCH   2   3
HETATM    3  C6  UNL     1       1.725   0.602   0.787  1.00  0.00     0.006 C 
BRANCH   3   4
HETATM    4  C5  UNL     1       2.249   0.298  -0.597  1.00  0.00     0.038 C 
BRANCH   4   5
HETATM    5  C4  UNL     1       3.416  -0.610  -0.447  1.00  0.00    -0.058 A 
HETATM    6  C3  UNL     1       4.713  -0.164  -0.304  1.00  0.00     0.007 A 
HETATM    7  C2  UNL     1       5.789  -1.013  -0.166  1.00  0.00     0.001 A 
HETATM    8  C1  UNL     1       5.577  -2.392  -0.169  1.00  0.00     0.000 A 
HETATM    9  C23 UNL     1       4.295  -2.858  -0.311  1.00  0.00     0.001 A 
HETATM   10  C22 UNL     1       3.243  -1.990  -0.446  1.00  0.00     0.007 A 
ENDBRANCH   4   5
ENDBRANCH   3   4
ENDBRANCH   2   3
ENDBRANCH   1   2
BRANCH   1  11
HETATM   11  C9  UNL     1      -1.724   1.994   0.092  1.00  0.00    -0.050 A 
HETATM   12  C10 UNL     1      -2.115   2.539   1.308  1.00  0.00     0.008 A 
HETATM   13  C11 UNL     1      -3.121   3.496   1.400  1.00  0.00     0.001 A 
HETATM   14  C12 UNL     1      -3.771   3.940   0.264  1.00  0.00     0.000 A 
HETATM   15  C13 UNL     1      -3.376   3.394  -0.939  1.00  0.00     0.001 A 
HETATM   16  C14 UNL     1      -2.380   2.447  -1.029  1.00  0.00     0.008 A 
ENDBRANCH   1  11
BRANCH   1  17
HETATM   17  C15 UNL     1      -1.165  -0.296   0.513  1.00  0.00    -0.020 A 
HETATM   18  C16 UNL     1      -1.015  -0.860   1.786  1.00  0.00     0.098 A 
HETATM   19  N1  UNL     1      -1.681  -2.022   1.779  1.00  0.00    -0.351 N 
HETATM   20  C17 UNL     1      -2.261  -2.266   0.590  1.00  0.00     0.115 A 
ATOM     21  H1  UNL     1      -1.741  -2.649   2.581  1.00  0.00     0.166 HD
HETATM   22  N2  UNL     1      -3.019  -3.297   0.118  1.00  0.00    -0.352 N 
HETATM   23  C21 UNL     1      -1.936  -1.178  -0.210  1.00  0.00     0.016 A 
HETATM   24  C18 UNL     1      -3.489  -3.325  -1.120  1.00  0.00     0.089 A 
ATOM     25  H2  UNL     1      -3.232  -4.076   0.742  1.00  0.00     0.166 HD
HETATM   26  C19 UNL     1      -3.198  -2.277  -1.952  1.00  0.00     0.018 A 
HETATM   27  C20 UNL     1      -2.432  -1.213  -1.512  1.00  0.00     0.017 A 
ENDBRANCH   1  17
TORSDOF 6
