REMARK  5 active torsions:
REMARK  status: ('A' for Active; 'I' for Inactive)
REMARK    1  A    between atoms: C2_2  and  N1_3 
REMARK    2  A    between atoms: C2_2  and  C3_7 
REMARK    3  A    between atoms: C3_7  and  N2_8 
REMARK    4  A    between atoms: C3_7  and  C4_12 
REMARK    5  A    between atoms: C4_12  and  C6_15 
ROOT
HETATM    1  C3  UNL     1      -0.449  -0.574  -0.229  1.00  0.00     0.255 C 
ENDROOT
BRANCH   1   2
HETATM    2  C2  UNL     1      -1.489   0.458  -0.243  1.00  0.00     0.213 C 
HETATM    3  C1  UNL     1      -1.824   1.185   0.982  1.00  0.00     0.042 C 
BRANCH   2   4
HETATM    4  N1  UNL     1      -2.720  -0.151  -0.752  1.00  0.00    -0.073 N 
ATOM      5  H13 UNL     1      -3.188  -0.736  -0.060  1.00  0.00     0.274 HD
ATOM      6  H12 UNL     1      -3.471   0.526  -0.886  1.00  0.00     0.274 HD
ATOM      7  H11 UNL     1      -2.486  -0.658  -1.606  1.00  0.00     0.274 HD
ENDBRANCH   2   4
ENDBRANCH   1   2
BRANCH   1   8
HETATM    8  N2  UNL     1      -0.816  -1.640   0.716  1.00  0.00    -0.070 N 
ATOM      9  H23 UNL     1      -1.007  -1.276   1.649  1.00  0.00     0.274 HD
ATOM     10  H22 UNL     1      -1.738  -2.028   0.517  1.00  0.00     0.274 HD
ATOM     11  H21 UNL     1      -0.092  -2.358   0.726  1.00  0.00     0.274 HD
ENDBRANCH   1   8
BRANCH   1  12
HETATM   12  C4  UNL     1       0.953  -0.197   0.053  1.00  0.00     0.166 C 
HETATM   13  C5  UNL     1       1.784  -1.474  -0.003  1.00  0.00     0.058 C 
HETATM   14  F1  UNL     1       1.142   0.305   1.340  1.00  0.00    -0.237 F 
BRANCH  12  15
HETATM   15  C6  UNL     1       1.562   0.718  -0.985  1.00  0.00     0.249 A 
HETATM   16  N3  UNL     1       2.945   1.063  -0.666  1.00  0.00    -0.114 NA
HETATM   17  N4  UNL     1       1.947   2.011  -0.808  1.00  0.00    -0.313 N 
ATOM     18  H4  UNL     1       1.683   2.996  -0.791  1.00  0.00     0.177 HD
ENDBRANCH  12  15
ENDBRANCH   1  12
TORSDOF 5
