REMARK  3 active torsions:
REMARK  status: ('A' for Active; 'I' for Inactive)
REMARK    1  A    between atoms: N1_2  and  C2_5 
REMARK    2  A    between atoms: C2_5  and  N2_6 
REMARK    3  A    between atoms: C2_5  and  C3_10 
ROOT
HETATM    1  C2  UNL     1      -0.860   0.516   0.331  1.00  0.00     0.435 C 
ENDROOT
BRANCH   1   2
HETATM    2  N1  UNL     1      -1.511  -0.293  -0.662  1.00  0.00    -0.046 N 
HETATM    3  C1  UNL     1      -2.925   0.105  -0.726  1.00  0.00     0.269 C 
ATOM      4  H12 UNL     1      -1.391  -1.292  -0.495  1.00  0.00     0.279 HD
ATOM      5  H11 UNL     1      -1.049  -0.248  -1.570  1.00  0.00     0.279 HD
ENDBRANCH   1   2
BRANCH   1   6
HETATM    6  N2  UNL     1      -1.368   0.282   1.665  1.00  0.00    -0.046 N 
ATOM      7  H23 UNL     1      -2.380   0.407   1.698  1.00  0.00     0.277 HD
ATOM      8  H22 UNL     1      -1.315  -0.707   1.908  1.00  0.00     0.277 HD
ATOM      9  H21 UNL     1      -0.906   0.856   2.370  1.00  0.00     0.277 HD
ENDBRANCH   1   6
BRANCH   1  10
HETATM   10  C3  UNL     1       0.613   0.257   0.357  1.00  0.00     0.379 C 
HETATM   11  N3  UNL     1       1.219   0.418  -0.973  1.00  0.00    -0.043 N 
HETATM   12  C4  UNL     1       2.605   0.051  -0.633  1.00  0.00     0.261 C 
ATOM     13  H32 UNL     1       0.786  -0.105  -1.734  1.00  0.00     0.280 HD
ATOM     14  H31 UNL     1       1.088   1.324  -1.424  1.00  0.00     0.280 HD
HETATM   15  C5  UNL     1       2.379  -0.962   0.475  1.00  0.00     0.198 C 
HETATM   16  O1  UNL     1       0.977  -1.030   0.649  1.00  0.00    -0.355 OA
ENDBRANCH   1  10
TORSDOF 3
