REMARK  1 active torsions:
REMARK  status: ('A' for Active; 'I' for Inactive)
REMARK       I    between atoms: N1_1  and  C1_5 
REMARK       I    between atoms: C1_5  and  N2_6 
REMARK       I    between atoms: C1_5  and  N3_10 
REMARK    1  A    between atoms: N3_10  and  C2_12 
ROOT
HETATM    1  N1  UNL     1      -2.370  -0.125   1.052  1.00  0.00    -0.033 N 
ATOM      2  H11 UNL     1      -2.329  -0.965   1.629  1.00  0.00     0.278 HD
ATOM      3  H12 UNL     1      -3.280   0.334   1.094  1.00  0.00     0.278 HD
ATOM      4  H13 UNL     1      -1.810   0.638   1.433  1.00  0.00     0.278 HD
HETATM    5  C1  UNL     1      -1.985  -0.473  -0.305  1.00  0.00     0.478 C 
HETATM    6  N2  UNL     1      -2.042   0.703  -1.112  1.00  0.00    -0.033 N 
ATOM      7  H21 UNL     1      -1.772   0.459  -2.065  1.00  0.00     0.278 HD
ATOM      8  H22 UNL     1      -1.482   1.466  -0.731  1.00  0.00     0.278 HD
ATOM      9  H23 UNL     1      -2.952   1.162  -1.070  1.00  0.00     0.278 HD
HETATM   10  N3  UNL     1      -0.751  -1.160  -0.283  1.00  0.00    -0.348 N 
ATOM     11  H3  UNL     1      -0.677  -2.107  -0.655  1.00  0.00     0.159 HD
ENDROOT
BRANCH  10  12
HETATM   12  C2  UNL     1       0.378  -0.513   0.263  1.00  0.00     0.219 C 
HETATM   13  C3  UNL     1       0.855   0.716  -0.391  1.00  0.00     0.055 C 
HETATM   14  C4  UNL     1       2.336   0.733  -0.061  1.00  0.00     0.030 C 
HETATM   15  C5  UNL     1       2.622  -0.681   0.322  1.00  0.00     0.170 C 
HETATM   16  O1  UNL     1       1.464  -1.383   0.143  1.00  0.00    -0.367 OA
ENDBRANCH  10  12
TORSDOF 1
