REMARK  6 active torsions:
REMARK  status: ('A' for Active; 'I' for Inactive)
REMARK    1  A    between atoms: C2_2  and  N1_3 
REMARK    2  A    between atoms: C2_2  and  C3_7 
REMARK    3  A    between atoms: C4_8  and  N2_9 
REMARK    4  A    between atoms: C5_13  and  C6_14 
REMARK    5  A    between atoms: C6_14  and  N3_15 
REMARK    6  A    between atoms: C6_14  and  N4_19 
ROOT
HETATM    1  C3  UNL     1      -0.393  -0.114  -0.423  1.00  0.00     0.056 A 
HETATM    2  C4  UNL     1       0.365   1.074  -0.843  1.00  0.00     0.198 A 
HETATM    3  C5  UNL     1       0.951   0.228   0.215  1.00  0.00     0.082 A 
ENDROOT
BRANCH   3   4
HETATM    4  C6  UNL     1       2.029  -0.783  -0.080  1.00  0.00     0.384 C 
BRANCH   4   5
HETATM    5  N3  UNL     1       3.286  -0.459   0.519  1.00  0.00    -0.050 N 
ATOM      6  H33 UNL     1       3.585   0.478   0.250  1.00  0.00     0.276 HD
ATOM      7  H32 UNL     1       3.184  -0.321   1.524  1.00  0.00     0.276 HD
ATOM      8  H31 UNL     1       4.016  -1.143   0.319  1.00  0.00     0.276 HD
ENDBRANCH   4   5
BRANCH   4   9
HETATM    9  N4  UNL     1       1.605  -2.092   0.391  1.00  0.00    -0.050 N 
ATOM     10  H43 UNL     1       1.345  -2.082   1.377  1.00  0.00     0.276 HD
ATOM     11  H42 UNL     1       0.702  -2.367   0.005  1.00  0.00     0.276 HD
ATOM     12  H41 UNL     1       2.335  -2.776   0.191  1.00  0.00     0.276 HD
ENDBRANCH   4   9
ENDBRANCH   3   4
BRANCH   1  13
HETATM   13  C2  UNL     1      -1.540  -0.073   0.524  1.00  0.00     0.186 C 
HETATM   14  C1  UNL     1      -2.685   0.784   0.044  1.00  0.00     0.040 C 
BRANCH  13  15
HETATM   15  N1  UNL     1      -2.023  -1.429   0.721  1.00  0.00    -0.075 N 
ATOM     16  H13 UNL     1      -2.829  -1.469   1.345  1.00  0.00     0.274 HD
ATOM     17  H12 UNL     1      -2.471  -1.808  -0.113  1.00  0.00     0.274 HD
ATOM     18  H11 UNL     1      -1.249  -2.008   1.046  1.00  0.00     0.274 HD
ENDBRANCH  13  15
ENDBRANCH   1  13
BRANCH   2  19
HETATM   19  N2  UNL     1      -0.065   2.412  -0.467  1.00  0.00    -0.074 N 
ATOM     20  H23 UNL     1      -1.032   2.530  -0.771  1.00  0.00     0.274 HD
ATOM     21  H22 UNL     1      -0.159   2.440   0.548  1.00  0.00     0.274 HD
ATOM     22  H21 UNL     1       0.461   3.236  -0.758  1.00  0.00     0.274 HD
ENDBRANCH   2  19
TORSDOF 6
