REMARK  3 active torsions:
REMARK  status: ('A' for Active; 'I' for Inactive)
REMARK    1  A    between atoms: C2_2  and  N1_3 
REMARK    2  A    between atoms: C2_2  and  C3_7 
REMARK    3  A    between atoms: C4_10  and  N3_11 
ROOT
HETATM    1  C3  UNL     1       0.192   0.250  -0.082  1.00  0.00     0.192 A 
HETATM    2  N2  UNL     1       1.181   0.778   0.681  1.00  0.00    -0.169 N 
ATOM      3  H2  UNL     1       1.080   1.546   1.345  1.00  0.00     0.186 HD
HETATM    4  C4  UNL     1       2.315   0.114   0.411  1.00  0.00     0.698 A 
HETATM    5  N4  UNL     1       2.009  -0.810  -0.511  1.00  0.00    -0.090 N 
ATOM      6  H4  UNL     1       2.662  -1.477  -0.922  1.00  0.00     0.213 HD
HETATM    7  O1  UNL     1       0.727  -0.716  -0.799  1.00  0.00    -0.207 OA
ENDROOT
BRANCH   1   8
HETATM    8  C2  UNL     1      -1.241   0.633  -0.153  1.00  0.00     0.256 C 
HETATM    9  C1  UNL     1      -2.111  -0.365   0.596  1.00  0.00     0.049 C 
BRANCH   8  10
HETATM   10  N1  UNL     1      -1.734   0.727  -1.490  1.00  0.00    -0.068 N 
ATOM     11  H13 UNL     1      -1.788  -0.179  -1.956  1.00  0.00     0.275 HD
ATOM     12  H12 UNL     1      -2.726   0.959  -1.530  1.00  0.00     0.275 HD
ATOM     13  H11 UNL     1      -1.151   1.396  -1.992  1.00  0.00     0.275 HD
ENDBRANCH   8  10
ENDBRANCH   1   8
BRANCH   4  14
HETATM   14  N3  UNL     1       3.491   0.283   0.905  1.00  0.00    -0.233 N 
ATOM     15  H32 UNL     1       3.724   0.986   1.606  1.00  0.00     0.174 HD
ATOM     16  H31 UNL     1       4.353  -0.222   0.700  1.00  0.00     0.174 HD
ENDBRANCH   4  14
TORSDOF 3
