REMARK  1 active torsions:
REMARK  status: ('A' for Active; 'I' for Inactive)
REMARK    1  A    between atoms: C1_4  and  C2_6 
ROOT
HETATM    1  C2  UNL     1      -0.217  -0.210   0.135  1.00  0.00     0.133 A 
HETATM    2  N3  UNL     1       0.302   0.990   0.309  1.00  0.00    -0.289 N 
ATOM      3  H3  UNL     1      -0.314   1.789   0.461  1.00  0.00     0.188 HD
HETATM    4  N4  UNL     1       1.560   1.162   0.290  1.00  0.00    -0.279 N 
ATOM      5  H4  UNL     1       1.963   2.089   0.425  1.00  0.00     0.189 HD
HETATM    6  C3  UNL     1       2.346   0.094   0.088  1.00  0.00     0.159 A 
HETATM    7  N5  UNL     1       3.651   0.049   0.033  1.00  0.00    -0.379 N 
ATOM      8  H51 UNL     1       4.249  -0.763  -0.121  1.00  0.00     0.158 HD
ATOM      9  H52 UNL     1       4.339   0.796   0.128  1.00  0.00     0.158 HD
HETATM   10  S1  UNL     1       1.191  -1.159  -0.071  1.00  0.00    -0.031 SA
ENDROOT
BRANCH   1  11
HETATM   11  C1  UNL     1      -1.629  -0.552   0.132  1.00  0.00     0.145 C 
HETATM   12  N1  UNL     1      -1.992  -1.773  -0.051  1.00  0.00    -0.385 N 
ATOM     13  H12 UNL     1      -2.983  -2.013  -0.053  1.00  0.00     0.157 HD
ATOM     14  H11 UNL     1      -1.315  -2.522  -0.197  1.00  0.00     0.157 HD
HETATM   15  N2  UNL     1      -2.568   0.487   0.334  1.00  0.00    -0.080 NA
ENDBRANCH   1  11
TORSDOF 1
