REMARK  2 active torsions:
REMARK  status: ('A' for Active; 'I' for Inactive)
REMARK    1  A    between atoms: C1_4  and  C2_6 
REMARK    2  A    between atoms: C3_12  and  N5_13 
ROOT
HETATM    1  C2  UNL     1      -0.165   0.337  -0.080  1.00  0.00     0.142 A 
HETATM    2  N3  UNL     1      -0.659   1.539  -0.371  1.00  0.00    -0.235 N 
ATOM      3  H3  UNL     1      -0.108   2.371  -0.582  1.00  0.00     0.197 HD
HETATM    4  O1  UNL     1      -1.975   1.480  -0.342  1.00  0.00    -0.155 OA
HETATM    5  N4  UNL     1      -2.368   0.278  -0.042  1.00  0.00    -0.224 N 
ATOM      6  H4  UNL     1      -3.333  -0.041   0.047  1.00  0.00     0.198 HD
HETATM    7  C3  UNL     1      -1.239  -0.479   0.132  1.00  0.00     0.153 A 
ENDROOT
BRANCH   1   8
HETATM    8  C1  UNL     1       1.240  -0.011  -0.010  1.00  0.00     0.142 C 
HETATM    9  N1  UNL     1       1.631  -1.217   0.282  1.00  0.00    -0.386 N 
ATOM     10  H12 UNL     1       2.620  -1.462   0.331  1.00  0.00     0.157 HD
ATOM     11  H11 UNL     1       0.904  -1.909   0.460  1.00  0.00     0.157 HD
HETATM   12  N2  UNL     1       2.255   0.955  -0.259  1.00  0.00    -0.081 NA
ENDBRANCH   1   8
BRANCH   7  13
HETATM   13  N5  UNL     1      -1.231  -1.716   0.436  1.00  0.00    -0.382 N 
ATOM     14  H52 UNL     1      -0.391  -2.279   0.566  1.00  0.00     0.157 HD
ATOM     15  H51 UNL     1      -2.033  -2.326   0.594  1.00  0.00     0.157 HD
ENDBRANCH   7  13
TORSDOF 2
