REMARK  9 active torsions:
REMARK  status: ('A' for Active; 'I' for Inactive)
REMARK    1  A    between atoms: N1_3  and  C3_4 
REMARK    2  A    between atoms: C3_4  and  C4_5 
REMARK    3  A    between atoms: C4_5  and  C5_6 
REMARK    4  A    between atoms: C5_6  and  C6_7 
REMARK    5  A    between atoms: C6_7  and  C7_8 
REMARK    6  A    between atoms: C7_8  and  N2_9 
REMARK       I    between atoms: N2_9  and  C8_11 
REMARK    7  A    between atoms: N5_18  and  C11_19 
REMARK    8  A    between atoms: C11_19  and  C12_20 
REMARK    9  A    between atoms: C12_20  and  C13_21 
REMARK       I    between atoms: N6_24  and  C16_25 
REMARK       I    between atoms: C16_25  and  N7_27 
ROOT
HETATM    1  C1  UNL     1      -2.312  -0.425   1.599  1.00  0.00     0.056 C 
HETATM    2  C2  UNL     1      -2.473  -1.314   0.385  1.00  0.00     0.185 C 
HETATM    3  N1  UNL     1      -2.320  -0.694  -0.848  1.00  0.00    -0.371 N 
HETATM    4  C9  UNL     1      -1.279   0.267  -0.996  1.00  0.00     0.144 C 
HETATM    5  C10 UNL     1       0.049  -0.267  -1.402  1.00  0.00     0.147 C 
HETATM    6  N5  UNL     1       0.623  -1.195  -0.472  1.00  0.00    -0.333 N 
HETATM    7  C20 UNL     1      -0.081  -2.202   0.244  1.00  0.00     0.321 C 
HETATM    8  O2  UNL     1       0.669  -3.073   0.787  1.00  0.00    -0.247 OA
HETATM    9  N10 UNL     1      -1.471  -2.413   0.463  1.00  0.00    -0.317 N 
HETATM   10  C21 UNL     1      -1.928  -3.735   0.774  1.00  0.00     0.156 C 
ENDROOT
BRANCH   6  11
HETATM   11  C11 UNL     1       2.051  -1.082  -0.258  1.00  0.00     0.128 C 
BRANCH  11  12
HETATM   12  C12 UNL     1       2.357  -0.122   0.890  1.00  0.00     0.024 C 
BRANCH  12  13
HETATM   13  C13 UNL     1       3.877  -0.059   1.040  1.00  0.00    -0.010 C 
HETATM   14  C14 UNL     1       4.455   0.447  -0.260  1.00  0.00     0.024 C 
HETATM   15  C15 UNL     1       5.611   1.418  -0.006  1.00  0.00     0.128 C 
HETATM   16  N6  UNL     1       6.424   0.943   1.094  1.00  0.00    -0.334 N 
HETATM   17  C16 UNL     1       7.808   0.759   0.921  1.00  0.00     0.324 C 
HETATM   18  C18 UNL     1       5.786   0.670   2.356  1.00  0.00     0.128 C 
HETATM   19  O1  UNL     1       8.487   0.335   1.901  1.00  0.00    -0.247 OA
HETATM   20  N7  UNL     1       8.477   1.026  -0.295  1.00  0.00    -0.285 N 
HETATM   21  C17 UNL     1       9.512   0.352  -0.618  1.00  0.00     0.204 C 
ATOM     22  H7  UNL     1       8.132   1.758  -0.916  1.00  0.00     0.172 HD
HETATM   23  N8  UNL     1      10.169   0.635  -1.842  1.00  0.00    -0.066 NA
HETATM   24  N9  UNL     1      10.006  -0.662   0.224  1.00  0.00    -0.066 NA
HETATM   25  C19 UNL     1       4.275   0.842   2.184  1.00  0.00     0.024 C 
ENDBRANCH  12  13
ENDBRANCH  11  12
ENDBRANCH   6  11
BRANCH   3  26
HETATM   26  C3  UNL     1      -3.215  -0.821  -1.893  1.00  0.00     0.060 C 
BRANCH  26  27
HETATM   27  C4  UNL     1      -4.551  -0.163  -1.884  1.00  0.00     0.044 C 
BRANCH  27  28
HETATM   28  C5  UNL     1      -5.421  -0.569  -0.766  1.00  0.00     0.007 C 
BRANCH  28  29
HETATM   29  C6  UNL     1      -6.812   0.075  -0.853  1.00  0.00     0.020 C 
BRANCH  29  30
HETATM   30  C7  UNL     1      -6.775   1.564  -0.815  1.00  0.00     0.122 C 
BRANCH  30  31
HETATM   31  N2  UNL     1      -8.119   2.080  -0.910  1.00  0.00    -0.365 N 
HETATM   32  C8  UNL     1      -9.117   1.959   0.081  1.00  0.00     0.181 C 
HETATM   33  N3  UNL     1      -9.596   3.087   0.565  1.00  0.00    -0.374 N 
HETATM   34  N4  UNL     1      -9.615   0.714   0.564  1.00  0.00    -0.064 NA
ATOM     35  H32 UNL     1      -9.240   3.978   0.219  1.00  0.00     0.158 HD
ATOM     36  H31 UNL     1     -10.317   3.000   1.281  1.00  0.00     0.158 HD
ATOM     37  H2  UNL     1      -8.369   2.574  -1.766  1.00  0.00     0.162 HD
ENDBRANCH  30  31
ENDBRANCH  29  30
ENDBRANCH  28  29
ENDBRANCH  27  28
ENDBRANCH  26  27
ENDBRANCH   3  26
TORSDOF 9
