REMARK  13 active torsions:
REMARK  status: ('A' for Active; 'I' for Inactive)
REMARK    1  A    between atoms: C2_2  and  C3_3 
REMARK    2  A    between atoms: C3_3  and  N1_4 
REMARK    3  A    between atoms: C7_8  and  N2_9 
REMARK    4  A    between atoms: C7_8  and  C12_20 
REMARK       I    between atoms: N2_9  and  C8_11 
REMARK       I    between atoms: C8_11  and  N3_13 
REMARK    5  A    between atoms: C9_15  and  N4_17 
REMARK       I    between atoms: C12_20  and  N5_22 
REMARK    6  A    between atoms: N5_22  and  C13_24 
REMARK    7  A    between atoms: C13_24  and  C14_25 
REMARK    8  A    between atoms: C14_25  and  N6_26 
REMARK    9  A    between atoms: N6_26  and  C15_27 
REMARK   10  A    between atoms: C15_27  and  C16_28 
REMARK   11  A    between atoms: C16_28  and  C17_29 
REMARK   12  A    between atoms: C18_30  and  C19_31 
REMARK   13  A    between atoms: C19_31  and  N7_32 
ROOT
HETATM    1  C12 UNL     1      -0.933  -0.694   0.023  1.00  0.00     0.267 C 
HETATM    2  O2  UNL     1      -0.613  -0.517   1.211  1.00  0.00    -0.269 OA
HETATM    3  N5  UNL     1      -0.048  -1.262  -0.905  1.00  0.00    -0.356 N 
ATOM      4  H5  UNL     1      -0.362  -1.388  -1.867  1.00  0.00     0.162 HD
ENDROOT
BRANCH   1   5
HETATM    5  C7  UNL     1      -2.324  -0.273  -0.396  1.00  0.00     0.196 C 
HETATM    6  N1  UNL     1      -2.881  -1.318  -1.115  1.00  0.00    -0.336 N 
HETATM    7  C4  UNL     1      -3.276  -0.997  -2.422  1.00  0.00     0.066 C 
HETATM    8  C5  UNL     1      -2.570   0.292  -2.733  1.00  0.00     0.050 C 
HETATM    9  C6  UNL     1      -2.164   0.835  -1.410  1.00  0.00     0.070 C 
BRANCH   6  10
HETATM   10  C3  UNL     1      -3.524  -2.372  -0.448  1.00  0.00     0.092 C 
BRANCH  10  11
HETATM   11  C2  UNL     1      -3.150  -3.667  -1.129  1.00  0.00     0.007 C 
HETATM   12  C1  UNL     1      -4.040  -4.459  -1.670  1.00  0.00     0.012 C 
ENDBRANCH  10  11
ENDBRANCH   6  10
BRANCH   5  13
HETATM   13  N2  UNL     1      -3.048   0.264   0.723  1.00  0.00    -0.308 N 
HETATM   14  C8  UNL     1      -4.320   0.818   0.705  1.00  0.00     0.323 C 
HETATM   15  O1  UNL     1      -4.971   0.892  -0.359  1.00  0.00    -0.247 OA
HETATM   16  N3  UNL     1      -4.913   1.311   1.891  1.00  0.00    -0.299 N 
HETATM   17  C9  UNL     1      -5.405   2.477   2.025  1.00  0.00     0.076 C 
ATOM     18  H3  UNL     1      -4.949   0.687   2.697  1.00  0.00     0.171 HD
HETATM   19  C10 UNL     1      -6.004   2.893   3.317  1.00  0.00     0.089 C 
ATOM     20  H2  UNL     1      -2.577   0.235   1.627  1.00  0.00     0.167 HD
BRANCH  17  21
HETATM   21  N4  UNL     1      -5.396   3.407   0.957  1.00  0.00    -0.384 N 
HETATM   22  C11 UNL     1      -6.560   3.970   0.350  1.00  0.00     0.147 C 
ATOM     23  H4  UNL     1      -4.488   3.697   0.593  1.00  0.00     0.160 HD
ENDBRANCH  17  21
ENDBRANCH   5  13
ENDBRANCH   1   5
BRANCH   3  24
HETATM   24  C13 UNL     1       1.281  -1.673  -0.555  1.00  0.00     0.150 C 
BRANCH  24  25
HETATM   25  C14 UNL     1       2.169  -0.564  -0.052  1.00  0.00     0.257 C 
BRANCH  25  26
HETATM   26  N6  UNL     1       3.498  -1.013   0.265  1.00  0.00    -0.065 N 
HETATM   27  C20 UNL     1       3.367  -2.272   0.973  1.00  0.00     0.237 C 
HETATM   28  C21 UNL     1       4.665  -2.671   1.648  1.00  0.00     0.028 C 
HETATM   29  C22 UNL     1       4.868  -1.782   2.843  1.00  0.00     0.003 C 
HETATM   30  C23 UNL     1       3.956  -0.577   2.649  1.00  0.00     0.028 C 
HETATM   31  C24 UNL     1       4.037  -0.048   1.234  1.00  0.00     0.237 C 
BRANCH  26  32
HETATM   32  C15 UNL     1       4.378  -1.191  -0.815  1.00  0.00     0.249 C 
BRANCH  32  33
HETATM   33  C16 UNL     1       4.291  -0.244  -1.948  1.00  0.00     0.122 C 
BRANCH  33  34
HETATM   34  C17 UNL     1       4.544   1.145  -1.556  1.00  0.00    -0.103 C 
HETATM   35  C18 UNL     1       4.767   2.309  -1.247  1.00  0.00    -0.079 C 
BRANCH  35  36
HETATM   36  C19 UNL     1       5.049   3.674  -0.867  1.00  0.00     0.323 C 
BRANCH  36  37
HETATM   37  N7  UNL     1       6.477   3.891  -0.953  1.00  0.00    -0.069 N 
ATOM     38  H73 UNL     1       7.009   3.215  -0.405  1.00  0.00     0.275 HD
ATOM     39  H72 UNL     1       6.854   3.655  -1.871  1.00  0.00     0.275 HD
ATOM     40  H71 UNL     1       6.676   4.855  -0.685  1.00  0.00     0.275 HD
ENDBRANCH  36  37
ENDBRANCH  35  36
ENDBRANCH  33  34
ENDBRANCH  32  33
ENDBRANCH  26  32
ENDBRANCH  25  26
ENDBRANCH  24  25
ENDBRANCH   3  24
TORSDOF 13
