REMARK  6 active torsions:
REMARK  status: ('A' for Active; 'I' for Inactive)
REMARK    1  A    between atoms: C2_2  and  N1_3 
REMARK    2  A    between atoms: N1_3  and  C4_5 
REMARK    3  A    between atoms: C4_5  and  C5_6 
REMARK    4  A    between atoms: C5_6  and  O1_7 
REMARK    5  A    between atoms: O1_7  and  C6_8 
REMARK    6  A    between atoms: C8_12  and  N3_13 
ROOT
HETATM    1  C6  UNL     1       1.823   0.493   1.236  1.00  0.00     0.173 A 
HETATM    2  C7  UNL     1       1.846  -0.841   0.917  1.00  0.00     0.162 A 
HETATM    3  N2  UNL     1       3.111  -1.331   1.103  1.00  0.00    -0.198 N 
ATOM      4  H2  UNL     1       3.416  -2.291   0.943  1.00  0.00     0.183 HD
HETATM    5  C8  UNL     1       3.876  -0.315   1.535  1.00  0.00     0.677 A 
HETATM    6  N4  UNL     1       3.110   0.780   1.617  1.00  0.00    -0.169 N 
ATOM      7  H4  UNL     1       3.437   1.698   1.920  1.00  0.00     0.186 HD
ENDROOT
BRANCH   1   8
HETATM    8  O1  UNL     1       0.779   1.379   1.199  1.00  0.00    -0.333 OA
BRANCH   8   9
HETATM    9  C5  UNL     1      -0.529   1.198   0.828  1.00  0.00     0.207 C 
BRANCH   9  10
HETATM   10  C4  UNL     1      -0.721   0.791  -0.613  1.00  0.00     0.298 C 
BRANCH  10  11
HETATM   11  N1  UNL     1      -2.162   0.653  -0.798  1.00  0.00     0.085 N 
HETATM   12  C3  UNL     1      -2.782  -0.137   0.218  1.00  0.00     0.310 C 
BRANCH  11  13
HETATM   13  C2  UNL     1      -2.471   0.259  -2.140  1.00  0.00     0.267 C 
HETATM   14  C1  UNL     1      -1.892  -1.070  -2.535  1.00  0.00     0.037 C 
ENDBRANCH  11  13
ENDBRANCH  10  11
ENDBRANCH   9  10
ENDBRANCH   8   9
ENDBRANCH   1   8
BRANCH   5  15
HETATM   15  N3  UNL     1       5.157  -0.383   1.828  1.00  0.00    -0.234 N 
ATOM     16  H32 UNL     1       5.741  -1.217   1.766  1.00  0.00     0.174 HD
ATOM     17  H31 UNL     1       5.738   0.389   2.156  1.00  0.00     0.174 HD
ENDBRANCH   5  15
TORSDOF 6
