REMARK  6 active torsions:
REMARK  status: ('A' for Active; 'I' for Inactive)
REMARK    1  A    between atoms: N1_2  and  C2_5 
REMARK    2  A    between atoms: C2_5  and  C3_6 
REMARK    3  A    between atoms: C3_6  and  N2_7 
REMARK    4  A    between atoms: N2_7  and  C4_10 
REMARK    5  A    between atoms: C4_10  and  C5_11 
REMARK    6  A    between atoms: C5_11  and  C6_12 
ROOT
HETATM    1  C4  UNL     1       0.132  -0.853  -0.785  1.00  0.00     0.232 C 
ENDROOT
BRANCH   1   2
HETATM    2  N2  UNL     1       1.393  -1.008  -0.077  1.00  0.00    -0.074 N 
ATOM      3  H22 UNL     1       1.840  -1.889  -0.331  1.00  0.00     0.277 HD
ATOM      4  H21 UNL     1       1.228  -1.178   0.915  1.00  0.00     0.277 HD
BRANCH   2   5
HETATM    5  C3  UNL     1       2.298   0.081  -0.254  1.00  0.00     0.259 C 
BRANCH   5   6
HETATM    6  C2  UNL     1       3.582  -0.221   0.494  1.00  0.00     0.259 C 
BRANCH   6   7
HETATM    7  N1  UNL     1       4.554   0.843   0.363  1.00  0.00    -0.077 N 
HETATM    8  C1  UNL     1       5.737   0.425   1.094  1.00  0.00     0.267 C 
ATOM      9  H12 UNL     1       4.198   1.751   0.661  1.00  0.00     0.276 HD
ATOM     10  H11 UNL     1       4.748   1.092  -0.607  1.00  0.00     0.276 HD
ENDBRANCH   6   7
ENDBRANCH   5   6
ENDBRANCH   2   5
ENDBRANCH   1   2
BRANCH   1  11
HETATM   11  C5  UNL     1      -0.739   0.232  -0.260  1.00  0.00     0.032 C 
BRANCH  11  12
HETATM   12  C6  UNL     1      -1.996   0.372  -1.047  1.00  0.00    -0.010 C 
HETATM   13  C7  UNL     1      -2.885   1.488  -0.513  1.00  0.00     0.032 C 
HETATM   14  C8  UNL     1      -3.586   1.108   0.766  1.00  0.00     0.232 C 
HETATM   15  N3  UNL     1      -4.313  -0.122   0.546  1.00  0.00    -0.075 N 
HETATM   16  C9  UNL     1      -3.338  -1.198   0.294  1.00  0.00     0.232 C 
ATOM     17  H32 UNL     1      -4.952  -0.342   1.310  1.00  0.00     0.277 HD
ATOM     18  H31 UNL     1      -5.008  -0.040  -0.196  1.00  0.00     0.277 HD
HETATM   19  C10 UNL     1      -2.782  -0.888  -1.098  1.00  0.00     0.032 C 
ENDBRANCH  11  12
ENDBRANCH   1  11
TORSDOF 6
