REMARK  9 active torsions:
REMARK  status: ('A' for Active; 'I' for Inactive)
REMARK    1  A    between atoms: C11_11  and  O1_12 
REMARK    2  A    between atoms: C13_15  and  O2_16 
REMARK    3  A    between atoms: C14_18  and  C15_19 
REMARK    4  A    between atoms: C15_19  and  O4_21 
REMARK    5  A    between atoms: O4_21  and  C16_22 
REMARK    6  A    between atoms: C19_25  and  C20_26 
REMARK    7  A    between atoms: C23_30  and  C24_31 
REMARK    8  A    between atoms: C24_31  and  O6_32 
REMARK    9  A    between atoms: O6_32  and  C25_33 
ROOT
HETATM    1  C1  UNL     1      -1.427  -4.017  -1.139  1.00  0.00     0.015 C 
HETATM    2  C2  UNL     1      -1.541  -2.792  -0.699  1.00  0.00    -0.080 C 
HETATM    3  C3  UNL     1      -2.651  -1.933  -1.139  1.00  0.00     0.044 C 
HETATM    4  C4  UNL     1      -2.918  -0.871  -0.058  1.00  0.00    -0.031 C 
HETATM    5  C5  UNL     1      -4.434  -0.657  -0.178  1.00  0.00     0.016 C 
HETATM    6  C6  UNL     1      -2.724  -1.446   1.318  1.00  0.00     0.011 C 
HETATM    7  C7  UNL     1      -1.375  -2.045   1.550  1.00  0.00     0.014 C 
HETATM    8  C8  UNL     1      -0.598  -2.133   0.268  1.00  0.00     0.044 C 
HETATM    9  C9  UNL     1       0.008  -0.903  -0.271  1.00  0.00    -0.050 C 
HETATM   10  C10 UNL     1      -0.734   0.384   0.031  1.00  0.00    -0.040 C 
HETATM   11  C11 UNL     1      -0.409   0.992   1.357  1.00  0.00     0.151 C 
HETATM   12  C12 UNL     1       0.997   0.794   1.767  1.00  0.00     0.076 C 
HETATM   13  C13 UNL     1       1.965   0.316   0.750  1.00  0.00     0.092 C 
HETATM   14  C14 UNL     1       2.498   1.353  -0.182  1.00  0.00     0.144 C 
HETATM   15  C18 UNL     1       2.733   0.669  -1.489  1.00  0.00     0.002 C 
HETATM   16  C19 UNL     1       2.178  -0.505  -1.456  1.00  0.00    -0.008 C 
HETATM   17  C21 UNL     1       1.497  -0.770  -0.135  1.00  0.00     0.042 C 
HETATM   18  C22 UNL     1       2.170  -2.073   0.326  1.00  0.00     0.029 C 
HETATM   19  C23 UNL     1      -2.150   0.354  -0.383  1.00  0.00     0.050 C 
ENDROOT
BRANCH  14  20
HETATM   20  C15 UNL     1       3.848   1.871   0.242  1.00  0.00     0.269 C 
HETATM   21  O3  UNL     1       4.042   3.086   0.506  1.00  0.00    -0.264 OA
BRANCH  20  22
HETATM   22  O4  UNL     1       4.938   1.020   0.359  1.00  0.00    -0.321 OA
BRANCH  22  23
HETATM   23  C16 UNL     1       6.204   1.539   0.763  1.00  0.00     0.174 C 
HETATM   24  C17 UNL     1       7.242   0.439   0.823  1.00  0.00     0.034 C 
ENDBRANCH  22  23
ENDBRANCH  20  22
ENDBRANCH  14  20
BRANCH  13  25
HETATM   25  O2  UNL     1       3.095  -0.119   1.498  1.00  0.00    -0.387 OA
ATOM     26  H2  UNL     1       3.715  -0.425   0.847  1.00  0.00     0.210 HD
ENDBRANCH  13  25
BRANCH  16  27
HETATM   27  C20 UNL     1       2.230  -1.438  -2.602  1.00  0.00     0.266 C 
HETATM   28  O5  UNL     1       2.805  -1.162  -3.663  1.00  0.00    -0.302 OA
ENDBRANCH  16  27
BRANCH  11  29
HETATM   29  O1  UNL     1      -0.614   2.394   1.359  1.00  0.00    -0.391 OA
ATOM     30  H1  UNL     1      -0.407   2.780   2.202  1.00  0.00     0.210 HD
ENDBRANCH  11  29
BRANCH  19  31
HETATM   31  C24 UNL     1      -2.812   1.665  -0.038  1.00  0.00     0.188 C 
BRANCH  31  32
HETATM   32  O6  UNL     1      -4.048   1.853  -0.702  1.00  0.00    -0.321 OA
BRANCH  32  33
HETATM   33  C25 UNL     1      -4.745   3.021  -0.461  1.00  0.00     0.254 C 
HETATM   34  C26 UNL     1      -6.042   3.338  -1.088  1.00  0.00     0.126 C 
HETATM   35  O7  UNL     1      -4.243   3.851   0.333  1.00  0.00    -0.266 OA
ENDBRANCH  32  33
ENDBRANCH  31  32
ENDBRANCH  19  31
TORSDOF 9
