REMARK  9 active torsions:
REMARK  status: ('A' for Active; 'I' for Inactive)
REMARK    1  A    between atoms: C2_2  and  C4_4 
REMARK    2  A    between atoms: C4_4  and  O2_6 
REMARK    3  A    between atoms: O2_6  and  C5_7 
REMARK    4  A    between atoms: C8_10  and  O3_11 
REMARK    5  A    between atoms: O3_11  and  C9_12 
REMARK       I    between atoms: C9_12  and  N1_14 
REMARK    6  A    between atoms: N1_14  and  C10_16 
REMARK    7  A    between atoms: C10_16  and  C11_17 
REMARK    8  A    between atoms: C11_17  and  N2_18 
REMARK    9  A    between atoms: C21_29  and  O6_30 
ROOT
HETATM    1  C5  UNL     1      -2.010  -0.823  -1.090  1.00  0.00     0.147 C 
HETATM    2  C6  UNL     1      -0.684  -1.134  -0.525  1.00  0.00     0.041 C 
HETATM    3  C7  UNL     1      -0.614  -2.553  -0.059  1.00  0.00     0.015 C 
HETATM    4  C8  UNL     1      -0.275  -0.210   0.619  1.00  0.00     0.140 C 
HETATM    5  C16 UNL     1      -1.330   0.386   1.402  1.00  0.00     0.039 C 
HETATM    6  C17 UNL     1      -2.529   0.787   0.642  1.00  0.00     0.009 C 
HETATM    7  C18 UNL     1      -3.169   2.095   1.054  1.00  0.00    -0.017 C 
HETATM    8  C19 UNL     1      -3.716   1.879   2.476  1.00  0.00     0.018 C 
HETATM    9  C20 UNL     1      -2.250   3.259   1.129  1.00  0.00     0.018 C 
HETATM   10  C21 UNL     1      -4.372   2.434   0.237  1.00  0.00     0.126 C 
HETATM   11  C22 UNL     1      -4.300   2.104  -1.214  1.00  0.00     0.033 C 
HETATM   12  C23 UNL     1      -3.912   0.650  -1.367  1.00  0.00     0.014 C 
HETATM   13  C24 UNL     1      -2.446   0.589  -0.811  1.00  0.00    -0.012 C 
HETATM   14  C25 UNL     1      -1.675   1.513  -1.664  1.00  0.00     0.018 C 
ENDROOT
BRANCH   4  15
HETATM   15  O3  UNL     1       0.735   0.697   0.190  1.00  0.00    -0.298 OA
BRANCH  15  16
HETATM   16  C9  UNL     1       2.061   0.410   0.095  1.00  0.00     0.364 C 
HETATM   17  O4  UNL     1       2.374  -0.795   0.359  1.00  0.00    -0.238 OA
HETATM   18  N1  UNL     1       3.113   1.272  -0.260  1.00  0.00    -0.315 N 
ATOM     19  H1  UNL     1       2.884   2.255  -0.411  1.00  0.00     0.170 HD
BRANCH  18  20
HETATM   20  C10 UNL     1       4.459   0.886  -0.424  1.00  0.00     0.086 C 
BRANCH  20  21
HETATM   21  C11 UNL     1       5.144   0.132   0.661  1.00  0.00     0.171 C 
BRANCH  21  22
HETATM   22  N2  UNL     1       6.504  -0.185   0.272  1.00  0.00    -0.365 N 
HETATM   23  C12 UNL     1       7.229  -1.084   1.026  1.00  0.00     0.089 C 
HETATM   24  C13 UNL     1       8.505  -0.530   1.576  1.00  0.00     0.212 C 
HETATM   25  O5  UNL     1       9.052   0.531   0.890  1.00  0.00    -0.381 OA
HETATM   26  C14 UNL     1       8.667   0.521  -0.463  1.00  0.00     0.212 C 
HETATM   27  C15 UNL     1       7.173   0.802  -0.444  1.00  0.00     0.089 C 
ENDBRANCH  21  22
ENDBRANCH  20  21
ENDBRANCH  18  20
ENDBRANCH  15  16
ENDBRANCH   4  15
BRANCH   1  28
HETATM   28  O2  UNL     1      -3.070  -1.651  -0.658  1.00  0.00    -0.311 OA
BRANCH  28  29
HETATM   29  C4  UNL     1      -3.665  -2.604  -1.438  1.00  0.00     0.288 C 
HETATM   30  O1  UNL     1      -3.256  -2.801  -2.581  1.00  0.00    -0.260 OA
BRANCH  29  31
HETATM   31  C2  UNL     1      -4.811  -3.376  -0.821  1.00  0.00     0.004 C 
HETATM   32  C1  UNL     1      -5.243  -3.055   0.303  1.00  0.00     0.024 C 
HETATM   33  C3  UNL     1      -5.247  -4.474  -1.766  1.00  0.00     0.054 C 
ENDBRANCH  29  31
ENDBRANCH  28  29
ENDBRANCH   1  28
BRANCH  10  34
HETATM   34  O6  UNL     1      -5.542   1.856   0.746  1.00  0.00    -0.395 OA
ATOM     35  H6  UNL     1      -6.307   2.072   0.226  1.00  0.00     0.210 HD
ENDBRANCH  10  34
TORSDOF 9
