REMARK  8 active torsions:
REMARK  status: ('A' for Active; 'I' for Inactive)
REMARK    1  A    between atoms: C9_10  and  O2_11 
REMARK    2  A    between atoms: C11_14  and  O3_15 
REMARK    3  A    between atoms: C13_18  and  C14_19 
REMARK    4  A    between atoms: C14_19  and  O5_21 
REMARK    5  A    between atoms: O5_21  and  C15_22 
REMARK    6  A    between atoms: C22_29  and  C23_30 
REMARK    7  A    between atoms: C23_30  and  O6_31 
REMARK    8  A    between atoms: O6_31  and  C24_32 
ROOT
HETATM    1  C1  UNL     1       4.323   2.045   1.258  1.00  0.00     0.015 C 
HETATM    2  C2  UNL     1       3.988   0.803   0.953  1.00  0.00    -0.081 C 
HETATM    3  C3  UNL     1       4.358  -0.324   1.882  1.00  0.00     0.034 C 
HETATM    4  C4  UNL     1       3.189  -1.273   2.082  1.00  0.00     0.012 C 
HETATM    5  C5  UNL     1       2.036  -0.739   1.312  1.00  0.00     0.026 C 
HETATM    6  C6  UNL     1       2.490  -0.723  -0.156  1.00  0.00     0.137 C 
HETATM    7  O1  UNL     1       1.274  -0.751  -0.810  1.00  0.00    -0.378 OA
HETATM    8  C7  UNL     1       0.467  -1.658  -0.156  1.00  0.00     0.137 C 
HETATM    9  C8  UNL     1      -1.019  -1.343  -0.274  1.00  0.00     0.048 C 
HETATM   10  C9  UNL     1      -1.756  -2.384  -1.038  1.00  0.00     0.127 C 
HETATM   11  C10 UNL     1      -2.980  -2.934  -0.414  1.00  0.00     0.064 C 
HETATM   12  C11 UNL     1      -4.135  -2.070  -0.196  1.00  0.00     0.121 C 
HETATM   13  C12 UNL     1      -4.007  -0.615  -0.486  1.00  0.00     0.046 C 
HETATM   14  C13 UNL     1      -3.680   0.211   0.744  1.00  0.00     0.088 C 
HETATM   15  C17 UNL     1      -2.251   0.258   1.094  1.00  0.00     0.020 C 
HETATM   16  C18 UNL     1      -1.521  -1.042   1.081  1.00  0.00    -0.004 C 
HETATM   17  C19 UNL     1      -0.294  -0.876   1.990  1.00  0.00     0.017 C 
HETATM   18  C20 UNL     1       0.817  -1.608   1.302  1.00  0.00    -0.011 C 
HETATM   19  C21 UNL     1       1.043  -2.989   1.829  1.00  0.00     0.018 C 
HETATM   20  C22 UNL     1       3.247   0.557  -0.312  1.00  0.00     0.067 C 
ENDROOT
BRANCH  14  21
HETATM   21  C14 UNL     1      -4.124   1.602   0.433  1.00  0.00     0.263 C 
HETATM   22  O4  UNL     1      -3.295   2.548   0.436  1.00  0.00    -0.265 OA
BRANCH  21  23
HETATM   23  O5  UNL     1      -5.443   1.906   0.135  1.00  0.00    -0.322 OA
BRANCH  23  24
HETATM   24  C15 UNL     1      -5.779   3.248  -0.147  1.00  0.00     0.174 C 
HETATM   25  C16 UNL     1      -5.030   3.796  -1.340  1.00  0.00     0.034 C 
ENDBRANCH  23  24
ENDBRANCH  21  23
ENDBRANCH  14  21
BRANCH  12  26
HETATM   26  O3  UNL     1      -5.284  -2.587  -0.850  1.00  0.00    -0.395 OA
ATOM     27  H3  UNL     1      -6.036  -2.024  -0.708  1.00  0.00     0.210 HD
ENDBRANCH  12  26
BRANCH  10  28
HETATM   28  O2  UNL     1      -1.952  -2.028  -2.396  1.00  0.00    -0.395 OA
ATOM     29  H2  UNL     1      -2.423  -2.693  -2.884  1.00  0.00     0.210 HD
ENDBRANCH  10  28
BRANCH  20  30
HETATM   30  C23 UNL     1       4.160   0.565  -1.512  1.00  0.00     0.190 C 
BRANCH  30  31
HETATM   31  O6  UNL     1       4.769   1.856  -1.554  1.00  0.00    -0.321 OA
BRANCH  31  32
HETATM   32  C24 UNL     1       5.669   2.151  -2.566  1.00  0.00     0.254 C 
HETATM   33  C25 UNL     1       6.344   3.474  -2.678  1.00  0.00     0.126 C 
HETATM   34  O7  UNL     1       5.906   1.249  -3.410  1.00  0.00    -0.266 OA
ENDBRANCH  31  32
ENDBRANCH  30  31
ENDBRANCH  20  30
TORSDOF 8
