REMARK  6 active torsions:
REMARK  status: ('A' for Active; 'I' for Inactive)
REMARK    1  A    between atoms: C2_2  and  C4_4 
REMARK    2  A    between atoms: C4_4  and  C5_5 
REMARK    3  A    between atoms: C5_5  and  O1_6 
REMARK    4  A    between atoms: C5_5  and  C6_8 
REMARK    5  A    between atoms: C8_11  and  C9_12 
REMARK       I    between atoms: N2_15  and  C11_17 
REMARK       I    between atoms: C11_17  and  N3_19 
REMARK    6  A    between atoms: C16_27  and  C17_28 
ROOT
HETATM    1  C9  UNL     1       2.971   0.303  -0.319  1.00  0.00     0.140 C 
HETATM    2  C10 UNL     1       3.661  -1.349  -0.054  1.00  0.00     0.119 C 
HETATM    3  N1  UNL     1       4.085  -2.450   0.099  1.00  0.00    -0.190 NA
HETATM    4  N2  UNL     1       4.105   0.852   0.026  1.00  0.00    -0.298 N 
ATOM      5  H2  UNL     1       4.117   1.822  -0.288  1.00  0.00     0.171 HD
HETATM    6  C11 UNL     1       5.294   0.568   0.671  1.00  0.00     0.325 C 
HETATM    7  O2  UNL     1       5.602  -0.527   1.207  1.00  0.00    -0.247 OA
HETATM    8  N3  UNL     1       6.348   1.549   0.797  1.00  0.00    -0.311 N 
HETATM    9  C12 UNL     1       6.287   2.863   0.222  1.00  0.00     0.156 C 
HETATM   10  C13 UNL     1       7.517   3.534   0.828  1.00  0.00     0.190 C 
HETATM   11  O3  UNL     1       8.346   2.511   1.203  1.00  0.00    -0.370 OA
HETATM   12  C14 UNL     1       7.581   1.396   1.494  1.00  0.00     0.297 C 
ENDROOT
BRANCH   1  13
HETATM   13  C8  UNL     1       1.887  -0.223  -0.648  1.00  0.00     0.108 C 
HETATM   14  S1  UNL     1       0.454   0.959  -1.127  1.00  0.00    -0.095 SA
HETATM   15  C7  UNL     1      -0.862  -0.217  -0.933  1.00  0.00     0.164 C 
HETATM   16  C6  UNL     1      -1.683  -0.152   0.362  1.00  0.00     0.071 C 
HETATM   17  N4  UNL     1      -0.156  -1.380  -0.366  1.00  0.00    -0.327 N 
HETATM   18  C16 UNL     1      -1.418  -1.635   0.361  1.00  0.00     0.102 C 
HETATM   19  C15 UNL     1       1.167  -1.460  -0.859  1.00  0.00     0.264 C 
HETATM   20  O4  UNL     1       1.674  -2.492  -1.424  1.00  0.00    -0.267 OA
BRANCH  16  21
HETATM   21  C5  UNL     1      -3.033   0.373   0.098  1.00  0.00     0.127 C 
BRANCH  21  22
HETATM   22  C4  UNL     1      -2.830   1.776  -0.513  1.00  0.00     0.036 C 
BRANCH  22  23
HETATM   23  C2  UNL     1      -4.126   2.467  -0.784  1.00  0.00    -0.020 C 
HETATM   24  C1  UNL     1      -3.794   3.815  -1.388  1.00  0.00     0.009 C 
HETATM   25  C3  UNL     1      -5.061   1.704  -1.662  1.00  0.00     0.009 C 
ENDBRANCH  22  23
ENDBRANCH  21  22
BRANCH  21  26
HETATM   26  O1  UNL     1      -3.747   0.650   1.280  1.00  0.00    -0.395 OA
ATOM     27  H1  UNL     1      -3.872  -0.213   1.656  1.00  0.00     0.210 HD
ENDBRANCH  21  26
ENDBRANCH  16  21
BRANCH  18  28
HETATM   28  C17 UNL     1      -2.329  -2.556  -0.331  1.00  0.00     0.009 C 
HETATM   29  C18 UNL     1      -1.659  -3.946  -0.308  1.00  0.00     0.007 C 
HETATM   30  C19 UNL     1      -2.861  -4.897  -0.197  1.00  0.00     0.000 C 
HETATM   31  C20 UNL     1      -3.551  -4.225   0.986  1.00  0.00     0.000 C 
HETATM   32  C21 UNL     1      -3.581  -2.770   0.497  1.00  0.00     0.007 C 
ENDBRANCH  18  28
ENDBRANCH   1  13
TORSDOF 6
