REMARK  8 active torsions:
REMARK  status: ('A' for Active; 'I' for Inactive)
REMARK    1  A    between atoms: C2_2  and  C3_4 
REMARK    2  A    between atoms: C3_4  and  C4_5 
REMARK    3  A    between atoms: C4_5  and  O2_6 
REMARK    4  A    between atoms: C7_10  and  C8_11 
REMARK    5  A    between atoms: C9_12  and  C10_13 
REMARK    6  A    between atoms: C22_26  and  O4_27 
REMARK    7  A    between atoms: C23_29  and  O5_30 
REMARK    8  A    between atoms: O5_30  and  C24_31 
ROOT
HETATM    1  C10 UNL     1      -0.461  -0.299  -0.175  1.00  0.00     0.050 C 
HETATM    2  C11 UNL     1      -1.161  -0.727  -1.384  1.00  0.00     0.049 C 
HETATM    3  C12 UNL     1      -0.766   0.061  -2.616  1.00  0.00     0.177 C 
HETATM    4  O3  UNL     1      -1.133  -0.659  -3.756  1.00  0.00    -0.387 OA
HETATM    5  C13 UNL     1      -2.454  -0.993  -3.823  1.00  0.00     0.195 C 
HETATM    6  C14 UNL     1      -3.210  -0.869  -2.549  1.00  0.00     0.003 C 
HETATM    7  C15 UNL     1      -2.655  -0.740  -1.353  1.00  0.00    -0.070 C 
HETATM    8  C16 UNL     1      -3.553  -0.634  -0.215  1.00  0.00     0.025 C 
HETATM    9  C17 UNL     1      -4.865  -1.279  -0.238  1.00  0.00     0.036 C 
HETATM   10  C18 UNL     1      -4.856  -2.735   0.100  1.00  0.00    -0.030 C 
HETATM   11  C19 UNL     1      -4.254  -3.032   1.243  1.00  0.00    -0.030 C 
HETATM   12  C20 UNL     1      -3.693  -1.871   1.989  1.00  0.00     0.035 C 
HETATM   13  C21 UNL     1      -2.796  -1.160   0.998  1.00  0.00     0.029 C 
HETATM   14  C22 UNL     1      -2.105  -0.018   1.641  1.00  0.00     0.153 C 
HETATM   15  C23 UNL     1      -1.154   0.697   0.718  1.00  0.00     0.169 C 
ENDROOT
BRANCH   1  16
HETATM   16  C9  UNL     1       0.882   0.242  -0.544  1.00  0.00    -0.022 C 
HETATM   17  C8  UNL     1       2.007  -0.387  -0.255  1.00  0.00    -0.023 C 
BRANCH  17  18
HETATM   18  C7  UNL     1       3.375   0.021  -0.552  1.00  0.00     0.043 C 
HETATM   19  C4  UNL     1       4.016   0.604   0.725  1.00  0.00     0.071 C 
HETATM   20  C5  UNL     1       3.764   1.972   0.084  1.00  0.00     0.040 C 
HETATM   21  C6  UNL     1       3.601   1.302  -1.280  1.00  0.00     0.014 C 
BRANCH  19  22
HETATM   22  C3  UNL     1       5.468   0.288   0.871  1.00  0.00     0.116 C 
BRANCH  22  23
HETATM   23  C2  UNL     1       5.735  -1.117   1.212  1.00  0.00     0.126 C 
HETATM   24  C1  UNL     1       7.121  -1.622   1.399  1.00  0.00     0.091 C 
HETATM   25  O1  UNL     1       4.823  -1.924   1.355  1.00  0.00    -0.298 OA
ENDBRANCH  22  23
ENDBRANCH  19  22
BRANCH  19  26
HETATM   26  O2  UNL     1       3.288   0.369   1.865  1.00  0.00    -0.389 OA
ATOM     27  H2  UNL     1       2.364   0.570   1.772  1.00  0.00     0.210 HD
ENDBRANCH  19  26
ENDBRANCH  17  18
ENDBRANCH   1  16
BRANCH  15  28
HETATM   28  O5  UNL     1      -1.686   1.800   0.059  1.00  0.00    -0.313 OA
BRANCH  28  29
HETATM   29  C24 UNL     1      -1.246   3.115   0.247  1.00  0.00     0.255 C 
HETATM   30  C25 UNL     1      -1.835   4.269  -0.473  1.00  0.00     0.126 C 
HETATM   31  O6  UNL     1      -0.298   3.246   1.087  1.00  0.00    -0.266 OA
ENDBRANCH  28  29
ENDBRANCH  15  28
BRANCH  14  32
HETATM   32  O4  UNL     1      -3.060   0.880   2.094  1.00  0.00    -0.393 OA
ATOM     33  H4  UNL     1      -2.617   1.612   2.506  1.00  0.00     0.210 HD
ENDBRANCH  14  32
TORSDOF 8
