REMARK  6 active torsions:
REMARK  status: ('A' for Active; 'I' for Inactive)
REMARK    1  A    between atoms: C2_2  and  C3_3 
REMARK    2  A    between atoms: C2_2  and  C10_19 
REMARK    3  A    between atoms: C3_3  and  O2_5 
REMARK    4  A    between atoms: O2_5  and  N1_6 
REMARK    5  A    between atoms: C11_20  and  C12_21 
REMARK       I    between atoms: C12_21  and  N4_23 
REMARK    6  A    between atoms: N4_23  and  C14_25 
ROOT
HETATM    1  C1  UNL     1       1.226  -0.832   1.780  1.00  0.00     0.026 C 
HETATM    2  C2  UNL     1       0.497   0.160   0.811  1.00  0.00     0.120 C 
ENDROOT
BRANCH   2   3
HETATM    3  C3  UNL     1       1.446   0.295  -0.358  1.00  0.00     0.289 C 
HETATM    4  O1  UNL     1       1.001   0.196  -1.512  1.00  0.00    -0.262 OA
BRANCH   3   5
HETATM    5  O2  UNL     1       2.795   0.532  -0.154  1.00  0.00    -0.197 OA
BRANCH   5   6
HETATM    6  N1  UNL     1       3.597   0.650  -1.256  1.00  0.00    -0.243 N 
HETATM    7  C4  UNL     1       4.865   0.487  -1.237  1.00  0.00     0.134 C 
HETATM    8  N2  UNL     1       5.670   0.616  -2.401  1.00  0.00    -0.295 N 
HETATM    9  C6  UNL     1       5.778   0.155  -0.152  1.00  0.00     0.095 C 
HETATM   10  C5  UNL     1       7.043   0.514  -2.054  1.00  0.00     0.322 C 
ATOM     11  H2  UNL     1       5.314   0.760  -3.346  1.00  0.00     0.172 HD
HETATM   12  O3  UNL     1       8.032   0.587  -2.867  1.00  0.00    -0.247 OA
HETATM   13  N3  UNL     1       7.108   0.318  -0.654  1.00  0.00    -0.326 N 
ATOM     14  H3  UNL     1       7.961   0.296  -0.096  1.00  0.00     0.165 HD
HETATM   15  C7  UNL     1       5.583   0.844   1.174  1.00  0.00     0.039 C 
HETATM   16  C9  UNL     1       5.513  -1.156   0.556  1.00  0.00     0.039 C 
HETATM   17  C8  UNL     1       5.960  -0.485   1.841  1.00  0.00     0.006 C 
ATOM     18  H1  UNL     1       3.157   0.882  -2.146  1.00  0.00     0.196 HD
ENDBRANCH   5   6
ENDBRANCH   3   5
ENDBRANCH   2   3
BRANCH   2  19
HETATM   19  C10 UNL     1      -0.685  -0.583   0.304  1.00  0.00     0.013 C 
HETATM   20  C11 UNL     1      -1.902  -0.098   0.226  1.00  0.00     0.021 C 
HETATM   21  C17 UNL     1      -2.995  -0.952  -0.346  1.00  0.00     0.054 C 
HETATM   22  C18 UNL     1      -2.565  -2.205  -1.016  1.00  0.00    -0.037 C 
HETATM   23  C19 UNL     1      -3.771  -3.140  -1.098  1.00  0.00     0.015 C 
HETATM   24  C20 UNL     1      -2.072  -2.024  -2.432  1.00  0.00     0.015 C 
HETATM   25  C21 UNL     1      -1.509  -2.931  -0.237  1.00  0.00     0.092 C 
HETATM   26  C22 UNL     1      -0.386  -1.988  -0.113  1.00  0.00     0.158 C 
HETATM   27  O5  UNL     1       0.807  -2.333  -0.347  1.00  0.00    -0.293 OA
BRANCH  20  28
HETATM   28  C12 UNL     1      -2.239   1.264   0.635  1.00  0.00     0.250 C 
HETATM   29  O4  UNL     1      -1.232   1.978   1.035  1.00  0.00    -0.268 OA
HETATM   30  N4  UNL     1      -3.426   1.946   0.682  1.00  0.00    -0.349 N 
HETATM   31  C13 UNL     1      -3.325   3.392   1.112  1.00  0.00     0.153 C 
BRANCH  30  32
HETATM   32  C14 UNL     1      -4.761   1.569   0.448  1.00  0.00     0.079 C 
HETATM   33  C15 UNL     1      -5.330   2.481  -0.688  1.00  0.00     0.032 C 
HETATM   34  C16 UNL     1      -5.608   2.035   1.673  1.00  0.00     0.032 C 
ENDBRANCH  30  32
ENDBRANCH  20  28
ENDBRANCH   2  19
TORSDOF 6
