REMARK  10 active torsions:
REMARK  status: ('A' for Active; 'I' for Inactive)
REMARK    1  A    between atoms: N1_2  and  C2_3 
REMARK    2  A    between atoms: N1_2  and  C13_19 
REMARK    3  A    between atoms: C2_3  and  O1_4 
REMARK       I    between atoms: N3_9  and  C5_10 
REMARK    4  A    between atoms: C5_10  and  C6_12 
REMARK    5  A    between atoms: C13_19  and  C14_20 
REMARK    6  A    between atoms: C13_19  and  C18_31 
REMARK    7  A    between atoms: C16_25  and  O3_26 
REMARK    8  A    between atoms: C17_28  and  O4_29 
REMARK    9  A    between atoms: C18_31  and  C21_34 
REMARK   10  A    between atoms: C21_34  and  C22_35 
ROOT
HETATM    1  C13 UNL     1      -2.930   0.197  -0.358  1.00  0.00     0.034 C 
ENDROOT
BRANCH   1   2
HETATM    2  N1  UNL     1      -1.757  -0.119   0.468  1.00  0.00    -0.322 N 
HETATM    3  C1  UNL     1      -1.876  -0.147   1.898  1.00  0.00     0.159 C 
BRANCH   2   4
HETATM    4  C2  UNL     1      -0.505  -0.405  -0.147  1.00  0.00     0.221 C 
HETATM    5  N2  UNL     1       0.732  -0.742   0.296  1.00  0.00    -0.344 N 
HETATM    6  C3  UNL     1       1.805  -0.944  -0.744  1.00  0.00     0.146 C 
HETATM    7  C12 UNL     1       1.217  -0.949   1.608  1.00  0.00     0.146 C 
HETATM    8  C4  UNL     1       2.976  -0.036  -0.464  1.00  0.00     0.145 C 
HETATM    9  N3  UNL     1       3.377  -0.128   0.914  1.00  0.00    -0.349 N 
HETATM   10  C5  UNL     1       4.704  -0.353   1.337  1.00  0.00     0.224 C 
HETATM   11  C11 UNL     1       2.354   0.037   1.937  1.00  0.00     0.145 C 
HETATM   12  O2  UNL     1       4.945  -0.451   2.571  1.00  0.00    -0.273 OA
BRANCH   4  13
HETATM   13  O1  UNL     1      -0.548  -0.322  -1.489  1.00  0.00    -0.332 OA
ATOM     14  H1  UNL     1       0.287  -0.513  -1.899  1.00  0.00     0.221 HD
ENDBRANCH   4  13
BRANCH  10  15
HETATM   15  C6  UNL     1       5.812  -0.473   0.368  1.00  0.00     0.078 C 
HETATM   16  C7  UNL     1       6.191   0.813  -0.303  1.00  0.00     0.014 C 
HETATM   17  C8  UNL     1       7.579   0.494  -0.871  1.00  0.00     0.001 C 
HETATM   18  C9  UNL     1       8.120  -0.632  -0.053  1.00  0.00     0.001 C 
HETATM   19  C10 UNL     1       7.116  -0.857   1.058  1.00  0.00     0.014 C 
ENDBRANCH  10  15
ENDBRANCH   2   4
ENDBRANCH   1   2
BRANCH   1  20
HETATM   20  C14 UNL     1      -4.050  -0.749  -0.329  1.00  0.00     0.263 C 
HETATM   21  N4  UNL     1      -4.712  -1.006   0.902  1.00  0.00    -0.061 N 
HETATM   22  C15 UNL     1      -5.344  -2.289   0.860  1.00  0.00     0.267 C 
ATOM     23  H42 UNL     1      -4.083  -0.916   1.700  1.00  0.00     0.278 HD
ATOM     24  H41 UNL     1      -5.369  -0.264   1.145  1.00  0.00     0.278 HD
HETATM   25  C16 UNL     1      -4.944  -2.992  -0.403  1.00  0.00     0.174 C 
HETATM   26  C17 UNL     1      -3.769  -2.124  -0.868  1.00  0.00     0.184 C 
BRANCH  25  27
HETATM   27  O3  UNL     1      -5.936  -3.073  -1.346  1.00  0.00    -0.391 OA
ATOM     28  H3  UNL     1      -5.683  -3.518  -2.146  1.00  0.00     0.210 HD
ENDBRANCH  25  27
BRANCH  26  29
HETATM   29  O4  UNL     1      -2.643  -2.744  -0.432  1.00  0.00    -0.390 OA
ATOM     30  H4  UNL     1      -2.465  -3.613  -0.773  1.00  0.00     0.210 HD
ENDBRANCH  26  29
ENDBRANCH   1  20
BRANCH   1  31
HETATM   31  C18 UNL     1      -3.283   1.658  -0.360  1.00  0.00     0.003 C 
HETATM   32  C19 UNL     1      -4.497   1.828  -1.252  1.00  0.00     0.021 C 
HETATM   33  C20 UNL     1      -3.633   2.293   0.944  1.00  0.00     0.021 C 
BRANCH  31  34
HETATM   34  C21 UNL     1      -2.184   2.474  -0.985  1.00  0.00     0.128 C 
BRANCH  34  35
HETATM   35  C22 UNL     1      -2.423   3.925  -1.030  1.00  0.00     0.173 C 
HETATM   36  O5  UNL     1      -2.973   4.504  -1.999  1.00  0.00    -0.648 OA
HETATM   37  O6  UNL     1      -2.048   4.783   0.020  1.00  0.00    -0.648 OA
ENDBRANCH  34  35
ENDBRANCH  31  34
ENDBRANCH   1  31
TORSDOF 10
