REMARK  7 active torsions:
REMARK  status: ('A' for Active; 'I' for Inactive)
REMARK       I    between atoms: N1_2  and  C3_4 
REMARK    1  A    between atoms: C3_4  and  C4_6 
REMARK    2  A    between atoms: C4_6  and  C5_7 
REMARK    3  A    between atoms: C5_7  and  C6_8 
REMARK    4  A    between atoms: C6_8  and  O3_10 
REMARK    5  A    between atoms: O3_10  and  C7_11 
REMARK    6  A    between atoms: C17_21  and  O4_22 
REMARK    7  A    between atoms: C20_31  and  C21_32 
ROOT
HETATM    1  C7  UNL     1       0.397  -1.388   1.400  1.00  0.00     0.137 C 
HETATM    2  C8  UNL     1      -0.293  -2.757   1.634  1.00  0.00     0.038 C 
HETATM    3  C9  UNL     1      -1.646  -2.683   0.986  1.00  0.00    -0.004 C 
HETATM    4  C10 UNL     1      -2.792  -2.330   1.907  1.00  0.00     0.013 C 
HETATM    5  C11 UNL     1      -3.465  -1.099   1.414  1.00  0.00     0.024 C 
HETATM    6  C12 UNL     1      -3.218   0.190   2.060  1.00  0.00     0.015 C 
HETATM    7  C13 UNL     1      -2.469   1.105   1.073  1.00  0.00     0.020 C 
HETATM    8  C14 UNL     1      -0.959   0.801   1.116  1.00  0.00     0.015 C 
HETATM    9  C15 UNL     1      -0.870  -0.603   1.401  1.00  0.00     0.023 C 
HETATM   10  C16 UNL     1      -1.526  -1.354   0.224  1.00  0.00     0.034 C 
HETATM   11  C17 UNL     1      -2.905  -0.895  -0.008  1.00  0.00     0.094 C 
HETATM   12  C18 UNL     1      -3.083   0.587  -0.188  1.00  0.00     0.098 C 
HETATM   13  N2  UNL     1      -4.475   0.862  -0.301  1.00  0.00    -0.352 N 
ATOM     14  H2  UNL     1      -5.130   1.091   0.446  1.00  0.00     0.163 HD
HETATM   15  C19 UNL     1      -4.748   0.744  -1.711  1.00  0.00     0.169 C 
HETATM   16  S1  UNL     1      -6.264   0.717  -2.312  1.00  0.00    -0.041 SA
HETATM   17  N3  UNL     1      -3.514   0.664  -2.408  1.00  0.00    -0.350 N 
ATOM     18  H3  UNL     1      -3.371   0.351  -3.368  1.00  0.00     0.163 HD
HETATM   19  C20 UNL     1      -2.489   1.121  -1.471  1.00  0.00     0.216 C 
ENDROOT
BRANCH   1  20
HETATM   20  O3  UNL     1       1.010  -1.313   0.157  1.00  0.00    -0.316 OA
BRANCH  20  21
HETATM   21  C6  UNL     1       2.370  -0.962   0.036  1.00  0.00     0.259 C 
HETATM   22  O2  UNL     1       2.962  -0.730   1.104  1.00  0.00    -0.265 OA
BRANCH  21  23
HETATM   23  C5  UNL     1       2.906  -0.915  -1.322  1.00  0.00     0.120 C 
BRANCH  23  24
HETATM   24  C4  UNL     1       4.328  -0.509  -1.456  1.00  0.00     0.112 C 
BRANCH  24  25
HETATM   25  C3  UNL     1       4.520   0.861  -0.931  1.00  0.00     0.219 C 
HETATM   26  N1  UNL     1       5.839   1.426  -0.852  1.00  0.00    -0.361 N 
HETATM   27  C1  UNL     1       6.962   0.626  -1.295  1.00  0.00     0.152 C 
HETATM   28  C2  UNL     1       6.034   2.767  -0.340  1.00  0.00     0.152 C 
HETATM   29  O1  UNL     1       3.527   1.514  -0.560  1.00  0.00    -0.273 OA
ENDBRANCH  24  25
ENDBRANCH  23  24
ENDBRANCH  21  23
ENDBRANCH  20  21
ENDBRANCH   1  20
BRANCH  11  30
HETATM   30  O4  UNL     1      -3.551  -1.658  -0.933  1.00  0.00    -0.386 OA
ATOM     31  H4  UNL     1      -3.206  -1.532  -1.809  1.00  0.00     0.210 HD
ENDBRANCH  11  30
BRANCH  19  32
HETATM   32  C21 UNL     1      -2.533   2.598  -1.496  1.00  0.00     0.199 C 
HETATM   33  O5  UNL     1      -3.360   3.169  -2.245  1.00  0.00    -0.646 OA
HETATM   34  O6  UNL     1      -1.717   3.416  -0.742  1.00  0.00    -0.646 OA
ENDBRANCH  19  32
TORSDOF 7
