REMARK  11 active torsions:
REMARK  status: ('A' for Active; 'I' for Inactive)
REMARK    1  A    between atoms: C2_2  and  C4_4 
REMARK    2  A    between atoms: C4_4  and  C5_5 
REMARK    3  A    between atoms: C11_14  and  C12_15 
REMARK    4  A    between atoms: C12_15  and  C13_16 
REMARK    5  A    between atoms: C13_16  and  C14_17 
REMARK    6  A    between atoms: C14_17  and  N2_18 
REMARK    7  A    between atoms: N5_24  and  C17_25 
REMARK    8  A    between atoms: C17_25  and  C18_26 
REMARK    9  A    between atoms: C19_27  and  C20_28 
REMARK   10  A    between atoms: C20_28  and  C21_29 
REMARK   11  A    between atoms: C21_29  and  N6_30 
ROOT
HETATM    1  C5  UNL     1       0.144   2.549   1.792  1.00  0.00     0.177 C 
HETATM    2  N1  UNL     1       0.478   2.830   0.444  1.00  0.00    -0.346 N 
ATOM      3  H1  UNL     1       0.899   3.727   0.201  1.00  0.00     0.163 HD
HETATM    4  C6  UNL     1       0.225   1.852  -0.585  1.00  0.00     0.247 C 
HETATM    5  O1  UNL     1      -0.215   2.222  -1.688  1.00  0.00    -0.271 OA
HETATM    6  C7  UNL     1       0.519   0.409  -0.244  1.00  0.00     0.117 C 
HETATM    7  C8  UNL     1       0.163  -0.392  -1.467  1.00  0.00     0.041 C 
HETATM    8  C9  UNL     1       1.340  -0.202  -2.438  1.00  0.00     0.003 C 
HETATM    9  C10 UNL     1       2.548  -1.019  -1.948  1.00  0.00     0.005 C 
HETATM   10  C11 UNL     1       2.540  -1.100  -0.479  1.00  0.00    -0.012 C 
HETATM   11  C16 UNL     1       1.970   0.236   0.068  1.00  0.00     0.045 C 
HETATM   12  N5  UNL     1      -0.258   0.140   0.920  1.00  0.00    -0.321 N 
HETATM   13  C25 UNL     1      -0.488   1.175   1.854  1.00  0.00     0.244 C 
HETATM   14  O2  UNL     1      -1.293   0.920   2.824  1.00  0.00    -0.271 OA
ENDROOT
BRANCH  12  15
HETATM   15  C17 UNL     1      -0.858  -1.154   1.215  1.00  0.00     0.221 C 
BRANCH  15  16
HETATM   16  C18 UNL     1      -2.185  -1.132   0.568  1.00  0.00    -0.087 C 
HETATM   17  C19 UNL     1      -3.260  -1.129   0.022  1.00  0.00    -0.103 C 
BRANCH  17  18
HETATM   18  C20 UNL     1      -4.550  -1.144  -0.663  1.00  0.00     0.122 C 
BRANCH  18  19
HETATM   19  C21 UNL     1      -5.406  -2.298  -0.195  1.00  0.00     0.249 C 
BRANCH  19  20
HETATM   20  N6  UNL     1      -6.678  -2.345  -0.856  1.00  0.00    -0.067 N 
HETATM   21  C22 UNL     1      -7.697  -1.392  -0.477  1.00  0.00     0.272 C 
HETATM   22  C23 UNL     1      -6.652  -2.833  -2.226  1.00  0.00     0.265 A 
HETATM   23  C24 UNL     1      -7.168  -3.698  -1.101  1.00  0.00     0.265 A 
ENDBRANCH  19  20
ENDBRANCH  18  19
ENDBRANCH  17  18
ENDBRANCH  15  16
ENDBRANCH  12  15
BRANCH  10  24
HETATM   24  C12 UNL     1       3.807  -1.289   0.272  1.00  0.00     0.006 C 
BRANCH  24  25
HETATM   25  C13 UNL     1       4.641  -2.476   0.070  1.00  0.00     0.020 C 
BRANCH  25  26
HETATM   26  C14 UNL     1       5.261  -2.580  -1.282  1.00  0.00     0.122 C 
BRANCH  26  27
HETATM   27  N2  UNL     1       6.122  -1.393  -1.445  1.00  0.00    -0.367 N 
HETATM   28  C15 UNL     1       7.379  -1.480  -1.249  1.00  0.00     0.196 C 
HETATM   29  N3  UNL     1       8.236  -0.335  -1.402  1.00  0.00    -0.067 NA
HETATM   30  N4  UNL     1       7.934  -2.731  -0.874  1.00  0.00    -0.067 NA
ATOM     31  H2  UNL     1       5.710  -0.500  -1.715  1.00  0.00     0.161 HD
ENDBRANCH  26  27
ENDBRANCH  25  26
ENDBRANCH  24  25
ENDBRANCH  10  24
BRANCH   1  32
HETATM   32  C4  UNL     1      -0.790   3.454   2.505  1.00  0.00     0.038 C 
BRANCH  32  33
HETATM   33  C2  UNL     1      -0.447   4.872   2.688  1.00  0.00    -0.020 C 
HETATM   34  C1  UNL     1      -0.294   5.620   1.414  1.00  0.00     0.009 C 
HETATM   35  C3  UNL     1      -1.551   5.534   3.521  1.00  0.00     0.009 C 
ENDBRANCH  32  33
ENDBRANCH   1  32
TORSDOF 11
