REMARK  9 active torsions:
REMARK  status: ('A' for Active; 'I' for Inactive)
REMARK    1  A    between atoms: C2_2  and  N1_3 
REMARK    2  A    between atoms: N1_3  and  C3_4 
REMARK    3  A    between atoms: C3_4  and  C4_5 
REMARK       I    between atoms: C4_5  and  N2_7 
REMARK    4  A    between atoms: N2_7  and  C5_9 
REMARK    5  A    between atoms: C7_11  and  C8_12 
REMARK       I    between atoms: C8_12  and  N3_14 
REMARK    6  A    between atoms: C9_16  and  C10_17 
REMARK    7  A    between atoms: C9_16  and  C14_21 
REMARK    8  A    between atoms: C10_17  and  C11_18 
REMARK    9  A    between atoms: C18_27  and  C19_28 
ROOT
HETATM    1  C5  UNL     1      -0.206   1.269   0.557  1.00  0.00     0.090 C 
HETATM    2  C6  UNL     1       1.147   0.637   0.377  1.00  0.00     0.039 C 
HETATM    3  C7  UNL     1       2.047   1.215   1.423  1.00  0.00     0.080 C 
HETATM    4  C15 UNL     1       2.153   2.703   1.219  1.00  0.00     0.019 C 
HETATM    5  C16 UNL     1       0.857   3.430   1.141  1.00  0.00    -0.006 C 
HETATM    6  C17 UNL     1       0.941   4.445  -0.018  1.00  0.00     0.019 C 
HETATM    7  C18 UNL     1       0.497   3.262  -0.899  1.00  0.00     0.082 C 
HETATM    8  C20 UNL     1      -0.190   2.749   0.326  1.00  0.00     0.025 C 
ENDROOT
BRANCH   1   9
HETATM    9  N2  UNL     1      -1.255   0.618  -0.193  1.00  0.00    -0.355 N 
HETATM   10  C4  UNL     1      -2.385   0.018   0.394  1.00  0.00     0.244 C 
HETATM   11  O1  UNL     1      -2.513   0.034   1.633  1.00  0.00    -0.272 OA
ATOM     12  H2  UNL     1      -1.172   0.591  -1.209  1.00  0.00     0.162 HD
BRANCH  10  13
HETATM   13  C3  UNL     1      -3.406  -0.623  -0.451  1.00  0.00     0.339 C 
BRANCH  13  14
HETATM   14  N1  UNL     1      -4.516  -1.194   0.281  1.00  0.00    -0.059 N 
HETATM   15  C21 UNL     1      -5.452  -1.689  -0.716  1.00  0.00     0.238 C 
HETATM   16  C22 UNL     1      -4.870  -2.997  -1.212  1.00  0.00     0.029 C 
HETATM   17  C23 UNL     1      -4.235  -3.555   0.039  1.00  0.00     0.029 C 
HETATM   18  C24 UNL     1      -4.029  -2.375   0.971  1.00  0.00     0.238 C 
BRANCH  14  19
HETATM   19  C2  UNL     1      -5.083  -0.225   1.163  1.00  0.00     0.233 C 
HETATM   20  C1  UNL     1      -6.592  -0.121   1.095  1.00  0.00     0.035 C 
ENDBRANCH  14  19
ENDBRANCH  13  14
ENDBRANCH  10  13
ENDBRANCH   1   9
BRANCH   3  21
HETATM   21  C8  UNL     1       3.426   0.664   1.370  1.00  0.00     0.226 C 
HETATM   22  O2  UNL     1       3.845   0.060   2.402  1.00  0.00    -0.273 OA
HETATM   23  N3  UNL     1       4.267   0.775   0.263  1.00  0.00    -0.326 N 
HETATM   24  C9  UNL     1       4.766  -0.226  -0.381  1.00  0.00     0.077 C 
ATOM     25  H3  UNL     1       4.504   1.713  -0.060  1.00  0.00     0.168 HD
BRANCH  24  26
HETATM   26  C10 UNL     1       4.479  -1.627   0.011  1.00  0.00     0.067 C 
BRANCH  26  27
HETATM   27  C11 UNL     1       5.708  -2.366   0.440  1.00  0.00    -0.009 A 
HETATM   28  C12 UNL     1       5.442  -3.814   0.867  1.00  0.00     0.005 A 
HETATM   29  C13 UNL     1       6.295  -3.478  -0.343  1.00  0.00     0.005 A 
ENDBRANCH  26  27
ENDBRANCH  24  26
BRANCH  24  30
HETATM   30  C14 UNL     1       5.633   0.053  -1.507  1.00  0.00     0.277 C 
HETATM   31  N4  UNL     1       6.248  -0.945  -2.305  1.00  0.00    -0.056 NA
HETATM   32  O3  UNL     1       5.862   1.263  -1.805  1.00  0.00    -0.270 OA
ENDBRANCH  24  30
ENDBRANCH   3  21
BRANCH   7  33
HETATM   33  C19 UNL     1      -0.351   3.750  -1.982  1.00  0.00     0.235 C 
HETATM   34  N5  UNL     1      -1.570   4.423  -1.727  1.00  0.00    -0.062 NA
HETATM   35  O4  UNL     1      -0.000   3.574  -3.170  1.00  0.00    -0.276 OA
ENDBRANCH   7  33
TORSDOF 9
