REMARK  11 active torsions:
REMARK  status: ('A' for Active; 'I' for Inactive)
REMARK    1  A    between atoms: C2_2  and  C3_3 
REMARK    2  A    between atoms: C3_3  and  C4_4 
REMARK    3  A    between atoms: C4_4  and  C5_5 
REMARK    4  A    between atoms: C5_5  and  S1_6 
REMARK    5  A    between atoms: S1_6  and  N1_9 
REMARK    6  A    between atoms: N1_9  and  C6_11 
REMARK    7  A    between atoms: C14_20  and  C15_21 
REMARK    8  A    between atoms: C15_21  and  O4_22 
REMARK    9  A    between atoms: C15_21  and  C16_24 
REMARK   10  A    between atoms: C16_24  and  O5_25 
REMARK   11  A    between atoms: C22_32  and  O6_33 
ROOT
HETATM    1  C6  UNL     1       2.580  -0.835  -0.450  1.00  0.00     0.103 C 
HETATM    2  C7  UNL     1       1.418  -1.720  -0.935  1.00  0.00     0.059 C 
HETATM    3  C8  UNL     1       0.271  -0.716  -1.068  1.00  0.00     0.132 C 
HETATM    4  O3  UNL     1      -0.889  -1.422  -1.146  1.00  0.00    -0.374 OA
HETATM    5  C9  UNL     1      -2.047  -0.676  -1.119  1.00  0.00     0.062 C 
HETATM    6  C10 UNL     1      -2.010   0.399  -2.159  1.00  0.00     0.046 C 
HETATM    7  C11 UNL     1      -3.187  -1.635  -1.487  1.00  0.00     0.038 C 
HETATM    8  C12 UNL     1      -4.502  -0.942  -1.597  1.00  0.00     0.008 C 
HETATM    9  C13 UNL     1      -4.625   0.071  -0.520  1.00  0.00    -0.003 C 
HETATM   10  C14 UNL     1      -5.979   0.105   0.149  1.00  0.00     0.021 C 
HETATM   11  C17 UNL     1      -5.691   0.590   1.553  1.00  0.00     0.008 C 
HETATM   12  C18 UNL     1      -4.185   0.610   1.707  1.00  0.00     0.006 C 
HETATM   13  C19 UNL     1      -3.732  -0.343   0.630  1.00  0.00    -0.003 C 
HETATM   14  C20 UNL     1      -2.262  -0.153   0.279  1.00  0.00     0.027 C 
HETATM   15  C21 UNL     1      -1.473  -1.019   1.224  1.00  0.00     0.040 C 
HETATM   16  C22 UNL     1      -0.037  -0.617   1.352  1.00  0.00     0.126 C 
HETATM   17  C23 UNL     1       0.434   0.144   0.160  1.00  0.00     0.053 C 
HETATM   18  C24 UNL     1       1.926   0.365   0.131  1.00  0.00    -0.018 C 
HETATM   19  C25 UNL     1       2.166   1.581  -0.772  1.00  0.00     0.017 C 
HETATM   20  C26 UNL     1       2.500   0.682   1.476  1.00  0.00     0.017 C 
ENDROOT
BRANCH   1  21
HETATM   21  N1  UNL     1       3.410  -0.527  -1.598  1.00  0.00    -0.314 N 
ATOM     22  H1  UNL     1       3.096   0.077  -2.358  1.00  0.00     0.172 HD
BRANCH  21  23
HETATM   23  S1  UNL     1       4.947  -1.251  -1.578  1.00  0.00     0.226 S 
HETATM   24  O1  UNL     1       4.769  -2.741  -1.483  1.00  0.00    -0.206 OA
HETATM   25  O2  UNL     1       5.639  -0.913  -2.866  1.00  0.00    -0.206 OA
BRANCH  23  26
HETATM   26  C5  UNL     1       5.963  -0.741  -0.198  1.00  0.00     0.163 C 
BRANCH  26  27
HETATM   27  C4  UNL     1       6.221   0.717  -0.212  1.00  0.00     0.017 C 
BRANCH  27  28
HETATM   28  C3  UNL     1       7.003   1.312   0.898  1.00  0.00     0.001 C 
BRANCH  28  29
HETATM   29  C2  UNL     1       8.397   0.844   1.122  1.00  0.00    -0.005 C 
HETATM   30  C1  UNL     1       8.559  -0.591   1.491  1.00  0.00     0.005 C 
ENDBRANCH  28  29
ENDBRANCH  27  28
ENDBRANCH  26  27
ENDBRANCH  23  26
ENDBRANCH  21  23
ENDBRANCH   1  21
BRANCH  16  31
HETATM   31  O6  UNL     1       0.083   0.075   2.552  1.00  0.00    -0.395 OA
ATOM     32  H6  UNL     1       0.994   0.330   2.633  1.00  0.00     0.210 HD
ENDBRANCH  16  31
BRANCH  10  33
HETATM   33  C15 UNL     1      -6.806   1.177  -0.561  1.00  0.00     0.146 C 
BRANCH  33  34
HETATM   34  O4  UNL     1      -6.951   0.877  -1.915  1.00  0.00    -0.393 OA
ATOM     35  H4  UNL     1      -7.465   1.543  -2.356  1.00  0.00     0.210 HD
ENDBRANCH  33  34
BRANCH  33  36
HETATM   36  C16 UNL     1      -8.186   1.284   0.037  1.00  0.00     0.196 C 
BRANCH  36  37
HETATM   37  O5  UNL     1      -8.898   0.093  -0.095  1.00  0.00    -0.398 OA
ATOM     38  H5  UNL     1      -9.767   0.160   0.282  1.00  0.00     0.209 HD
ENDBRANCH  36  37
ENDBRANCH  33  36
ENDBRANCH  10  33
TORSDOF 11
