REMARK  14 active torsions:
REMARK  status: ('A' for Active; 'I' for Inactive)
REMARK    1  A    between atoms: C2_2  and  N1_5 
REMARK       I    between atoms: N1_5  and  C5_7 
REMARK    2  A    between atoms: C5_7  and  C6_9 
REMARK    3  A    between atoms: C7_10  and  C8_11 
REMARK    4  A    between atoms: C8_11  and  O2_12 
REMARK    5  A    between atoms: N2_14  and  O3_16 
REMARK    6  A    between atoms: N3_26  and  C17_27 
REMARK    7  A    between atoms: C17_27  and  O4_28 
REMARK    8  A    between atoms: C17_27  and  C18_30 
REMARK    9  A    between atoms: C18_30  and  C19_31 
REMARK   10  A    between atoms: C18_30  and  C25_37 
REMARK   11  A    between atoms: C19_31  and  C20_32 
REMARK   12  A    between atoms: C25_37  and  N4_38 
REMARK   13  A    between atoms: N4_38  and  O5_39 
REMARK   14  A    between atoms: N4_38  and  C26_41 
ROOT
HETATM    1  C6  UNL     1      -2.009   0.382  -0.028  1.00  0.00     0.192 C 
HETATM    2  C7  UNL     1      -2.894  -0.300   0.970  1.00  0.00     0.097 C 
HETATM    3  C9  UNL     1      -1.934  -0.952   1.906  1.00  0.00     0.059 C 
HETATM    4  C10 UNL     1      -0.913  -1.507   0.872  1.00  0.00     0.088 C 
HETATM    5  C11 UNL     1      -1.268  -2.827   0.469  1.00  0.00    -0.152 C 
HETATM    6  C12 UNL     1      -1.531  -4.162   0.151  1.00  0.00     0.082 C 
HETATM    7  C13 UNL     1      -0.396  -5.033   0.773  1.00  0.00     0.011 C 
HETATM    8  C14 UNL     1       0.348  -4.265   1.864  1.00  0.00     0.001 C 
HETATM    9  C15 UNL     1       1.020  -3.024   1.584  1.00  0.00     0.004 C 
HETATM   10  C16 UNL     1       0.378  -1.673   1.756  1.00  0.00     0.044 C 
HETATM   11  N3  UNL     1      -0.808  -0.476  -0.079  1.00  0.00    -0.331 N 
ENDROOT
BRANCH  11  12
HETATM   12  C17 UNL     1       0.170  -0.117  -1.045  1.00  0.00     0.121 C 
BRANCH  12  13
HETATM   13  O4  UNL     1      -0.107   0.948  -1.764  1.00  0.00    -0.349 OA
ATOM     14  H4  UNL     1       0.547   1.188  -2.410  1.00  0.00     0.219 HD
ENDBRANCH  12  13
BRANCH  12  15
HETATM   15  C18 UNL     1       1.454  -0.699  -1.425  1.00  0.00     0.081 C 
BRANCH  15  16
HETATM   16  C19 UNL     1       2.385   0.376  -2.003  1.00  0.00     0.019 C 
BRANCH  16  17
HETATM   17  C20 UNL     1       2.635   1.491  -0.994  1.00  0.00    -0.014 C 
HETATM   18  C21 UNL     1       3.275   1.037   0.270  1.00  0.00     0.005 C 
HETATM   19  C22 UNL     1       4.167   2.203   0.695  1.00  0.00     0.000 C 
HETATM   20  C23 UNL     1       4.065   3.238  -0.395  1.00  0.00     0.000 C 
HETATM   21  C24 UNL     1       3.752   2.357  -1.605  1.00  0.00     0.005 C 
ENDBRANCH  16  17
ENDBRANCH  15  16
BRANCH  15  22
HETATM   22  C25 UNL     1       1.295  -1.788  -2.446  1.00  0.00     0.171 C 
BRANCH  22  23
HETATM   23  N4  UNL     1       2.514  -2.383  -2.862  1.00  0.00    -0.235 N 
BRANCH  23  24
HETATM   24  O5  UNL     1       3.105  -3.410  -2.170  1.00  0.00    -0.285 OA
ATOM     25  H5  UNL     1       3.921  -3.808  -2.449  1.00  0.00     0.245 HD
ENDBRANCH  23  24
BRANCH  23  26
HETATM   26  C26 UNL     1       3.197  -1.964  -4.011  1.00  0.00     0.376 C 
HETATM   27  O6  UNL     1       2.750  -1.091  -4.765  1.00  0.00    -0.281 OA
ENDBRANCH  23  26
ENDBRANCH  22  23
ENDBRANCH  15  22
ENDBRANCH  12  15
ENDBRANCH  11  12
BRANCH   1  28
HETATM   28  C5  UNL     1      -1.643   1.753   0.424  1.00  0.00     0.242 C 
HETATM   29  N1  UNL     1      -2.580   2.798   0.333  1.00  0.00    -0.351 N 
ATOM     30  H1  UNL     1      -3.500   2.581  -0.050  1.00  0.00     0.163 HD
HETATM   31  O1  UNL     1      -0.511   1.955   0.875  1.00  0.00    -0.271 OA
BRANCH  29  32
HETATM   32  C2  UNL     1      -2.326   4.157   0.746  1.00  0.00     0.022 C 
HETATM   33  C1  UNL     1      -3.530   5.039   0.480  1.00  0.00     0.037 C 
HETATM   34  C3  UNL     1      -2.037   4.267   2.220  1.00  0.00     0.037 C 
HETATM   35  C4  UNL     1      -1.139   4.696  -0.020  1.00  0.00     0.037 C 
ENDBRANCH  29  32
ENDBRANCH   1  28
BRANCH   2  36
HETATM   36  C8  UNL     1      -3.799  -1.310   0.381  1.00  0.00     0.142 C 
HETATM   37  N2  UNL     1      -3.907  -1.478  -0.897  1.00  0.00    -0.251 N 
ATOM     38  H2  UNL     1      -3.351  -0.897  -1.524  1.00  0.00     0.196 HD
BRANCH  36  39
HETATM   39  O2  UNL     1      -4.555  -2.098   1.208  1.00  0.00    -0.348 OA
ATOM     40  H2  UNL     1      -5.136  -2.747   0.830  1.00  0.00     0.219 HD
ENDBRANCH  36  39
BRANCH  37  41
HETATM   41  O3  UNL     1      -4.752  -2.420  -1.429  1.00  0.00    -0.288 OA
ATOM     42  H3  UNL     1      -4.831  -2.543  -2.368  1.00  0.00     0.244 HD
ENDBRANCH  37  41
ENDBRANCH   2  36
TORSDOF 14
