REMARK  11 active torsions:
REMARK  status: ('A' for Active; 'I' for Inactive)
REMARK    1  A    between atoms: C2_2  and  C3_3 
REMARK    2  A    between atoms: C3_3  and  C4_4 
REMARK    3  A    between atoms: C4_4  and  C5_5 
REMARK    4  A    between atoms: C5_5  and  C6_6 
REMARK    5  A    between atoms: C6_6  and  C7_7 
REMARK    6  A    between atoms: C7_7  and  C8_8 
REMARK    7  A    between atoms: C8_8  and  N1_9 
REMARK       I    between atoms: N1_9  and  C9_11 
REMARK    8  A    between atoms: C9_11  and  C10_13 
REMARK    9  A    between atoms: C16_19  and  O2_20 
REMARK   10  A    between atoms: C20_25  and  O3_26 
REMARK   11  A    between atoms: C21_28  and  O4_29 
ROOT
HETATM    1  C10 UNL     1       0.504  -0.318   1.553  1.00  0.00     0.083 C 
HETATM    2  C11 UNL     1       0.897  -1.787   1.509  1.00  0.00     0.015 C 
HETATM    3  C12 UNL     1      -0.081  -2.616   0.696  1.00  0.00     0.011 C 
HETATM    4  C13 UNL     1      -1.479  -2.537   1.187  1.00  0.00    -0.029 A 
HETATM    5  C14 UNL     1      -1.876  -3.499   2.262  1.00  0.00     0.016 C 
HETATM    6  C15 UNL     1      -2.521  -1.791   0.452  1.00  0.00     0.033 A 
HETATM    7  C16 UNL     1      -3.965  -1.895   0.725  1.00  0.00     0.126 C 
HETATM    8  C17 UNL     1      -4.796  -1.452  -0.488  1.00  0.00     0.071 C 
HETATM    9  C18 UNL     1      -5.077   0.012  -0.486  1.00  0.00     0.073 A 
HETATM   10  C19 UNL     1      -6.563   0.268  -0.566  1.00  0.00     0.073 C 
HETATM   11  C20 UNL     1      -6.897   1.731  -0.603  1.00  0.00     0.149 C 
HETATM   12  C21 UNL     1      -6.145   2.467  -1.665  1.00  0.00     0.147 C 
HETATM   13  C22 UNL     1      -5.278   1.536  -2.442  1.00  0.00     0.045 C 
HETATM   14  C23 UNL     1      -4.330   0.755  -1.597  1.00  0.00     0.059 A 
HETATM   15  C24 UNL     1      -3.624   1.520  -0.495  1.00  0.00     0.199 A 
HETATM   16  O5  UNL     1      -4.385   0.793   0.415  1.00  0.00    -0.366 OA
HETATM   17  C25 UNL     1      -2.189   1.247  -0.533  1.00  0.00     0.156 C 
HETATM   18  O6  UNL     1      -1.681   1.019  -1.637  1.00  0.00    -0.295 OA
HETATM   19  C26 UNL     1      -1.278   1.218   0.646  1.00  0.00     0.087 C 
HETATM   20  C27 UNL     1      -0.723  -0.177   0.725  1.00  0.00     0.015 C 
HETATM   21  C28 UNL     1      -1.777  -1.032   1.418  1.00  0.00    -0.025 A 
HETATM   22  C29 UNL     1      -2.091  -0.720   2.809  1.00  0.00     0.017 C 
ENDROOT
BRANCH   1  23
HETATM   23  C9  UNL     1       1.612   0.563   1.132  1.00  0.00     0.222 C 
HETATM   24  N1  UNL     1       2.189   0.464  -0.141  1.00  0.00    -0.361 N 
ATOM     25  H1  UNL     1       1.820  -0.239  -0.781  1.00  0.00     0.162 HD
HETATM   26  O1  UNL     1       2.034   1.415   1.951  1.00  0.00    -0.273 OA
BRANCH  24  27
HETATM   27  C8  UNL     1       3.270   1.294  -0.600  1.00  0.00     0.122 C 
BRANCH  27  28
HETATM   28  C7  UNL     1       4.525   1.182   0.198  1.00  0.00     0.020 C 
BRANCH  28  29
HETATM   29  C6  UNL     1       5.005  -0.251   0.149  1.00  0.00     0.002 C 
BRANCH  29  30
HETATM   30  C5  UNL     1       6.262  -0.368   0.948  1.00  0.00     0.000 C 
BRANCH  30  31
HETATM   31  C4  UNL     1       7.376   0.509   0.437  1.00  0.00     0.000 C 
BRANCH  31  32
HETATM   32  C3  UNL     1       7.747   0.169  -0.990  1.00  0.00    -0.000 C 
BRANCH  32  33
HETATM   33  C2  UNL     1       8.857   1.074  -1.436  1.00  0.00    -0.005 C 
HETATM   34  C1  UNL     1      10.073   0.912  -0.567  1.00  0.00     0.005 C 
ENDBRANCH  32  33
ENDBRANCH  31  32
ENDBRANCH  30  31
ENDBRANCH  29  30
ENDBRANCH  28  29
ENDBRANCH  27  28
ENDBRANCH  24  27
ENDBRANCH   1  23
BRANCH   7  35
HETATM   35  O2  UNL     1      -4.258  -3.239   1.031  1.00  0.00    -0.395 OA
ATOM     36  H2  UNL     1      -5.189  -3.306   1.207  1.00  0.00     0.210 HD
ENDBRANCH   7  35
BRANCH  12  37
HETATM   37  O4  UNL     1      -7.031   3.088  -2.576  1.00  0.00    -0.393 OA
ATOM     38  H4  UNL     1      -6.553   3.556  -3.251  1.00  0.00     0.210 HD
ENDBRANCH  12  37
BRANCH  11  39
HETATM   39  O3  UNL     1      -8.262   1.860  -0.860  1.00  0.00    -0.393 OA
ATOM     40  H3  UNL     1      -8.473   2.786  -0.883  1.00  0.00     0.210 HD
ENDBRANCH  11  39
TORSDOF 11
