REMARK  11 active torsions:
REMARK  status: ('A' for Active; 'I' for Inactive)
REMARK    1  A    between atoms: C9_9  and  C10_10 
REMARK    2  A    between atoms: C10_10  and  C11_12 
REMARK    3  A    between atoms: C12_14  and  C13_15 
REMARK    4  A    between atoms: C12_14  and  C15_19 
REMARK    5  A    between atoms: C13_15  and  C14_16 
REMARK    6  A    between atoms: C14_16  and  O3_17 
REMARK    7  A    between atoms: C17_23  and  O6_24 
REMARK    8  A    between atoms: C18_26  and  C19_27 
REMARK    9  A    between atoms: C19_27  and  C20_28 
REMARK   10  A    between atoms: C20_28  and  N1_29 
REMARK   11  A    between atoms: N1_29  and  C21_32 
ROOT
HETATM    1  C11 UNL     1      -0.442   1.179   0.839  1.00  0.00     0.101 C 
HETATM    2  O2  UNL     1      -0.536   2.294   1.622  1.00  0.00    -0.329 OA
HETATM    3  C12 UNL     1      -0.766   3.515   1.047  1.00  0.00     0.159 C 
HETATM    4  C16 UNL     1       0.063   3.794  -0.196  1.00  0.00     0.082 C 
HETATM    5  C17 UNL     1       1.102   2.664  -0.287  1.00  0.00     0.132 C 
HETATM    6  C18 UNL     1       0.216   1.403  -0.439  1.00  0.00     0.077 C 
ENDROOT
BRANCH   6   7
HETATM    7  C19 UNL     1       1.118   0.331  -0.977  1.00  0.00     0.041 C 
BRANCH   7   8
HETATM    8  C20 UNL     1       2.289  -0.025  -0.116  1.00  0.00     0.234 C 
BRANCH   8   9
HETATM    9  N1  UNL     1       3.079  -1.064  -0.760  1.00  0.00    -0.066 N 
ATOM     10  H12 UNL     1       2.493  -1.864  -1.000  1.00  0.00     0.278 HD
ATOM     11  H11 UNL     1       3.362  -0.772  -1.695  1.00  0.00     0.278 HD
BRANCH   9  12
HETATM   12  C21 UNL     1       4.203  -1.478  -0.005  1.00  0.00     0.130 C 
HETATM   13  C22 UNL     1       5.281  -0.462   0.292  1.00  0.00     0.043 C 
HETATM   14  C23 UNL     1       6.532  -1.304   0.203  1.00  0.00    -0.011 C 
HETATM   15  C24 UNL     1       6.450  -2.368   1.267  1.00  0.00     0.010 C 
HETATM   16  C28 UNL     1       6.209  -2.136  -1.048  1.00  0.00     0.012 C 
HETATM   17  C25 UNL     1       5.175  -3.109   0.850  1.00  0.00    -0.005 C 
HETATM   18  C26 UNL     1       3.925  -2.301   1.237  1.00  0.00     0.044 C 
HETATM   19  C27 UNL     1       4.902  -2.712  -0.557  1.00  0.00     0.026 C 
ENDBRANCH   9  12
ENDBRANCH   8   9
ENDBRANCH   7   8
ENDBRANCH   6   7
BRANCH   1  20
HETATM   20  C10 UNL     1      -1.649   0.346   0.926  1.00  0.00     0.183 C 
HETATM   21  O1  UNL     1      -2.461   0.668   1.816  1.00  0.00    -0.290 OA
BRANCH  20  22
HETATM   22  C9  UNL     1      -2.056  -0.802   0.134  1.00  0.00     0.071 C 
HETATM   23  C7  UNL     1      -3.364  -1.436   0.645  1.00  0.00    -0.026 C 
HETATM   24  C2  UNL     1      -3.488  -2.506  -0.459  1.00  0.00    -0.036 C 
HETATM   25  C6  UNL     1      -4.565  -0.606   0.336  1.00  0.00     0.011 C 
HETATM   26  C8  UNL     1      -3.269  -1.987   1.993  1.00  0.00     0.016 C 
HETATM   27  C1  UNL     1      -4.753  -3.312  -0.297  1.00  0.00     0.016 C 
HETATM   28  C3  UNL     1      -2.307  -3.390  -0.567  1.00  0.00     0.016 C 
HETATM   29  C4  UNL     1      -3.619  -1.490  -1.595  1.00  0.00    -0.005 C 
HETATM   30  C5  UNL     1      -4.922  -0.850  -1.142  1.00  0.00     0.006 C 
HETATM   31  C29 UNL     1      -2.501  -0.516  -1.284  1.00  0.00     0.018 C 
ENDBRANCH  20  22
ENDBRANCH   1  20
BRANCH   5  32
HETATM   32  O6  UNL     1       1.884   2.841  -1.401  1.00  0.00    -0.395 OA
ATOM     33  H6  UNL     1       2.526   2.143  -1.457  1.00  0.00     0.210 HD
ENDBRANCH   5  32
BRANCH   3  34
HETATM   34  C13 UNL     1      -2.214   3.608   0.665  1.00  0.00     0.076 C 
BRANCH  34  35
HETATM   35  C14 UNL     1      -2.618   4.900   0.004  1.00  0.00     0.167 C 
BRANCH  35  36
HETATM   36  O3  UNL     1      -4.004   4.838  -0.319  1.00  0.00    -0.401 OA
ATOM     37  H3  UNL     1      -4.259   5.653  -0.736  1.00  0.00     0.209 HD
ENDBRANCH  35  36
ENDBRANCH  34  35
ENDBRANCH   3  34
BRANCH   3  38
HETATM   38  C15 UNL     1      -0.494   4.563   2.085  1.00  0.00     0.210 C 
HETATM   39  O4  UNL     1      -0.542   5.794   1.887  1.00  0.00    -0.646 OA
HETATM   40  O5  UNL     1      -0.165   4.145   3.360  1.00  0.00    -0.646 OA
ENDBRANCH   3  38
TORSDOF 11
