REMARK  11 active torsions:
REMARK  status: ('A' for Active; 'I' for Inactive)
REMARK    1  A    between atoms: C2_2  and  S1_4 
REMARK    2  A    between atoms: S1_4  and  O3_7 
REMARK    3  A    between atoms: O3_7  and  C4_8 
REMARK    4  A    between atoms: C14_18  and  O4_19 
REMARK    5  A    between atoms: C18_24  and  O5_25 
REMARK    6  A    between atoms: C19_27  and  N1_28 
REMARK    7  A    between atoms: N1_28  and  C20_30 
REMARK    8  A    between atoms: C20_30  and  C21_31 
REMARK    9  A    between atoms: C21_31  and  C22_32 
REMARK   10  A    between atoms: C22_32  and  C23_33 
REMARK   11  A    between atoms: C23_33  and  N2_34 
ROOT
HETATM    1  C4  UNL     1       4.773  -0.704  -0.002  1.00  0.00     0.146 C 
HETATM    2  C5  UNL     1       3.632  -1.007  -0.973  1.00  0.00     0.034 C 
HETATM    3  C6  UNL     1       2.599   0.106  -0.961  1.00  0.00     0.012 C 
HETATM    4  C7  UNL     1       2.123   0.253   0.453  1.00  0.00     0.019 C 
HETATM    5  C8  UNL     1       2.768  -0.733   1.337  1.00  0.00    -0.077 C 
HETATM    6  C9  UNL     1       2.085  -1.640   1.990  1.00  0.00    -0.023 C 
HETATM    7  C10 UNL     1       0.608  -1.804   1.935  1.00  0.00     0.033 C 
HETATM    8  C11 UNL     1       0.051  -1.042   0.755  1.00  0.00    -0.001 C 
HETATM    9  C12 UNL     1       0.652   0.306   0.623  1.00  0.00     0.001 C 
HETATM   10  C13 UNL     1       0.413   1.067   1.925  1.00  0.00     0.037 C 
HETATM   11  C14 UNL     1      -0.993   1.618   1.974  1.00  0.00     0.119 C 
HETATM   12  C15 UNL     1      -1.895   0.578   2.507  1.00  0.00     0.044 C 
HETATM   13  C16 UNL     1      -2.263  -0.598   1.751  1.00  0.00    -0.010 C 
HETATM   14  C17 UNL     1      -2.597  -1.699   2.781  1.00  0.00     0.018 C 
HETATM   15  C18 UNL     1      -3.610  -0.317   1.037  1.00  0.00     0.149 C 
HETATM   16  C19 UNL     1      -3.492  -0.948  -0.296  1.00  0.00     0.106 C 
HETATM   17  C24 UNL     1      -2.024  -0.832  -0.666  1.00  0.00     0.033 C 
HETATM   18  C25 UNL     1      -1.417  -1.167   0.710  1.00  0.00     0.003 C 
HETATM   19  C26 UNL     1       4.263  -0.623   1.418  1.00  0.00     0.067 C 
ENDROOT
BRANCH  16  20
HETATM   20  N1  UNL     1      -4.397  -0.510  -1.243  1.00  0.00    -0.415 N 
ATOM     21  H1  UNL     1      -5.070  -1.184  -1.607  1.00  0.00     0.153 HD
BRANCH  20  22
HETATM   22  C20 UNL     1      -4.450   0.793  -1.734  1.00  0.00     0.114 C 
BRANCH  22  23
HETATM   23  C21 UNL     1      -5.553   0.816  -2.817  1.00  0.00     0.021 C 
BRANCH  23  24
HETATM   24  C22 UNL     1      -6.882   0.422  -2.231  1.00  0.00     0.029 C 
BRANCH  24  25
HETATM   25  C23 UNL     1      -7.329   1.347  -1.122  1.00  0.00     0.229 C 
BRANCH  25  26
HETATM   26  N2  UNL     1      -8.621   0.876  -0.640  1.00  0.00    -0.079 N 
ATOM     27  H23 UNL     1      -9.313   0.788  -1.385  1.00  0.00     0.274 HD
ATOM     28  H22 UNL     1      -8.604  -0.103  -0.355  1.00  0.00     0.274 HD
ATOM     29  H21 UNL     1      -8.923   1.500   0.108  1.00  0.00     0.274 HD
ENDBRANCH  25  26
ENDBRANCH  24  25
ENDBRANCH  23  24
ENDBRANCH  22  23
ENDBRANCH  20  22
ENDBRANCH  16  20
BRANCH  15  30
HETATM   30  O5  UNL     1      -3.931   1.005   1.098  1.00  0.00    -0.393 OA
ATOM     31  H5  UNL     1      -4.756   1.177   0.660  1.00  0.00     0.210 HD
ENDBRANCH  15  30
BRANCH  11  32
HETATM   32  O4  UNL     1      -1.364   2.273   0.837  1.00  0.00    -0.396 OA
ATOM     33  H4  UNL     1      -2.248   2.619   0.868  1.00  0.00     0.210 HD
ENDBRANCH  11  32
BRANCH   1  34
HETATM   34  O3  UNL     1       5.835  -1.537  -0.164  1.00  0.00    -0.270 OA
BRANCH  34  35
HETATM   35  S1  UNL     1       7.293  -0.941  -0.570  1.00  0.00     0.269 S 
HETATM   36  O1  UNL     1       8.362  -1.140   0.469  1.00  0.00    -0.198 OA
HETATM   37  O2  UNL     1       7.790  -1.731  -1.782  1.00  0.00    -0.198 OA
BRANCH  35  38
HETATM   38  C2  UNL     1       7.229   0.751  -1.117  1.00  0.00     0.128 C 
HETATM   39  C1  UNL     1       8.659   1.270  -1.356  1.00  0.00     0.028 C 
HETATM   40  C3  UNL     1       6.540   0.810  -2.461  1.00  0.00     0.028 C 
ENDBRANCH  35  38
ENDBRANCH  34  35
ENDBRANCH   1  34
TORSDOF 11
