REMARK  12 active torsions:
REMARK  status: ('A' for Active; 'I' for Inactive)
REMARK    1  A    between atoms: C5_5  and  C6_6 
REMARK    2  A    between atoms: C6_6  and  C7_7 
REMARK    3  A    between atoms: C7_7  and  C8_8 
REMARK    4  A    between atoms: C8_8  and  C10_10 
REMARK    5  A    between atoms: C14_14  and  C15_15 
REMARK    6  A    between atoms: C16_16  and  C17_17 
REMARK    7  A    between atoms: C24_25  and  C26_27 
REMARK    8  A    between atoms: C26_27  and  O2_28 
REMARK    9  A    between atoms: C27_30  and  O3_31 
REMARK   10  A    between atoms: C28_33  and  O4_34 
REMARK   11  A    between atoms: C28_33  and  C29_36 
REMARK   12  A    between atoms: C29_36  and  O5_37 
ROOT
HETATM    1  C1  UNL     1       7.231   2.374   2.647  1.00  0.00     0.017 C 
HETATM    2  C2  UNL     1       7.538   1.407   1.996  1.00  0.00    -0.083 C 
HETATM    3  C3  UNL     1       7.919   0.268   1.219  1.00  0.00    -0.013 C 
HETATM    4  C4  UNL     1       9.013  -0.619   1.669  1.00  0.00     0.057 C 
HETATM    5  C5  UNL     1       7.292   0.010   0.098  1.00  0.00    -0.011 C 
ENDROOT
BRANCH   5   6
HETATM    6  C6  UNL     1       6.174   0.856  -0.430  1.00  0.00     0.028 C 
BRANCH   6   7
HETATM    7  C7  UNL     1       4.924   0.013  -0.555  1.00  0.00     0.010 C 
BRANCH   7   8
HETATM    8  C8  UNL     1       3.815   0.863  -1.079  1.00  0.00     0.011 C 
HETATM    9  C9  UNL     1       4.064   1.466  -2.432  1.00  0.00     0.012 C 
BRANCH   8  10
HETATM   10  C10 UNL     1       2.475   0.171  -1.037  1.00  0.00     0.126 C 
HETATM   11  C11 UNL     1       1.362   1.017  -1.553  1.00  0.00     0.033 C 
HETATM   12  C12 UNL     1       0.045   0.366  -1.185  1.00  0.00     0.010 C 
HETATM   13  C13 UNL     1       0.204  -1.071  -0.830  1.00  0.00     0.028 C 
HETATM   14  C14 UNL     1      -1.020  -1.644  -0.161  1.00  0.00     0.046 C 
HETATM   15  C30 UNL     1       1.328  -1.328   0.149  1.00  0.00     0.165 C 
HETATM   16  C27 UNL     1      -0.774  -1.498   1.318  1.00  0.00     0.165 C 
HETATM   17  C28 UNL     1       0.737  -1.776   1.455  1.00  0.00     0.131 C 
HETATM   18  O6  UNL     1       2.139  -0.188   0.291  1.00  0.00    -0.377 OA
BRANCH  14  19
HETATM   19  C15 UNL     1      -2.274  -1.132  -0.679  1.00  0.00    -0.022 C 
HETATM   20  C16 UNL     1      -3.256  -0.562  -0.027  1.00  0.00    -0.023 C 
BRANCH  20  21
HETATM   21  C17 UNL     1      -4.510  -0.076  -0.719  1.00  0.00     0.037 C 
HETATM   22  C18 UNL     1      -4.575   1.405  -0.817  1.00  0.00    -0.022 C 
HETATM   23  C19 UNL     1      -3.554   1.819  -1.889  1.00  0.00     0.020 C 
HETATM   24  C20 UNL     1      -4.253   2.162   0.426  1.00  0.00     0.020 C 
HETATM   25  C21 UNL     1      -5.895   1.787  -1.369  1.00  0.00    -0.014 C 
HETATM   26  C22 UNL     1      -6.959   1.042  -1.421  1.00  0.00     0.048 C 
HETATM   27  C23 UNL     1      -6.912  -0.298  -0.906  1.00  0.00     0.160 C 
HETATM   28  O1  UNL     1      -7.871  -1.082  -1.061  1.00  0.00    -0.292 OA
HETATM   29  C24 UNL     1      -5.724  -0.757  -0.186  1.00  0.00     0.050 C 
HETATM   30  C25 UNL     1      -5.567  -2.251  -0.512  1.00  0.00     0.027 C 
BRANCH  29  31
HETATM   31  C26 UNL     1      -5.913  -0.570   1.301  1.00  0.00     0.182 C 
BRANCH  31  32
HETATM   32  O2  UNL     1      -7.088  -1.259   1.679  1.00  0.00    -0.400 OA
ATOM     33  H2  UNL     1      -7.207  -1.141   2.614  1.00  0.00     0.209 HD
ENDBRANCH  31  32
ENDBRANCH  29  31
ENDBRANCH  20  21
ENDBRANCH  14  19
BRANCH  16  34
HETATM   34  O3  UNL     1      -1.024  -0.215   1.802  1.00  0.00    -0.392 OA
ATOM     35  H3  UNL     1      -0.869  -0.123   2.735  1.00  0.00     0.210 HD
ENDBRANCH  16  34
BRANCH  17  36
HETATM   36  O4  UNL     1       0.867  -3.153   1.620  1.00  0.00    -0.382 OA
ATOM     37  H4  UNL     1       1.798  -3.324   1.704  1.00  0.00     0.210 HD
ENDBRANCH  17  36
BRANCH  17  38
HETATM   38  C29 UNL     1       1.305  -1.111   2.659  1.00  0.00     0.207 C 
BRANCH  38  39
HETATM   39  O5  UNL     1       1.238   0.274   2.621  1.00  0.00    -0.398 OA
ATOM     40  H5  UNL     1       1.601   0.699   3.390  1.00  0.00     0.209 HD
ENDBRANCH  38  39
ENDBRANCH  17  38
ENDBRANCH   8  10
ENDBRANCH   7   8
ENDBRANCH   6   7
ENDBRANCH   5   6
TORSDOF 12
