REMARK  12 active torsions:
REMARK  status: ('A' for Active; 'I' for Inactive)
REMARK    1  A    between atoms: C2_2  and  C3_3 
REMARK    2  A    between atoms: C3_3  and  O1_4 
REMARK    3  A    between atoms: C3_3  and  C4_6 
REMARK    4  A    between atoms: C4_6  and  N1_7 
REMARK    5  A    between atoms: C4_6  and  C27_39 
REMARK       I    between atoms: N1_7  and  C5_9 
REMARK    6  A    between atoms: C5_9  and  C6_11 
REMARK    7  A    between atoms: C6_11  and  C7_12 
REMARK    8  A    between atoms: C22_27  and  O3_28 
REMARK    9  A    between atoms: C22_27  and  C23_30 
REMARK   10  A    between atoms: C23_30  and  O4_31 
REMARK   11  A    between atoms: C23_30  and  C24_33 
REMARK   12  A    between atoms: C24_33  and  O5_34 
ROOT
HETATM    1  C7  UNL     1       1.734  -0.226  -1.478  1.00  0.00     0.131 C 
HETATM    2  C8  UNL     1       1.720  -1.424  -0.510  1.00  0.00     0.040 C 
HETATM    3  C9  UNL     1       0.391  -1.231   0.067  1.00  0.00     0.023 C 
HETATM    4  C10 UNL     1      -0.396  -2.268   0.696  1.00  0.00     0.008 C 
HETATM    5  C11 UNL     1      -1.510  -1.522   1.465  1.00  0.00     0.010 C 
HETATM    6  C12 UNL     1      -2.163  -0.451   0.590  1.00  0.00    -0.033 C 
HETATM    7  C13 UNL     1      -1.773   0.879   1.155  1.00  0.00     0.016 C 
HETATM    8  C14 UNL     1      -1.790  -0.582  -0.848  1.00  0.00     0.029 C 
HETATM    9  C15 UNL     1      -2.464   0.454  -1.667  1.00  0.00     0.009 C 
HETATM   10  C16 UNL     1      -3.778   0.959  -1.133  1.00  0.00     0.013 C 
HETATM   11  C17 UNL     1      -4.515  -0.062  -0.338  1.00  0.00    -0.006 C 
HETATM   12  C18 UNL     1      -4.887  -1.154  -1.360  1.00  0.00     0.019 C 
HETATM   13  C19 UNL     1      -3.655  -0.733   0.706  1.00  0.00     0.005 C 
HETATM   14  C20 UNL     1      -4.213  -0.399   2.044  1.00  0.00     0.009 C 
HETATM   15  C21 UNL     1      -5.694  -0.241   1.759  1.00  0.00     0.042 C 
HETATM   16  C22 UNL     1      -5.745   0.348   0.353  1.00  0.00     0.093 C 
HETATM   17  C25 UNL     1      -0.366  -0.789  -1.188  1.00  0.00     0.066 C 
HETATM   18  C26 UNL     1      -0.211  -1.795  -2.305  1.00  0.00     0.047 C 
HETATM   19  O6  UNL     1       0.417   0.284  -1.500  1.00  0.00    -0.374 OA
ENDROOT
BRANCH   1  20
HETATM   20  C6  UNL     1       2.679   0.790  -0.856  1.00  0.00     0.135 C 
BRANCH  20  21
HETATM   21  C5  UNL     1       4.022   0.192  -0.731  1.00  0.00     0.224 C 
HETATM   22  N1  UNL     1       5.079   0.810  -0.016  1.00  0.00    -0.328 N 
ATOM     23  H1  UNL     1       4.905   1.709   0.432  1.00  0.00     0.168 HD
HETATM   24  O2  UNL     1       4.253  -0.912  -1.276  1.00  0.00    -0.273 OA
BRANCH  22  25
HETATM   25  C4  UNL     1       6.408   0.213   0.106  1.00  0.00     0.048 C 
BRANCH  25  26
HETATM   26  C3  UNL     1       6.521  -0.480   1.378  1.00  0.00     0.087 C 
BRANCH  26  27
HETATM   27  C2  UNL     1       7.500  -0.502   2.411  1.00  0.00     0.028 C 
HETATM   28  C1  UNL     1       8.615   0.121   2.595  1.00  0.00     0.014 C 
ENDBRANCH  26  27
BRANCH  26  29
HETATM   29  O1  UNL     1       5.461  -1.260   1.610  1.00  0.00    -0.359 OA
ATOM     30  H1  UNL     1       4.808  -1.245   0.921  1.00  0.00     0.217 HD
ENDBRANCH  26  29
ENDBRANCH  25  26
BRANCH  25  31
HETATM   31  C27 UNL     1       7.517   0.981  -0.476  1.00  0.00     0.030 C 
HETATM   32  C28 UNL     1       8.730   0.130  -0.810  1.00  0.00     0.016 C 
HETATM   33  C29 UNL     1       7.101   1.675  -1.783  1.00  0.00     0.016 C 
ENDBRANCH  25  31
ENDBRANCH  22  25
ENDBRANCH  20  21
ENDBRANCH   1  20
BRANCH  16  34
HETATM   34  O3  UNL     1      -6.901  -0.276  -0.221  1.00  0.00    -0.386 OA
ATOM     35  H3  UNL     1      -7.696  -0.011   0.226  1.00  0.00     0.210 HD
ENDBRANCH  16  34
BRANCH  16  36
HETATM   36  C23 UNL     1      -6.116   1.778   0.406  1.00  0.00     0.176 C 
BRANCH  36  37
HETATM   37  O4  UNL     1      -5.184   2.646   0.965  1.00  0.00    -0.390 OA
ATOM     38  H4  UNL     1      -5.422   3.565   0.999  1.00  0.00     0.210 HD
ENDBRANCH  36  37
BRANCH  36  39
HETATM   39  C24 UNL     1      -7.375   2.071   1.161  1.00  0.00     0.198 C 
BRANCH  39  40
HETATM   40  O5  UNL     1      -8.471   1.350   0.843  1.00  0.00    -0.398 OA
ATOM     41  H5  UNL     1      -9.270   1.536   1.322  1.00  0.00     0.209 HD
ENDBRANCH  39  40
ENDBRANCH  36  39
ENDBRANCH  16  36
TORSDOF 12
