REMARK  5 active torsions:
REMARK  status: ('A' for Active; 'I' for Inactive)
REMARK    1  A    between atoms: C2_2  and  C4_4 
REMARK    2  A    between atoms: C5_5  and  O1_6 
REMARK    3  A    between atoms: C7_9  and  O2_10 
REMARK    4  A    between atoms: C8_12  and  O3_13 
REMARK    5  A    between atoms: C9_15  and  O4_16 
ROOT
HETATM    1  C4  UNL     1       0.506  -0.351  -0.150  1.00  0.00     0.049 C 
HETATM    2  C5  UNL     1      -0.030  -0.282   1.252  1.00  0.00     0.127 C 
HETATM    3  C6  UNL     1      -1.482  -0.515   1.360  1.00  0.00     0.066 C 
HETATM    4  C7  UNL     1      -2.327   0.078   0.296  1.00  0.00     0.151 C 
HETATM    5  C8  UNL     1      -1.736  -0.236  -1.076  1.00  0.00     0.176 C 
HETATM    6  C9  UNL     1      -0.392   0.454  -1.094  1.00  0.00     0.156 C 
ENDROOT
BRANCH   1   7
HETATM    7  C2  UNL     1       1.887   0.197  -0.284  1.00  0.00    -0.014 C 
HETATM    8  C1  UNL     1       1.981   1.654   0.119  1.00  0.00     0.010 C 
HETATM    9  C3  UNL     1       2.939  -0.622   0.414  1.00  0.00     0.010 C 
ENDBRANCH   1   7
BRANCH   2  10
HETATM   10  O1  UNL     1       0.621  -1.273   2.018  1.00  0.00    -0.395 OA
ATOM     11  H1  UNL     1       0.282  -1.229   2.904  1.00  0.00     0.210 HD
ENDBRANCH   2  10
BRANCH   6  12
HETATM   12  O4  UNL     1       0.147   0.601  -2.337  1.00  0.00    -0.392 OA
ATOM     13  H4  UNL     1      -0.410   1.100  -2.923  1.00  0.00     0.210 HD
ENDBRANCH   6  12
BRANCH   5  14
HETATM   14  O3  UNL     1      -2.556   0.142  -2.108  1.00  0.00    -0.390 OA
ATOM     15  H3  UNL     1      -2.188  -0.053  -2.962  1.00  0.00     0.210 HD
ENDBRANCH   5  14
BRANCH   4  16
HETATM   16  O2  UNL     1      -3.612  -0.455   0.359  1.00  0.00    -0.393 OA
ATOM     17  H2  UNL     1      -4.153  -0.075  -0.323  1.00  0.00     0.210 HD
ENDBRANCH   4  16
TORSDOF 5
