REMARK  10 active torsions:
REMARK  status: ('A' for Active; 'I' for Inactive)
REMARK    1  A    between atoms: C2_2  and  C3_3 
REMARK    2  A    between atoms: C3_3  and  C4_4 
REMARK    3  A    between atoms: C6_6  and  O1_7 
REMARK    4  A    between atoms: O1_7  and  C7_8 
REMARK    5  A    between atoms: C9_11  and  N1_12 
REMARK    6  A    between atoms: N1_12  and  N2_14 
REMARK    7  A    between atoms: C10_19  and  N4_20 
REMARK    8  A    between atoms: C15_28  and  O3_29 
REMARK    9  A    between atoms: C16_31  and  O4_32 
REMARK   10  A    between atoms: C17_34  and  N6_35 
ROOT
HETATM    1  C7  UNL     1      -0.100  -1.502  -0.707  1.00  0.00     0.294 C 
HETATM    2  O2  UNL     1      -0.580  -2.700  -0.225  1.00  0.00    -0.356 OA
HETATM    3  C8  UNL     1      -1.068  -2.488   1.036  1.00  0.00     0.203 C 
HETATM    4  C9  UNL     1      -2.279  -1.583   1.107  1.00  0.00     0.172 C 
HETATM    5  C10 UNL     1      -2.124  -0.369   0.221  1.00  0.00     0.045 C 
HETATM    6  C15 UNL     1      -1.321  -0.649  -1.022  1.00  0.00     0.220 C 
ENDROOT
BRANCH   1   7
HETATM    7  O1  UNL     1       0.728  -0.828   0.147  1.00  0.00    -0.350 OA
BRANCH   7   8
HETATM    8  C6  UNL     1       1.943  -0.516  -0.408  1.00  0.00     0.156 C 
HETATM    9  C5  UNL     1       2.364   0.926  -0.226  1.00  0.00     0.041 C 
HETATM   10  C4  UNL     1       3.896   0.875  -0.224  1.00  0.00     0.024 C 
HETATM   11  C17 UNL     1       4.262  -0.556  -0.076  1.00  0.00     0.218 C 
HETATM   12  C16 UNL     1       3.013  -1.226   0.435  1.00  0.00     0.177 C 
BRANCH  10  13
HETATM   13  C3  UNL     1       4.362   1.765   0.900  1.00  0.00     0.033 C 
BRANCH  13  14
HETATM   14  C2  UNL     1       5.819   1.826   1.039  1.00  0.00    -0.036 C 
HETATM   15  C1  UNL     1       6.450   2.970   0.925  1.00  0.00     0.007 C 
ENDBRANCH  13  14
ENDBRANCH  10  13
BRANCH  11  16
HETATM   16  N6  UNL     1       4.531  -1.091  -1.394  1.00  0.00    -0.072 N 
ATOM     17  H63 UNL     1       3.757  -0.948  -2.043  1.00  0.00     0.274 HD
ATOM     18  H62 UNL     1       5.236  -0.555  -1.900  1.00  0.00     0.274 HD
ATOM     19  H61 UNL     1       4.782  -2.074  -1.292  1.00  0.00     0.274 HD
ENDBRANCH  11  16
BRANCH  12  20
HETATM   20  O4  UNL     1       2.752  -0.930   1.770  1.00  0.00    -0.391 OA
ATOM     21  H4  UNL     1       3.414  -1.369   2.291  1.00  0.00     0.210 HD
ENDBRANCH  12  20
ENDBRANCH   7   8
ENDBRANCH   1   7
BRANCH   6  22
HETATM   22  O3  UNL     1      -1.987  -1.316  -2.018  1.00  0.00    -0.385 OA
ATOM     23  H3  UNL     1      -2.749  -0.784  -2.215  1.00  0.00     0.210 HD
ENDBRANCH   6  22
BRANCH   5  24
HETATM   24  N4  UNL     1      -3.235   0.465   0.075  1.00  0.00    -0.380 N 
HETATM   25  C11 UNL     1      -3.655   1.080   1.293  1.00  0.00     0.150 C 
HETATM   26  C12 UNL     1      -4.852   1.939   1.240  1.00  0.00     0.252 C 
HETATM   27  N5  UNL     1      -5.891   1.395   0.378  1.00  0.00    -0.072 N 
HETATM   28  C13 UNL     1      -5.294   1.330  -0.943  1.00  0.00     0.252 C 
ATOM     29  H52 UNL     1      -6.272   0.506   0.702  1.00  0.00     0.277 HD
ATOM     30  H51 UNL     1      -6.767   1.917   0.409  1.00  0.00     0.277 HD
HETATM   31  C14 UNL     1      -4.232   0.216  -0.878  1.00  0.00     0.150 C 
ENDBRANCH   5  24
BRANCH   4  32
HETATM   32  N1  UNL     1      -3.430  -2.388   0.794  1.00  0.00    -0.310 N 
ATOM     33  H1  UNL     1      -4.354  -1.970   0.907  1.00  0.00     0.182 HD
BRANCH  32  34
HETATM   34  N2  UNL     1      -3.365  -3.552   0.398  1.00  0.00    -0.253 N 
HETATM   35  N3  UNL     1      -3.496  -4.486  -0.402  1.00  0.00    -0.331 N 
ATOM     36  H32 UNL     1      -3.890  -3.970  -1.189  1.00  0.00     0.178 HD
ATOM     37  H31 UNL     1      -3.442  -5.450  -0.730  1.00  0.00     0.178 HD
ATOM     38  H2  UNL     1      -2.969  -4.026   1.209  1.00  0.00     0.207 HD
ENDBRANCH  32  34
ENDBRANCH   4  32
TORSDOF 10
