REMARK  10 active torsions:
REMARK  status: ('A' for Active; 'I' for Inactive)
REMARK    1  A    between atoms: C2_2  and  C3_3 
REMARK    2  A    between atoms: C7_8  and  C8_9 
REMARK    3  A    between atoms: C8_9  and  O2_10 
REMARK    4  A    between atoms: C9_12  and  O3_13 
REMARK    5  A    between atoms: O3_13  and  C10_14 
REMARK    6  A    between atoms: C11_15  and  O4_16 
REMARK    7  A    between atoms: C12_18  and  O5_19 
REMARK    8  A    between atoms: C13_21  and  O6_22 
REMARK    9  A    between atoms: C14_24  and  C15_25 
REMARK   10  A    between atoms: C15_25  and  C16_26 
ROOT
HETATM    1  C10 UNL     1      -0.335  -0.016  -0.173  1.00  0.00     0.170 C 
HETATM    2  C11 UNL     1      -0.616   0.063  -1.662  1.00  0.00     0.179 C 
HETATM    3  C12 UNL     1      -1.828  -0.752  -1.969  1.00  0.00     0.182 C 
HETATM    4  C13 UNL     1      -3.025  -0.446  -1.055  1.00  0.00     0.179 C 
HETATM    5  C14 UNL     1      -2.606  -0.510   0.404  1.00  0.00    -0.037 C 
HETATM    6  C18 UNL     1      -1.502   0.476   0.631  1.00  0.00     0.057 C 
HETATM    7  C19 UNL     1      -1.762   1.909   0.303  1.00  0.00     0.186 C 
HETATM    8  O7  UNL     1      -1.861   2.148   1.694  1.00  0.00    -0.389 OA
HETATM    9  C20 UNL     1      -1.215   0.927   1.999  1.00  0.00     0.186 C 
ENDROOT
BRANCH   1  10
HETATM   10  O3  UNL     1       0.849   0.505   0.196  1.00  0.00    -0.373 OA
BRANCH  10  11
HETATM   11  C9  UNL     1       1.803  -0.396   0.610  1.00  0.00     0.159 C 
HETATM   12  C5  UNL     1       2.896  -0.342  -0.478  1.00  0.00     0.048 C 
HETATM   13  C4  UNL     1       3.081   1.049  -1.075  1.00  0.00     0.020 C 
HETATM   14  C6  UNL     1       4.166  -0.063   0.317  1.00  0.00     0.136 C 
HETATM   15  C3  UNL     1       4.566   0.951  -0.706  1.00  0.00     0.037 C 
HETATM   16  O1  UNL     1       3.726   0.593   1.472  1.00  0.00    -0.375 OA
HETATM   17  C7  UNL     1       2.584  -0.101   1.816  1.00  0.00     0.174 C 
BRANCH  15  18
HETATM   18  C2  UNL     1       5.430   0.529  -1.816  1.00  0.00    -0.030 C 
HETATM   19  C1  UNL     1       5.853  -0.707  -1.943  1.00  0.00     0.007 C 
ENDBRANCH  15  18
BRANCH  17  20
HETATM   20  C8  UNL     1       3.055  -1.406   2.475  1.00  0.00     0.198 C 
BRANCH  20  21
HETATM   21  O2  UNL     1       3.816  -1.099   3.598  1.00  0.00    -0.398 OA
ATOM     22  H2  UNL     1       4.107  -1.906   4.006  1.00  0.00     0.209 HD
ENDBRANCH  20  21
ENDBRANCH  17  20
ENDBRANCH  10  11
ENDBRANCH   1  10
BRANCH   2  23
HETATM   23  O4  UNL     1      -0.757   1.313  -2.172  1.00  0.00    -0.390 OA
ATOM     24  H4  UNL     1      -0.933   1.362  -3.104  1.00  0.00     0.210 HD
ENDBRANCH   2  23
BRANCH   3  25
HETATM   25  O5  UNL     1      -2.237  -0.645  -3.275  1.00  0.00    -0.390 OA
ATOM     26  H5  UNL     1      -3.008  -1.164  -3.470  1.00  0.00     0.210 HD
ENDBRANCH   3  25
BRANCH   5  27
HETATM   27  C15 UNL     1      -3.661  -0.652   1.389  1.00  0.00    -0.021 C 
BRANCH  27  28
HETATM   28  C16 UNL     1      -4.744   0.279   1.617  1.00  0.00     0.023 C 
HETATM   29  C17 UNL     1      -5.702   0.580   0.498  1.00  0.00     0.009 C 
ENDBRANCH  27  28
ENDBRANCH   5  27
BRANCH   4  30
HETATM   30  O6  UNL     1      -3.829  -1.603  -1.247  1.00  0.00    -0.389 OA
ATOM     31  H6  UNL     1      -4.569  -1.414  -0.682  1.00  0.00     0.210 HD
ENDBRANCH   4  30
TORSDOF 10
