REMARK  11 active torsions:
REMARK  status: ('A' for Active; 'I' for Inactive)
REMARK    1  A    between atoms: N1_2  and  C3_4 
REMARK    2  A    between atoms: C3_4  and  C4_5 
REMARK    3  A    between atoms: C4_5  and  C5_6 
REMARK    4  A    between atoms: C6_9  and  C7_10 
REMARK    5  A    between atoms: C7_10  and  C8_11 
REMARK    6  A    between atoms: C9_13  and  N3_14 
REMARK    7  A    between atoms: C10_19  and  O1_20 
REMARK    8  A    between atoms: C11_22  and  N5_23 
REMARK    9  A    between atoms: N5_23  and  C12_25 
REMARK   10  A    between atoms: C12_25  and  C13_26 
REMARK   11  A    between atoms: C13_26  and  N6_27 
ROOT
HETATM    1  C5  UNL     1       1.776  -0.251  -0.207  1.00  0.00     0.077 A 
HETATM    2  N2  UNL     1       1.282   0.859   0.309  1.00  0.00    -0.348 N 
ATOM      3  H2  UNL     1       1.885   1.504   0.819  1.00  0.00     0.166 HD
HETATM    4  C6  UNL     1      -0.008   1.126   0.156  1.00  0.00     0.068 A 
HETATM    5  C11 UNL     1      -0.762   0.222  -0.538  1.00  0.00     0.099 A 
HETATM    6  S2  UNL     1       0.442  -0.990  -0.944  1.00  0.00    -0.053 SA
ENDROOT
BRANCH   4   7
HETATM    7  C7  UNL     1      -0.556   2.264   0.675  1.00  0.00     0.055 C 
BRANCH   7   8
HETATM    8  C8  UNL     1       0.273   3.229   1.419  1.00  0.00     0.061 A 
HETATM    9  S1  UNL     1       1.585   4.196   0.918  1.00  0.00    -0.050 SA
HETATM   10  C9  UNL     1       1.906   4.968   2.400  1.00  0.00     0.144 A 
HETATM   11  N4  UNL     1       0.993   4.453   3.223  1.00  0.00    -0.317 N 
HETATM   12  C10 UNL     1       0.154   3.565   2.735  1.00  0.00     0.159 A 
ATOM     13  H4  UNL     1       0.946   4.739   4.201  1.00  0.00     0.170 HD
BRANCH  10  14
HETATM   14  N3  UNL     1       2.822   5.863   2.709  1.00  0.00    -0.380 N 
ATOM     15  H32 UNL     1       3.521   6.257   2.079  1.00  0.00     0.158 HD
ATOM     16  H31 UNL     1       3.014   6.326   3.597  1.00  0.00     0.158 HD
ENDBRANCH  10  14
BRANCH  12  17
HETATM   17  O1  UNL     1      -0.855   2.963   3.541  1.00  0.00    -0.345 OA
ATOM     18  H1  UNL     1      -0.938   3.197   4.458  1.00  0.00     0.219 HD
ENDBRANCH  12  17
ENDBRANCH   7   8
ENDBRANCH   4   7
BRANCH   5  19
HETATM   19  N5  UNL     1      -1.989   0.150  -0.870  1.00  0.00    -0.381 N 
ATOM     20  H5  UNL     1      -2.180  -0.701  -1.399  1.00  0.00     0.160 HD
BRANCH  19  21
HETATM   21  C12 UNL     1      -3.132   0.908  -0.710  1.00  0.00     0.150 C 
BRANCH  21  22
HETATM   22  C13 UNL     1      -4.373   0.275  -1.348  1.00  0.00     0.292 C 
BRANCH  22  23
HETATM   23  N6  UNL     1      -4.591  -1.017  -0.727  1.00  0.00     0.090 N 
HETATM   24  C14 UNL     1      -5.753  -1.693  -1.269  1.00  0.00     0.274 C 
HETATM   25  C15 UNL     1      -4.913  -2.913  -1.530  1.00  0.00     0.060 C 
HETATM   26  C16 UNL     1      -3.709  -2.059  -1.223  1.00  0.00     0.274 C 
ENDBRANCH  22  23
ENDBRANCH  21  22
ENDBRANCH  19  21
ENDBRANCH   5  19
BRANCH   1  27
HETATM   27  C4  UNL     1       3.051  -0.689  -0.156  1.00  0.00     0.054 C 
BRANCH  27  28
HETATM   28  C3  UNL     1       3.344  -1.973  -0.818  1.00  0.00     0.087 C 
BRANCH  28  29
HETATM   29  N1  UNL     1       4.470  -2.644  -0.339  1.00  0.00    -0.398 N 
HETATM   30  C1  UNL     1       5.757  -2.165  -0.523  1.00  0.00     0.148 C 
HETATM   31  C2  UNL     1       4.206  -3.802   0.414  1.00  0.00     0.148 C 
ENDBRANCH  28  29
ENDBRANCH  27  28
ENDBRANCH   1  27
TORSDOF 11
