REMARK  7 active torsions:
REMARK  status: ('A' for Active; 'I' for Inactive)
REMARK    1  A    between atoms: C2_3  and  N2_4 
REMARK    2  A    between atoms: C9_14  and  N4_15 
REMARK    3  A    between atoms: N6_21  and  C11_23 
REMARK    4  A    between atoms: C11_23  and  C12_24 
REMARK    5  A    between atoms: C12_24  and  C13_25 
REMARK    6  A    between atoms: C13_25  and  N7_26 
REMARK    7  A    between atoms: N7_26  and  C14_28 
ROOT
HETATM    1  C1  UNL     1      -5.248  -2.674  -0.047  1.00  0.00     0.177 C 
HETATM    2  N1  UNL     1      -3.974  -1.973   0.008  1.00  0.00    -0.171 N 
HETATM    3  C2  UNL     1      -3.902  -0.634  -0.025  1.00  0.00     0.684 A 
HETATM    4  N3  UNL     1      -2.706   0.025   0.026  1.00  0.00    -0.185 N 
ATOM      5  H3  UNL     1      -2.705   1.045  -0.003  1.00  0.00     0.184 HD
HETATM    6  C7  UNL     1      -1.541  -0.616   0.112  1.00  0.00     0.123 A 
HETATM    7  C8  UNL     1      -1.575  -1.996   0.150  1.00  0.00     0.110 A 
HETATM    8  C9  UNL     1      -2.813  -2.644   0.095  1.00  0.00     0.146 A 
HETATM    9  N5  UNL     1      -0.168  -2.153   0.246  1.00  0.00    -0.336 N 
ATOM     10  H5  UNL     1       0.484  -2.935   0.312  1.00  0.00     0.168 HD
HETATM   11  C10 UNL     1      -0.070  -0.705   0.209  1.00  0.00     0.132 A 
HETATM   12  N6  UNL     1       0.940   0.051   0.225  1.00  0.00    -0.374 N 
ATOM     13  H6  UNL     1       1.837  -0.426   0.314  1.00  0.00     0.161 HD
ENDROOT
BRANCH  12  14
HETATM   14  C11 UNL     1       1.015   1.461   0.138  1.00  0.00     0.123 C 
BRANCH  14  15
HETATM   15  C12 UNL     1       2.280   1.782  -0.694  1.00  0.00     0.039 C 
BRANCH  15  16
HETATM   16  C13 UNL     1       3.449   1.221   0.101  1.00  0.00     0.115 C 
BRANCH  16  17
HETATM   17  N7  UNL     1       4.706   1.356  -0.592  1.00  0.00    -0.417 N 
ATOM     18  H7  UNL     1       4.765   1.657  -1.565  1.00  0.00     0.153 HD
BRANCH  17  19
HETATM   19  C14 UNL     1       5.857   1.040   0.178  1.00  0.00     0.080 C 
HETATM   20  C15 UNL     1       5.846  -0.356   0.678  1.00  0.00     0.051 C 
HETATM   21  C16 UNL     1       6.007  -1.370  -0.419  1.00  0.00     0.169 C 
HETATM   22  O2  UNL     1       6.444  -0.814  -1.627  1.00  0.00    -0.391 OA
HETATM   23  C17 UNL     1       7.546   0.032  -1.380  1.00  0.00     0.169 C 
HETATM   24  C18 UNL     1       7.071   1.262  -0.707  1.00  0.00     0.051 C 
ENDBRANCH  17  19
ENDBRANCH  16  17
ENDBRANCH  15  16
ENDBRANCH  14  15
ENDBRANCH  12  14
BRANCH   3  25
HETATM   25  N2  UNL     1      -5.058   0.144  -0.059  1.00  0.00    -0.213 N 
HETATM   26  C3  UNL     1      -5.444   0.897   1.121  1.00  0.00     0.167 C 
HETATM   27  C4  UNL     1      -5.932   2.269   0.780  1.00  0.00     0.188 C 
HETATM   28  O1  UNL     1      -6.721   2.299  -0.366  1.00  0.00    -0.388 OA
HETATM   29  C5  UNL     1      -7.161   1.041  -0.713  1.00  0.00     0.188 C 
HETATM   30  C6  UNL     1      -5.936   0.252  -1.198  1.00  0.00     0.167 C 
ENDBRANCH   3  25
BRANCH   8  31
HETATM   31  N4  UNL     1      -2.885  -3.938   0.117  1.00  0.00    -0.383 N 
ATOM     32  H42 UNL     1      -3.788  -4.411   0.077  1.00  0.00     0.157 HD
ATOM     33  H41 UNL     1      -2.004  -4.447   0.183  1.00  0.00     0.157 HD
ENDBRANCH   8  31
TORSDOF 7
