REMARK  9 active torsions:
REMARK  status: ('A' for Active; 'I' for Inactive)
REMARK    1  A    between atoms: S1_2  and  C2_3 
REMARK    2  A    between atoms: C2_3  and  C3_4 
REMARK    3  A    between atoms: C3_4  and  S2_5 
REMARK    4  A    between atoms: C3_4  and  C9_11 
REMARK    5  A    between atoms: S2_5  and  C4_6 
REMARK       I    between atoms: C9_11  and  N1_13 
REMARK    6  A    between atoms: N1_13  and  C10_15 
REMARK    7  A    between atoms: C10_15  and  C11_16 
REMARK    8  A    between atoms: C13_21  and  O4_22 
REMARK    9  A    between atoms: C14_24  and  O5_25 
ROOT
HETATM    1  C9  UNL     1       0.410   0.060   0.316  1.00  0.00     0.234 C 
HETATM    2  O1  UNL     1       0.472  -0.493   1.440  1.00  0.00    -0.272 OA
HETATM    3  N1  UNL     1       1.606   0.444  -0.320  1.00  0.00    -0.330 N 
ATOM      4  H1  UNL     1       1.577   0.894  -1.235  1.00  0.00     0.164 HD
ENDROOT
BRANCH   3   5
HETATM    5  C10 UNL     1       2.874   0.200   0.326  1.00  0.00     0.199 C 
HETATM    6  S3  UNL     1       2.939  -1.626   0.547  1.00  0.00    -0.121 SA
HETATM    7  C12 UNL     1       4.362  -1.950  -0.571  1.00  0.00     0.111 C 
HETATM    8  C13 UNL     1       5.068  -0.595  -0.411  1.00  0.00     0.160 C 
HETATM    9  C14 UNL     1       4.011   0.422  -0.647  1.00  0.00     0.197 C 
BRANCH   5  10
HETATM   10  C11 UNL     1       3.070   0.884   1.599  1.00  0.00     0.216 C 
HETATM   11  O2  UNL     1       2.218   1.649   2.089  1.00  0.00    -0.645 OA
HETATM   12  O3  UNL     1       4.238   0.683   2.295  1.00  0.00    -0.645 OA
ENDBRANCH   5  10
BRANCH   8  13
HETATM   13  O4  UNL     1       6.042  -0.441  -1.384  1.00  0.00    -0.392 OA
ATOM     14  H4  UNL     1       6.479   0.397  -1.285  1.00  0.00     0.210 HD
ENDBRANCH   8  13
BRANCH   9  15
HETATM   15  O5  UNL     1       4.597   1.689  -0.448  1.00  0.00    -0.389 OA
ATOM     16  H5  UNL     1       5.311   1.828  -1.059  1.00  0.00     0.210 HD
ENDBRANCH   9  15
ENDBRANCH   3   5
BRANCH   1  17
HETATM   17  C3  UNL     1      -0.931   0.277  -0.282  1.00  0.00     0.149 C 
BRANCH  17  18
HETATM   18  C2  UNL     1      -1.193   1.746  -0.513  1.00  0.00     0.098 C 
BRANCH  18  19
HETATM   19  S1  UNL     1      -1.217   2.568   1.107  1.00  0.00    -0.172 SA
HETATM   20  C1  UNL     1      -1.522   4.338   0.953  1.00  0.00     0.089 C 
ENDBRANCH  18  19
ENDBRANCH  17  18
BRANCH  17  21
HETATM   21  S2  UNL     1      -2.182  -0.482   0.739  1.00  0.00    -0.149 SA
BRANCH  21  22
HETATM   22  C4  UNL     1      -3.801  -0.549  -0.027  1.00  0.00     0.048 C 
HETATM   23  C5  UNL     1      -4.768  -1.211   0.929  1.00  0.00     0.015 C 
HETATM   24  C6  UNL     1      -4.665  -2.674   0.499  1.00  0.00     0.001 C 
HETATM   25  C7  UNL     1      -4.712  -2.563  -0.996  1.00  0.00     0.001 C 
HETATM   26  C8  UNL     1      -3.755  -1.406  -1.266  1.00  0.00     0.015 C 
ENDBRANCH  21  22
ENDBRANCH  17  21
ENDBRANCH   1  17
TORSDOF 9
