REMARK  8 active torsions:
REMARK  status: ('A' for Active; 'I' for Inactive)
REMARK    1  A    between atoms: C2_2  and  O1_3 
REMARK    2  A    between atoms: O1_3  and  C3_4 
REMARK       I    between atoms: C3_4  and  N1_6 
REMARK    3  A    between atoms: N1_6  and  C4_8 
REMARK    4  A    between atoms: C5_11  and  S1_12 
REMARK    5  A    between atoms: S1_12  and  C6_13 
REMARK    6  A    between atoms: C9_16  and  O3_17 
REMARK    7  A    between atoms: N4_22  and  C12_24 
REMARK    8  A    between atoms: C12_24  and  C13_25 
ROOT
HETATM    1  C13 UNL     1      -6.427   2.266   2.569  1.00  0.00     0.092 C 
HETATM    2  N5  UNL     1      -7.636   2.658   2.384  1.00  0.00    -0.307 N 
ATOM      3  H5  UNL     1      -7.973   3.451   2.930  1.00  0.00     0.177 HD
HETATM    4  C14 UNL     1      -8.517   2.060   1.477  1.00  0.00     0.181 C 
HETATM    5  N6  UNL     1      -9.239   1.572   0.715  1.00  0.00    -0.172 NA
ENDROOT
BRANCH   1   6
HETATM    6  C12 UNL     1      -5.891   1.122   1.801  1.00  0.00     0.183 C 
BRANCH   6   7
HETATM    7  N4  UNL     1      -4.664   1.539   1.180  1.00  0.00    -0.221 N 
HETATM    8  C11 UNL     1      -3.897   0.726   0.524  1.00  0.00     0.680 A 
HETATM    9  N3  UNL     1      -4.170  -0.637   0.348  1.00  0.00    -0.171 N 
HETATM   10  N7  UNL     1      -2.694   1.252  -0.057  1.00  0.00    -0.191 N 
HETATM   11  C9  UNL     1      -3.329  -1.546  -0.376  1.00  0.00     0.159 A 
ATOM     12  H3  UNL     1      -5.025  -1.008   0.763  1.00  0.00     0.186 HD
HETATM   13  C8  UNL     1      -2.226  -1.037  -0.901  1.00  0.00     0.087 A 
HETATM   14  C7  UNL     1      -1.847   0.366  -0.778  1.00  0.00     0.059 A 
HETATM   15  C6  UNL     1      -0.723   0.780  -1.340  1.00  0.00     0.083 C 
ATOM     16  H7  UNL     1      -2.453   2.238   0.045  1.00  0.00     0.184 HD
ATOM     17  H4  UNL     1      -4.385   2.517   1.259  1.00  0.00     0.178 HD
BRANCH  11  18
HETATM   18  O3  UNL     1      -3.679  -2.896  -0.504  1.00  0.00    -0.340 OA
HETATM   19  C10 UNL     1      -2.859  -3.675  -1.356  1.00  0.00     0.211 C 
ENDBRANCH  11  18
BRANCH  15  20
HETATM   20  S1  UNL     1       0.319  -0.335  -2.233  1.00  0.00    -0.062 SA
BRANCH  20  21
HETATM   21  C5  UNL     1       2.028  -0.091  -1.805  1.00  0.00     0.178 A 
HETATM   22  N2  UNL     1       3.066  -0.777  -2.307  1.00  0.00    -0.167 N 
HETATM   23  C4  UNL     1       4.220  -0.348  -1.777  1.00  0.00     0.703 A 
ATOM     24  H2  UNL     1       2.988  -1.523  -2.998  1.00  0.00     0.186 HD
HETATM   25  N9  UNL     1       3.869   0.637  -0.921  1.00  0.00    -0.130 N 
HETATM   26  N8  UNL     1       2.552   0.792  -0.937  1.00  0.00    -0.265 N 
ATOM     27  H9  UNL     1       4.518   1.179  -0.350  1.00  0.00     0.205 HD
ATOM     28  H8  UNL     1       2.025   1.468  -0.384  1.00  0.00     0.189 HD
BRANCH  23  29
HETATM   29  N1  UNL     1       5.411  -0.797  -2.044  1.00  0.00    -0.134 N 
HETATM   30  C3  UNL     1       6.547  -0.245  -1.405  1.00  0.00     0.379 C 
HETATM   31  O2  UNL     1       7.525   0.180  -2.075  1.00  0.00    -0.238 OA
ATOM     32  H1  UNL     1       5.527  -1.553  -2.719  1.00  0.00     0.189 HD
BRANCH  30  33
HETATM   33  O1  UNL     1       6.662  -0.136  -0.020  1.00  0.00    -0.304 OA
BRANCH  33  34
HETATM   34  C2  UNL     1       7.824   0.426   0.594  1.00  0.00     0.176 C 
HETATM   35  C1  UNL     1       7.579   0.373   2.091  1.00  0.00     0.034 C 
ENDBRANCH  33  34
ENDBRANCH  30  33
ENDBRANCH  23  29
ENDBRANCH  20  21
ENDBRANCH  15  20
ENDBRANCH   6   7
ENDBRANCH   1   6
TORSDOF 8
