REMARK  9 active torsions:
REMARK  status: ('A' for Active; 'I' for Inactive)
REMARK    1  A    between atoms: N1_1  and  C1_4 
REMARK    2  A    between atoms: C3_8  and  N3_9 
REMARK    3  A    between atoms: N3_9  and  C4_11 
REMARK    4  A    between atoms: C4_11  and  C5_12 
REMARK    5  A    between atoms: C5_12  and  C6_13 
REMARK    6  A    between atoms: C6_13  and  N4_14 
REMARK    7  A    between atoms: C11_22  and  N6_23 
REMARK    8  A    between atoms: N8_32  and  C18_33 
REMARK    9  A    between atoms: C18_33  and  O2_34 
ROOT
HETATM    1  C1  UNL     1      -0.267   3.662   0.202  1.00  0.00     0.682 A 
HETATM    2  N2  UNL     1       0.358   2.581  -0.232  1.00  0.00    -0.184 N 
ATOM      3  H2  UNL     1       1.327   2.547  -0.550  1.00  0.00     0.184 HD
HETATM    4  C2  UNL     1      -0.482   1.536  -0.189  1.00  0.00     0.138 A 
HETATM    5  C3  UNL     1      -0.337   0.193  -0.524  1.00  0.00     0.148 A 
HETATM    6  N5  UNL     1      -1.422  -0.576  -0.342  1.00  0.00    -0.174 N 
ATOM      7  H5  UNL     1      -1.356  -1.567  -0.576  1.00  0.00     0.186 HD
HETATM    8  C11 UNL     1      -2.586  -0.113   0.130  1.00  0.00     0.683 A 
HETATM    9  N7  UNL     1      -2.678   1.194   0.440  1.00  0.00    -0.173 N 
ATOM     10  H7  UNL     1      -3.563   1.550   0.800  1.00  0.00     0.186 HD
HETATM   11  C17 UNL     1      -1.671   2.031   0.297  1.00  0.00     0.172 A 
HETATM   12  N8  UNL     1      -1.524   3.367   0.540  1.00  0.00    -0.144 N 
ENDROOT
BRANCH   5  13
HETATM   13  N3  UNL     1       0.771  -0.178  -0.960  1.00  0.00    -0.374 N 
ATOM     14  H3  UNL     1       1.453   0.579  -1.018  1.00  0.00     0.161 HD
BRANCH  13  15
HETATM   15  C4  UNL     1       1.284  -1.421  -1.391  1.00  0.00     0.123 C 
BRANCH  15  16
HETATM   16  C5  UNL     1       2.470  -1.708  -0.434  1.00  0.00     0.050 C 
BRANCH  16  17
HETATM   17  C6  UNL     1       3.428  -0.563  -0.597  1.00  0.00     0.274 C 
BRANCH  17  18
HETATM   18  N4  UNL     1       4.600  -0.613   0.208  1.00  0.00     0.092 N 
HETATM   19  C7  UNL     1       5.364   0.596  -0.036  1.00  0.00     0.298 C 
HETATM   20  C8  UNL     1       6.695   0.489   0.631  1.00  0.00     0.198 C 
HETATM   21  O1  UNL     1       7.431  -0.489   0.020  1.00  0.00    -0.388 OA
HETATM   22  C9  UNL     1       6.765  -1.578  -0.445  1.00  0.00     0.198 C 
HETATM   23  C10 UNL     1       5.390  -1.799   0.110  1.00  0.00     0.298 C 
ENDBRANCH  17  18
ENDBRANCH  16  17
ENDBRANCH  15  16
ENDBRANCH  13  15
ENDBRANCH   5  13
BRANCH   8  24
HETATM   24  N6  UNL     1      -3.712  -0.929   0.325  1.00  0.00    -0.217 N 
HETATM   25  C12 UNL     1      -3.716  -2.337   0.092  1.00  0.00     0.141 C 
HETATM   26  C13 UNL     1      -4.636  -2.578  -1.118  1.00  0.00     0.020 C 
HETATM   27  C14 UNL     1      -5.941  -1.893  -0.931  1.00  0.00     0.003 C 
HETATM   28  C15 UNL     1      -6.142  -1.221   0.393  1.00  0.00     0.020 C 
HETATM   29  C16 UNL     1      -4.972  -0.345   0.782  1.00  0.00     0.141 C 
ENDBRANCH   8  24
BRANCH   1  30
HETATM   30  N1  UNL     1       0.285   4.849   0.283  1.00  0.00    -0.234 N 
ATOM     31  H12 UNL     1       1.246   5.074   0.025  1.00  0.00     0.174 HD
ATOM     32  H11 UNL     1      -0.197   5.683   0.618  1.00  0.00     0.174 HD
ENDBRANCH   1  30
BRANCH  12  33
HETATM   33  C18 UNL     1      -2.558   4.237   1.059  1.00  0.00     0.316 C 
BRANCH  33  34
HETATM   34  O2  UNL     1      -3.247   4.750  -0.021  1.00  0.00    -0.381 OA
ATOM     35  H2  UNL     1      -3.926   5.321   0.320  1.00  0.00     0.211 HD
ENDBRANCH  33  34
ENDBRANCH  12  33
TORSDOF 9
