REMARK  6 active torsions:
REMARK  status: ('A' for Active; 'I' for Inactive)
REMARK    1  A    between atoms: C2_2  and  S1_4 
REMARK    2  A    between atoms: S1_4  and  C3_5 
REMARK    3  A    between atoms: C3_5  and  C4_6 
REMARK    4  A    between atoms: C5_7  and  C6_8 
REMARK    5  A    between atoms: C6_8  and  N1_9 
REMARK    6  A    between atoms: C9_13  and  C10_14 
ROOT
HETATM    1  N1  UNL     1      -1.260   1.185   0.381  1.00  0.00    -0.245 N 
HETATM    2  O2  UNL     1      -1.878   1.496  -0.714  1.00  0.00    -0.238 OA
HETATM    3  C7  UNL     1      -3.000   0.859  -0.805  1.00  0.00     0.090 A 
HETATM    4  C8  UNL     1      -4.029   0.920  -1.906  1.00  0.00     0.080 C 
HETATM    5  C9  UNL     1      -3.133   0.072   0.307  1.00  0.00     0.084 A 
HETATM    6  C11 UNL     1      -2.001   0.294   1.061  1.00  0.00     0.050 A 
HETATM    7  C12 UNL     1      -1.665  -0.328   2.369  1.00  0.00     0.071 C 
ENDROOT
BRANCH   1   8
HETATM    8  C6  UNL     1       0.042   1.697   0.844  1.00  0.00     0.250 C 
BRANCH   8   9
HETATM    9  C5  UNL     1       1.136   0.871   0.369  1.00  0.00    -0.084 C 
HETATM   10  C4  UNL     1       2.029   0.181  -0.040  1.00  0.00    -0.094 C 
BRANCH  10  11
HETATM   11  C3  UNL     1       3.101  -0.655  -0.558  1.00  0.00     0.176 C 
BRANCH  11  12
HETATM   12  S1  UNL     1       4.672   0.086  -0.101  1.00  0.00    -0.081 SA
BRANCH  12  13
HETATM   13  C2  UNL     1       6.012  -0.922  -0.727  1.00  0.00     0.182 C 
HETATM   14  C1  UNL     1       7.441  -0.578  -0.515  1.00  0.00     0.104 C 
HETATM   15  O1  UNL     1       5.776  -1.946  -1.361  1.00  0.00    -0.286 OA
ENDBRANCH  12  13
ENDBRANCH  11  12
ENDBRANCH  10  11
ENDBRANCH   8   9
ENDBRANCH   1   8
BRANCH   5  16
HETATM   16  C10 UNL     1      -4.239  -0.833   0.652  1.00  0.00     0.269 C 
HETATM   17  N2  UNL     1      -5.330  -0.954  -0.220  1.00  0.00    -0.057 NA
HETATM   18  O3  UNL     1      -4.180  -1.477   1.725  1.00  0.00    -0.271 OA
ENDBRANCH   5  16
TORSDOF 6
