REMARK  13 active torsions:
REMARK  status: ('A' for Active; 'I' for Inactive)
REMARK    1  A    between atoms: C2_2  and  N1_3 
REMARK    2  A    between atoms: N1_3  and  C3_5 
REMARK    3  A    between atoms: C3_5  and  N2_7 
REMARK    4  A    between atoms: N2_7  and  C4_8 
REMARK    5  A    between atoms: N2_7  and  C15_27 
REMARK    6  A    between atoms: C4_8  and  C5_9 
REMARK    7  A    between atoms: C5_9  and  N3_10 
REMARK    8  A    between atoms: N3_10  and  C6_12 
REMARK    9  A    between atoms: C9_19  and  O1_20 
REMARK   10  A    between atoms: C11_22  and  O2_23 
REMARK   11  A    between atoms: C15_27  and  C16_28 
REMARK   12  A    between atoms: C16_28  and  S2_29 
REMARK   13  A    between atoms: S2_29  and  N6_30 
ROOT
HETATM    1  C5  UNL     1      -0.776  -0.952   0.259  1.00  0.00     0.141 C 
ENDROOT
BRANCH   1   2
HETATM    2  C4  UNL     1      -1.474  -0.745  -1.029  1.00  0.00     0.145 C 
BRANCH   2   3
HETATM    3  N2  UNL     1      -2.913  -0.727  -1.040  1.00  0.00    -0.356 N 
BRANCH   3   4
HETATM    4  C3  UNL     1      -3.538   0.521  -1.286  1.00  0.00     0.169 C 
HETATM    5  S1  UNL     1      -5.164   0.548  -1.314  1.00  0.00    -0.041 SA
BRANCH   4   6
HETATM    6  N1  UNL     1      -2.832   1.707  -1.508  1.00  0.00    -0.367 N 
ATOM      7  H1  UNL     1      -1.812   1.681  -1.498  1.00  0.00     0.161 HD
BRANCH   6   8
HETATM    8  C2  UNL     1      -3.504   2.987  -1.755  1.00  0.00     0.117 C 
HETATM    9  C1  UNL     1      -4.205   3.511  -0.547  1.00  0.00     0.026 C 
ENDBRANCH   6   8
ENDBRANCH   4   6
ENDBRANCH   3   4
BRANCH   3  10
HETATM   10  C15 UNL     1      -3.772  -1.867  -0.801  1.00  0.00     0.142 C 
BRANCH  10  11
HETATM   11  C16 UNL     1      -3.837  -2.280   0.620  1.00  0.00     0.182 C 
BRANCH  11  12
HETATM   12  S2  UNL     1      -4.924  -3.703   0.832  1.00  0.00     0.226 S 
HETATM   13  O3  UNL     1      -4.418  -4.877   0.064  1.00  0.00    -0.206 OA
HETATM   14  O4  UNL     1      -6.308  -3.310   0.410  1.00  0.00    -0.206 OA
BRANCH  12  15
HETATM   15  N6  UNL     1      -4.949  -4.127   2.521  1.00  0.00    -0.328 N 
ATOM     16  H62 UNL     1      -4.431  -3.643   3.254  1.00  0.00     0.168 HD
ATOM     17  H61 UNL     1      -5.564  -4.932   2.641  1.00  0.00     0.168 HD
ENDBRANCH  12  15
ENDBRANCH  11  12
ENDBRANCH  10  11
ENDBRANCH   3  10
ENDBRANCH   2   3
ENDBRANCH   1   2
BRANCH   1  18
HETATM   18  N3  UNL     1       0.670  -0.826   0.008  1.00  0.00    -0.373 N 
ATOM     19  H3  UNL     1       1.127  -1.477  -0.631  1.00  0.00     0.161 HD
BRANCH  18  20
HETATM   20  C6  UNL     1       1.368   0.095   0.584  1.00  0.00     0.128 A 
HETATM   21  N4  UNL     1       0.922   1.019   1.441  1.00  0.00    -0.285 N 
HETATM   22  N5  UNL     1       1.957   1.755   1.792  1.00  0.00    -0.298 N 
ATOM     23  H4  UNL     1      -0.039   1.133   1.763  1.00  0.00     0.188 HD
HETATM   24  C7  UNL     1       3.075   1.341   1.188  1.00  0.00     0.065 A 
ATOM     25  H5  UNL     1       1.911   2.540   2.441  1.00  0.00     0.187 HD
HETATM   26  C8  UNL     1       4.399   1.750   1.211  1.00  0.00     0.071 A 
HETATM   27  C14 UNL     1       2.720   0.267   0.401  1.00  0.00     0.040 A 
HETATM   28  C9  UNL     1       5.363   1.098   0.459  1.00  0.00     0.103 A 
HETATM   29  C11 UNL     1       5.030   0.010  -0.344  1.00  0.00     0.102 A 
HETATM   30  C13 UNL     1       3.713  -0.377  -0.352  1.00  0.00     0.057 A 
BRANCH  28  31
HETATM   31  O1  UNL     1       6.674   1.498   0.478  1.00  0.00    -0.353 OA
HETATM   32  C10 UNL     1       7.169   2.567   1.235  1.00  0.00     0.210 C 
ENDBRANCH  28  31
BRANCH  29  33
HETATM   33  O2  UNL     1       6.009  -0.631  -1.091  1.00  0.00    -0.353 OA
HETATM   34  C12 UNL     1       5.770  -1.737  -1.932  1.00  0.00     0.210 C 
ENDBRANCH  29  33
ENDBRANCH  18  20
ENDBRANCH   1  18
TORSDOF 13
