REMARK  12 active torsions:
REMARK  status: ('A' for Active; 'I' for Inactive)
REMARK    1  A    between atoms: C2_4  and  N2_5 
REMARK    2  A    between atoms: C2_4  and  C14_26 
REMARK    3  A    between atoms: N2_5  and  C3_7 
REMARK    4  A    between atoms: C3_7  and  C4_8 
REMARK    5  A    between atoms: C4_8  and  C5_9 
REMARK    6  A    between atoms: C5_9  and  N3_10 
REMARK       I    between atoms: C6_12  and  N5_14 
REMARK    7  A    between atoms: N5_14  and  C7_16 
REMARK    8  A    between atoms: C7_16  and  C8_17 
REMARK    9  A    between atoms: N6_20  and  O1_21 
REMARK   10  A    between atoms: C16_28  and  O2_29 
REMARK   11  A    between atoms: C18_31  and  O3_32 
REMARK   12  A    between atoms: C19_34  and  O4_35 
ROOT
HETATM    1  C3  UNL     1      -0.778   0.320  -0.851  1.00  0.00     0.123 C 
ENDROOT
BRANCH   1   2
HETATM    2  N2  UNL     1      -2.112   0.679  -0.543  1.00  0.00    -0.376 N 
ATOM      3  H2  UNL     1      -2.527   1.491  -1.000  1.00  0.00     0.161 HD
BRANCH   2   4
HETATM    4  C2  UNL     1      -2.891  -0.066   0.391  1.00  0.00     0.107 C 
HETATM    5  N1  UNL     1      -2.309  -0.778   1.265  1.00  0.00    -0.380 N 
HETATM    6  C1  UNL     1      -2.897  -1.592   2.284  1.00  0.00     0.147 C 
ATOM      7  H1  UNL     1      -1.289  -0.769   1.238  1.00  0.00     0.160 HD
BRANCH   4   8
HETATM    8  C14 UNL     1      -4.366  -0.020   0.317  1.00  0.00     0.013 A 
HETATM    9  C15 UNL     1      -5.033   1.189   0.242  1.00  0.00     0.055 A 
HETATM   10  C16 UNL     1      -6.419   1.266   0.147  1.00  0.00     0.105 A 
HETATM   11  C18 UNL     1      -7.172   0.105   0.126  1.00  0.00     0.133 A 
HETATM   12  C19 UNL     1      -6.522  -1.107   0.200  1.00  0.00     0.105 A 
HETATM   13  C21 UNL     1      -5.126  -1.166   0.295  1.00  0.00     0.055 A 
BRANCH  10  14
HETATM   14  O2  UNL     1      -7.081   2.485   0.072  1.00  0.00    -0.353 OA
HETATM   15  C17 UNL     1      -6.327   3.686   0.092  1.00  0.00     0.210 C 
ENDBRANCH  10  14
BRANCH  11  16
HETATM   16  O3  UNL     1      -8.553   0.212   0.031  1.00  0.00    -0.356 OA
ATOM     17  H3  UNL     1      -9.070  -0.585   0.017  1.00  0.00     0.218 HD
ENDBRANCH  11  16
BRANCH  12  18
HETATM   18  O4  UNL     1      -7.276  -2.265   0.179  1.00  0.00    -0.353 OA
HETATM   19  C20 UNL     1      -6.639  -3.525   0.251  1.00  0.00     0.210 C 
ENDBRANCH  12  18
ENDBRANCH   4   8
ENDBRANCH   2   4
ENDBRANCH   1   2
BRANCH   1  20
HETATM   20  C4  UNL     1       0.241   0.529   0.231  1.00  0.00     0.039 C 
BRANCH  20  21
HETATM   21  C5  UNL     1       1.585   0.069  -0.367  1.00  0.00     0.123 C 
BRANCH  21  22
HETATM   22  N3  UNL     1       1.894   0.853  -1.527  1.00  0.00    -0.365 N 
HETATM   23  C6  UNL     1       3.072   1.025  -2.008  1.00  0.00     0.184 C 
HETATM   24  N4  UNL     1       3.211   1.840  -3.178  1.00  0.00    -0.064 NA
HETATM   25  N5  UNL     1       4.217   0.428  -1.404  1.00  0.00    -0.360 N 
ATOM     26  H5  UNL     1       4.481  -0.520  -1.670  1.00  0.00     0.162 HD
ATOM     27  H3  UNL     1       1.118   1.309  -2.007  1.00  0.00     0.162 HD
BRANCH  25  28
HETATM   28  C7  UNL     1       5.012   1.131  -0.425  1.00  0.00     0.161 C 
BRANCH  28  29
HETATM   29  C8  UNL     1       6.131   0.277   0.015  1.00  0.00    -0.037 A 
HETATM   30  C9  UNL     1       6.770  -0.570  -0.865  1.00  0.00     0.028 A 
HETATM   31  C10 UNL     1       7.817  -1.361  -0.409  1.00  0.00     0.123 A 
HETATM   32  N6  UNL     1       8.243  -1.340   0.865  1.00  0.00    -0.241 N 
HETATM   33  C11 UNL     1       7.638  -0.523   1.741  1.00  0.00     0.036 A 
HETATM   34  C12 UNL     1       8.086  -0.471   3.179  1.00  0.00     0.071 C 
HETATM   35  C13 UNL     1       6.600   0.270   1.318  1.00  0.00     0.036 A 
BRANCH  32  36
HETATM   36  O1  UNL     1       9.294  -2.137   1.307  1.00  0.00    -0.283 OA
ATOM     37  H1  UNL     1       9.595  -2.122   2.208  1.00  0.00     0.245 HD
ENDBRANCH  32  36
ENDBRANCH  28  29
ENDBRANCH  25  28
ENDBRANCH  21  22
ENDBRANCH  20  21
ENDBRANCH   1  20
TORSDOF 12
