REMARK  11 active torsions:
REMARK  status: ('A' for Active; 'I' for Inactive)
REMARK    1  A    between atoms: N2_6  and  C4_8 
REMARK    2  A    between atoms: C4_8  and  C5_9 
REMARK    3  A    between atoms: C5_9  and  N3_10 
REMARK    4  A    between atoms: C8_16  and  N4_17 
REMARK    5  A    between atoms: N4_17  and  C9_18 
REMARK    6  A    between atoms: N4_17  and  C12_21 
REMARK    7  A    between atoms: C9_18  and  C10_19 
REMARK    8  A    between atoms: C12_21  and  C13_22 
REMARK    9  A    between atoms: C13_22  and  C14_23 
REMARK   10  A    between atoms: C16_25  and  C17_26 
REMARK   11  A    between atoms: C17_26  and  C18_27 
ROOT
HETATM    1  C1  UNL     1       2.665   0.748  -1.641  1.00  0.00     0.044 C 
HETATM    2  C2  UNL     1       2.102   0.121  -0.645  1.00  0.00     0.044 C 
HETATM    3  N1  UNL     1       2.918  -0.792   0.118  1.00  0.00    -0.342 N 
ATOM      4  H1  UNL     1       3.865  -0.502   0.363  1.00  0.00     0.167 HD
HETATM    5  C3  UNL     1       2.475  -2.078   0.549  1.00  0.00     0.101 C 
HETATM    6  N2  UNL     1       3.287  -2.761   1.248  1.00  0.00    -0.375 N 
ATOM      7  H2  UNL     1       2.973  -3.680   1.560  1.00  0.00     0.161 HD
HETATM    8  C6  UNL     1       1.150  -2.642   0.208  1.00  0.00     0.050 C 
HETATM    9  C7  UNL     1       0.037  -2.059  -0.148  1.00  0.00     0.034 C 
HETATM   10  C8  UNL     1      -0.216  -0.589  -0.307  1.00  0.00     0.051 C 
HETATM   11  C16 UNL     1       0.599   0.401  -0.508  1.00  0.00     0.063 C 
ENDROOT
BRANCH  11  12
HETATM   12  C17 UNL     1       0.231   1.707  -0.705  1.00  0.00    -0.089 C 
BRANCH  12  13
HETATM   13  C18 UNL     1      -0.100   2.933  -0.888  1.00  0.00     0.146 A 
HETATM   14  C19 UNL     1      -1.466   3.371  -1.058  1.00  0.00     0.271 A 
HETATM   15  O1  UNL     1      -2.507   2.693  -1.055  1.00  0.00    -0.266 OA
HETATM   16  N5  UNL     1      -1.813   4.772  -1.275  1.00  0.00    -0.299 N 
HETATM   17  C20 UNL     1      -0.772   5.726  -1.318  1.00  0.00     0.181 A 
ATOM     18  H5  UNL     1      -2.786   5.056  -1.393  1.00  0.00     0.171 HD
HETATM   19  S1  UNL     1      -1.229   7.277  -1.553  1.00  0.00    -0.040 SA
HETATM   20  N6  UNL     1       0.584   5.393  -1.167  1.00  0.00    -0.299 N 
HETATM   21  C21 UNL     1       0.909   4.036  -0.956  1.00  0.00     0.271 A 
ATOM     22  H6  UNL     1       1.310   6.108  -1.208  1.00  0.00     0.171 HD
HETATM   23  O2  UNL     1       2.162   3.816  -0.817  1.00  0.00    -0.266 OA
ENDBRANCH  12  13
ENDBRANCH  11  12
BRANCH  10  24
HETATM   24  N4  UNL     1      -1.623  -0.380  -0.281  1.00  0.00    -0.380 N 
BRANCH  24  25
HETATM   25  C9  UNL     1      -2.277  -0.678  -1.543  1.00  0.00     0.122 C 
BRANCH  25  26
HETATM   26  C10 UNL     1      -3.109  -1.881  -1.662  1.00  0.00     0.015 C 
HETATM   27  C11 UNL     1      -3.529  -1.931  -3.160  1.00  0.00     0.006 C 
ENDBRANCH  25  26
ENDBRANCH  24  25
BRANCH  24  28
HETATM   28  C12 UNL     1      -2.370  -0.059   0.893  1.00  0.00     0.123 C 
BRANCH  28  29
HETATM   29  C13 UNL     1      -3.019  -1.231   1.599  1.00  0.00     0.019 C 
BRANCH  29  30
HETATM   30  C14 UNL     1      -3.841  -0.679   2.755  1.00  0.00    -0.003 C 
HETATM   31  C15 UNL     1      -3.007   0.138   3.704  1.00  0.00     0.005 C 
ENDBRANCH  29  30
ENDBRANCH  28  29
ENDBRANCH  24  28
ENDBRANCH  10  24
BRANCH   6  32
HETATM   32  C4  UNL     1       4.597  -2.356   1.635  1.00  0.00     0.148 C 
BRANCH  32  33
HETATM   33  C5  UNL     1       5.663  -2.547   0.600  1.00  0.00     0.249 C 
BRANCH  33  34
HETATM   34  N3  UNL     1       6.960  -2.069   1.114  1.00  0.00    -0.078 N 
ATOM     35  H33 UNL     1       6.910  -1.103   1.437  1.00  0.00     0.274 HD
ATOM     36  H32 UNL     1       7.205  -2.510   2.000  1.00  0.00     0.274 HD
ATOM     37  H31 UNL     1       7.686  -2.199   0.409  1.00  0.00     0.274 HD
ENDBRANCH  33  34
ENDBRANCH  32  33
ENDBRANCH   6  32
TORSDOF 11
