REMARK  12 active torsions:
REMARK  status: ('A' for Active; 'I' for Inactive)
REMARK    1  A    between atoms: O1_2  and  C2_3 
REMARK    2  A    between atoms: C2_3  and  C3_4 
REMARK    3  A    between atoms: C3_4  and  C4_5 
REMARK    4  A    between atoms: C4_5  and  C5_6 
REMARK       I    between atoms: C5_6  and  N1_8 
REMARK    5  A    between atoms: N1_8  and  C6_10 
REMARK    6  A    between atoms: C6_10  and  C7_11 
REMARK    7  A    between atoms: C7_11  and  C8_12 
REMARK    8  A    between atoms: C10_15  and  C11_16 
REMARK    9  A    between atoms: C11_16  and  C12_17 
REMARK   10  A    between atoms: C12_17  and  C13_18 
REMARK   11  A    between atoms: C13_18  and  N2_19 
REMARK   12  A    between atoms: N2_19  and  O4_21 
ROOT
HETATM    1  C8  UNL     1       1.323   0.619  -0.704  1.00  0.00     0.102 C 
HETATM    2  C9  UNL     1       0.798   1.469  -1.840  1.00  0.00     0.193 C 
HETATM    3  O3  UNL     1      -0.301   0.856  -2.356  1.00  0.00    -0.381 OA
HETATM    4  C10 UNL     1      -1.392   0.735  -1.436  1.00  0.00     0.149 C 
HETATM    5  C15 UNL     1      -1.005  -0.136  -0.345  1.00  0.00     0.056 C 
HETATM    6  C16 UNL     1      -1.529   0.118   1.039  1.00  0.00     0.034 C 
HETATM    7  C17 UNL     1      -2.814  -0.635   1.237  1.00  0.00     0.013 C 
HETATM    8  C18 UNL     1      -3.048  -1.283  -0.103  1.00  0.00     0.043 C 
HETATM    9  C19 UNL     1      -3.680  -2.625  -0.002  1.00  0.00     0.030 A 
HETATM   10  N3  UNL     1      -4.461  -2.985   1.050  1.00  0.00    -0.311 N 
ATOM     11  H3  UNL     1      -4.629  -2.317   1.802  1.00  0.00     0.170 HD
HETATM   12  C20 UNL     1      -5.018  -4.213   1.116  1.00  0.00     0.327 A 
HETATM   13  O5  UNL     1      -5.746  -4.589   2.070  1.00  0.00    -0.247 OA
HETATM   14  N4  UNL     1      -4.788  -5.090   0.113  1.00  0.00    -0.275 N 
ATOM     15  H4  UNL     1      -5.204  -6.020   0.155  1.00  0.00     0.173 HD
HETATM   16  C21 UNL     1      -4.008  -4.751  -0.956  1.00  0.00     0.257 A 
HETATM   17  O6  UNL     1      -3.822  -5.604  -1.869  1.00  0.00    -0.267 OA
HETATM   18  C22 UNL     1      -3.432  -3.498  -1.035  1.00  0.00     0.033 A 
HETATM   19  C23 UNL     1      -2.584  -3.090  -2.179  1.00  0.00     0.047 C 
HETATM   20  C24 UNL     1      -1.422  -2.204  -1.793  1.00  0.00     0.013 C 
HETATM   21  C25 UNL     1      -1.608  -1.553  -0.515  1.00  0.00     0.026 C 
HETATM   22  N5  UNL     1       0.425  -0.283  -0.172  1.00  0.00    -0.404 N 
ATOM     23  H5  UNL     1       0.779  -1.078   0.360  1.00  0.00     0.154 HD
ENDROOT
BRANCH   4  24
HETATM   24  C11 UNL     1      -1.925   2.093  -1.329  1.00  0.00     0.036 C 
BRANCH  24  25
HETATM   25  C12 UNL     1      -3.132   2.397  -0.510  1.00  0.00     0.019 C 
BRANCH  25  26
HETATM   26  C13 UNL     1      -3.431   3.923  -0.700  1.00  0.00     0.120 C 
BRANCH  26  27
HETATM   27  N2  UNL     1      -4.585   4.288   0.055  1.00  0.00    -0.204 NA
HETATM   28  C14 UNL     1      -4.437   4.250   1.472  1.00  0.00     0.143 C 
BRANCH  27  29
HETATM   29  O4  UNL     1      -5.677   3.643  -0.412  1.00  0.00    -0.314 OA
ATOM     30  H4  UNL     1      -6.446   3.886   0.091  1.00  0.00     0.237 HD
ENDBRANCH  27  29
ENDBRANCH  26  27
ENDBRANCH  25  26
ENDBRANCH  24  25
ENDBRANCH   4  24
BRANCH   1  31
HETATM   31  C7  UNL     1       1.836   1.603   0.356  1.00  0.00     0.046 C 
BRANCH  31  32
HETATM   32  C6  UNL     1       2.387   0.850   1.547  1.00  0.00     0.124 C 
BRANCH  32  33
HETATM   33  N1  UNL     1       3.454  -0.031   1.196  1.00  0.00    -0.361 N 
HETATM   34  C5  UNL     1       4.686   0.335   0.614  1.00  0.00     0.217 C 
HETATM   35  O2  UNL     1       4.933   1.531   0.359  1.00  0.00    -0.274 OA
ATOM     36  H1  UNL     1       3.312  -1.023   1.385  1.00  0.00     0.162 HD
BRANCH  34  37
HETATM   37  C4  UNL     1       5.679  -0.705   0.308  1.00  0.00     0.105 C 
BRANCH  37  38
HETATM   38  C3  UNL     1       7.003  -0.225  -0.188  1.00  0.00     0.035 C 
BRANCH  38  39
HETATM   39  C2  UNL     1       7.770   0.632   0.772  1.00  0.00     0.167 C 
BRANCH  39  40
HETATM   40  O1  UNL     1       8.039   0.039   1.973  1.00  0.00    -0.396 OA
HETATM   41  C1  UNL     1       8.777  -1.110   1.858  1.00  0.00     0.201 C 
ENDBRANCH  39  40
ENDBRANCH  38  39
ENDBRANCH  37  38
ENDBRANCH  34  37
ENDBRANCH  32  33
ENDBRANCH  31  32
ENDBRANCH   1  31
TORSDOF 12
