REMARK  16 active torsions:
REMARK  status: ('A' for Active; 'I' for Inactive)
REMARK    1  A    between atoms: C2_2  and  C3_3 
REMARK    2  A    between atoms: C6_6  and  C7_7 
REMARK    3  A    between atoms: C7_7  and  C8_8 
REMARK    4  A    between atoms: C8_8  and  N1_9 
REMARK    5  A    between atoms: C8_8  and  C14_27 
REMARK       I    between atoms: N1_9  and  C9_11 
REMARK    6  A    between atoms: C9_11  and  C10_13 
REMARK    7  A    between atoms: C10_13  and  N2_14 
REMARK    8  A    between atoms: C10_13  and  C11_18 
REMARK    9  A    between atoms: C11_18  and  C12_19 
REMARK       I    between atoms: C14_27  and  N6_29 
REMARK   10  A    between atoms: N6_29  and  C16_31 
REMARK   11  A    between atoms: C16_31  and  C17_32 
REMARK   12  A    between atoms: C23_38  and  C24_39 
REMARK   13  A    between atoms: C24_39  and  C25_40 
REMARK   14  A    between atoms: C25_40  and  C26_41 
REMARK   15  A    between atoms: C26_41  and  O3_42 
REMARK   16  A    between atoms: C26_41  and  O4_44 
ROOT
HETATM    1  C8  UNL     1       1.791  -0.216  -0.329  1.00  0.00     0.201 C 
ENDROOT
BRANCH   1   2
HETATM    2  C7  UNL     1       0.916  -0.240  -1.493  1.00  0.00     0.021 C 
BRANCH   2   3
HETATM    3  C6  UNL     1      -0.516  -0.420  -1.454  1.00  0.00    -0.011 A 
HETATM    4  C5  UNL     1      -0.964  -1.655  -1.854  1.00  0.00     0.015 A 
HETATM    5  C4  UNL     1      -2.356  -2.024  -1.895  1.00  0.00     0.026 A 
HETATM    6  C3  UNL     1      -3.333  -1.208  -1.559  1.00  0.00     0.009 A 
HETATM    7  N7  UNL     1      -2.965   0.094  -1.147  1.00  0.00    -0.359 N 
HETATM    8  C23 UNL     1      -1.574   0.481  -1.100  1.00  0.00     0.038 A 
ATOM      9  H7  UNL     1      -3.687   0.764  -0.881  1.00  0.00     0.166 HD
BRANCH   6  10
HETATM   10  C2  UNL     1      -4.773  -1.639  -1.616  1.00  0.00     0.052 C 
HETATM   11  C1  UNL     1      -5.541  -0.756  -2.588  1.00  0.00     0.011 C 
ENDBRANCH   6  10
BRANCH   8  12
HETATM   12  C24 UNL     1      -1.306   1.759  -0.864  1.00  0.00     0.008 C 
BRANCH  12  13
HETATM   13  C25 UNL     1      -2.310   2.761  -0.498  1.00  0.00     0.089 C 
BRANCH  13  14
HETATM   14  C26 UNL     1      -2.123   3.479   0.792  1.00  0.00     0.257 C 
BRANCH  14  15
HETATM   15  O3  UNL     1      -0.949   4.215   0.856  1.00  0.00    -0.371 OA
ATOM     16  H3  UNL     1      -0.830   4.673   1.680  1.00  0.00     0.212 HD
ENDBRANCH  14  15
BRANCH  14  17
HETATM   17  O4  UNL     1      -2.339   2.674   1.910  1.00  0.00    -0.371 OA
ATOM     18  H4  UNL     1      -2.220   3.132   2.734  1.00  0.00     0.212 HD
ENDBRANCH  14  17
ENDBRANCH  13  14
ENDBRANCH  12  13
ENDBRANCH   8  12
ENDBRANCH   2   3
ENDBRANCH   1   2
BRANCH   1  19
HETATM   19  N1  UNL     1       1.607   0.785   0.670  1.00  0.00    -0.343 N 
HETATM   20  C9  UNL     1       2.746   1.623   0.936  1.00  0.00     0.249 C 
HETATM   21  O1  UNL     1       3.826   1.465   0.280  1.00  0.00    -0.271 OA
ATOM     22  H1  UNL     1       0.723   0.900   1.165  1.00  0.00     0.163 HD
BRANCH  20  23
HETATM   23  C10 UNL     1       2.706   2.669   1.956  1.00  0.00     0.281 C 
BRANCH  23  24
HETATM   24  N2  UNL     1       1.457   2.536   2.665  1.00  0.00    -0.066 N 
ATOM     25  H23 UNL     1       0.645   2.552   2.047  1.00  0.00     0.275 HD
ATOM     26  H22 UNL     1       1.315   1.601   3.048  1.00  0.00     0.275 HD
ATOM     27  H21 UNL     1       1.429   3.266   3.377  1.00  0.00     0.275 HD
ENDBRANCH  23  24
BRANCH  23  28
HETATM   28  C11 UNL     1       2.757   4.014   1.287  1.00  0.00     0.120 C 
BRANCH  28  29
HETATM   29  C12 UNL     1       2.741   5.170   2.207  1.00  0.00     0.099 A 
HETATM   30  N3  UNL     1       3.850   5.758   2.744  1.00  0.00    -0.340 N 
HETATM   31  C13 UNL     1       3.475   6.771   3.511  1.00  0.00     0.198 A 
ATOM     32  H3  UNL     1       4.813   5.464   2.581  1.00  0.00     0.168 HD
HETATM   33  N4  UNL     1       2.137   6.852   3.483  1.00  0.00    -0.295 N 
HETATM   34  N5  UNL     1       1.724   5.894   2.704  1.00  0.00    -0.288 N 
ATOM     35  H4  UNL     1       1.557   7.531   3.975  1.00  0.00     0.187 HD
ATOM     36  H5  UNL     1       0.742   5.714   2.495  1.00  0.00     0.188 HD
ENDBRANCH  28  29
ENDBRANCH  23  28
ENDBRANCH  20  23
ENDBRANCH   1  19
BRANCH   1  37
HETATM   37  C14 UNL     1       1.855  -1.576   0.349  1.00  0.00     0.246 C 
HETATM   38  O2  UNL     1       1.419  -1.619   1.520  1.00  0.00    -0.271 OA
HETATM   39  N6  UNL     1       2.355  -2.736  -0.235  1.00  0.00    -0.350 N 
HETATM   40  C15 UNL     1       2.962  -2.888  -1.536  1.00  0.00     0.153 C 
BRANCH  39  41
HETATM   41  C16 UNL     1       2.254  -4.011   0.508  1.00  0.00     0.164 C 
BRANCH  41  42
HETATM   42  C17 UNL     1       1.043  -4.764   0.077  1.00  0.00    -0.040 A 
HETATM   43  C18 UNL     1       1.171  -5.687  -0.969  1.00  0.00     0.009 A 
HETATM   44  C19 UNL     1       0.090  -6.409  -1.413  1.00  0.00     0.001 A 
HETATM   45  C20 UNL     1      -1.178  -6.259  -0.845  1.00  0.00     0.000 A 
HETATM   46  C21 UNL     1      -1.291  -5.350   0.182  1.00  0.00     0.001 A 
HETATM   47  C22 UNL     1      -0.194  -4.614   0.634  1.00  0.00     0.009 A 
ENDBRANCH  41  42
ENDBRANCH  39  41
ENDBRANCH   1  37
TORSDOF 16
