REMARK  12 active torsions:
REMARK  status: ('A' for Active; 'I' for Inactive)
REMARK    1  A    between atoms: C2_2  and  C3_3 
REMARK    2  A    between atoms: C3_3  and  C4_4 
REMARK    3  A    between atoms: C4_4  and  N8_35 
REMARK    4  A    between atoms: N1_5  and  C5_7 
REMARK    5  A    between atoms: C5_7  and  C6_8 
REMARK    6  A    between atoms: C6_8  and  C7_9 
REMARK    7  A    between atoms: C7_9  and  C8_10 
REMARK       I    between atoms: C8_10  and  N2_12 
REMARK    8  A    between atoms: C12_22  and  N5_23 
REMARK    9  A    between atoms: C13_25  and  C14_26 
REMARK   10  A    between atoms: N8_35  and  N9_37 
REMARK   11  A    between atoms: N9_37  and  S1_39 
REMARK   12  A    between atoms: S1_39  and  N10_40 
ROOT
HETATM    1  C8  UNL     1       0.937   0.479  -1.017  1.00  0.00     0.223 C 
HETATM    2  O1  UNL     1       1.199   1.663  -0.693  1.00  0.00    -0.273 OA
HETATM    3  N2  UNL     1       1.798  -0.499  -1.334  1.00  0.00    -0.311 N 
ATOM      4  H2  UNL     1       1.224  -1.258  -1.702  1.00  0.00     0.170 HD
HETATM    5  C9  UNL     1       2.952  -0.907  -1.388  1.00  0.00     0.141 A 
HETATM    6  N3  UNL     1       3.124  -2.183  -1.897  1.00  0.00    -0.292 N 
ATOM      7  H3  UNL     1       2.319  -2.727  -2.208  1.00  0.00     0.172 HD
HETATM    8  C10 UNL     1       4.342  -2.688  -1.975  1.00  0.00     0.326 A 
HETATM    9  O2  UNL     1       4.474  -3.866  -2.449  1.00  0.00    -0.247 OA
HETATM   10  N4  UNL     1       5.464  -2.023  -1.582  1.00  0.00    -0.303 N 
ATOM     11  H4  UNL     1       6.380  -2.463  -1.667  1.00  0.00     0.171 HD
HETATM   12  C11 UNL     1       5.350  -0.772  -1.078  1.00  0.00     0.111 A 
HETATM   13  C12 UNL     1       6.513  -0.068  -0.677  1.00  0.00     0.135 A 
HETATM   14  N6  UNL     1       6.347   1.179  -0.194  1.00  0.00    -0.337 N 
ATOM     15  H6  UNL     1       7.150   1.730   0.108  1.00  0.00     0.168 HD
HETATM   16  C17 UNL     1       5.097   1.685  -0.117  1.00  0.00     0.182 A 
HETATM   17  N7  UNL     1       4.004   1.011  -0.498  1.00  0.00    -0.347 N 
ATOM     18  H7  UNL     1       3.086   1.448  -0.416  1.00  0.00     0.167 HD
HETATM   19  C18 UNL     1       4.107  -0.224  -0.983  1.00  0.00     0.108 A 
ENDROOT
BRANCH   1  20
HETATM   20  C7  UNL     1      -0.546   0.164  -1.037  1.00  0.00     0.105 C 
BRANCH  20  21
HETATM   21  C6  UNL     1      -1.348   1.360  -0.599  1.00  0.00     0.029 C 
BRANCH  21  22
HETATM   22  C5  UNL     1      -2.826   1.117  -0.620  1.00  0.00     0.121 C 
BRANCH  22  23
HETATM   23  N1  UNL     1      -3.175   0.021   0.285  1.00  0.00    -0.379 N 
HETATM   24  C4  UNL     1      -4.443  -0.279   0.463  1.00  0.00     0.088 C 
ATOM     25  H1  UNL     1      -2.446  -0.502   0.770  1.00  0.00     0.160 HD
BRANCH  24  26
HETATM   26  C3  UNL     1      -4.762  -1.381   1.371  1.00  0.00     0.076 C 
BRANCH  26  27
HETATM   27  C2  UNL     1      -5.632  -0.913   2.544  1.00  0.00     0.003 C 
HETATM   28  C1  UNL     1      -5.887  -2.147   3.387  1.00  0.00     0.005 C 
ENDBRANCH  26  27
ENDBRANCH  24  26
BRANCH  24  29
HETATM   29  N8  UNL     1      -5.463   0.459  -0.228  1.00  0.00    -0.298 N 
ATOM     30  H8  UNL     1      -5.447   1.478  -0.192  1.00  0.00     0.183 HD
BRANCH  29  31
HETATM   31  N9  UNL     1      -6.475  -0.177  -0.947  1.00  0.00    -0.159 NA
HETATM   32  C19 UNL     1      -5.853  -0.678  -2.186  1.00  0.00     0.152 C 
BRANCH  31  33
HETATM   33  S1  UNL     1      -7.722   0.915  -1.430  1.00  0.00     0.029 SA
BRANCH  33  34
HETATM   34  N10 UNL     1      -8.014   2.267  -0.405  1.00  0.00    -0.252 NA
HETATM   35  C20 UNL     1      -8.919   2.017   0.689  1.00  0.00     0.125 C 
HETATM   36  C21 UNL     1      -8.411   3.455  -1.152  1.00  0.00     0.125 C 
ENDBRANCH  33  34
ENDBRANCH  31  33
ENDBRANCH  29  31
ENDBRANCH  24  29
ENDBRANCH  22  23
ENDBRANCH  21  22
ENDBRANCH  20  21
ENDBRANCH   1  20
BRANCH  13  37
HETATM   37  N5  UNL     1       7.586  -0.666  -0.797  1.00  0.00    -0.354 N 
HETATM   38  C13 UNL     1       8.931  -0.541  -0.605  1.00  0.00     0.066 C 
ATOM     39  H5  UNL     1       7.399  -1.593  -1.180  1.00  0.00     0.166 HD
BRANCH  38  40
HETATM   40  C14 UNL     1       9.430  -0.160   0.771  1.00  0.00     0.016 C 
HETATM   41  C15 UNL     1      10.958  -0.103   0.781  1.00  0.00     0.015 C 
HETATM   42  C16 UNL     1       8.967  -1.099   1.847  1.00  0.00     0.015 C 
ENDBRANCH  38  40
ENDBRANCH  13  37
TORSDOF 12
