REMARK  12 active torsions:
REMARK  status: ('A' for Active; 'I' for Inactive)
REMARK    1  A    between atoms: C2_2  and  C3_3 
REMARK    2  A    between atoms: C3_3  and  C4_4 
REMARK    3  A    between atoms: C3_3  and  N7_31 
REMARK       I    between atoms: C4_4  and  N1_6 
REMARK    4  A    between atoms: N1_6  and  C5_8 
REMARK    5  A    between atoms: C5_8  and  C7_10 
REMARK    6  A    between atoms: C7_10  and  C8_11 
REMARK    7  A    between atoms: C8_11  and  C9_12 
REMARK    8  A    between atoms: C9_12  and  C10_13 
REMARK    9  A    between atoms: C10_13  and  N2_14 
REMARK   10  A    between atoms: N3_18  and  C14_19 
REMARK       I    between atoms: N7_31  and  C19_33 
REMARK   11  A    between atoms: C19_33  and  C20_35 
REMARK   12  A    between atoms: C20_35  and  N8_36 
REMARK       I    between atoms: N8_36  and  C22_38 
ROOT
HETATM    1  C5  UNL     1      -0.919   2.034   0.853  1.00  0.00     0.080 C 
HETATM    2  C6  UNL     1      -1.207   1.815   2.364  1.00  0.00     0.032 C 
ENDROOT
BRANCH   1   3
HETATM    3  N1  UNL     1      -1.402   0.831   0.215  1.00  0.00    -0.352 N 
HETATM    4  C4  UNL     1      -2.669   0.748  -0.418  1.00  0.00     0.264 C 
HETATM    5  O1  UNL     1      -3.386   1.797  -0.393  1.00  0.00    -0.266 OA
ATOM      6  H1  UNL     1      -0.805   0.004   0.220  1.00  0.00     0.163 HD
BRANCH   4   7
HETATM    7  C3  UNL     1      -3.222  -0.425  -1.090  1.00  0.00     0.081 C 
BRANCH   7   8
HETATM    8  C2  UNL     1      -2.625  -1.738  -0.784  1.00  0.00     0.059 C 
HETATM    9  C1  UNL     1      -2.609  -2.249   0.594  1.00  0.00     0.011 C 
ENDBRANCH   7   8
BRANCH   7  10
HETATM   10  N7  UNL     1      -4.652  -0.382  -1.311  1.00  0.00    -0.320 N 
HETATM   11  C18 UNL     1      -5.227  -0.214  -2.669  1.00  0.00     0.159 C 
HETATM   12  C19 UNL     1      -5.625  -0.499  -0.288  1.00  0.00     0.241 C 
HETATM   13  O2  UNL     1      -5.252  -0.640   0.892  1.00  0.00    -0.271 OA
BRANCH  12  14
HETATM   14  C20 UNL     1      -7.089  -0.464  -0.532  1.00  0.00     0.228 C 
BRANCH  14  15
HETATM   15  N8  UNL     1      -7.838  -0.630   0.696  1.00  0.00    -0.351 N 
HETATM   16  C21 UNL     1      -7.874   0.339   1.768  1.00  0.00     0.152 C 
HETATM   17  C22 UNL     1      -8.587  -1.814   0.863  1.00  0.00     0.184 C 
HETATM   18  N9  UNL     1      -8.026  -2.970   0.776  1.00  0.00    -0.374 N 
HETATM   19  N10 UNL     1      -9.975  -1.762   1.131  1.00  0.00    -0.064 NA
ATOM     20  H92 UNL     1      -7.025  -3.007   0.583  1.00  0.00     0.158 HD
ATOM     21  H91 UNL     1      -8.567  -3.826   0.897  1.00  0.00     0.158 HD
ENDBRANCH  14  15
ENDBRANCH  12  14
ENDBRANCH   7  10
ENDBRANCH   4   7
ENDBRANCH   1   3
BRANCH   1  22
HETATM   22  C7  UNL     1       0.562   2.230   0.772  1.00  0.00     0.025 C 
BRANCH  22  23
HETATM   23  C8  UNL     1       1.021   2.299  -0.647  1.00  0.00     0.004 C 
BRANCH  23  24
HETATM   24  C9  UNL     1       2.511   2.512  -0.765  1.00  0.00     0.028 C 
BRANCH  24  25
HETATM   25  C10 UNL     1       3.226   1.375  -0.113  1.00  0.00     0.237 C 
BRANCH  25  26
HETATM   26  N2  UNL     1       4.677   1.484  -0.157  1.00  0.00    -0.068 N 
HETATM   27  C11 UNL     1       5.002   2.894   0.125  1.00  0.00     0.272 C 
HETATM   28  C12 UNL     1       5.193   0.747   0.975  1.00  0.00     0.257 C 
HETATM   29  C13 UNL     1       5.524  -0.679   0.584  1.00  0.00     0.153 C 
HETATM   30  N3  UNL     1       6.574  -0.638  -0.411  1.00  0.00    -0.357 N 
HETATM   31  C16 UNL     1       6.634   0.499  -1.291  1.00  0.00     0.153 C 
HETATM   32  C17 UNL     1       5.249   1.128  -1.417  1.00  0.00     0.257 C 
BRANCH  30  33
HETATM   33  C14 UNL     1       7.490  -1.719  -0.470  1.00  0.00     0.165 A 
HETATM   34  N4  UNL     1       7.433  -2.798  -1.235  1.00  0.00    -0.278 N 
HETATM   35  N5  UNL     1       8.331  -3.690  -1.170  1.00  0.00    -0.278 N 
ATOM     36  H4  UNL     1       6.656  -2.913  -1.886  1.00  0.00     0.189 HD
HETATM   37  C15 UNL     1       9.345  -3.531  -0.316  1.00  0.00     0.160 A 
ATOM     38  H5  UNL     1       8.280  -4.519  -1.762  1.00  0.00     0.189 HD
HETATM   39  N6  UNL     1      10.367  -4.318  -0.084  1.00  0.00    -0.379 N 
HETATM   40  S1  UNL     1       8.946  -2.021   0.401  1.00  0.00    -0.016 SA
ATOM     41  H62 UNL     1      10.604  -5.214  -0.510  1.00  0.00     0.158 HD
ATOM     42  H61 UNL     1      11.142  -4.197   0.568  1.00  0.00     0.158 HD
ENDBRANCH  30  33
ENDBRANCH  25  26
ENDBRANCH  24  25
ENDBRANCH  23  24
ENDBRANCH  22  23
ENDBRANCH   1  22
TORSDOF 12
