REMARK  5 active torsions:
REMARK  status: ('A' for Active; 'I' for Inactive)
REMARK    1  A    between atoms: C1_2  and  C2_4 
REMARK    2  A    between atoms: C2_4  and  N2_5 
REMARK    3  A    between atoms: N2_5  and  S1_7 
REMARK    4  A    between atoms: S1_7  and  C3_10 
REMARK    5  A    between atoms: C6_13  and  C7_14 
ROOT
HETATM    1  C3  UNL     1      -0.115  -1.207   0.179  1.00  0.00     0.081 A 
HETATM    2  C4  UNL     1      -0.008  -0.883  -1.161  1.00  0.00     0.026 A 
HETATM    3  C5  UNL     1       1.080  -0.158  -1.575  1.00  0.00     0.019 A 
HETATM    4  C6  UNL     1       2.063   0.258  -0.720  1.00  0.00     0.035 A 
HETATM    5  C8  UNL     1       1.957  -0.061   0.602  1.00  0.00     0.061 A 
HETATM    6  N7  UNL     1       2.930   0.332   1.547  1.00  0.00    -0.101 NA
HETATM    7  C9  UNL     1       0.873  -0.791   1.051  1.00  0.00     0.052 A 
ENDROOT
BRANCH   1   8
HETATM    8  S1  UNL     1      -1.493  -2.130   0.729  1.00  0.00     0.259 S 
HETATM    9  O2  UNL     1      -2.030  -2.917  -0.456  1.00  0.00    -0.201 OA
HETATM   10  O3  UNL     1      -1.112  -3.030   1.846  1.00  0.00    -0.201 OA
BRANCH   8  11
HETATM   11  N2  UNL     1      -2.734  -1.019   1.176  1.00  0.00    -0.307 N 
ATOM     12  H2  UNL     1      -3.122  -0.939   2.116  1.00  0.00     0.172 HD
BRANCH  11  13
HETATM   13  C2  UNL     1      -3.154  -0.219   0.057  1.00  0.00     0.231 C 
BRANCH  13  14
HETATM   14  C1  UNL     1      -4.208   0.706   0.492  1.00  0.00     0.249 C 
HETATM   15  N1  UNL     1      -4.639   0.697   1.829  1.00  0.00    -0.061 NA
HETATM   16  O1  UNL     1      -4.717   1.494  -0.325  1.00  0.00    -0.275 OA
ENDBRANCH  13  14
ENDBRANCH  11  13
ENDBRANCH   8  11
ENDBRANCH   1   8
BRANCH   4  17
HETATM   17  C7  UNL     1       3.222   1.033  -1.172  1.00  0.00     0.149 A 
HETATM   18  N3  UNL     1       3.417   1.396  -2.447  1.00  0.00    -0.268 N 
HETATM   19  N4  UNL     1       4.545   2.069  -2.470  1.00  0.00    -0.227 N 
ATOM     20  H3  UNL     1       2.811   1.191  -3.241  1.00  0.00     0.190 HD
HETATM   21  N5  UNL     1       5.059   2.140  -1.269  1.00  0.00    -0.227 N 
ATOM     22  H4  UNL     1       4.961   2.478  -3.306  1.00  0.00     0.210 HD
HETATM   23  N6  UNL     1       4.248   1.500  -0.447  1.00  0.00    -0.268 N 
ATOM     24  H5  UNL     1       5.930   2.606  -1.014  1.00  0.00     0.210 HD
ATOM     25  H6  UNL     1       4.379   1.382   0.558  1.00  0.00     0.190 HD
ENDBRANCH   4  17
TORSDOF 5
