REMARK  6 active torsions:
REMARK  status: ('A' for Active; 'I' for Inactive)
REMARK    1  A    between atoms: C1_2  and  C2_4 
REMARK    2  A    between atoms: N3_7  and  C3_8 
REMARK    3  A    between atoms: C3_8  and  C4_9 
REMARK    4  A    between atoms: C4_9  and  C5_10 
REMARK    5  A    between atoms: C5_10  and  C6_11 
REMARK    6  A    between atoms: C6_11  and  C7_12 
ROOT
HETATM    1  C2  UNL     1      -2.975  -0.606  -0.465  1.00  0.00     0.182 A 
HETATM    2  N2  UNL     1      -1.748  -0.056  -0.494  1.00  0.00    -0.285 N 
ATOM      3  H2  UNL     1      -1.084  -0.344  -1.213  1.00  0.00     0.187 HD
HETATM    4  N3  UNL     1      -1.386   0.865   0.409  1.00  0.00    -0.242 N 
HETATM    5  C9  UNL     1      -2.257   1.249   1.360  1.00  0.00     0.344 A 
HETATM    6  O3  UNL     1      -1.914   2.114   2.206  1.00  0.00    -0.245 OA
HETATM    7  N7  UNL     1      -3.500   0.740   1.447  1.00  0.00    -0.272 N 
ATOM      8  H7  UNL     1      -4.151   1.040   2.173  1.00  0.00     0.174 HD
HETATM    9  C10 UNL     1      -3.848  -0.195   0.519  1.00  0.00     0.282 A 
HETATM   10  O4  UNL     1      -4.997  -0.708   0.549  1.00  0.00    -0.265 OA
ENDROOT
BRANCH   4  11
HETATM   11  C3  UNL     1      -0.075   1.474   0.404  1.00  0.00     0.154 C 
BRANCH  11  12
HETATM   12  C4  UNL     1       0.905   0.678   1.257  1.00  0.00     0.022 C 
BRANCH  12  13
HETATM   13  C5  UNL     1       2.261   1.279   1.272  1.00  0.00     0.009 C 
BRANCH  13  14
HETATM   14  C6  UNL     1       2.959   1.413  -0.023  1.00  0.00     0.078 C 
BRANCH  14  15
HETATM   15  C7  UNL     1       3.282   0.173  -0.742  1.00  0.00     0.099 A 
HETATM   16  N4  UNL     1       3.784   0.078  -2.015  1.00  0.00    -0.285 N 
HETATM   17  N5  UNL     1       3.973  -1.169  -2.304  1.00  0.00    -0.250 N 
ATOM     18  H4  UNL     1       3.977   0.865  -2.635  1.00  0.00     0.188 HD
HETATM   19  C8  UNL     1       3.622  -1.963  -1.279  1.00  0.00     0.340 A 
ATOM     20  H5  UNL     1       4.341  -1.505  -3.194  1.00  0.00     0.192 HD
HETATM   21  O2  UNL     1       3.662  -3.210  -1.186  1.00  0.00    -0.245 OA
HETATM   22  N6  UNL     1       3.193  -1.090  -0.315  1.00  0.00    -0.296 N 
ATOM     23  H6  UNL     1       2.851  -1.367   0.605  1.00  0.00     0.172 HD
ENDBRANCH  14  15
ENDBRANCH  13  14
ENDBRANCH  12  13
ENDBRANCH  11  12
ENDBRANCH   4  11
BRANCH   1  24
HETATM   24  C1  UNL     1      -3.393  -1.621  -1.449  1.00  0.00     0.288 C 
HETATM   25  N1  UNL     1      -4.690  -2.162  -1.371  1.00  0.00    -0.056 NA
HETATM   26  O1  UNL     1      -2.638  -2.018  -2.351  1.00  0.00    -0.269 OA
ENDBRANCH   1  24
TORSDOF 6
