REMARK  2 active torsions:
REMARK  status: ('A' for Active; 'I' for Inactive)
REMARK    1  A    between atoms: N2_4  and  C2_6 
REMARK    2  A    between atoms: C4_8  and  C5_9 
ROOT
HETATM    1  C2  UNL     1      -0.323   0.743   0.506  1.00  0.00     0.108 A 
HETATM    2  C3  UNL     1      -0.794   1.543  -0.672  1.00  0.00     0.039 A 
HETATM    3  C4  UNL     1      -1.208   0.092  -0.473  1.00  0.00     0.050 A 
ENDROOT
BRANCH   1   4
HETATM    4  N2  UNL     1       1.070   0.521   0.568  1.00  0.00    -0.336 N 
HETATM    5  N1  UNL     1       1.655  -0.520   0.245  1.00  0.00    -0.345 N 
HETATM    6  C1  UNL     1       3.072  -0.606   0.360  1.00  0.00     0.167 C 
ATOM      7  H1  UNL     1       1.122  -1.317  -0.104  1.00  0.00     0.179 HD
ATOM      8  H2  UNL     1       1.647   1.289   0.910  1.00  0.00     0.180 HD
ENDBRANCH   1   4
BRANCH   3   9
HETATM    9  C5  UNL     1      -2.629  -0.148  -0.099  1.00  0.00     0.059 C 
HETATM   10  N3  UNL     1      -3.141  -1.313  -0.179  1.00  0.00    -0.411 N 
ATOM     11  H32 UNL     1      -2.555  -2.081  -0.506  1.00  0.00     0.155 HD
ATOM     12  H31 UNL     1      -4.115  -1.477   0.077  1.00  0.00     0.155 HD
ENDBRANCH   3   9
TORSDOF 2
