REMARK  3 active torsions:
REMARK  status: ('A' for Active; 'I' for Inactive)
REMARK    1  A    between atoms: N1_1  and  N2_4 
REMARK    2  A    between atoms: N2_4  and  S1_6 
REMARK    3  A    between atoms: S1_6  and  C1_7 
ROOT
HETATM    1  C1  UNL     1      -0.717   0.028   0.426  1.00  0.00     0.121 C 
HETATM    2  C2  UNL     1      -1.589   1.177  -0.024  1.00  0.00     0.251 C 
HETATM    3  N3  UNL     1      -2.182   0.326  -1.046  1.00  0.00    -0.073 N 
ATOM      4  H31 UNL     1      -1.925   0.439  -2.027  1.00  0.00     0.277 HD
ATOM      5  H32 UNL     1      -3.164   0.431  -1.302  1.00  0.00     0.277 HD
HETATM    6  C3  UNL     1      -1.741  -0.821  -0.305  1.00  0.00     0.251 C 
ENDROOT
BRANCH   1   7
HETATM    7  S1  UNL     1       0.950  -0.001  -0.323  1.00  0.00    -0.031 SA
BRANCH   7   8
HETATM    8  N2  UNL     1       2.200  -0.221   0.696  1.00  0.00    -0.280 N 
ATOM      9  H2  UNL     1       1.997  -0.331   1.690  1.00  0.00     0.194 HD
BRANCH   8  10
HETATM   10  N1  UNL     1       3.512  -0.267   0.293  1.00  0.00    -0.339 N 
ATOM     11  H12 UNL     1       3.696  -0.155  -0.704  1.00  0.00     0.177 HD
ATOM     12  H11 UNL     1       4.295  -0.405   0.932  1.00  0.00     0.177 HD
ENDBRANCH   8  10
ENDBRANCH   7   8
ENDBRANCH   1   7
TORSDOF 3
