REMARK  2 active torsions:
REMARK  status: ('A' for Active; 'I' for Inactive)
REMARK    1  A    between atoms: N2_4  and  N3_6 
REMARK    2  A    between atoms: C4_11  and  N4_12 
ROOT
HETATM    1  N3  UNL     1       1.534  -1.045   0.478  1.00  0.00    -0.293 N 
ATOM      2  H3  UNL     1       1.686  -1.998   0.808  1.00  0.00     0.188 HD
HETATM    3  C1  UNL     1       0.328  -0.678   0.265  1.00  0.00     0.035 C 
HETATM    4  C2  UNL     1      -0.984  -1.347   0.389  1.00  0.00     0.058 C 
HETATM    5  C3  UNL     1      -1.574  -0.261  -0.471  1.00  0.00     0.044 C 
HETATM    6  C4  UNL     1      -0.332   0.547  -0.193  1.00  0.00     0.230 C 
ENDROOT
BRANCH   1   7
HETATM    7  N2  UNL     1       2.651  -0.243   0.294  1.00  0.00    -0.249 N 
HETATM    8  N1  UNL     1       2.645   0.673  -0.573  1.00  0.00    -0.331 N 
ATOM      9  H12 UNL     1       1.805   0.812  -1.135  1.00  0.00     0.178 HD
ATOM     10  H11 UNL     1       3.466   1.263  -0.708  1.00  0.00     0.178 HD
ATOM     11  H2  UNL     1       3.483  -0.395   0.864  1.00  0.00     0.207 HD
ENDBRANCH   1   7
BRANCH   6  12
HETATM   12  N4  UNL     1      -0.453   1.534   0.841  1.00  0.00    -0.070 N 
ATOM     13  H43 UNL     1      -0.925   1.149   1.660  1.00  0.00     0.275 HD
ATOM     14  H42 UNL     1       0.456   1.742   1.256  1.00  0.00     0.275 HD
ATOM     15  H41 UNL     1      -0.913   2.387   0.522  1.00  0.00     0.275 HD
ENDBRANCH   6  12
TORSDOF 2
