REMARK  3 active torsions:
REMARK  status: ('A' for Active; 'I' for Inactive)
REMARK    1  A    between atoms: C1_4  and  N2_5 
REMARK    2  A    between atoms: N2_5  and  N3_7 
REMARK    3  A    between atoms: C4_10  and  N4_11 
ROOT
HETATM    1  N3  UNL     1      -0.515   0.069   0.183  1.00  0.00    -0.325 N 
HETATM    2  C2  UNL     1       0.055  -0.205   1.428  1.00  0.00     0.144 C 
HETATM    3  C3  UNL     1       1.498   0.265   1.185  1.00  0.00     0.056 C 
HETATM    4  C4  UNL     1       1.704  -0.335  -0.212  1.00  0.00     0.204 C 
HETATM    5  C5  UNL     1       0.332  -0.197  -0.882  1.00  0.00     0.175 C 
ENDROOT
BRANCH   1   6
HETATM    6  N2  UNL     1      -1.791   0.390   0.046  1.00  0.00    -0.299 N 
ATOM      7  H2  UNL     1      -2.052   1.375   0.011  1.00  0.00     0.187 HD
BRANCH   6   8
HETATM    8  C1  UNL     1      -2.811  -0.598  -0.054  1.00  0.00     0.190 C 
HETATM    9  N1  UNL     1      -4.064  -0.317  -0.178  1.00  0.00    -0.394 N 
ATOM     10  H12 UNL     1      -4.320   0.670  -0.204  1.00  0.00     0.156 HD
ATOM     11  H11 UNL     1      -4.795  -1.025  -0.250  1.00  0.00     0.156 HD
ENDBRANCH   6   8
ENDBRANCH   1   6
BRANCH   4  12
HETATM   12  N4  UNL     1       2.696   0.462  -0.910  1.00  0.00    -0.073 N 
ATOM     13  H43 UNL     1       2.453   1.452  -0.940  1.00  0.00     0.274 HD
ATOM     14  H42 UNL     1       3.568   0.549  -0.388  1.00  0.00     0.274 HD
ATOM     15  H41 UNL     1       2.833   0.063  -1.839  1.00  0.00     0.274 HD
ENDBRANCH   4  12
TORSDOF 3
