REMARK  1 active torsions:
REMARK  status: ('A' for Active; 'I' for Inactive)
REMARK    1  A    between atoms: N2_4  and  C1_6 
ROOT
HETATM    1  C1  UNL     1       1.579   0.045   0.856  1.00  0.00     0.194 C 
HETATM    2  N3  UNL     1       0.393   0.088   0.355  1.00  0.00    -0.376 N 
HETATM    3  C2  UNL     1      -0.760   0.656   1.024  1.00  0.00     0.123 C 
HETATM    4  C3  UNL     1      -1.908   0.049   0.231  1.00  0.00     0.021 C 
HETATM    5  C4  UNL     1      -1.342   0.146  -1.185  1.00  0.00     0.021 C 
HETATM    6  C5  UNL     1       0.052  -0.428  -0.944  1.00  0.00     0.123 C 
ENDROOT
BRANCH   1   7
HETATM    7  N2  UNL     1       2.679  -0.527   0.153  1.00  0.00    -0.303 N 
HETATM    8  N1  UNL     1       3.780   0.107   0.115  1.00  0.00    -0.344 N 
ATOM      9  H12 UNL     1       3.858   1.009   0.585  1.00  0.00     0.176 HD
ATOM     10  H11 UNL     1       4.567  -0.302  -0.388  1.00  0.00     0.176 HD
ATOM     11  H2  UNL     1       2.584  -1.430  -0.312  1.00  0.00     0.187 HD
ENDBRANCH   1   7
TORSDOF 1
