REMARK  1 active torsions:
REMARK  status: ('A' for Active; 'I' for Inactive)
REMARK    1  A    between atoms: C1_2  and  N1_3 
ROOT
HETATM    1  N1  UNL     1       1.041  -0.436   0.220  1.00  0.00    -0.272 NA
HETATM    2  C2  UNL     1      -0.101   0.077   0.780  1.00  0.00     0.082 A 
HETATM    3  C3  UNL     1      -1.542  -0.304   0.508  1.00  0.00     0.023 C 
HETATM    4  C4  UNL     1      -1.181   0.447  -0.796  1.00  0.00     0.023 C 
HETATM    5  C5  UNL     1       0.003  -0.488  -0.677  1.00  0.00     0.082 A 
ENDROOT
BRANCH   1   6
HETATM    6  C1  UNL     1       2.153   0.413  -0.163  1.00  0.00     0.142 C 
HETATM    7  S1  UNL     1       3.423  -0.098  -0.499  1.00  0.00    -0.080 SA
ENDBRANCH   1   6
TORSDOF 1
