REMARK  1 active torsions:
REMARK  status: ('A' for Active; 'I' for Inactive)
REMARK    1  A    between atoms: C3_3  and  N1_4 
ROOT
HETATM    1  C1  UNL     1       3.180   0.316   0.977  1.00  0.00     0.013 C 
HETATM    2  C2  UNL     1       2.282   0.413   0.176  1.00  0.00    -0.089 C 
HETATM    3  C3  UNL     1       1.212   0.536  -0.811  1.00  0.00     0.332 C 
ENDROOT
BRANCH   3   4
HETATM    4  N1  UNL     1      -0.013   0.081  -0.357  1.00  0.00    -0.029 N 
HETATM    5  C4  UNL     1      -0.849  -0.738  -1.206  1.00  0.00     0.469 C 
HETATM    6  N2  UNL     1      -1.999  -0.947  -0.301  1.00  0.00    -0.043 N 
HETATM    7  C5  UNL     1      -1.624  -0.121   0.785  1.00  0.00     0.239 C 
ATOM      8  H22 UNL     1      -2.917  -0.759  -0.703  1.00  0.00     0.279 HD
ATOM      9  H21 UNL     1      -2.206  -1.918  -0.067  1.00  0.00     0.279 HD
HETATM   10  C6  UNL     1      -0.142  -0.483   0.968  1.00  0.00     0.275 C 
HETATM   11  C7  UNL     1      -0.997   1.076   0.106  1.00  0.00     0.275 C 
ENDBRANCH   3   4
TORSDOF 1
