REMARK  1 active torsions:
REMARK  status: ('A' for Active; 'I' for Inactive)
REMARK    1  A    between atoms: C2_2  and  N1_3 
ROOT
HETATM    1  N1  UNL     1       0.117  -0.313   0.397  1.00  0.00    -0.046 N 
HETATM    2  C3  UNL     1       0.230  -0.969   1.699  1.00  0.00     0.274 C 
HETATM    3  C4  UNL     1      -0.723   0.841   0.470  1.00  0.00     0.266 C 
HETATM    4  C5  UNL     1      -1.889   0.628  -0.461  1.00  0.00     0.262 C 
HETATM    5  N2  UNL     1      -1.448  -0.428  -1.315  1.00  0.00    -0.049 N 
ATOM      6  H21 UNL     1      -0.979  -0.115  -2.165  1.00  0.00     0.279 HD
ATOM      7  H22 UNL     1      -2.199  -0.931  -1.787  1.00  0.00     0.279 HD
HETATM    8  C6  UNL     1      -0.640  -1.239  -0.456  1.00  0.00     0.467 C 
ENDROOT
BRANCH   1   9
HETATM    9  C2  UNL     1       1.418  -0.110  -0.110  1.00  0.00     0.234 C 
HETATM   10  C1  UNL     1       1.640   1.129  -0.905  1.00  0.00     0.035 C 
ENDBRANCH   1   9
TORSDOF 1
