REMARK  5 active torsions:
REMARK  status: ('A' for Active; 'I' for Inactive)
REMARK    1  A    between atoms: O1_1  and  C1_3 
REMARK    2  A    between atoms: C1_3  and  C2_4 
REMARK    3  A    between atoms: C2_4  and  O2_5 
REMARK    4  A    between atoms: C4_8  and  O3_9 
REMARK    5  A    between atoms: C5_11  and  O4_12 
ROOT
HETATM    1  C2  UNL     1      -0.972  -0.470  -0.020  1.00  0.00     0.152 C 
HETATM    2  C3  UNL     1      -0.110  -0.136  -1.184  1.00  0.00     0.097 C 
HETATM    3  C4  UNL     1       1.077   0.715  -0.867  1.00  0.00     0.154 C 
HETATM    4  C5  UNL     1       1.832   0.034   0.272  1.00  0.00     0.180 C 
HETATM    5  C6  UNL     1       0.849   0.110   1.448  1.00  0.00     0.183 C 
HETATM    6 BR1  UNL     1       1.671  -0.295   3.114  1.00  0.00    -0.066 Br
HETATM    7  N1  UNL     1      -0.226  -0.776   1.154  1.00  0.00    -0.374 N 
ATOM      8  H1  UNL     1      -0.447  -1.577   1.745  1.00  0.00     0.157 HD
ENDROOT
BRANCH   1   9
HETATM    9  C1  UNL     1      -1.995   0.571   0.328  1.00  0.00     0.224 C 
BRANCH   9  10
HETATM   10  O1  UNL     1      -2.793   0.972  -0.697  1.00  0.00    -0.396 OA
ATOM     11  H1  UNL     1      -3.441   1.631  -0.477  1.00  0.00     0.209 HD
ENDBRANCH   9  10
ENDBRANCH   1   9
BRANCH   1  12
HETATM   12  O2  UNL     1      -1.695  -1.636  -0.372  1.00  0.00    -0.369 OA
ATOM     13  H2  UNL     1      -1.047  -2.295  -0.592  1.00  0.00     0.212 HD
ENDBRANCH   1  12
BRANCH   3  14
HETATM   14  O3  UNL     1       0.760   2.015  -0.544  1.00  0.00    -0.393 OA
ATOM     15  H3  UNL     1       1.515   2.556  -0.343  1.00  0.00     0.210 HD
ENDBRANCH   3  14
BRANCH   4  16
HETATM   16  O4  UNL     1       2.003  -1.310  -0.080  1.00  0.00    -0.390 OA
ATOM     17  H4  UNL     1       2.473  -1.734   0.629  1.00  0.00     0.210 HD
ENDBRANCH   4  16
TORSDOF 5
