REMARK  11 active torsions:
REMARK  status: ('A' for Active; 'I' for Inactive)
REMARK       I    between atoms: C1_4  and  N3_6 
REMARK    1  A    between atoms: N3_6  and  C2_8 
REMARK    2  A    between atoms: C2_8  and  C3_9 
REMARK    3  A    between atoms: C4_13  and  O1_14 
REMARK    4  A    between atoms: C5_16  and  C6_17 
REMARK    5  A    between atoms: C6_17  and  N5_18 
REMARK    6  A    between atoms: N5_18  and  O2_20 
REMARK    7  A    between atoms: O2_20  and  C7_21 
REMARK    8  A    between atoms: C7_21  and  C8_22 
REMARK    9  A    between atoms: C8_22  and  C9_23 
REMARK   10  A    between atoms: C9_23  and  O3_24 
REMARK   11  A    between atoms: O3_24  and  N6_25 
ROOT
HETATM    1  C3  UNL     1       2.495   0.513  -0.588  1.00  0.00     0.297 C 
HETATM    2  N4  UNL     1       1.905   1.266   0.539  1.00  0.00    -0.033 N 
ATOM      3  H41 UNL     1       1.399   2.089   0.211  1.00  0.00     0.281 HD
ATOM      4  H42 UNL     1       2.625   1.731   1.092  1.00  0.00     0.281 HD
HETATM    5  C4  UNL     1       1.072   0.434   1.361  1.00  0.00     0.344 C 
HETATM    6  C5  UNL     1      -0.051  -0.117   0.558  1.00  0.00     0.160 C 
HETATM    7  N7  UNL     1       0.362  -0.684  -0.690  1.00  0.00    -0.349 N 
ATOM      8  H7  UNL     1      -0.308  -1.051  -1.366  1.00  0.00     0.163 HD
HETATM    9  C10 UNL     1       1.782  -0.704  -0.931  1.00  0.00     0.250 C 
HETATM   10  O4  UNL     1       2.303  -1.732  -1.413  1.00  0.00    -0.271 OA
ENDROOT
BRANCH   6  11
HETATM   11  C6  UNL     1      -1.088   0.982   0.350  1.00  0.00     0.175 C 
BRANCH  11  12
HETATM   12  N5  UNL     1      -2.060   0.361  -0.479  1.00  0.00    -0.301 N 
ATOM     13  H5  UNL     1      -1.807  -0.303  -1.211  1.00  0.00     0.187 HD
BRANCH  12  14
HETATM   14  O2  UNL     1      -3.301   0.698  -0.241  1.00  0.00    -0.285 OA
BRANCH  14  15
HETATM   15  C7  UNL     1      -3.509   0.266   1.147  1.00  0.00     0.203 C 
BRANCH  15  16
HETATM   16  C8  UNL     1      -4.509  -0.864   1.019  1.00  0.00     0.057 C 
BRANCH  16  17
HETATM   17  C9  UNL     1      -5.767  -0.413   0.393  1.00  0.00     0.202 C 
BRANCH  17  18
HETATM   18  O3  UNL     1      -5.531   0.265  -0.817  1.00  0.00    -0.287 OA
BRANCH  18  19
HETATM   19  N6  UNL     1      -6.637   0.741  -1.416  1.00  0.00    -0.311 N 
ATOM     20  H62 UNL     1      -7.565   0.612  -1.013  1.00  0.00     0.184 HD
ATOM     21  H61 UNL     1      -6.466   1.233  -2.293  1.00  0.00     0.184 HD
ENDBRANCH  18  19
ENDBRANCH  17  18
ENDBRANCH  16  17
ENDBRANCH  15  16
ENDBRANCH  14  15
ENDBRANCH  12  14
ENDBRANCH  11  12
ENDBRANCH   6  11
BRANCH   5  22
HETATM   22  O1  UNL     1       1.768  -0.563   2.058  1.00  0.00    -0.368 OA
ATOM     23  H1  UNL     1       1.217  -1.113   2.602  1.00  0.00     0.212 HD
ENDBRANCH   5  22
BRANCH   1  24
HETATM   24  C2  UNL     1       3.916   0.257  -0.120  1.00  0.00     0.165 C 
BRANCH  24  25
HETATM   25  N3  UNL     1       4.739  -0.456  -1.029  1.00  0.00    -0.362 N 
HETATM   26  C1  UNL     1       6.108  -0.539  -0.664  1.00  0.00     0.181 C 
HETATM   27  N1  UNL     1       6.973   0.118  -1.318  1.00  0.00    -0.374 N 
HETATM   28  N2  UNL     1       6.528  -1.372   0.395  1.00  0.00    -0.064 NA
ATOM     29  H12 UNL     1       7.957   0.058  -1.056  1.00  0.00     0.158 HD
ATOM     30  H11 UNL     1       6.669   0.720  -2.083  1.00  0.00     0.158 HD
ATOM     31  H3  UNL     1       4.374  -0.878  -1.883  1.00  0.00     0.162 HD
ENDBRANCH  24  25
ENDBRANCH   1  24
TORSDOF 11
