REMARK  11 active torsions:
REMARK  status: ('A' for Active; 'I' for Inactive)
REMARK       I    between atoms: C1_4  and  N3_6 
REMARK    1  A    between atoms: N3_6  and  C2_8 
REMARK    2  A    between atoms: C3_9  and  O1_10 
REMARK    3  A    between atoms: C5_13  and  N4_14 
REMARK    4  A    between atoms: N4_14  and  C6_17 
REMARK    5  A    between atoms: C6_17  and  C7_18 
REMARK    6  A    between atoms: C9_21  and  C10_22 
REMARK    7  A    between atoms: C10_22  and  N5_23 
REMARK    8  A    between atoms: N5_23  and  C11_25 
REMARK    9  A    between atoms: C11_25  and  C12_26 
REMARK   10  A    between atoms: C12_26  and  N6_27 
REMARK   11  A    between atoms: N6_27  and  O3_28 
ROOT
HETATM    1  N4  UNL     1      -1.401   1.396  -0.169  1.00  0.00    -0.064 N 
ATOM      2  H41 UNL     1      -1.027   1.622   0.753  1.00  0.00     0.277 HD
ATOM      3  H42 UNL     1      -1.018   2.193  -0.678  1.00  0.00     0.277 HD
ENDROOT
BRANCH   1   4
HETATM    4  C5  UNL     1      -2.840   1.375  -0.187  1.00  0.00     0.213 C 
HETATM    5  C2  UNL     1      -3.555   0.404   0.677  1.00  0.00     0.143 C 
HETATM    6  C3  UNL     1      -3.791   1.549   1.674  1.00  0.00     0.145 C 
HETATM    7  C4  UNL     1      -3.348   2.563   0.629  1.00  0.00     0.069 C 
BRANCH   5   8
HETATM    8  N3  UNL     1      -4.815  -0.087   0.192  1.00  0.00    -0.356 N 
HETATM    9  C1  UNL     1      -4.958  -1.130  -0.744  1.00  0.00     0.182 C 
HETATM   10  N1  UNL     1      -4.725  -2.334  -0.390  1.00  0.00    -0.374 N 
HETATM   11  N2  UNL     1      -5.357  -0.848  -2.068  1.00  0.00    -0.064 NA
ATOM     12  H12 UNL     1      -4.829  -3.089  -1.068  1.00  0.00     0.158 HD
ATOM     13  H11 UNL     1      -4.437  -2.538   0.567  1.00  0.00     0.158 HD
ATOM     14  H3  UNL     1      -5.664   0.350   0.550  1.00  0.00     0.162 HD
ENDBRANCH   5   8
BRANCH   6  15
HETATM   15  O1  UNL     1      -5.131   1.766   1.981  1.00  0.00    -0.393 OA
ATOM     16  H1  UNL     1      -5.277   2.474   2.597  1.00  0.00     0.210 HD
ENDBRANCH   6  15
ENDBRANCH   1   4
BRANCH   1  17
HETATM   17  C6  UNL     1      -0.906   0.134  -0.669  1.00  0.00     0.293 C 
BRANCH  17  18
HETATM   18  C7  UNL     1       0.612   0.101  -0.674  1.00  0.00     0.286 C 
HETATM   19  O2  UNL     1       1.035  -1.095  -1.160  1.00  0.00    -0.357 OA
HETATM   20  C8  UNL     1       1.466  -1.868  -0.096  1.00  0.00     0.208 C 
HETATM   21  C9  UNL     1       1.638  -0.908   1.024  1.00  0.00     0.186 C 
HETATM   22  O4  UNL     1       1.115   0.282   0.587  1.00  0.00    -0.347 OA
BRANCH  21  23
HETATM   23  C10 UNL     1       3.022  -0.796   1.577  1.00  0.00     0.089 C 
BRANCH  23  24
HETATM   24  N5  UNL     1       4.040  -0.264   0.789  1.00  0.00    -0.398 N 
ATOM     25  H5  UNL     1       4.433   0.646   1.031  1.00  0.00     0.158 HD
BRANCH  24  26
HETATM   26  C11 UNL     1       4.544  -0.958  -0.343  1.00  0.00     0.137 C 
BRANCH  26  27
HETATM   27  C12 UNL     1       5.737  -0.139  -0.904  1.00  0.00     0.162 C 
BRANCH  27  28
HETATM   28  N6  UNL     1       6.767  -0.016   0.115  1.00  0.00    -0.102 NA
BRANCH  28  29
HETATM   29  O3  UNL     1       7.782   0.690  -0.390  1.00  0.00    -0.296 OA
ATOM     30  H3  UNL     1       8.455   0.770   0.276  1.00  0.00     0.238 HD
ENDBRANCH  28  29
ENDBRANCH  27  28
ENDBRANCH  26  27
ENDBRANCH  24  26
ENDBRANCH  23  24
ENDBRANCH  21  23
ENDBRANCH  17  18
ENDBRANCH   1  17
TORSDOF 11
