REMARK  12 active torsions:
REMARK  status: ('A' for Active; 'I' for Inactive)
REMARK       I    between atoms: C1_4  and  N3_6 
REMARK    1  A    between atoms: N3_6  and  C2_8 
REMARK    2  A    between atoms: C2_8  and  C3_9 
REMARK    3  A    between atoms: C3_9  and  O1_10 
REMARK    4  A    between atoms: O1_10  and  C4_11 
REMARK    5  A    between atoms: C6_13  and  N4_14 
REMARK    6  A    between atoms: N4_14  and  C7_16 
REMARK    7  A    between atoms: C7_16  and  C8_17 
REMARK    8  A    between atoms: C8_17  and  N5_18 
REMARK    9  A    between atoms: C8_17  and  C9_22 
REMARK   10  A    between atoms: C9_22  and  N6_23 
REMARK   11  A    between atoms: C10_27  and  N7_28 
REMARK   12  A    between atoms: C12_33  and  N8_34 
ROOT
HETATM    1  C4  UNL     1       0.982  -0.404   0.610  1.00  0.00     0.153 C 
HETATM    2  C5  UNL     1      -0.090  -0.284   1.682  1.00  0.00     0.060 C 
HETATM    3  C6  UNL     1      -1.391  -0.888   1.236  1.00  0.00     0.109 C 
HETATM    4  C10 UNL     1      -1.207  -2.258   0.616  1.00  0.00     0.207 C 
HETATM    5  C11 UNL     1       0.181  -2.734   0.852  1.00  0.00     0.070 C 
HETATM    6  C12 UNL     1       1.189  -1.817   0.181  1.00  0.00     0.214 C 
ENDROOT
BRANCH   3   7
HETATM    7  N4  UNL     1      -2.144  -0.084   0.311  1.00  0.00    -0.413 N 
ATOM      8  H4  UNL     1      -2.341  -0.402  -0.638  1.00  0.00     0.153 HD
BRANCH   7   9
HETATM    9  C7  UNL     1      -2.600   1.175   0.784  1.00  0.00     0.148 C 
BRANCH   9  10
HETATM   10  C8  UNL     1      -3.337   1.874  -0.341  1.00  0.00     0.226 C 
BRANCH  10  11
HETATM   11  N5  UNL     1      -2.395   2.048  -1.460  1.00  0.00    -0.072 N 
ATOM     12  H53 UNL     1      -1.541   2.533  -1.186  1.00  0.00     0.274 HD
ATOM     13  H52 UNL     1      -1.965   1.171  -1.754  1.00  0.00     0.274 HD
ATOM     14  H51 UNL     1      -2.891   2.518  -2.217  1.00  0.00     0.274 HD
ENDBRANCH  10  11
BRANCH  10  15
HETATM   15  C9  UNL     1      -4.484   1.080  -0.883  1.00  0.00     0.263 C 
BRANCH  15  16
HETATM   16  N6  UNL     1      -5.452   0.825   0.190  1.00  0.00    -0.077 N 
ATOM     17  H63 UNL     1      -5.022   0.378   0.999  1.00  0.00     0.274 HD
ATOM     18  H62 UNL     1      -5.759   1.685   0.645  1.00  0.00     0.274 HD
ATOM     19  H61 UNL     1      -6.234   0.284  -0.179  1.00  0.00     0.274 HD
ENDBRANCH  15  16
ENDBRANCH  10  15
ENDBRANCH   9  10
ENDBRANCH   7   9
ENDBRANCH   3   7
BRANCH   4  20
HETATM   20  N7  UNL     1      -1.635  -2.225  -0.724  1.00  0.00    -0.073 N 
ATOM     21  H73 UNL     1      -2.592  -1.885  -0.815  1.00  0.00     0.274 HD
ATOM     22  H72 UNL     1      -1.169  -1.493  -1.260  1.00  0.00     0.274 HD
ATOM     23  H71 UNL     1      -1.511  -3.147  -1.141  1.00  0.00     0.274 HD
ENDBRANCH   4  20
BRANCH   1  24
HETATM   24  O1  UNL     1       2.080   0.282   1.016  1.00  0.00    -0.382 OA
BRANCH  24  25
HETATM   25  C3  UNL     1       2.385   1.438   0.392  1.00  0.00     0.188 C 
BRANCH  25  26
HETATM   26  C2  UNL     1       2.653   1.327  -1.088  1.00  0.00     0.148 C 
BRANCH  26  27
HETATM   27  N3  UNL     1       3.753   0.471  -1.428  1.00  0.00    -0.363 N 
HETATM   28  C1  UNL     1       5.100   0.800  -1.122  1.00  0.00     0.181 C 
HETATM   29  N1  UNL     1       5.730   1.720  -1.752  1.00  0.00    -0.374 N 
HETATM   30  N2  UNL     1       5.759   0.090  -0.095  1.00  0.00    -0.064 NA
ATOM     31  H12 UNL     1       6.698   1.956  -1.532  1.00  0.00     0.158 HD
ATOM     32  H11 UNL     1       5.254   2.233  -2.494  1.00  0.00     0.158 HD
ATOM     33  H3  UNL     1       3.560  -0.408  -1.908  1.00  0.00     0.162 HD
ENDBRANCH  26  27
ENDBRANCH  25  26
ENDBRANCH  24  25
ENDBRANCH   1  24
BRANCH   6  34
HETATM   34  N8  UNL     1       2.511  -2.348   0.549  1.00  0.00    -0.072 N 
ATOM     35  H83 UNL     1       3.255  -1.748   0.192  1.00  0.00     0.274 HD
ATOM     36  H82 UNL     1       2.677  -2.245   1.550  1.00  0.00     0.274 HD
ATOM     37  H81 UNL     1       2.653  -3.315   0.256  1.00  0.00     0.274 HD
ENDBRANCH   6  34
TORSDOF 12
