REMARK  12 active torsions:
REMARK  status: ('A' for Active; 'I' for Inactive)
REMARK    1  A    between atoms: C2_7  and  N3_8 
REMARK    2  A    between atoms: N7_19  and  C5_20 
REMARK    3  A    between atoms: C5_20  and  C6_21 
REMARK    4  A    between atoms: C6_21  and  C7_22 
REMARK    5  A    between atoms: C7_22  and  O1_23 
REMARK    6  A    between atoms: O1_23  and  C8_24 
REMARK    7  A    between atoms: C8_24  and  C9_25 
REMARK    8  A    between atoms: C9_25  and  C10_26 
REMARK    9  A    between atoms: C10_26  and  N8_27 
REMARK   10  A    between atoms: N8_27  and  C11_30 
REMARK   11  A    between atoms: C11_30  and  C12_31 
REMARK   12  A    between atoms: C12_31  and  O2_32 
ROOT
HETATM    1  N1  UNL     1       0.600   0.590  -2.070  1.00  0.00    -0.371 N 
ATOM      2  H11 UNL     1      -0.176   0.695  -1.416  1.00  0.00     0.159 HD
ATOM      3  H12 UNL     1       0.273   0.777  -3.018  1.00  0.00     0.159 HD
HETATM    4  C1  UNL     1       1.820   0.265  -1.743  1.00  0.00     0.176 C 
HETATM    5  N2  UNL     1       2.898   0.119  -2.652  1.00  0.00    -0.310 N 
ATOM      6  H2  UNL     1       2.908   0.429  -3.624  1.00  0.00     0.167 HD
HETATM    7  C2  UNL     1       3.980  -0.546  -1.963  1.00  0.00     0.316 A 
HETATM    8  N4  UNL     1       5.152   0.295  -1.858  1.00  0.00    -0.312 N 
ATOM      9  H4  UNL     1       5.694   0.626  -2.656  1.00  0.00     0.166 HD
HETATM   10  C3  UNL     1       5.424   0.572  -0.636  1.00  0.00     0.189 A 
HETATM   11  N5  UNL     1       6.528   1.386  -0.222  1.00  0.00    -0.064 NA
HETATM   12  N6  UNL     1       4.508  -0.017   0.261  1.00  0.00    -0.338 N 
ATOM     13  H6  UNL     1       4.536   0.041   1.279  1.00  0.00     0.164 HD
HETATM   14  C4  UNL     1       3.512  -0.725  -0.539  1.00  0.00     0.268 A 
HETATM   15  N7  UNL     1       2.276   0.004  -0.423  1.00  0.00    -0.326 N 
ENDROOT
BRANCH  15  16
HETATM   16  C5  UNL     1       1.618   0.396   0.796  1.00  0.00     0.130 C 
BRANCH  16  17
HETATM   17  C6  UNL     1       1.072  -0.799   1.562  1.00  0.00     0.046 C 
BRANCH  17  18
HETATM   18  C7  UNL     1       0.408  -0.322   2.820  1.00  0.00     0.169 C 
BRANCH  18  19
HETATM   19  O1  UNL     1      -0.643   0.552   2.619  1.00  0.00    -0.391 OA
BRANCH  19  20
HETATM   20  C8  UNL     1      -1.627  -0.048   1.885  1.00  0.00     0.169 C 
BRANCH  20  21
HETATM   21  C9  UNL     1      -2.812   0.893   1.643  1.00  0.00     0.054 C 
BRANCH  21  22
HETATM   22  C10 UNL     1      -3.822   0.112   0.833  1.00  0.00     0.234 C 
BRANCH  22  23
HETATM   23  N8  UNL     1      -4.994   0.894   0.535  1.00  0.00    -0.073 N 
ATOM     24  H82 UNL     1      -5.396   1.271   1.393  1.00  0.00     0.277 HD
ATOM     25  H81 UNL     1      -4.731   1.762   0.068  1.00  0.00     0.277 HD
BRANCH  23  26
HETATM   26  C11 UNL     1      -5.986   0.211  -0.216  1.00  0.00     0.258 C 
BRANCH  26  27
HETATM   27  C12 UNL     1      -5.635  -0.124  -1.623  1.00  0.00     0.191 C 
BRANCH  27  28
HETATM   28  O2  UNL     1      -6.752  -0.792  -2.175  1.00  0.00    -0.399 OA
ATOM     29  H2  UNL     1      -6.528  -1.006  -3.073  1.00  0.00     0.209 HD
ENDBRANCH  27  28
ENDBRANCH  26  27
ENDBRANCH  23  26
ENDBRANCH  22  23
ENDBRANCH  21  22
ENDBRANCH  20  21
ENDBRANCH  19  20
ENDBRANCH  18  19
ENDBRANCH  17  18
ENDBRANCH  16  17
ENDBRANCH  15  16
BRANCH   7  30
HETATM   30  N3  UNL     1       4.266  -1.808  -2.611  1.00  0.00    -0.030 N 
ATOM     31  H33 UNL     1       3.438  -2.398  -2.686  1.00  0.00     0.279 HD
ATOM     32  H32 UNL     1       4.456  -1.695  -3.607  1.00  0.00     0.279 HD
ATOM     33  H31 UNL     1       5.030  -2.277  -2.125  1.00  0.00     0.279 HD
ENDBRANCH   7  30
TORSDOF 12
