REMARK  10 active torsions:
REMARK  status: ('A' for Active; 'I' for Inactive)
REMARK    1  A    between atoms: C1_4  and  O1_6 
REMARK    2  A    between atoms: O1_6  and  C2_7 
REMARK    3  A    between atoms: C2_7  and  C3_8 
REMARK    4  A    between atoms: C3_8  and  O2_9 
REMARK    5  A    between atoms: O2_9  and  C4_10 
REMARK    6  A    between atoms: C4_10  and  C5_11 
REMARK    7  A    between atoms: C5_11  and  O3_12 
REMARK    8  A    between atoms: O3_12  and  C6_13 
REMARK    9  A    between atoms: C6_13  and  N3_14 
REMARK   10  A    between atoms: C8_19  and  N6_20 
ROOT
HETATM    1  N3  UNL     1      -2.982  -0.539  -0.065  1.00  0.00    -0.250 N 
HETATM    2  C7  UNL     1      -3.819  -0.666   0.962  1.00  0.00     0.214 A 
HETATM    3  N4  UNL     1      -3.420  -1.065   2.271  1.00  0.00    -0.062 NA
HETATM    4  N5  UNL     1      -5.128  -0.400   0.755  1.00  0.00    -0.163 N 
ATOM      5  H5  UNL     1      -5.796  -0.487   1.521  1.00  0.00     0.187 HD
HETATM    6  C8  UNL     1      -5.544  -0.022  -0.461  1.00  0.00     0.682 A 
HETATM    7  N7  UNL     1      -4.702   0.112  -1.518  1.00  0.00    -0.141 N 
ATOM      8  H7  UNL     1      -5.035   0.402  -2.437  1.00  0.00     0.189 HD
HETATM    9  C9  UNL     1      -3.396  -0.160  -1.285  1.00  0.00     0.344 A 
HETATM   10  O4  UNL     1      -2.609  -0.037  -2.262  1.00  0.00    -0.246 OA
ENDROOT
BRANCH   1  11
HETATM   11  C6  UNL     1      -1.578  -0.822   0.150  1.00  0.00     0.306 C 
BRANCH  11  12
HETATM   12  O3  UNL     1      -0.963   0.357   0.535  1.00  0.00    -0.369 OA
BRANCH  12  13
HETATM   13  C5  UNL     1       0.400   0.195   0.769  1.00  0.00     0.196 C 
BRANCH  13  14
HETATM   14  C4  UNL     1       0.969   1.529   1.179  1.00  0.00     0.193 C 
BRANCH  14  15
HETATM   15  O2  UNL     1       2.315   1.509   1.441  1.00  0.00    -0.387 OA
BRANCH  15  16
HETATM   16  C3  UNL     1       3.114   1.127   0.396  1.00  0.00     0.194 C 
BRANCH  16  17
HETATM   17  C2  UNL     1       4.555   1.168   0.877  1.00  0.00     0.204 C 
BRANCH  17  18
HETATM   18  O1  UNL     1       5.470   0.794  -0.112  1.00  0.00    -0.323 OA
BRANCH  18  19
HETATM   19  C1  UNL     1       5.464  -0.447  -0.728  1.00  0.00     0.225 C 
HETATM   20  N1  UNL     1       4.992  -1.443  -0.044  1.00  0.00    -0.368 N 
ATOM     21  H12 UNL     1       4.988  -2.357  -0.498  1.00  0.00     0.159 HD
ATOM     22  H11 UNL     1       4.639  -1.330   0.906  1.00  0.00     0.159 HD
HETATM   23  N2  UNL     1       5.956  -0.605  -2.053  1.00  0.00    -0.057 NA
ENDBRANCH  18  19
ENDBRANCH  17  18
ENDBRANCH  16  17
ENDBRANCH  15  16
ENDBRANCH  14  15
ENDBRANCH  13  14
ENDBRANCH  12  13
ENDBRANCH  11  12
ENDBRANCH   1  11
BRANCH   6  24
HETATM   24  N6  UNL     1      -6.792   0.247  -0.718  1.00  0.00    -0.234 N 
ATOM     25  H62 UNL     1      -7.424   0.146   0.076  1.00  0.00     0.174 HD
ATOM     26  H61 UNL     1      -7.109   0.535  -1.644  1.00  0.00     0.174 HD
ENDBRANCH   6  24
TORSDOF 10
