REMARK  14 active torsions:
REMARK  status: ('A' for Active; 'I' for Inactive)
REMARK    1  A    between atoms: N1_1  and  C1_5 
REMARK    2  A    between atoms: C1_5  and  C2_6 
REMARK    3  A    between atoms: C2_6  and  C3_7 
REMARK    4  A    between atoms: C3_7  and  C4_8 
REMARK    5  A    between atoms: C4_8  and  N2_9 
REMARK    6  A    between atoms: N2_9  and  C5_12 
REMARK    7  A    between atoms: C5_12  and  C6_13 
REMARK    8  A    between atoms: C6_13  and  O1_14 
REMARK    9  A    between atoms: O1_14  and  C7_15 
REMARK   10  A    between atoms: C9_17  and  N3_18 
REMARK   11  A    between atoms: C10_22  and  C11_23 
REMARK   12  A    between atoms: C11_23  and  N4_24 
REMARK   13  A    between atoms: C12_28  and  O2_29 
REMARK   14  A    between atoms: C13_31  and  O3_32 
ROOT
HETATM    1  C7  UNL     1      -1.268  -0.699   0.369  1.00  0.00     0.154 C 
HETATM    2  C8  UNL     1      -2.647  -0.948   0.955  1.00  0.00     0.068 C 
HETATM    3  C9  UNL     1      -3.746  -0.709  -0.084  1.00  0.00     0.194 C 
HETATM    4  C10 UNL     1      -3.709   0.673  -0.627  1.00  0.00     0.073 C 
HETATM    5  C12 UNL     1      -2.388   1.363  -0.281  1.00  0.00     0.157 C 
HETATM    6  C13 UNL     1      -1.240   0.430  -0.594  1.00  0.00     0.176 C 
ENDROOT
BRANCH   1   7
HETATM    7  O1  UNL     1      -0.709  -1.892  -0.104  1.00  0.00    -0.382 OA
BRANCH   7   8
HETATM    8  C6  UNL     1       0.372  -2.336   0.607  1.00  0.00     0.196 C 
BRANCH   8   9
HETATM    9  C5  UNL     1       1.573  -1.437   0.607  1.00  0.00     0.258 C 
BRANCH   9  10
HETATM   10  N2  UNL     1       2.093  -1.218  -0.704  1.00  0.00    -0.073 N 
ATOM     11  H22 UNL     1       1.355  -0.897  -1.330  1.00  0.00     0.277 HD
ATOM     12  H21 UNL     1       2.324  -2.107  -1.148  1.00  0.00     0.277 HD
BRANCH  10  13
HETATM   13  C4  UNL     1       3.206  -0.334  -0.755  1.00  0.00     0.232 C 
BRANCH  13  14
HETATM   14  C3  UNL     1       4.421  -0.927  -0.116  1.00  0.00     0.029 C 
BRANCH  14  15
HETATM   15  C2  UNL     1       5.611  -0.033  -0.157  1.00  0.00     0.029 C 
BRANCH  15  16
HETATM   16  C1  UNL     1       5.372   1.269   0.562  1.00  0.00     0.229 C 
BRANCH  16  17
HETATM   17  N1  UNL     1       6.590   2.084   0.483  1.00  0.00    -0.079 N 
ATOM     18  H13 UNL     1       7.412   1.591   0.833  1.00  0.00     0.274 HD
ATOM     19  H12 UNL     1       6.905   2.221  -0.477  1.00  0.00     0.274 HD
ATOM     20  H11 UNL     1       6.428   2.966   0.970  1.00  0.00     0.274 HD
ENDBRANCH  16  17
ENDBRANCH  15  16
ENDBRANCH  14  15
ENDBRANCH  13  14
ENDBRANCH  10  13
ENDBRANCH   9  10
ENDBRANCH   8   9
ENDBRANCH   7   8
ENDBRANCH   1   7
BRANCH   6  21
HETATM   21  O3  UNL     1      -1.332   0.056  -1.923  1.00  0.00    -0.390 OA
ATOM     22  H3  UNL     1      -1.314   0.779  -2.539  1.00  0.00     0.210 HD
ENDBRANCH   6  21
BRANCH   3  23
HETATM   23  N3  UNL     1      -5.006  -1.111   0.477  1.00  0.00    -0.074 N 
ATOM     24  H33 UNL     1      -4.993  -2.073   0.817  1.00  0.00     0.274 HD
ATOM     25  H32 UNL     1      -5.202  -0.650   1.366  1.00  0.00     0.274 HD
ATOM     26  H31 UNL     1      -5.738  -0.952  -0.215  1.00  0.00     0.274 HD
ENDBRANCH   3  23
BRANCH   5  27
HETATM   27  O2  UNL     1      -2.278   1.764   1.013  1.00  0.00    -0.392 OA
ATOM     28  H2  UNL     1      -1.458   2.192   1.228  1.00  0.00     0.210 HD
ENDBRANCH   5  27
BRANCH   4  29
HETATM   29  C11 UNL     1      -4.874   1.538  -0.337  1.00  0.00     0.238 C 
BRANCH  29  30
HETATM   30  N4  UNL     1      -5.165   1.789   1.029  1.00  0.00    -0.079 N 
ATOM     31  H43 UNL     1      -5.267   0.903   1.524  1.00  0.00     0.274 HD
ATOM     32  H42 UNL     1      -4.337   2.167   1.489  1.00  0.00     0.274 HD
ATOM     33  H41 UNL     1      -5.968   2.385   1.229  1.00  0.00     0.274 HD
ENDBRANCH  29  30
ENDBRANCH   4  29
TORSDOF 14
