REMARK  12 active torsions:
REMARK  status: ('A' for Active; 'I' for Inactive)
REMARK    1  A    between atoms: N1_1  and  C1_5 
REMARK    2  A    between atoms: C1_5  and  C2_6 
REMARK    3  A    between atoms: C2_6  and  C3_7 
REMARK    4  A    between atoms: C3_7  and  C4_8 
REMARK    5  A    between atoms: C4_8  and  C5_9 
REMARK    6  A    between atoms: C5_9  and  N2_10 
REMARK    7  A    between atoms: N2_10  and  C6_12 
REMARK    8  A    between atoms: C7_13  and  O1_14 
REMARK    9  A    between atoms: C8_16  and  N3_17 
REMARK   10  A    between atoms: C9_21  and  O2_22 
REMARK   11  A    between atoms: O2_22  and  C10_23 
REMARK   12  A    between atoms: C13_29  and  O3_30 
ROOT
HETATM    1  C6  UNL     1      -0.038  -0.530  -0.602  1.00  0.00     0.139 C 
HETATM    2  C7  UNL     1       0.477  -1.746   0.150  1.00  0.00     0.176 C 
HETATM    3  C8  UNL     1       1.872  -1.369   0.619  1.00  0.00     0.245 C 
HETATM    4  C9  UNL     1       2.211  -0.112  -0.082  1.00  0.00     0.185 C 
HETATM    5  C13 UNL     1       1.262  -0.044  -1.242  1.00  0.00     0.174 C 
ENDROOT
BRANCH   1   6
HETATM    6  N2  UNL     1      -0.645   0.425   0.265  1.00  0.00    -0.412 N 
ATOM      7  H2  UNL     1      -0.476   0.424   1.271  1.00  0.00     0.153 HD
BRANCH   6   8
HETATM    8  C5  UNL     1      -1.504   1.384  -0.357  1.00  0.00     0.114 C 
BRANCH   8   9
HETATM    9  C4  UNL     1      -2.769   0.787  -0.914  1.00  0.00     0.019 C 
BRANCH   9  10
HETATM   10  C3  UNL     1      -3.616   0.111   0.151  1.00  0.00     0.003 C 
BRANCH  10  11
HETATM   11  C2  UNL     1      -4.861  -0.448  -0.527  1.00  0.00     0.027 C 
BRANCH  11  12
HETATM   12  C1  UNL     1      -5.772  -1.141   0.451  1.00  0.00     0.229 C 
BRANCH  12  13
HETATM   13  N1  UNL     1      -6.239  -0.261   1.507  1.00  0.00    -0.079 N 
ATOM     14  H13 UNL     1      -5.455   0.180   1.988  1.00  0.00     0.274 HD
ATOM     15  H12 UNL     1      -6.685   0.570   1.119  1.00  0.00     0.274 HD
ATOM     16  H11 UNL     1      -6.856  -0.731   2.170  1.00  0.00     0.274 HD
ENDBRANCH  12  13
ENDBRANCH  11  12
ENDBRANCH  10  11
ENDBRANCH   9  10
ENDBRANCH   8   9
ENDBRANCH   6   8
ENDBRANCH   1   6
BRANCH   2  17
HETATM   17  O1  UNL     1       0.545  -2.793  -0.766  1.00  0.00    -0.391 OA
ATOM     18  H1  UNL     1       0.867  -3.553  -0.296  1.00  0.00     0.210 HD
ENDBRANCH   2  17
BRANCH   5  19
HETATM   19  O3  UNL     1       1.162   1.199  -1.817  1.00  0.00    -0.391 OA
ATOM     20  H3  UNL     1       1.970   1.501  -2.215  1.00  0.00     0.210 HD
ENDBRANCH   5  19
BRANCH   3  21
HETATM   21  N3  UNL     1       1.788  -1.227   2.061  1.00  0.00    -0.070 N 
ATOM     22  H33 UNL     1       1.067  -0.572   2.363  1.00  0.00     0.274 HD
ATOM     23  H32 UNL     1       1.411  -2.051   2.529  1.00  0.00     0.274 HD
ATOM     24  H31 UNL     1       2.725  -0.974   2.376  1.00  0.00     0.274 HD
ENDBRANCH   3  21
BRANCH   4  25
HETATM   25  O2  UNL     1       3.531   0.040  -0.433  1.00  0.00    -0.372 OA
BRANCH  25  26
HETATM   26  C10 UNL     1       4.176   1.136   0.064  1.00  0.00     0.173 C 
HETATM   27  C11 UNL     1       5.083   1.813  -0.945  1.00  0.00     0.265 C 
HETATM   28  N4  UNL     1       6.135   0.892  -0.563  1.00  0.00    -0.070 N 
HETATM   29  C12 UNL     1       5.485   0.742   0.716  1.00  0.00     0.265 C 
ATOM     30  H42 UNL     1       6.347   0.077  -1.138  1.00  0.00     0.277 HD
ATOM     31  H41 UNL     1       7.115   1.169  -0.619  1.00  0.00     0.277 HD
ENDBRANCH  25  26
ENDBRANCH   4  25
TORSDOF 12
