REMARK  6 active torsions:
REMARK  status: ('A' for Active; 'I' for Inactive)
REMARK    1  A    between atoms: O1_2  and  C2_3 
REMARK    2  A    between atoms: C2_3  and  C3_5 
REMARK    3  A    between atoms: C6_9  and  C7_10 
REMARK       I    between atoms: C7_10  and  N2_12 
REMARK    4  A    between atoms: N2_12  and  N3_14 
REMARK    5  A    between atoms: N3_14  and  S1_16 
REMARK    6  A    between atoms: S1_16  and  N4_17 
ROOT
HETATM    1  C3  UNL     1      -1.982   0.175  -0.109  1.00  0.00     0.085 A 
HETATM    2  C4  UNL     1      -1.150   1.175  -0.572  1.00  0.00     0.067 A 
HETATM    3  N1  UNL     1      -1.681   2.452  -0.866  1.00  0.00    -0.101 NA
HETATM    4  C5  UNL     1       0.191   0.899  -0.734  1.00  0.00     0.063 A 
HETATM    5  C6  UNL     1       0.734  -0.341  -0.452  1.00  0.00     0.104 A 
HETATM    6  N5  UNL     1      -0.147  -1.281   0.002  1.00  0.00    -0.354 N 
ATOM      7  H5  UNL     1       0.221  -2.207   0.221  1.00  0.00     0.166 HD
HETATM    8  C8  UNL     1      -1.453  -1.076   0.180  1.00  0.00     0.024 A 
HETATM    9  C9  UNL     1      -2.335  -2.152   0.692  1.00  0.00     0.069 C 
ENDROOT
BRANCH   5  10
HETATM   10  C7  UNL     1       2.139  -0.678  -0.603  1.00  0.00     0.287 C 
HETATM   11  O3  UNL     1       2.491  -1.867  -0.439  1.00  0.00    -0.264 OA
HETATM   12  N2  UNL     1       3.090   0.306  -0.928  1.00  0.00    -0.254 N 
ATOM     13  H2  UNL     1       2.830   1.283  -1.060  1.00  0.00     0.191 HD
BRANCH  12  14
HETATM   14  N3  UNL     1       4.420  -0.133  -1.061  1.00  0.00    -0.207 N 
ATOM     15  H3  UNL     1       4.945  -0.190  -1.934  1.00  0.00     0.201 HD
BRANCH  14  16
HETATM   16  S1  UNL     1       5.008  -0.555   0.487  1.00  0.00     0.330 S 
HETATM   17  O4  UNL     1       3.898  -0.299   1.497  1.00  0.00    -0.181 OA
HETATM   18  O5  UNL     1       5.388  -2.012   0.442  1.00  0.00    -0.181 OA
BRANCH  16  19
HETATM   19  N4  UNL     1       6.344   0.382   1.009  1.00  0.00    -0.310 N 
ATOM     20  H42 UNL     1       6.742   1.124   0.434  1.00  0.00     0.170 HD
ATOM     21  H41 UNL     1       6.695   0.130   1.933  1.00  0.00     0.170 HD
ENDBRANCH  16  19
ENDBRANCH  14  16
ENDBRANCH  12  14
ENDBRANCH   5  10
BRANCH   1  22
HETATM   22  C2  UNL     1      -3.416   0.479   0.042  1.00  0.00     0.296 C 
HETATM   23  O2  UNL     1      -3.849   1.638  -0.259  1.00  0.00    -0.259 OA
BRANCH  22  24
HETATM   24  O1  UNL     1      -4.348  -0.418   0.497  1.00  0.00    -0.322 OA
HETATM   25  C1  UNL     1      -5.719  -0.136   0.641  1.00  0.00     0.213 C 
ENDBRANCH  22  24
ENDBRANCH   1  22
TORSDOF 6
