REMARK  7 active torsions:
REMARK  status: ('A' for Active; 'I' for Inactive)
REMARK    1  A    between atoms: C3_3  and  N1_4 
REMARK    2  A    between atoms: N1_4  and  C4_6 
REMARK    3  A    between atoms: C5_9  and  C6_10 
REMARK    4  A    between atoms: C6_10  and  C7_11 
REMARK    5  A    between atoms: C7_11  and  N3_12 
REMARK    6  A    between atoms: N4_18  and  N5_19 
REMARK    7  A    between atoms: C12_22  and  N6_23 
ROOT
HETATM    1  C1  UNL     1       5.587  -4.497  -0.057  1.00  0.00     0.014 C 
HETATM    2  C2  UNL     1       5.048  -3.459   0.255  1.00  0.00    -0.097 C 
HETATM    3  C3  UNL     1       4.361  -2.199   0.628  1.00  0.00     0.231 C 
ENDROOT
BRANCH   3   4
HETATM    4  N1  UNL     1       2.971  -2.316   0.281  1.00  0.00    -0.216 N 
ATOM      5  H1  UNL     1       2.589  -3.251   0.136  1.00  0.00     0.178 HD
BRANCH   4   6
HETATM    6  C4  UNL     1       2.180  -1.309   0.143  1.00  0.00     0.680 A 
HETATM    7  N2  UNL     1       0.896  -1.458  -0.179  1.00  0.00    -0.194 N 
HETATM    8  C5  UNL     1      -0.014  -0.462  -0.346  1.00  0.00     0.048 A 
ATOM      9  H2  UNL     1       0.563  -2.413  -0.313  1.00  0.00     0.184 HD
HETATM   10  C10 UNL     1       0.517   0.790  -0.146  1.00  0.00     0.103 A 
HETATM   11  C11 UNL     1      -0.268   1.893  -0.301  1.00  0.00     0.297 A 
HETATM   12  C13 UNL     1       1.864   0.969   0.194  1.00  0.00     0.154 A 
HETATM   13  O1  UNL     1      -1.441   1.762  -0.601  1.00  0.00    -0.265 OA
HETATM   14  N4  UNL     1       0.219   3.131  -0.133  1.00  0.00    -0.054 N 
HETATM   15  C12 UNL     1       1.527   3.299   0.200  1.00  0.00     0.701 A 
HETATM   16  N7  UNL     1       2.333   2.223   0.360  1.00  0.00    -0.173 N 
ATOM     17  H7  UNL     1       3.312   2.363   0.610  1.00  0.00     0.186 HD
HETATM   18  N8  UNL     1       2.681  -0.081   0.335  1.00  0.00    -0.175 N 
ATOM     19  H8  UNL     1       3.662   0.050   0.583  1.00  0.00     0.186 HD
BRANCH   8  20
HETATM   20  C6  UNL     1      -1.415  -0.788  -0.645  1.00  0.00     0.089 C 
BRANCH  20  21
HETATM   21  C7  UNL     1      -2.338  -0.911   0.517  1.00  0.00     0.277 C 
BRANCH  21  22
HETATM   22  N3  UNL     1      -3.661  -1.258   0.093  1.00  0.00     0.080 N 
HETATM   23  C8  UNL     1      -4.406  -0.290  -0.613  1.00  0.00     0.309 C 
HETATM   24  C9  UNL     1      -4.429  -1.779   1.201  1.00  0.00     0.309 C 
ENDBRANCH  21  22
ENDBRANCH  20  21
ENDBRANCH   8  20
BRANCH  14  25
HETATM   25  N5  UNL     1      -0.652   4.206  -0.312  1.00  0.00    -0.321 N 
ATOM     26  H52 UNL     1      -1.633   4.080  -0.562  1.00  0.00     0.178 HD
ATOM     27  H51 UNL     1      -0.282   5.148  -0.184  1.00  0.00     0.178 HD
ENDBRANCH  14  25
BRANCH  15  28
HETATM   28  N6  UNL     1       1.987   4.489   0.356  1.00  0.00    -0.233 N 
ATOM     29  H62 UNL     1       1.380   5.300   0.235  1.00  0.00     0.174 HD
ATOM     30  H61 UNL     1       2.968   4.615   0.606  1.00  0.00     0.174 HD
ENDBRANCH  15  28
ENDBRANCH   4   6
ENDBRANCH   3   4
TORSDOF 7
