REMARK  6 active torsions:
REMARK  status: ('A' for Active; 'I' for Inactive)
REMARK    1  A    between atoms: O1_2  and  C2_3 
REMARK    2  A    between atoms: C6_7  and  C7_8 
REMARK       I    between atoms: C7_8  and  N1_10 
REMARK    3  A    between atoms: N1_10  and  N2_12 
REMARK       I    between atoms: N2_12  and  C8_14 
REMARK       I    between atoms: C8_14  and  N5_20 
REMARK    4  A    between atoms: N3_15  and  N4_17 
REMARK    5  A    between atoms: N5_20  and  N6_22 
REMARK    6  A    between atoms: C9_25  and  O5_26 
ROOT
HETATM    1  C7  UNL     1       0.661   0.613  -0.368  1.00  0.00     0.273 C 
HETATM    2  O2  UNL     1       0.919   1.872  -0.448  1.00  0.00    -0.266 OA
HETATM    3  N1  UNL     1       1.779  -0.225  -0.529  1.00  0.00    -0.251 N 
ATOM      4  H1  UNL     1       1.649  -1.236  -0.485  1.00  0.00     0.191 HD
ENDROOT
BRANCH   3   5
HETATM    5  N2  UNL     1       3.074   0.287  -0.749  1.00  0.00    -0.126 N 
HETATM    6  C8  UNL     1       4.134   0.203   0.169  1.00  0.00     0.730 C 
HETATM    7  N3  UNL     1       4.485  -0.901   0.692  1.00  0.00    -0.136 N 
HETATM    8  N5  UNL     1       4.874   1.357   0.560  1.00  0.00    -0.069 N 
ATOM      9  H3  UNL     1       5.265  -0.864   1.349  1.00  0.00     0.205 HD
ATOM     10  H5  UNL     1       5.844   1.228   0.849  1.00  0.00     0.212 HD
ATOM     11  H2  UNL     1       3.254   0.752  -1.639  1.00  0.00     0.206 HD
BRANCH   7  12
HETATM   12  N4  UNL     1       3.929  -2.142   0.470  1.00  0.00    -0.331 N 
ATOM     13  H42 UNL     1       3.151  -2.159  -0.189  1.00  0.00     0.177 HD
ATOM     14  H41 UNL     1       4.211  -3.028   0.890  1.00  0.00     0.177 HD
ENDBRANCH   7  12
BRANCH   8  15
HETATM   15  N6  UNL     1       4.354   2.655   0.572  1.00  0.00    -0.024 N 
HETATM   16  O3  UNL     1       3.849   3.119   1.593  1.00  0.00    -0.516 OA
HETATM   17  O4  UNL     1       4.433   3.396  -0.607  1.00  0.00    -0.516 OA
ENDBRANCH   8  15
ENDBRANCH   3   5
BRANCH   1  18
HETATM   18  C6  UNL     1      -0.713   0.217  -0.132  1.00  0.00     0.073 A 
HETATM   19  C4  UNL     1      -1.724   1.150  -0.370  1.00  0.00    -0.041 A 
HETATM   20  C3  UNL     1      -3.025   0.773  -0.102  1.00  0.00     0.044 A 
HETATM   21  C5  UNL     1      -1.445   2.499  -0.911  1.00  0.00     0.049 C 
HETATM   22  C2  UNL     1      -3.388  -0.463   0.383  1.00  0.00     0.071 A 
HETATM   23  C11 UNL     1      -2.352  -1.338   0.597  1.00  0.00     0.074 A 
HETATM   24  C9  UNL     1      -1.015  -1.042   0.356  1.00  0.00     0.087 A 
BRANCH  22  25
HETATM   25  O1  UNL     1      -4.709  -0.802   0.640  1.00  0.00    -0.356 OA
HETATM   26  C1  UNL     1      -5.700   0.168   0.390  1.00  0.00     0.210 C 
ENDBRANCH  22  25
BRANCH  24  27
HETATM   27  O5  UNL     1      -0.041  -1.993   0.608  1.00  0.00    -0.355 OA
HETATM   28  C10 UNL     1      -0.429  -3.255   1.103  1.00  0.00     0.210 C 
ENDBRANCH  24  27
ENDBRANCH   1  18
TORSDOF 6
