REMARK  8 active torsions:
REMARK  status: ('A' for Active; 'I' for Inactive)
REMARK    1  A    between atoms: N1_2  and  C2_4 
REMARK    2  A    between atoms: C4_10  and  N4_11 
REMARK    3  A    between atoms: N6_21  and  C8_22 
REMARK    4  A    between atoms: C8_22  and  C9_23 
REMARK    5  A    between atoms: C9_23  and  N7_24 
REMARK    6  A    between atoms: N7_24  and  C10_27 
REMARK    7  A    between atoms: C10_27  and  C11_28 
REMARK    8  A    between atoms: C11_28  and  N8_29 
ROOT
HETATM    1  C2  UNL     1      -1.492  -1.208   0.056  1.00  0.00     0.688 A 
HETATM    2  N2  UNL     1      -2.805  -0.868  -0.255  1.00  0.00    -0.174 N 
ATOM      3  H2  UNL     1      -3.410  -1.569  -0.684  1.00  0.00     0.186 HD
HETATM    4  C3  UNL     1      -3.297   0.349  -0.009  1.00  0.00     0.158 A 
HETATM    5  N3  UNL     1      -4.585   0.665  -0.327  1.00  0.00    -0.175 N 
ATOM      6  H3  UNL     1      -5.186  -0.038  -0.757  1.00  0.00     0.186 HD
HETATM    7  C4  UNL     1      -5.066   1.880  -0.082  1.00  0.00     0.680 A 
HETATM    8  N5  UNL     1      -4.303   2.839   0.486  1.00  0.00    -0.155 N 
ATOM      9  H5  UNL     1      -4.700   3.762   0.662  1.00  0.00     0.187 HD
HETATM   10  C5  UNL     1      -3.006   2.586   0.827  1.00  0.00     0.279 A 
HETATM   11  O1  UNL     1      -2.313   3.502   1.357  1.00  0.00    -0.266 OA
HETATM   12  C6  UNL     1      -2.518   1.328   0.570  1.00  0.00     0.146 A 
HETATM   13  C7  UNL     1      -1.228   1.007   0.881  1.00  0.00     0.281 A 
HETATM   14  O2  UNL     1      -0.490   1.900   1.417  1.00  0.00    -0.266 OA
HETATM   15  N6  UNL     1      -0.752  -0.243   0.618  1.00  0.00    -0.145 N 
ENDROOT
BRANCH  15  16
HETATM   16  C8  UNL     1       0.623  -0.498   0.970  1.00  0.00     0.178 C 
BRANCH  16  17
HETATM   17  C9  UNL     1       1.574  -0.203  -0.156  1.00  0.00     0.253 C 
BRANCH  17  18
HETATM   18  N7  UNL     1       2.919  -0.451   0.295  1.00  0.00    -0.072 N 
ATOM     19  H72 UNL     1       3.106   0.022   1.179  1.00  0.00     0.277 HD
ATOM     20  H71 UNL     1       3.034  -1.417   0.602  1.00  0.00     0.277 HD
BRANCH  18  21
HETATM   21  C10 UNL     1       3.903  -0.097  -0.711  1.00  0.00     0.259 C 
BRANCH  21  22
HETATM   22  C11 UNL     1       5.309  -0.088  -0.086  1.00  0.00     0.257 C 
BRANCH  22  23
HETATM   23  N8  UNL     1       6.185   0.329  -1.194  1.00  0.00    -0.078 N 
ATOM     24  H83 UNL     1       6.102  -0.244  -2.034  1.00  0.00     0.274 HD
ATOM     25  H82 UNL     1       5.915   1.208  -1.635  1.00  0.00     0.274 HD
ATOM     26  H81 UNL     1       7.117   0.335  -0.780  1.00  0.00     0.274 HD
ENDBRANCH  22  23
ENDBRANCH  21  22
ENDBRANCH  18  21
ENDBRANCH  17  18
ENDBRANCH  16  17
ENDBRANCH  15  16
BRANCH   1  27
HETATM   27  N1  UNL     1      -1.165  -2.354  -0.219  1.00  0.00    -0.211 N 
HETATM   28  C1  UNL     1      -0.364  -3.421  -0.313  1.00  0.00     0.137 C 
ATOM     29  H1  UNL     1      -2.029  -2.717  -0.622  1.00  0.00     0.182 HD
ENDBRANCH   1  27
BRANCH   7  30
HETATM   30  N4  UNL     1      -6.309   2.145  -0.404  1.00  0.00    -0.234 N 
ATOM     31  H42 UNL     1      -6.885   1.421  -0.833  1.00  0.00     0.174 HD
ATOM     32  H41 UNL     1      -6.678   3.077  -0.216  1.00  0.00     0.174 HD
ENDBRANCH   7  30
TORSDOF 8
