REMARK  6 active torsions:
REMARK  status: ('A' for Active; 'I' for Inactive)
REMARK    1  A    between atoms: N1_2  and  C3_5 
REMARK    2  A    between atoms: C3_5  and  C4_6 
REMARK    3  A    between atoms: C4_6  and  N3_7 
REMARK    4  A    between atoms: N3_7  and  S1_9 
REMARK    5  A    between atoms: S1_9  and  C5_12 
REMARK    6  A    between atoms: C7_17  and  N6_18 
ROOT
HETATM    1  C1  UNL     1       3.965  -1.995   0.402  1.00  0.00     0.168 C 
HETATM    2  N1  UNL     1       4.310  -0.660  -0.035  1.00  0.00    -0.302 N 
HETATM    3  C2  UNL     1       5.662  -0.287   0.006  1.00  0.00     0.183 C 
HETATM    4  N2  UNL     1       6.725   0.149   0.148  1.00  0.00    -0.172 NA
ENDROOT
BRANCH   2   5
HETATM    5  C3  UNL     1       3.334   0.127  -0.581  1.00  0.00     0.095 C 
BRANCH   5   6
HETATM    6  C4  UNL     1       2.048   0.480   0.214  1.00  0.00     0.177 C 
BRANCH   6   7
HETATM    7  N3  UNL     1       0.938   0.010  -0.621  1.00  0.00    -0.310 N 
ATOM      8  H3  UNL     1       0.933  -0.767  -1.282  1.00  0.00     0.172 HD
BRANCH   7   9
HETATM    9  S1  UNL     1      -0.366   1.085  -0.223  1.00  0.00     0.266 S 
HETATM   10  O1  UNL     1      -0.295   2.211  -1.293  1.00  0.00    -0.200 OA
HETATM   11  O2  UNL     1      -0.124   1.710   1.135  1.00  0.00    -0.200 OA
BRANCH   9  12
HETATM   12  C5  UNL     1      -1.991   0.475  -0.148  1.00  0.00     0.164 C 
HETATM   13  C6  UNL     1      -2.990   1.284  -0.150  1.00  0.00     0.159 C 
HETATM   14  N4  UNL     1      -2.679   2.738  -0.138  1.00  0.00    -0.080 NA
HETATM   15  N5  UNL     1      -4.216   0.945   0.009  1.00  0.00    -0.177 N 
HETATM   16  C7  UNL     1      -4.497  -0.389   0.215  1.00  0.00     0.678 C 
ATOM     17  H5  UNL     1      -4.961   1.641  -0.016  1.00  0.00     0.185 HD
HETATM   18  N7  UNL     1      -3.437  -1.216   0.381  1.00  0.00    -0.176 N 
HETATM   19  C8  UNL     1      -2.128  -0.821   0.183  1.00  0.00     0.141 C 
ATOM     20  H7  UNL     1      -3.614  -2.179   0.667  1.00  0.00     0.186 HD
HETATM   21  N8  UNL     1      -1.160  -1.659   0.304  1.00  0.00    -0.384 N 
ATOM     22  H82 UNL     1      -0.194  -1.367   0.158  1.00  0.00     0.157 HD
ATOM     23  H81 UNL     1      -1.264  -2.642   0.555  1.00  0.00     0.157 HD
BRANCH  16  24
HETATM   24  N6  UNL     1      -5.723  -0.754   0.106  1.00  0.00    -0.234 N 
ATOM     25  H62 UNL     1      -6.521  -0.131  -0.019  1.00  0.00     0.174 HD
ATOM     26  H61 UNL     1      -5.931  -1.741   0.258  1.00  0.00     0.174 HD
ENDBRANCH  16  24
ENDBRANCH   9  12
ENDBRANCH   7   9
ENDBRANCH   6   7
ENDBRANCH   5   6
ENDBRANCH   2   5
TORSDOF 6
