REMARK  9 active torsions:
REMARK  status: ('A' for Active; 'I' for Inactive)
REMARK    1  A    between atoms: N1_1  and  C1_4 
REMARK    2  A    between atoms: C2_7  and  N3_8 
REMARK    3  A    between atoms: N3_8  and  N4_10 
REMARK    4  A    between atoms: N6_18  and  C6_19 
REMARK    5  A    between atoms: C6_19  and  O2_20 
REMARK    6  A    between atoms: O2_20  and  C7_21 
REMARK    7  A    between atoms: C7_21  and  C8_22 
REMARK    8  A    between atoms: C8_22  and  C9_23 
REMARK    9  A    between atoms: C9_23  and  O3_24 
ROOT
HETATM    1  C1  UNL     1      -2.483  -1.871   0.045  1.00  0.00     0.705 A 
HETATM    2  N2  UNL     1      -3.529  -1.096  -0.288  1.00  0.00    -0.020 N 
ATOM      3  H2  UNL     1      -4.440  -1.522  -0.460  1.00  0.00     0.203 HD
HETATM    4  C2  UNL     1      -3.387   0.222  -0.395  1.00  0.00     0.735 A 
HETATM    5  N5  UNL     1      -2.189   0.801  -0.172  1.00  0.00     0.062 N 
HETATM    6  C3  UNL     1      -2.117   2.143  -0.301  1.00  0.00     0.285 A 
HETATM    7  O1  UNL     1      -3.119   2.828  -0.614  1.00  0.00    -0.266 OA
HETATM    8  C4  UNL     1      -0.909   2.733  -0.078  1.00  0.00     0.094 A 
HETATM    9  C5  UNL     1       0.162   1.941   0.263  1.00  0.00     0.117 A 
HETATM   10  N6  UNL     1       0.094   0.596   0.394  1.00  0.00    -0.170 N 
HETATM   11  C10 UNL     1      -1.114   0.049   0.166  1.00  0.00     0.725 A 
HETATM   12  N7  UNL     1      -1.295  -1.273   0.265  1.00  0.00    -0.021 N 
ATOM     13  H7  UNL     1      -0.497  -1.855   0.519  1.00  0.00     0.203 HD
ENDROOT
BRANCH  10  14
HETATM   14  C6  UNL     1       1.257  -0.186   0.762  1.00  0.00     0.316 C 
BRANCH  14  15
HETATM   15  O2  UNL     1       1.961  -0.617  -0.344  1.00  0.00    -0.371 OA
BRANCH  15  16
HETATM   16  C7  UNL     1       3.069  -1.360  -0.060  1.00  0.00     0.172 C 
BRANCH  16  17
HETATM   17  C8  UNL     1       4.099  -0.634   0.767  1.00  0.00     0.052 C 
BRANCH  17  18
HETATM   18  C9  UNL     1       4.577   0.614   0.015  1.00  0.00     0.166 C 
BRANCH  18  19
HETATM   19  O3  UNL     1       5.144   0.249  -1.202  1.00  0.00    -0.401 OA
ATOM     20  H3  UNL     1       5.440   1.022  -1.668  1.00  0.00     0.209 HD
ENDBRANCH  18  19
ENDBRANCH  17  18
ENDBRANCH  16  17
ENDBRANCH  15  16
ENDBRANCH  14  15
ENDBRANCH  10  14
BRANCH   4  21
HETATM   21  N3  UNL     1      -4.401   0.966  -0.717  1.00  0.00    -0.137 N 
ATOM     22  H3  UNL     1      -4.289   1.977  -0.799  1.00  0.00     0.205 HD
BRANCH  21  23
HETATM   23  N4  UNL     1      -5.646   0.376  -0.951  1.00  0.00    -0.331 N 
ATOM     24  H42 UNL     1      -5.741  -0.636  -0.865  1.00  0.00     0.177 HD
ATOM     25  H41 UNL     1      -6.443   0.961  -1.204  1.00  0.00     0.177 HD
ENDBRANCH  21  23
ENDBRANCH   4  21
BRANCH   1  26
HETATM   26  N1  UNL     1      -2.599  -3.173   0.157  1.00  0.00    -0.234 N 
ATOM     27  H12 UNL     1      -3.498  -3.625  -0.009  1.00  0.00     0.174 HD
ATOM     28  H11 UNL     1      -1.805  -3.761   0.410  1.00  0.00     0.174 HD
ENDBRANCH   1  26
TORSDOF 9
