REMARK  6 active torsions:
REMARK  status: ('A' for Active; 'I' for Inactive)
REMARK    1  A    between atoms: C1_2  and  N1_3 
REMARK    2  A    between atoms: N1_3  and  N2_5 
REMARK    3  A    between atoms: C4_17  and  C5_18 
REMARK    4  A    between atoms: C5_18  and  N7_19 
REMARK    5  A    between atoms: N7_19  and  C6_22 
REMARK    6  A    between atoms: C6_22  and  C7_23 
ROOT
HETATM    1  N2  UNL     1      -2.460  -0.712   1.436  1.00  0.00    -0.284 N 
ATOM      2  H2  UNL     1      -1.555  -0.728   1.906  1.00  0.00     0.188 HD
HETATM    3  C2  UNL     1      -2.501  -0.661   0.152  1.00  0.00     0.134 C 
HETATM    4  N3  UNL     1      -3.805  -0.643  -0.439  1.00  0.00    -0.270 N 
ATOM      5  H3  UNL     1      -4.572  -0.739   0.226  1.00  0.00     0.185 HD
HETATM    6  N4  UNL     1      -4.208  -0.516  -1.775  1.00  0.00    -0.017 NA
HETATM    7  N5  UNL     1      -3.559   0.521  -2.414  1.00  0.00    -0.235 N 
ATOM      8  H5  UNL     1      -4.107   0.994  -3.133  1.00  0.00     0.189 HD
HETATM    9  C3  UNL     1      -2.252   1.031  -2.228  1.00  0.00     0.333 C 
HETATM   10  O2  UNL     1      -1.953   2.006  -2.954  1.00  0.00    -0.246 OA
HETATM   11  N6  UNL     1      -1.211   0.621  -1.349  1.00  0.00    -0.329 N 
ATOM     12  H6  UNL     1      -0.405   1.237  -1.247  1.00  0.00     0.165 HD
HETATM   13  C4  UNL     1      -1.218  -0.628  -0.579  1.00  0.00     0.182 C 
ENDROOT
BRANCH  13  14
HETATM   14  C5  UNL     1      -0.108  -0.560   0.421  1.00  0.00     0.265 C 
BRANCH  14  15
HETATM   15  N7  UNL     1       1.207  -0.523  -0.196  1.00  0.00    -0.069 N 
ATOM     16  H72 UNL     1       1.376  -1.296  -0.839  1.00  0.00     0.277 HD
ATOM     17  H71 UNL     1       1.316   0.230  -0.876  1.00  0.00     0.277 HD
BRANCH  15  18
HETATM   18  C6  UNL     1       2.167  -0.459   0.904  1.00  0.00     0.272 C 
BRANCH  18  19
HETATM   19  C7  UNL     1       3.557  -0.415   0.444  1.00  0.00    -0.017 A 
HETATM   20  C8  UNL     1       4.251   0.747   0.174  1.00  0.00     0.011 A 
HETATM   21  C9  UNL     1       5.576   0.717  -0.261  1.00  0.00     0.018 A 
HETATM   22  C10 UNL     1       6.225  -0.488  -0.432  1.00  0.00     0.087 A 
HETATM   23  N8  UNL     1       5.532  -1.609  -0.164  1.00  0.00    -0.375 N 
HETATM   24  C11 UNL     1       4.250  -1.599   0.258  1.00  0.00     0.096 A 
ATOM     25  H8  UNL     1       5.997  -2.509  -0.285  1.00  0.00     0.164 HD
ENDBRANCH  18  19
ENDBRANCH  15  18
ENDBRANCH  14  15
ENDBRANCH  13  14
BRANCH   1  26
HETATM   26  N1  UNL     1      -3.615  -0.746   2.192  1.00  0.00    -0.276 N 
ATOM     27  H1  UNL     1      -4.025  -1.647   2.437  1.00  0.00     0.189 HD
BRANCH  26  28
HETATM   28  C1  UNL     1      -4.247   0.453   2.637  1.00  0.00     0.368 C 
HETATM   29  O1  UNL     1      -3.722   1.568   2.324  1.00  0.00    -0.282 OA
ENDBRANCH  26  28
ENDBRANCH   1  26
TORSDOF 6
