REMARK  7 active torsions:
REMARK  status: ('A' for Active; 'I' for Inactive)
REMARK    1  A    between atoms: N1_2  and  C2_3 
REMARK    2  A    between atoms: N1_2  and  C12_24 
REMARK    3  A    between atoms: C2_3  and  C3_4 
REMARK    4  A    between atoms: C3_4  and  N2_5 
REMARK    5  A    between atoms: C3_4  and  C4_9 
REMARK       I    between atoms: C4_9  and  N3_11 
REMARK    6  A    between atoms: C12_24  and  C13_28 
REMARK    7  A    between atoms: C13_28  and  N7_29 
ROOT
HETATM    1  C3  UNL     1       1.572   0.595   0.240  1.00  0.00     0.292 C 
ENDROOT
BRANCH   1   2
HETATM    2  C2  UNL     1       2.554  -0.116  -0.712  1.00  0.00     0.166 C 
BRANCH   2   3
HETATM    3  N1  UNL     1       3.816   0.533  -0.750  1.00  0.00    -0.372 N 
HETATM    4  C1  UNL     1       3.978   1.830  -1.348  1.00  0.00     0.150 C 
BRANCH   3   5
HETATM    5  C12 UNL     1       4.956  -0.097  -0.186  1.00  0.00     0.098 C 
HETATM    6  N6  UNL     1       6.046  -0.195  -0.856  1.00  0.00    -0.388 N 
ATOM      7  H62 UNL     1       6.069   0.192  -1.799  1.00  0.00     0.157 HD
ATOM      8  H61 UNL     1       6.865  -0.648  -0.451  1.00  0.00     0.157 HD
BRANCH   5   9
HETATM    9  C13 UNL     1       4.923  -0.663   1.193  1.00  0.00     0.304 C 
BRANCH   9  10
HETATM   10  N7  UNL     1       6.200  -1.223   1.548  1.00  0.00    -0.073 N 
ATOM     11  H73 UNL     1       6.512  -1.913   0.865  1.00  0.00     0.274 HD
ATOM     12  H72 UNL     1       6.953  -0.544   1.437  1.00  0.00     0.274 HD
ATOM     13  H71 UNL     1       6.177  -1.610   2.491  1.00  0.00     0.274 HD
ENDBRANCH   9  10
ENDBRANCH   5   9
ENDBRANCH   3   5
ENDBRANCH   2   3
ENDBRANCH   1   2
BRANCH   1  14
HETATM   14  N2  UNL     1       1.308   1.928  -0.128  1.00  0.00    -0.065 N 
ATOM     15  H23 UNL     1       2.175   2.458  -0.217  1.00  0.00     0.275 HD
ATOM     16  H22 UNL     1       0.980   1.980  -1.092  1.00  0.00     0.275 HD
ATOM     17  H21 UNL     1       0.658   2.398   0.502  1.00  0.00     0.275 HD
ENDBRANCH   1  14
BRANCH   1  18
HETATM   18  C4  UNL     1       0.445  -0.328   0.394  1.00  0.00     0.252 C 
HETATM   19  O1  UNL     1       0.818  -1.533   0.705  1.00  0.00    -0.271 OA
HETATM   20  N3  UNL     1      -0.941  -0.107   0.260  1.00  0.00    -0.349 N 
HETATM   21  C5  UNL     1      -1.810  -1.252   0.487  1.00  0.00     0.127 C 
HETATM   22  C11 UNL     1      -1.391   1.192  -0.080  1.00  0.00     0.153 C 
HETATM   23  C6  UNL     1      -2.323  -1.874  -0.789  1.00  0.00     0.039 C 
HETATM   24  C7  UNL     1      -3.772  -2.328  -0.633  1.00  0.00     0.115 C 
HETATM   25  N4  UNL     1      -4.624  -1.205  -0.858  1.00  0.00    -0.420 N 
HETATM   26  C8  UNL     1      -5.261  -0.670   0.312  1.00  0.00     0.141 C 
ATOM     27  H4  UNL     1      -4.770  -0.810  -1.787  1.00  0.00     0.153 HD
HETATM   28  C9  UNL     1      -5.056   0.822   0.464  1.00  0.00     0.251 C 
HETATM   29  N5  UNL     1      -3.704   1.180   0.829  1.00  0.00    -0.072 N 
HETATM   30  C10 UNL     1      -2.865   1.384  -0.300  1.00  0.00     0.252 C 
ATOM     31  H52 UNL     1      -3.695   1.994   1.443  1.00  0.00     0.277 HD
ATOM     32  H51 UNL     1      -3.302   0.490   1.463  1.00  0.00     0.277 HD
ENDBRANCH   1  18
TORSDOF 7
