REMARK  5 active torsions:
REMARK  status: ('A' for Active; 'I' for Inactive)
REMARK    1  A    between atoms: C2_3  and  N2_4 
REMARK    2  A    between atoms: N5_12  and  C5_14 
REMARK    3  A    between atoms: C5_14  and  C6_15 
REMARK    4  A    between atoms: C6_15  and  C7_16 
REMARK    5  A    between atoms: C7_16  and  N6_17 
REMARK       I    between atoms: N6_17  and  C8_19 
REMARK       I    between atoms: N9_25  and  C10_27 
ROOT
HETATM    1  N1  UNL     1      -5.797  -0.721   1.741  1.00  0.00    -0.196 NA
HETATM    2  C1  UNL     1      -5.245  -0.332   0.795  1.00  0.00     0.079 C 
HETATM    3  C2  UNL     1      -4.524   0.163  -0.390  1.00  0.00     0.259 C 
ENDROOT
BRANCH   3   4
HETATM    4  N2  UNL     1      -3.376   0.888   0.083  1.00  0.00    -0.268 N 
HETATM    5  C3  UNL     1      -3.443   2.186   0.332  1.00  0.00     0.343 A 
HETATM    6  O1  UNL     1      -4.534   2.804   0.153  1.00  0.00    -0.245 OA
HETATM    7  N3  UNL     1      -2.402   2.907   0.773  1.00  0.00    -0.249 N 
HETATM    8  N4  UNL     1      -1.254   2.245   0.959  1.00  0.00    -0.279 N 
ATOM      9  H3  UNL     1      -2.481   3.907   0.957  1.00  0.00     0.192 HD
HETATM   10  C4  UNL     1      -1.127   0.932   0.724  1.00  0.00     0.161 A 
ATOM     11  H4  UNL     1      -0.441   2.762   1.294  1.00  0.00     0.189 HD
HETATM   12  N5  UNL     1      -0.011   0.339   0.940  1.00  0.00    -0.372 N 
HETATM   13  C9  UNL     1      -2.219   0.180   0.262  1.00  0.00     0.161 A 
ATOM     14  H5  UNL     1       0.036  -0.661   0.744  1.00  0.00     0.161 HD
HETATM   15  N9  UNL     1      -2.192  -1.041   0.024  1.00  0.00    -0.314 N 
HETATM   16  C10 UNL     1      -1.214  -1.999   0.101  1.00  0.00     0.187 C 
ATOM     17  H9  UNL     1      -3.088  -1.407  -0.297  1.00  0.00     0.170 HD
HETATM   18  N10 UNL     1      -0.835  -2.569   1.224  1.00  0.00    -0.373 N 
HETATM   19  N11 UNL     1      -0.528  -2.489  -1.095  1.00  0.00    -0.064 NA
ATOM     20 2H10 UNL     1      -1.313  -2.227   2.058  1.00  0.00     0.158 HD
ATOM     21 1H10 UNL     1      -0.107  -3.282   1.281  1.00  0.00     0.158 HD
BRANCH  12  22
HETATM   22  C5  UNL     1       1.155   0.961   1.427  1.00  0.00     0.123 C 
BRANCH  22  23
HETATM   23  C6  UNL     1       2.393   0.720   0.551  1.00  0.00     0.039 C 
BRANCH  23  24
HETATM   24  C7  UNL     1       2.742  -0.745   0.492  1.00  0.00     0.123 C 
BRANCH  24  25
HETATM   25  N6  UNL     1       3.908  -0.972  -0.336  1.00  0.00    -0.365 N 
HETATM   26  C8  UNL     1       3.886  -0.776  -1.733  1.00  0.00     0.181 C 
HETATM   27  N7  UNL     1       3.483  -1.714  -2.499  1.00  0.00    -0.374 N 
HETATM   28  N8  UNL     1       4.302   0.447  -2.324  1.00  0.00    -0.064 NA
ATOM     29  H72 UNL     1       3.184  -2.592  -2.075  1.00  0.00     0.158 HD
ATOM     30  H71 UNL     1       3.467  -1.572  -3.509  1.00  0.00     0.158 HD
ATOM     31  H6  UNL     1       4.773  -1.284   0.105  1.00  0.00     0.162 HD
ENDBRANCH  24  25
ENDBRANCH  23  24
ENDBRANCH  22  23
ENDBRANCH  12  22
ENDBRANCH   3   4
TORSDOF 5
