REMARK  6 active torsions:
REMARK  status: ('A' for Active; 'I' for Inactive)
REMARK    1  A    between atoms: C5_14  and  N4_15 
REMARK    2  A    between atoms: C6_17  and  C7_18 
REMARK    3  A    between atoms: C7_18  and  O4_19 
REMARK    4  A    between atoms: O4_19  and  C8_20 
REMARK    5  A    between atoms: C8_20  and  C9_21 
REMARK    6  A    between atoms: C9_21  and  O5_22 
ROOT
HETATM    1  O1  UNL     1       3.204   3.397   0.025  1.00  0.00    -0.247 OA
HETATM    2  C1  UNL     1       3.325   2.154   0.176  1.00  0.00     0.327 A 
HETATM    3  N1  UNL     1       4.539   1.671   0.431  1.00  0.00    -0.275 N 
ATOM      4  H1  UNL     1       5.343   2.294   0.500  1.00  0.00     0.173 HD
HETATM    5  C2  UNL     1       4.682   0.348   0.595  1.00  0.00     0.267 A 
HETATM    6  O2  UNL     1       5.804  -0.188   0.840  1.00  0.00    -0.267 OA
HETATM    7  C3  UNL     1       3.589  -0.487   0.500  1.00  0.00     0.132 A 
HETATM    8  C4  UNL     1       3.743  -1.850   0.670  1.00  0.00     0.278 A 
HETATM    9  O3  UNL     1       4.879  -2.318   0.910  1.00  0.00    -0.266 OA
HETATM   10  N2  UNL     1       2.647  -2.616   0.566  1.00  0.00    -0.264 N 
ATOM     11  H2  UNL     1       2.745  -3.624   0.688  1.00  0.00     0.190 HD
HETATM   12  N3  UNL     1       1.469  -2.134   0.318  1.00  0.00    -0.281 N 
ATOM     13  H3  UNL     1       0.682  -2.780   0.255  1.00  0.00     0.188 HD
HETATM   14  C5  UNL     1       1.233  -0.797   0.137  1.00  0.00     0.148 A 
HETATM   15  C10 UNL     1       2.319   0.035   0.231  1.00  0.00     0.103 A 
HETATM   16  N5  UNL     1       2.234   1.357   0.077  1.00  0.00    -0.304 N 
ATOM     17  H5  UNL     1       1.326   1.778  -0.120  1.00  0.00     0.171 HD
ENDROOT
BRANCH  14  18
HETATM   18  N4  UNL     1       0.101  -0.445  -0.090  1.00  0.00    -0.351 N 
HETATM   19  C6  UNL     1      -0.845   0.497  -0.348  1.00  0.00     0.088 C 
ATOM     20  H4  UNL     1      -0.426  -1.318  -0.086  1.00  0.00     0.166 HD
BRANCH  19  21
HETATM   21  C7  UNL     1      -2.266  -0.054  -0.576  1.00  0.00     0.212 C 
BRANCH  21  22
HETATM   22  O4  UNL     1      -3.053   1.034  -0.816  1.00  0.00    -0.384 OA
BRANCH  22  23
HETATM   23  C8  UNL     1      -4.376   0.812  -1.077  1.00  0.00     0.194 C 
BRANCH  23  24
HETATM   24  C9  UNL     1      -5.024   0.119   0.094  1.00  0.00     0.190 C 
BRANCH  24  25
HETATM   25  O5  UNL     1      -6.384  -0.119  -0.137  1.00  0.00    -0.399 OA
ATOM     26  H5  UNL     1      -6.792  -0.556   0.601  1.00  0.00     0.209 HD
ENDBRANCH  24  25
ENDBRANCH  23  24
ENDBRANCH  22  23
ENDBRANCH  21  22
ENDBRANCH  19  21
ENDBRANCH  14  18
TORSDOF 6
