REMARK  6 active torsions:
REMARK  status: ('A' for Active; 'I' for Inactive)
REMARK    1  A    between atoms: C6_16  and  N4_17 
REMARK    2  A    between atoms: N4_17  and  C7_19 
REMARK    3  A    between atoms: C7_19  and  C8_20 
REMARK    4  A    between atoms: C8_20  and  C9_21 
REMARK    5  A    between atoms: C9_21  and  C10_22 
REMARK    6  A    between atoms: C10_22  and  N5_23 
ROOT
HETATM    1  N1  UNL     1      -4.528  -1.759   0.742  1.00  0.00    -0.383 N 
ATOM      2  H11 UNL     1      -3.800  -2.473   0.745  1.00  0.00     0.157 HD
ATOM      3  H12 UNL     1      -5.509  -1.897   0.985  1.00  0.00     0.157 HD
HETATM    4  C1  UNL     1      -4.175  -0.609   0.404  1.00  0.00     0.132 C 
HETATM    5  N2  UNL     1      -5.150   0.348   0.400  1.00  0.00    -0.293 N 
ATOM      6  H2  UNL     1      -5.945   0.210   1.024  1.00  0.00     0.172 HD
HETATM    7  C2  UNL     1      -5.146   1.459  -0.361  1.00  0.00     0.328 C 
HETATM    8  O1  UNL     1      -6.118   2.246  -0.175  1.00  0.00    -0.247 OA
HETATM    9  N3  UNL     1      -4.297   1.904  -1.297  1.00  0.00    -0.275 N 
ATOM     10  H3  UNL     1      -4.639   2.650  -1.902  1.00  0.00     0.173 HD
HETATM   11  C3  UNL     1      -3.036   1.472  -1.527  1.00  0.00     0.266 C 
HETATM   12  O2  UNL     1      -2.384   1.950  -2.484  1.00  0.00    -0.267 OA
HETATM   13  C4  UNL     1      -2.320   0.510  -0.802  1.00  0.00     0.118 A 
HETATM   14  C5  UNL     1      -0.963   0.532  -1.001  1.00  0.00     0.234 A 
HETATM   15  O3  UNL     1      -0.504   1.392  -1.807  1.00  0.00    -0.283 OA
HETATM   16  C6  UNL     1      -0.137  -0.360  -0.337  1.00  0.00     0.168 A 
HETATM   17  N6  UNL     1      -0.702  -1.243   0.504  1.00  0.00    -0.282 N 
ATOM     18  H6  UNL     1      -0.114  -1.909   1.005  1.00  0.00     0.188 HD
HETATM   19  N7  UNL     1      -2.014  -1.258   0.690  1.00  0.00    -0.294 N 
ATOM     20  H7  UNL     1      -2.407  -1.943   1.336  1.00  0.00     0.187 HD
HETATM   21  C11 UNL     1      -2.840  -0.421   0.073  1.00  0.00     0.111 A 
ENDROOT
BRANCH  16  22
HETATM   22  N4  UNL     1       1.144  -0.315  -0.544  1.00  0.00    -0.372 N 
ATOM     23  H4  UNL     1       1.554   0.364  -1.186  1.00  0.00     0.161 HD
BRANCH  22  24
HETATM   24  C7  UNL     1       1.966  -1.265   0.171  1.00  0.00     0.121 C 
BRANCH  24  25
HETATM   25  C8  UNL     1       3.412  -0.900  -0.116  1.00  0.00     0.021 C 
BRANCH  25  26
HETATM   26  C9  UNL     1       3.594   0.530   0.397  1.00  0.00     0.029 C 
BRANCH  26  27
HETATM   27  C10 UNL     1       5.040   0.909   0.115  1.00  0.00     0.229 C 
BRANCH  27  28
HETATM   28  N5  UNL     1       5.874  -0.032   0.828  1.00  0.00    -0.079 N 
ATOM     29  H53 UNL     1       5.660  -0.081   1.824  1.00  0.00     0.274 HD
ATOM     30  H52 UNL     1       5.664  -1.004   0.601  1.00  0.00     0.274 HD
ATOM     31  H51 UNL     1       6.844   0.222   0.639  1.00  0.00     0.274 HD
ENDBRANCH  27  28
ENDBRANCH  26  27
ENDBRANCH  25  26
ENDBRANCH  24  25
ENDBRANCH  22  24
ENDBRANCH  16  22
TORSDOF 6
