REMARK  9 active torsions:
REMARK  status: ('A' for Active; 'I' for Inactive)
REMARK    1  A    between atoms: N1_1  and  C1_4 
REMARK    2  A    between atoms: C2_7  and  N3_8 
REMARK    3  A    between atoms: C3_13  and  N5_14 
REMARK    4  A    between atoms: N5_14  and  C4_16 
REMARK    5  A    between atoms: C4_16  and  C5_17 
REMARK    6  A    between atoms: C5_17  and  O1_18 
REMARK    7  A    between atoms: C5_17  and  C6_20 
REMARK    8  A    between atoms: C6_20  and  N6_21 
REMARK    9  A    between atoms: N7_23  and  N8_25 
ROOT
HETATM    1  N5  UNL     1       2.176  -0.116   0.442  1.00  0.00    -0.223 N 
ATOM      2  H5  UNL     1       1.471   0.477   0.879  1.00  0.00     0.177 HD
ENDROOT
BRANCH   1   3
HETATM    3  C3  UNL     1       3.385   0.279   0.405  1.00  0.00     0.707 A 
HETATM    4  N4  UNL     1       4.306  -0.512  -0.174  1.00  0.00    -0.022 N 
HETATM    5  C2  UNL     1       5.578  -0.125  -0.228  1.00  0.00     0.705 A 
ATOM      6  H4  UNL     1       4.029  -1.409  -0.572  1.00  0.00     0.203 HD
HETATM    7  N2  UNL     1       5.962   1.066   0.298  1.00  0.00    -0.022 N 
HETATM    8  C1  UNL     1       5.068   1.879   0.883  1.00  0.00     0.705 A 
ATOM      9  H2  UNL     1       6.941   1.347   0.248  1.00  0.00     0.203 HD
HETATM   10  N9  UNL     1       3.789   1.461   0.922  1.00  0.00    -0.022 N 
ATOM     11  H9  UNL     1       3.093   2.063   1.362  1.00  0.00     0.203 HD
BRANCH   5  12
HETATM   12  N3  UNL     1       6.441  -0.911  -0.793  1.00  0.00    -0.234 N 
ATOM     13  H32 UNL     1       7.416  -0.614  -0.834  1.00  0.00     0.174 HD
ATOM     14  H31 UNL     1       6.152  -1.806  -1.188  1.00  0.00     0.174 HD
ENDBRANCH   5  12
BRANCH   8  15
HETATM   15  N1  UNL     1       5.416   3.019   1.390  1.00  0.00    -0.234 N 
ATOM     16  H12 UNL     1       6.385   3.336   1.360  1.00  0.00     0.174 HD
ATOM     17  H11 UNL     1       4.737   3.637   1.834  1.00  0.00     0.174 HD
ENDBRANCH   8  15
ENDBRANCH   1   3
BRANCH   1  18
HETATM   18  C4  UNL     1       1.779  -1.389  -0.123  1.00  0.00     0.171 C 
BRANCH  18  19
HETATM   19  C5  UNL     1       0.280  -1.531   0.177  1.00  0.00     0.155 C 
BRANCH  19  20
HETATM   20  O1  UNL     1       0.192  -1.492   1.587  1.00  0.00    -0.392 OA
ATOM     21  H1  UNL     1      -0.736  -1.580   1.773  1.00  0.00     0.210 HD
ENDBRANCH  19  20
BRANCH  19  22
HETATM   22  C6  UNL     1      -0.367  -0.284  -0.413  1.00  0.00     0.174 C 
BRANCH  22  23
HETATM   23  N6  UNL     1      -1.751  -0.211  -0.037  1.00  0.00    -0.320 N 
HETATM   24  N7  UNL     1      -2.590   0.243  -0.854  1.00  0.00    -0.249 N 
ATOM     25  H7  UNL     1      -2.286   0.556  -1.776  1.00  0.00     0.207 HD
ATOM     26  H6  UNL     1      -2.050  -0.525   0.886  1.00  0.00     0.181 HD
BRANCH  24  27
HETATM   27  N8  UNL     1      -3.929   0.319  -0.502  1.00  0.00    -0.314 N 
HETATM   28  C7  UNL     1      -4.601   1.440   0.102  1.00  0.00     0.144 C 
HETATM   29  C8  UNL     1      -5.493   0.732   1.127  1.00  0.00     0.023 C 
HETATM   30  C9  UNL     1      -5.814  -0.611   0.544  1.00  0.00     0.023 C 
HETATM   31  C10 UNL     1      -4.903  -0.725  -0.680  1.00  0.00     0.144 C 
ENDBRANCH  24  27
ENDBRANCH  22  23
ENDBRANCH  19  22
ENDBRANCH  18  19
ENDBRANCH   1  18
TORSDOF 9
