REMARK  8 active torsions:
REMARK  status: ('A' for Active; 'I' for Inactive)
REMARK    1  A    between atoms: C2_5  and  N2_6 
REMARK    2  A    between atoms: N2_6  and  C3_8 
REMARK    3  A    between atoms: C3_8  and  C4_9 
REMARK    4  A    between atoms: C4_9  and  C5_10 
REMARK    5  A    between atoms: C5_10  and  N3_11 
REMARK    6  A    between atoms: N3_11  and  C6_13 
REMARK    7  A    between atoms: C6_13  and  N4_15 
REMARK    8  A    between atoms: N4_15  and  O2_17 
ROOT
HETATM    1  O1  UNL     1       5.626  -0.131  -1.398  1.00  0.00    -0.246 OA
HETATM    2  C1  UNL     1       4.575   0.203  -0.791  1.00  0.00     0.341 C 
HETATM    3  N1  UNL     1       3.487  -0.584  -0.888  1.00  0.00    -0.141 N 
ATOM      4  H1  UNL     1       3.525  -1.280  -1.633  1.00  0.00     0.189 HD
HETATM    5  C2  UNL     1       2.346  -0.598  -0.150  1.00  0.00     0.685 C 
HETATM    6  N5  UNL     1       2.040   0.112   0.956  1.00  0.00    -0.151 N 
ATOM      7  H5  UNL     1       1.273  -0.223   1.539  1.00  0.00     0.188 HD
HETATM    8  C7  UNL     1       2.679   1.232   1.341  1.00  0.00     0.328 C 
HETATM    9  O3  UNL     1       2.141   1.799   2.321  1.00  0.00    -0.261 OA
HETATM   10  C8  UNL     1       3.828   1.829   0.811  1.00  0.00     0.318 C 
HETATM   11  O4  UNL     1       4.102   2.973   1.234  1.00  0.00    -0.262 OA
HETATM   12  N6  UNL     1       4.696   1.349  -0.101  1.00  0.00    -0.270 N 
ATOM     13  H6  UNL     1       5.527   1.911  -0.286  1.00  0.00     0.174 HD
ENDROOT
BRANCH   5  14
HETATM   14  N2  UNL     1       1.475  -1.401  -0.594  1.00  0.00    -0.226 N 
ATOM     15  H2  UNL     1       1.741  -1.921  -1.431  1.00  0.00     0.177 HD
BRANCH  14  16
HETATM   16  C3  UNL     1       0.185  -1.676  -0.089  1.00  0.00     0.139 C 
BRANCH  16  17
HETATM   17  C4  UNL     1      -0.842  -0.595  -0.416  1.00  0.00     0.040 C 
BRANCH  17  18
HETATM   18  C5  UNL     1      -2.154  -1.037   0.189  1.00  0.00     0.123 C 
BRANCH  18  19
HETATM   19  N3  UNL     1      -3.188  -0.086  -0.063  1.00  0.00    -0.366 N 
ATOM     20  H3  UNL     1      -2.984   0.761  -0.594  1.00  0.00     0.161 HD
BRANCH  19  21
HETATM   21  C6  UNL     1      -4.496  -0.318   0.423  1.00  0.00     0.191 C 
HETATM   22  S1  UNL     1      -4.821  -1.664   1.267  1.00  0.00    -0.039 SA
BRANCH  21  23
HETATM   23  N4  UNL     1      -5.562   0.593   0.202  1.00  0.00    -0.244 N 
ATOM     24  H4  UNL     1      -6.498   0.406   0.561  1.00  0.00     0.196 HD
BRANCH  23  25
HETATM   25  O2  UNL     1      -5.295   1.712  -0.498  1.00  0.00    -0.288 OA
ATOM     26  H2  UNL     1      -6.008   2.322  -0.646  1.00  0.00     0.244 HD
ENDBRANCH  23  25
ENDBRANCH  21  23
ENDBRANCH  19  21
ENDBRANCH  18  19
ENDBRANCH  17  18
ENDBRANCH  16  17
ENDBRANCH  14  16
ENDBRANCH   5  14
TORSDOF 8
