REMARK  6 active torsions:
REMARK  status: ('A' for Active; 'I' for Inactive)
REMARK    1  A    between atoms: N1_1  and  C1_5 
REMARK    2  A    between atoms: C1_5  and  C2_6 
REMARK    3  A    between atoms: C2_6  and  C3_7 
REMARK    4  A    between atoms: C3_7  and  C4_8 
REMARK    5  A    between atoms: C6_13  and  C7_14 
REMARK    6  A    between atoms: C10_24  and  N5_25 
ROOT
HETATM    1  C4  UNL     1       0.541  -0.075   0.150  1.00  0.00     0.158 C 
HETATM    2  N2  UNL     1       0.226  -1.393   0.673  1.00  0.00    -0.347 N 
ATOM      3  H2  UNL     1       0.995  -2.042   0.839  1.00  0.00     0.163 HD
HETATM    4  C5  UNL     1      -1.081  -1.825   0.964  1.00  0.00     0.247 C 
HETATM    5  O1  UNL     1      -1.280  -2.576   1.954  1.00  0.00    -0.271 OA
HETATM    6  C6  UNL     1      -2.289  -1.450   0.161  1.00  0.00     0.238 C 
HETATM    7  N3  UNL     1      -3.077  -0.444   0.842  1.00  0.00    -0.341 N 
ATOM      8  H3  UNL     1      -3.421  -0.651   1.780  1.00  0.00     0.163 HD
HETATM    9  C8  UNL     1      -3.395   0.820   0.267  1.00  0.00     0.244 C 
HETATM   10  O3  UNL     1      -4.164   1.559   0.969  1.00  0.00    -0.272 OA
HETATM   11  C9  UNL     1      -2.881   1.259  -1.047  1.00  0.00     0.337 C 
HETATM   12  N4  UNL     1      -1.461   1.522  -1.025  1.00  0.00    -0.031 N 
ATOM     13  H41 UNL     1      -1.196   2.147  -1.786  1.00  0.00     0.280 HD
ATOM     14  H42 UNL     1      -0.934   0.692  -1.297  1.00  0.00     0.280 HD
HETATM   15  C10 UNL     1      -0.998   2.030   0.238  1.00  0.00     0.451 C 
HETATM   16  C11 UNL     1      -0.180   0.997   0.892  1.00  0.00     0.206 C 
HETATM   17  O4  UNL     1      -0.067   0.992   2.109  1.00  0.00    -0.291 OA
ENDROOT
BRANCH   1  18
HETATM   18  C3  UNL     1       2.018   0.232   0.274  1.00  0.00     0.034 C 
BRANCH  18  19
HETATM   19  C2  UNL     1       2.896  -0.730  -0.464  1.00  0.00     0.029 C 
BRANCH  19  20
HETATM   20  C1  UNL     1       4.338  -0.261  -0.226  1.00  0.00     0.230 C 
BRANCH  20  21
HETATM   21  N1  UNL     1       5.196  -1.193  -0.941  1.00  0.00    -0.079 N 
ATOM     22  H13 UNL     1       5.039  -2.167  -0.682  1.00  0.00     0.274 HD
ATOM     23  H12 UNL     1       4.958  -1.285  -1.929  1.00  0.00     0.274 HD
ATOM     24  H11 UNL     1       6.154  -0.881  -0.783  1.00  0.00     0.274 HD
ENDBRANCH  20  21
ENDBRANCH  19  20
ENDBRANCH  18  19
ENDBRANCH   1  18
BRANCH  15  25
HETATM   25  N5  UNL     1      -0.195   3.223   0.035  1.00  0.00    -0.043 N 
ATOM     26  H53 UNL     1       0.574   3.059  -0.615  1.00  0.00     0.277 HD
ATOM     27  H52 UNL     1      -0.695   3.932  -0.501  1.00  0.00     0.277 HD
ATOM     28  H51 UNL     1       0.133   3.583   0.931  1.00  0.00     0.277 HD
ENDBRANCH  15  25
BRANCH   6  29
HETATM   29  C7  UNL     1      -3.124  -2.630  -0.121  1.00  0.00     0.266 C 
HETATM   30  O2  UNL     1      -4.280  -2.642   0.213  1.00  0.00    -0.304 OA
ENDBRANCH   6  29
TORSDOF 6
