REMARK  8 active torsions:
REMARK  status: ('A' for Active; 'I' for Inactive)
REMARK    1  A    between atoms: C1_2  and  C2_3 
REMARK       I    between atoms: C1_2  and  N7_23 
REMARK    2  A    between atoms: C2_3  and  C3_4 
REMARK    3  A    between atoms: C3_4  and  N1_5 
REMARK    4  A    between atoms: N1_5  and  C4_7 
REMARK    5  A    between atoms: C8_19  and  N6_20 
REMARK    6  A    between atoms: N7_23  and  C11_25 
REMARK    7  A    between atoms: C11_25  and  C12_26 
REMARK    8  A    between atoms: C12_26  and  O2_27 
ROOT
HETATM    1  C4  UNL     1      -0.730  -0.069  -1.139  1.00  0.00     0.145 A 
HETATM    2  N2  UNL     1      -1.022  -0.720  -0.006  1.00  0.00    -0.283 N 
ATOM      3  H2  UNL     1      -0.349  -1.258   0.540  1.00  0.00     0.188 HD
HETATM    4  N3  UNL     1      -2.296  -0.575   0.312  1.00  0.00    -0.293 N 
ATOM      5  H3  UNL     1      -2.762  -0.973   1.127  1.00  0.00     0.187 HD
HETATM    6  C5  UNL     1      -2.876   0.203  -0.646  1.00  0.00     0.122 A 
HETATM    7  C6  UNL     1      -1.902   0.529  -1.565  1.00  0.00     0.107 A 
HETATM    8  N4  UNL     1      -2.167   1.262  -2.587  1.00  0.00    -0.369 N 
ATOM      9  H4  UNL     1      -1.407   1.471  -3.235  1.00  0.00     0.161 HD
HETATM   10  C7  UNL     1      -3.475   1.809  -2.877  1.00  0.00     0.245 A 
HETATM   11  N5  UNL     1      -4.453   1.434  -1.879  1.00  0.00    -0.358 N 
ATOM     12  H5  UNL     1      -5.413   1.763  -1.979  1.00  0.00     0.162 HD
HETATM   13  C8  UNL     1      -4.122   0.633  -0.780  1.00  0.00     0.131 A 
ENDROOT
BRANCH   1  14
HETATM   14  N1  UNL     1       0.422  -0.012  -1.718  1.00  0.00    -0.373 N 
ATOM     15  H1  UNL     1       0.512   0.522  -2.582  1.00  0.00     0.161 HD
BRANCH  14  16
HETATM   16  C3  UNL     1       1.591  -0.679  -1.184  1.00  0.00     0.130 C 
BRANCH  16  17
HETATM   17  C2  UNL     1       2.420   0.227  -0.327  1.00  0.00     0.122 C 
BRANCH  17  18
HETATM   18  C1  UNL     1       3.595  -0.512   0.186  1.00  0.00     0.219 C 
HETATM   19  O1  UNL     1       3.751  -1.719  -0.130  1.00  0.00    -0.274 OA
HETATM   20  N7  UNL     1       4.562   0.109   1.035  1.00  0.00    -0.359 N 
ATOM     21  H7  UNL     1       4.454   1.087   1.304  1.00  0.00     0.162 HD
BRANCH  20  22
HETATM   22  C11 UNL     1       5.691  -0.652   1.510  1.00  0.00     0.148 C 
BRANCH  22  23
HETATM   23  C12 UNL     1       6.604   0.146   2.385  1.00  0.00     0.183 C 
BRANCH  23  24
HETATM   24  O2  UNL     1       7.132   1.248   1.735  1.00  0.00    -0.399 OA
ATOM     25  H2  UNL     1       7.712   1.755   2.291  1.00  0.00     0.209 HD
ENDBRANCH  23  24
ENDBRANCH  22  23
ENDBRANCH  20  22
ENDBRANCH  17  18
ENDBRANCH  16  17
ENDBRANCH  14  16
ENDBRANCH   1  14
BRANCH  13  26
HETATM   26  N6  UNL     1      -5.069   0.253   0.213  1.00  0.00    -0.362 N 
HETATM   27  C9  UNL     1      -5.451  -0.389   1.432  1.00  0.00     0.144 A 
HETATM   28  C10 UNL     1      -6.475   0.311   0.643  1.00  0.00     0.144 A 
ENDBRANCH  13  26
TORSDOF 8
