REMARK  7 active torsions:
REMARK  status: ('A' for Active; 'I' for Inactive)
REMARK    1  A    between atoms: N1_2  and  C3_4 
REMARK    2  A    between atoms: C3_4  and  C4_5 
REMARK       I    between atoms: C4_5  and  N2_7 
REMARK    3  A    between atoms: N2_7  and  C5_9 
REMARK    4  A    between atoms: C7_16  and  N5_17 
REMARK    5  A    between atoms: N5_17  and  C8_19 
REMARK    6  A    between atoms: C8_19  and  C9_20 
REMARK    7  A    between atoms: C9_20  and  N6_21 
ROOT
HETATM    1  C5  UNL     1      -1.158  -0.683  -0.529  1.00  0.00     0.701 A 
HETATM    2  N3  UNL     1      -1.213   0.615  -0.862  1.00  0.00    -0.129 N 
ATOM      3  H3  UNL     1      -2.111   1.044  -1.086  1.00  0.00     0.205 HD
HETATM    4  N4  UNL     1      -0.105   1.344  -0.901  1.00  0.00    -0.249 N 
ATOM      5  H4  UNL     1      -0.149   2.331  -1.155  1.00  0.00     0.191 HD
HETATM    6  C6  UNL     1       1.074   0.776  -0.604  1.00  0.00     0.304 A 
HETATM    7  O2  UNL     1       2.084   1.486  -0.651  1.00  0.00    -0.263 OA
HETATM    8  C7  UNL     1       1.156  -0.555  -0.260  1.00  0.00     0.187 A 
HETATM    9  N9  UNL     1      -0.002  -1.268  -0.232  1.00  0.00    -0.170 N 
ATOM     10  H9  UNL     1       0.017  -2.257   0.018  1.00  0.00     0.186 HD
ENDROOT
BRANCH   8  11
HETATM   11  N5  UNL     1       2.231  -1.168   0.035  1.00  0.00    -0.367 N 
ATOM     12  H5  UNL     1       2.158  -2.157   0.275  1.00  0.00     0.161 HD
BRANCH  11  13
HETATM   13  C8  UNL     1       3.550  -0.572   0.057  1.00  0.00     0.165 C 
BRANCH  13  14
HETATM   14  C9  UNL     1       4.610  -1.559   0.447  1.00  0.00     0.082 C 
BRANCH  14  15
HETATM   15  N6  UNL     1       5.883  -0.979   0.467  1.00  0.00    -0.345 N 
HETATM   16  C10 UNL     1       6.366   0.151   0.260  1.00  0.00     0.200 C 
HETATM   17  N7  UNL     1       7.793   0.313   0.397  1.00  0.00    -0.067 NA
HETATM   18  N8  UNL     1       5.634   1.296  -0.099  1.00  0.00    -0.067 NA
ATOM     19  H6  UNL     1       6.603  -1.657   0.716  1.00  0.00     0.167 HD
ENDBRANCH  14  15
ENDBRANCH  13  14
ENDBRANCH  11  13
ENDBRANCH   8  11
BRANCH   1  20
HETATM   20  N2  UNL     1      -2.246  -1.360  -0.501  1.00  0.00    -0.157 N 
HETATM   21  C4  UNL     1      -3.472  -0.724  -0.821  1.00  0.00     0.264 C 
HETATM   22  O1  UNL     1      -3.855  -0.748  -2.016  1.00  0.00    -0.271 OA
ATOM     23  H2  UNL     1      -2.230  -2.349  -0.250  1.00  0.00     0.187 HD
BRANCH  21  24
HETATM   24  C3  UNL     1      -4.313  -0.038   0.189  1.00  0.00     0.374 C 
BRANCH  24  25
HETATM   25  N1  UNL     1      -5.486   0.507  -0.429  1.00  0.00     0.088 N 
HETATM   26  C1  UNL     1      -6.274   1.168   0.603  1.00  0.00     0.310 C 
HETATM   27  C2  UNL     1      -6.272  -0.585  -1.014  1.00  0.00     0.310 C 
ENDBRANCH  24  25
ENDBRANCH  21  24
ENDBRANCH   1  20
TORSDOF 7
