REMARK  6 active torsions:
REMARK  status: ('A' for Active; 'I' for Inactive)
REMARK    1  A    between atoms: N3_4  and  C2_6 
REMARK    2  A    between atoms: C2_6  and  C3_7 
REMARK    3  A    between atoms: C3_7  and  C4_8 
REMARK    4  A    between atoms: C4_8  and  C5_9 
REMARK    5  A    between atoms: C5_9  and  N4_10 
REMARK    6  A    between atoms: C5_9  and  C6_14 
REMARK       I    between atoms: C6_14  and  N5_16 
ROOT
HETATM    1  C6  UNL     1      -0.683  -1.719   0.410  1.00  0.00     0.257 C 
HETATM    2  O1  UNL     1      -0.847  -2.338   1.490  1.00  0.00    -0.271 OA
HETATM    3  N5  UNL     1      -1.691  -0.827  -0.010  1.00  0.00    -0.281 N 
HETATM    4  C7  UNL     1      -1.478  -0.136  -1.257  1.00  0.00     0.237 C 
HETATM    5  C8  UNL     1      -2.746   0.139  -1.995  1.00  0.00     0.236 C 
HETATM    6  O2  UNL     1      -2.716  -0.205  -3.212  1.00  0.00    -0.272 OA
HETATM    7  N6  UNL     1      -3.975   0.715  -1.577  1.00  0.00    -0.358 N 
ATOM      8  H6  UNL     1      -4.756   0.336  -2.112  1.00  0.00     0.162 HD
HETATM    9  C9  UNL     1      -4.433   1.684  -0.611  1.00  0.00     0.142 C 
HETATM   10  C10 UNL     1      -3.891   1.523   0.763  1.00  0.00     0.142 C 
HETATM   11  N7  UNL     1      -3.640   0.190   1.196  1.00  0.00    -0.363 N 
ATOM     12  H7  UNL     1      -4.303  -0.097   1.916  1.00  0.00     0.162 HD
HETATM   13  C11 UNL     1      -2.790  -0.767   0.921  1.00  0.00     0.193 C 
HETATM   14  N8  UNL     1      -2.987  -1.944   1.676  1.00  0.00    -0.063 NA
ENDROOT
BRANCH   1  15
HETATM   15  C5  UNL     1       0.554  -1.972  -0.340  1.00  0.00     0.275 C 
BRANCH  15  16
HETATM   16  C4  UNL     1       1.493  -0.785  -0.334  1.00  0.00     0.044 C 
BRANCH  16  17
HETATM   17  C3  UNL     1       1.880  -0.386   1.078  1.00  0.00     0.022 C 
BRANCH  17  18
HETATM   18  C2  UNL     1       2.823   0.816   0.926  1.00  0.00     0.122 C 
BRANCH  18  19
HETATM   19  N3  UNL     1       3.988   0.473   0.166  1.00  0.00    -0.367 N 
HETATM   20  C1  UNL     1       4.641   1.325  -0.562  1.00  0.00     0.196 C 
HETATM   21  N1  UNL     1       5.782   0.907  -1.282  1.00  0.00    -0.067 NA
HETATM   22  N2  UNL     1       4.259   2.694  -0.675  1.00  0.00    -0.067 NA
ATOM     23  H3  UNL     1       4.321  -0.491   0.199  1.00  0.00     0.161 HD
ENDBRANCH  18  19
ENDBRANCH  17  18
ENDBRANCH  16  17
ENDBRANCH  15  16
BRANCH  15  24
HETATM   24  N4  UNL     1       1.312  -3.045   0.321  1.00  0.00    -0.066 N 
ATOM     25  H43 UNL     1       2.222  -3.232  -0.100  1.00  0.00     0.275 HD
ATOM     26  H42 UNL     1       1.664  -2.797   1.246  1.00  0.00     0.275 HD
ATOM     27  H41 UNL     1       0.679  -3.845   0.317  1.00  0.00     0.275 HD
ENDBRANCH  15  24
ENDBRANCH   1  15
TORSDOF 6
