REMARK  9 active torsions:
REMARK  status: ('A' for Active; 'I' for Inactive)
REMARK    1  A    between atoms: N1_2  and  O1_3 
REMARK       I    between atoms: N1_2  and  C2_5 
REMARK    2  A    between atoms: C2_5  and  C3_7 
REMARK    3  A    between atoms: C4_10  and  N3_11 
REMARK    4  A    between atoms: C5_16  and  N5_17 
REMARK    5  A    between atoms: N5_17  and  C6_19 
REMARK    6  A    between atoms: C6_19  and  C7_20 
REMARK    7  A    between atoms: C7_20  and  C8_21 
REMARK    8  A    between atoms: C8_21  and  N6_22 
REMARK    9  A    between atoms: N9_27  and  N10_28 
ROOT
HETATM    1  C3  UNL     1      -2.885   0.025   0.154  1.00  0.00     0.229 A 
HETATM    2  N2  UNL     1      -2.506   0.539   1.330  1.00  0.00    -0.168 N 
ATOM      3  H2  UNL     1      -3.219   0.843   1.993  1.00  0.00     0.186 HD
HETATM    4  C4  UNL     1      -1.186   0.667   1.665  1.00  0.00     0.692 A 
HETATM    5  N4  UNL     1      -0.232   0.279   0.816  1.00  0.00    -0.021 N 
ATOM      6  H4  UNL     1       0.751   0.378   1.071  1.00  0.00     0.203 HD
HETATM    7  C5  UNL     1      -0.569  -0.240  -0.371  1.00  0.00     0.715 A 
HETATM    8  N9  UNL     1      -1.867  -0.362  -0.689  1.00  0.00    -0.070 N 
ENDROOT
BRANCH   7   9
HETATM    9  N5  UNL     1       0.325  -0.621  -1.205  1.00  0.00    -0.224 N 
ATOM     10  H5  UNL     1       0.013  -1.009  -2.095  1.00  0.00     0.177 HD
BRANCH   9  11
HETATM   11  C6  UNL     1       1.740  -0.537  -0.968  1.00  0.00     0.139 C 
BRANCH  11  12
HETATM   12  C7  UNL     1       2.285   0.844  -1.240  1.00  0.00     0.040 C 
BRANCH  12  13
HETATM   13  C8  UNL     1       3.780   0.825  -0.961  1.00  0.00     0.123 C 
BRANCH  13  14
HETATM   14  N6  UNL     1       4.077   0.473   0.391  1.00  0.00    -0.367 N 
HETATM   15  C9  UNL     1       5.074  -0.238   0.764  1.00  0.00     0.196 C 
HETATM   16  N7  UNL     1       5.970  -0.729  -0.205  1.00  0.00    -0.067 NA
HETATM   17  N8  UNL     1       5.274  -0.527   2.137  1.00  0.00    -0.067 NA
ATOM     18  H6  UNL     1       3.446   0.815   1.116  1.00  0.00     0.161 HD
ENDBRANCH  13  14
ENDBRANCH  12  13
ENDBRANCH  11  12
ENDBRANCH   9  11
ENDBRANCH   7   9
BRANCH   8  19
HETATM   19  N10 UNL     1      -2.182  -0.905  -1.932  1.00  0.00    -0.322 N 
ATOM     20 2H10 UNL     1      -3.169  -0.998  -2.174  1.00  0.00     0.178 HD
ATOM     21 1H10 UNL     1      -1.428  -1.192  -2.556  1.00  0.00     0.178 HD
ENDBRANCH   8  19
BRANCH   4  22
HETATM   22  N3  UNL     1      -0.879   1.178   2.833  1.00  0.00    -0.234 N 
ATOM     23  H32 UNL     1      -1.608   1.475   3.482  1.00  0.00     0.174 HD
ATOM     24  H31 UNL     1       0.105   1.273   3.083  1.00  0.00     0.174 HD
ENDBRANCH   4  22
BRANCH   1  25
HETATM   25  C2  UNL     1      -4.231  -0.160  -0.310  1.00  0.00     0.313 C 
HETATM   26  N1  UNL     1      -5.396   0.163   0.384  1.00  0.00    -0.226 N 
HETATM   27  C1  UNL     1      -6.729  -0.085  -0.222  1.00  0.00     0.189 C 
HETATM   28  O2  UNL     1      -4.392  -0.674  -1.480  1.00  0.00    -0.262 OA
BRANCH  26  29
HETATM   29  O1  UNL     1      -5.419   0.703   1.608  1.00  0.00    -0.285 OA
ATOM     30  H1  UNL     1      -4.566   0.862   1.996  1.00  0.00     0.245 HD
ENDBRANCH  26  29
ENDBRANCH   1  25
TORSDOF 9
