REMARK  9 active torsions:
REMARK  status: ('A' for Active; 'I' for Inactive)
REMARK    1  A    between atoms: C3_3  and  N1_4 
REMARK    2  A    between atoms: N1_4  and  C4_6 
REMARK    3  A    between atoms: C5_9  and  N3_10 
REMARK    4  A    between atoms: N5_15  and  N6_16 
REMARK    5  A    between atoms: C7_19  and  C8_20 
REMARK    6  A    between atoms: C8_20  and  C9_21 
REMARK    7  A    between atoms: C9_21  and  N7_22 
REMARK    8  A    between atoms: C9_21  and  C10_26 
REMARK    9  A    between atoms: C10_26  and  N8_27 
ROOT
HETATM    1  C1  UNL     1      -2.851   3.985  -0.869  1.00  0.00     0.014 C 
HETATM    2  C2  UNL     1      -2.002   3.222  -1.286  1.00  0.00    -0.098 C 
HETATM    3  C3  UNL     1      -0.991   2.285  -1.809  1.00  0.00     0.215 C 
ENDROOT
BRANCH   3   4
HETATM    4  N1  UNL     1      -0.578   1.434  -0.753  1.00  0.00    -0.364 N 
ATOM      5  H1  UNL     1       0.340   1.638  -0.358  1.00  0.00     0.162 HD
BRANCH   4   6
HETATM    6  C4  UNL     1      -1.194   0.449  -0.229  1.00  0.00     0.144 A 
HETATM    7  N2  UNL     1      -2.423   0.187  -0.768  1.00  0.00    -0.174 N 
HETATM    8  C5  UNL     1      -3.161  -0.801  -0.256  1.00  0.00     0.695 A 
ATOM      9  H2  UNL     1      -2.772   0.739  -1.551  1.00  0.00     0.186 HD
HETATM   10  N4  UNL     1      -2.642  -1.493   0.778  1.00  0.00    -0.111 N 
HETATM   11  N5  UNL     1      -1.470  -1.274   1.322  1.00  0.00    -0.189 N 
ATOM     12  H4  UNL     1      -3.207  -2.247   1.168  1.00  0.00     0.207 HD
HETATM   13  C7  UNL     1      -0.694  -0.272   0.821  1.00  0.00     0.098 A 
BRANCH   8  14
HETATM   14  N3  UNL     1      -4.342  -1.098  -0.725  1.00  0.00    -0.229 N 
HETATM   15  C6  UNL     1      -5.077  -2.188  -0.110  1.00  0.00     0.165 C 
ATOM     16  H3  UNL     1      -4.740  -0.576  -1.506  1.00  0.00     0.177 HD
ENDBRANCH   8  14
BRANCH  11  17
HETATM   17  N6  UNL     1      -1.024  -2.059   2.394  1.00  0.00    -0.323 N 
ATOM     18  H62 UNL     1      -1.605  -2.809   2.769  1.00  0.00     0.178 HD
ATOM     19  H61 UNL     1      -0.112  -1.889   2.817  1.00  0.00     0.178 HD
ENDBRANCH  11  17
BRANCH  13  20
HETATM   20  C8  UNL     1       0.623  -0.081   1.426  1.00  0.00     0.099 C 
BRANCH  20  21
HETATM   21  C9  UNL     1       1.784  -0.748   0.822  1.00  0.00     0.207 C 
BRANCH  21  22
HETATM   22  N7  UNL     1       1.659  -2.201   0.763  1.00  0.00    -0.073 N 
ATOM     23  H73 UNL     1       1.465  -2.584   1.688  1.00  0.00     0.274 HD
ATOM     24  H72 UNL     1       0.800  -2.469   0.284  1.00  0.00     0.274 HD
ATOM     25  H71 UNL     1       2.465  -2.664   0.344  1.00  0.00     0.274 HD
ENDBRANCH  21  22
BRANCH  21  26
HETATM   26  C10 UNL     1       2.405  -0.234  -0.413  1.00  0.00     0.155 C 
BRANCH  26  27
HETATM   27  N8  UNL     1       2.934   1.110  -0.280  1.00  0.00    -0.365 N 
HETATM   28  C11 UNL     1       4.189   1.398  -0.425  1.00  0.00     0.197 C 
HETATM   29  N9  UNL     1       5.101   0.342  -0.731  1.00  0.00    -0.067 NA
HETATM   30  N10 UNL     1       4.696   2.705  -0.298  1.00  0.00    -0.067 NA
ATOM     31  H8  UNL     1       2.286   1.866  -0.061  1.00  0.00     0.161 HD
ENDBRANCH  26  27
ENDBRANCH  21  26
ENDBRANCH  20  21
ENDBRANCH  13  20
ENDBRANCH   4   6
ENDBRANCH   3   4
TORSDOF 9
