REMARK  6 active torsions:
REMARK  status: ('A' for Active; 'I' for Inactive)
REMARK    1  A    between atoms: N3_12  and  N4_14 
REMARK    2  A    between atoms: C9_18  and  N5_19 
REMARK    3  A    between atoms: N5_19  and  C10_21 
REMARK    4  A    between atoms: C10_21  and  C11_22 
REMARK    5  A    between atoms: C11_22  and  C12_23 
REMARK    6  A    between atoms: C12_23  and  N6_24 
ROOT
HETATM    1  C1  UNL     1      -5.030  -1.894   0.704  1.00  0.00     0.045 C 
HETATM    2  C2  UNL     1      -3.773  -1.613   0.409  1.00  0.00     0.051 A 
HETATM    3  N1  UNL     1      -2.742  -2.431   0.206  1.00  0.00    -0.355 N 
ATOM      4  H1  UNL     1      -2.798  -3.448   0.256  1.00  0.00     0.166 HD
HETATM    5  C3  UNL     1      -1.601  -1.739  -0.077  1.00  0.00     0.037 A 
HETATM    6  C4  UNL     1      -0.431  -2.294  -0.325  1.00  0.00     0.044 C 
HETATM    7  C5  UNL     1      -1.886  -0.404  -0.061  1.00  0.00     0.041 A 
HETATM    8  C6  UNL     1      -3.252  -0.337   0.243  1.00  0.00     0.074 A 
HETATM    9  N2  UNL     1      -3.856   0.800   0.326  1.00  0.00    -0.342 N 
ATOM     10  H2  UNL     1      -4.853   0.804   0.543  1.00  0.00     0.167 HD
HETATM   11  C7  UNL     1      -3.208   2.037   0.132  1.00  0.00     0.101 A 
HETATM   12  N3  UNL     1      -3.820   3.167   0.192  1.00  0.00    -0.295 N 
ATOM     13  H3  UNL     1      -3.283   4.021   0.039  1.00  0.00     0.187 HD
HETATM   14  C8  UNL     1      -1.767   2.070  -0.170  1.00  0.00     0.135 A 
HETATM   15  C9  UNL     1      -1.174   0.688  -0.252  1.00  0.00     0.027 A 
ENDROOT
BRANCH  15  16
HETATM   16  N5  UNL     1       0.219   0.696  -0.559  1.00  0.00    -0.392 N 
ATOM     17  H5  UNL     1       0.568   0.432  -1.480  1.00  0.00     0.159 HD
BRANCH  16  18
HETATM   18  C10 UNL     1       1.116   1.102   0.515  1.00  0.00     0.121 C 
BRANCH  18  19
HETATM   19  C11 UNL     1       2.531   1.231   0.067  1.00  0.00     0.039 C 
BRANCH  19  20
HETATM   20  C12 UNL     1       3.031  -0.078  -0.468  1.00  0.00     0.123 C 
BRANCH  20  21
HETATM   21  N6  UNL     1       4.416   0.067  -0.915  1.00  0.00    -0.367 N 
HETATM   22  C13 UNL     1       5.296  -0.758  -0.517  1.00  0.00     0.196 C 
HETATM   23  N7  UNL     1       4.937  -1.811   0.352  1.00  0.00    -0.067 NA
HETATM   24  N8  UNL     1       6.643  -0.623  -0.946  1.00  0.00    -0.067 NA
ATOM     25  H6  UNL     1       4.674   0.828  -1.544  1.00  0.00     0.161 HD
ENDBRANCH  20  21
ENDBRANCH  19  20
ENDBRANCH  18  19
ENDBRANCH  16  18
ENDBRANCH  15  16
BRANCH  12  26
HETATM   26  N4  UNL     1      -5.179   3.277   0.456  1.00  0.00    -0.344 N 
ATOM     27  H42 UNL     1      -5.701   2.413   0.607  1.00  0.00     0.176 HD
ATOM     28  H41 UNL     1      -5.664   4.173   0.504  1.00  0.00     0.176 HD
ENDBRANCH  12  26
TORSDOF 6
