REMARK  4 active torsions:
REMARK  status: ('A' for Active; 'I' for Inactive)
REMARK       I    between atoms: C1_4  and  N3_6 
REMARK    1  A    between atoms: C5_13  and  C6_14 
REMARK    2  A    between atoms: C6_14  and  C7_15 
REMARK    3  A    between atoms: C6_14  and  C9_23 
REMARK    4  A    between atoms: N5_16  and  N6_18 
ROOT
HETATM    1  N1  UNL     1      -2.437   2.890   0.814  1.00  0.00    -0.374 N 
ATOM      2  H11 UNL     1      -1.991   2.626   1.693  1.00  0.00     0.158 HD
ATOM      3  H12 UNL     1      -2.688   3.848   0.569  1.00  0.00     0.158 HD
HETATM    4  C1  UNL     1      -2.680   1.907  -0.016  1.00  0.00     0.184 C 
HETATM    5  N2  UNL     1      -3.302   2.275  -1.241  1.00  0.00    -0.064 NA
HETATM    6  N3  UNL     1      -2.329   0.568   0.326  1.00  0.00    -0.340 N 
HETATM    7  C2  UNL     1      -3.320  -0.441   0.089  1.00  0.00     0.146 C 
HETATM    8  C3  UNL     1      -2.805  -1.830   0.003  1.00  0.00     0.142 C 
HETATM    9  N4  UNL     1      -1.792  -2.077   0.980  1.00  0.00    -0.358 N 
ATOM     10  H4  UNL     1      -1.791  -2.943   1.518  1.00  0.00     0.162 HD
HETATM   11  C4  UNL     1      -0.786  -1.095   1.189  1.00  0.00     0.241 C 
HETATM   12  O1  UNL     1       0.318  -1.493   1.650  1.00  0.00    -0.271 OA
HETATM   13  C5  UNL     1      -1.021   0.337   0.880  1.00  0.00     0.196 C 
ENDROOT
BRANCH  13  14
HETATM   14  C6  UNL     1       0.095   0.975   0.104  1.00  0.00     0.147 C 
BRANCH  14  15
HETATM   15  C7  UNL     1       1.370   0.660   0.782  1.00  0.00     0.096 C 
HETATM   16  N5  UNL     1       2.341   0.177   0.093  1.00  0.00    -0.313 N 
ATOM     17  H5  UNL     1       2.190   0.030  -0.905  1.00  0.00     0.185 HD
BRANCH  16  18
HETATM   18  N6  UNL     1       3.576  -0.156   0.616  1.00  0.00    -0.277 N 
HETATM   19  C8  UNL     1       4.550  -0.482  -0.155  1.00  0.00     0.215 C 
HETATM   20  N7  UNL     1       5.807  -0.818   0.436  1.00  0.00    -0.065 NA
HETATM   21  N8  UNL     1       4.361  -0.504  -1.553  1.00  0.00    -0.065 NA
ATOM     22  H6  UNL     1       3.716  -0.143   1.626  1.00  0.00     0.189 HD
ENDBRANCH  16  18
ENDBRANCH  14  15
BRANCH  14  23
HETATM   23  C9  UNL     1       0.166   0.617  -1.308  1.00  0.00     0.242 C 
HETATM   24  N9  UNL     1       0.363  -0.717  -1.749  1.00  0.00    -0.061 NA
HETATM   25  O2  UNL     1       0.051   1.510  -2.186  1.00  0.00    -0.276 OA
ENDBRANCH  14  23
ENDBRANCH  13  14
TORSDOF 4
