REMARK  19 active torsions:
REMARK  status: ('A' for Active; 'I' for Inactive)
REMARK    1  A    between atoms: C2_3  and  O1_4 
REMARK    2  A    between atoms: C4_7  and  O2_8 
REMARK    3  A    between atoms: C4_7  and  N2_10 
REMARK    4  A    between atoms: N2_10  and  C5_12 
REMARK    5  A    between atoms: N3_14  and  C7_15 
REMARK    6  A    between atoms: C7_15  and  O3_16 
REMARK    7  A    between atoms: C7_15  and  O4_18 
REMARK    8  A    between atoms: O4_18  and  C8_19 
REMARK    9  A    between atoms: C8_19  and  C9_20 
REMARK   10  A    between atoms: C9_20  and  O5_21 
REMARK   11  A    between atoms: C9_20  and  C10_23 
REMARK   12  A    between atoms: C10_23  and  O6_24 
REMARK   13  A    between atoms: C11_28  and  O7_29 
REMARK   14  A    between atoms: N5_33  and  O9_34 
REMARK   15  A    between atoms: C13_36  and  C14_37 
REMARK   16  A    between atoms: C14_37  and  N6_38 
REMARK   17  A    between atoms: C14_37  and  C16_43 
REMARK       I    between atoms: N6_38  and  C15_40 
REMARK   18  A    between atoms: C16_43  and  O12_44 
REMARK   19  A    between atoms: C16_43  and  O13_46 
ROOT
HETATM    1  N1  UNL     1      -3.016   1.500   1.253  1.00  0.00    -0.097 NA
HETATM    2  C1  UNL     1      -3.010   0.650   0.108  1.00  0.00     0.112 A 
HETATM    3  C2  UNL     1      -1.870   0.857  -0.671  1.00  0.00     0.112 A 
HETATM    4  C3  UNL     1      -1.645   0.005  -1.717  1.00  0.00     0.120 A 
HETATM    5  C4  UNL     1      -0.567   0.168  -2.487  1.00  0.00     0.159 C 
HETATM    6  C12 UNL     1      -2.551  -0.983  -1.923  1.00  0.00     0.289 A 
HETATM    7  O8  UNL     1      -2.373  -1.772  -2.862  1.00  0.00    -0.265 OA
HETATM    8  N5  UNL     1      -3.664  -1.157  -1.138  1.00  0.00    -0.183 N 
HETATM    9  C13 UNL     1      -3.935  -0.337  -0.088  1.00  0.00     0.121 A 
ENDROOT
BRANCH   5  10
HETATM   10  O2  UNL     1      -0.379  -0.716  -3.534  1.00  0.00    -0.345 OA
ATOM     11  H2  UNL     1       0.388  -0.600  -4.082  1.00  0.00     0.219 HD
ENDBRANCH   5  10
BRANCH   5  12
HETATM   12  N2  UNL     1       0.394   1.185  -2.300  1.00  0.00    -0.332 N 
ATOM     13  H2  UNL     1       0.154   2.134  -2.588  1.00  0.00     0.168 HD
BRANCH  12  14
HETATM   14  C5  UNL     1       1.673   0.960  -1.735  1.00  0.00     0.104 A 
HETATM   15  C6  UNL     1       2.250  -0.199  -1.272  1.00  0.00     0.149 A 
HETATM   16  N3  UNL     1       3.500   0.043  -0.811  1.00  0.00    -0.246 N 
HETATM   17  N4  UNL     1       3.686   1.329  -0.988  1.00  0.00    -0.272 N 
HETATM   18  C11 UNL     1       2.622   1.934  -1.539  1.00  0.00     0.184 A 
ATOM     19  H4  UNL     1       4.545   1.816  -0.735  1.00  0.00     0.189 HD
BRANCH  16  20
HETATM   20  C7  UNL     1       4.400  -0.978  -0.241  1.00  0.00     0.390 C 
BRANCH  20  21
HETATM   21  O3  UNL     1       3.811  -2.248  -0.596  1.00  0.00    -0.353 OA
ATOM     22  H3  UNL     1       4.390  -2.905  -0.229  1.00  0.00     0.214 HD
ENDBRANCH  20  21
BRANCH  20  23
HETATM   23  O4  UNL     1       4.552  -0.841   1.045  1.00  0.00    -0.340 OA
BRANCH  23  24
HETATM   24  C8  UNL     1       5.515  -0.740   1.890  1.00  0.00     0.206 C 
BRANCH  24  25
HETATM   25  C9  UNL     1       6.508   0.368   1.990  1.00  0.00     0.165 C 
BRANCH  25  26
HETATM   26  O5  UNL     1       7.303  -0.015   3.171  1.00  0.00    -0.391 OA
ATOM     27  H5  UNL     1       7.936   0.691   3.235  1.00  0.00     0.210 HD
ENDBRANCH  25  26
BRANCH  25  28
HETATM   28  C10 UNL     1       7.544   0.501   0.939  1.00  0.00     0.198 C 
BRANCH  28  29
HETATM   29  O6  UNL     1       7.053   0.969  -0.236  1.00  0.00    -0.398 OA
ATOM     30  H6  UNL     1       7.717   1.054  -0.910  1.00  0.00     0.209 HD
ENDBRANCH  28  29
ENDBRANCH  25  28
ENDBRANCH  24  25
ENDBRANCH  23  24
ENDBRANCH  20  23
ENDBRANCH  16  20
BRANCH  18  31
HETATM   31  O7  UNL     1       2.484   3.297  -1.863  1.00  0.00    -0.343 OA
ATOM     32  H7  UNL     1       3.140   3.970  -1.727  1.00  0.00     0.219 HD
ENDBRANCH  18  31
ENDBRANCH  12  14
ENDBRANCH   5  12
BRANCH   3  33
HETATM   33  O1  UNL     1      -0.973   1.876  -0.425  1.00  0.00    -0.358 OA
ATOM     34  H1  UNL     1      -0.197   2.017  -0.955  1.00  0.00     0.217 HD
ENDBRANCH   3  33
BRANCH   8  35
HETATM   35  O9  UNL     1      -4.470  -2.190  -1.494  1.00  0.00    -0.279 OA
ATOM     36  H9  UNL     1      -5.240  -2.310  -0.951  1.00  0.00     0.245 HD
ENDBRANCH   8  35
BRANCH   9  37
HETATM   37  C14 UNL     1      -5.100  -0.392   0.579  1.00  0.00     0.101 C 
BRANCH  37  38
HETATM   38  N6  UNL     1      -6.025  -1.447   0.375  1.00  0.00    -0.298 N 
HETATM   39  C15 UNL     1      -7.270  -1.668   0.992  1.00  0.00     0.288 C 
HETATM   40  O10 UNL     1      -7.834  -1.013   1.850  1.00  0.00    -0.629 OA
HETATM   41  O11 UNL     1      -8.022  -2.818   0.584  1.00  0.00    -0.629 OA
ATOM     42  H6  UNL     1      -5.749  -2.144  -0.317  1.00  0.00     0.172 HD
ENDBRANCH  37  38
BRANCH  37  43
HETATM   43  C16 UNL     1      -5.566   0.753   1.432  1.00  0.00     0.307 C 
BRANCH  43  44
HETATM   44  O12 UNL     1      -5.671   0.317   2.732  1.00  0.00    -0.366 OA
ATOM     45  H12 UNL     1      -5.966   1.041   3.272  1.00  0.00     0.213 HD
ENDBRANCH  43  44
BRANCH  43  46
HETATM   46  O13 UNL     1      -6.876   1.071   0.894  1.00  0.00    -0.366 OA
ATOM     47  H13 UNL     1      -7.171   1.795   1.434  1.00  0.00     0.213 HD
ENDBRANCH  43  46
ENDBRANCH  37  43
ENDBRANCH   9  37
TORSDOF 19
