REMARK  17 active torsions:
REMARK  status: ('A' for Active; 'I' for Inactive)
REMARK    1  A    between atoms: N1_1  and  C1_4 
REMARK    2  A    between atoms: N4_12  and  O1_13 
REMARK    3  A    between atoms: C5_15  and  N5_16 
REMARK    4  A    between atoms: N6_19  and  C6_20 
REMARK    5  A    between atoms: C6_20  and  N7_21 
REMARK    6  A    between atoms: N7_21  and  C7_23 
REMARK    7  A    between atoms: C8_24  and  N8_25 
REMARK    8  A    between atoms: N8_25  and  C9_27 
REMARK    9  A    between atoms: C10_30  and  C11_31 
REMARK   10  A    between atoms: C11_31  and  N10_32 
REMARK   11  A    between atoms: N10_32  and  C12_35 
REMARK   12  A    between atoms: C12_35  and  N11_36 
REMARK   13  A    between atoms: C12_35  and  N12_40 
REMARK   14  A    between atoms: C12_35  and  O2_44 
REMARK   15  A    between atoms: C14_47  and  O3_48 
REMARK   16  A    between atoms: C15_50  and  O4_51 
REMARK   17  A    between atoms: N13_56  and  O7_57 
ROOT
HETATM    1  C7  UNL     1       1.436  -0.792   2.771  1.00  0.00     0.187 A 
HETATM    2  C8  UNL     1       0.389  -1.685   2.728  1.00  0.00     0.197 A 
HETATM    3  O5  UNL     1       0.832  -2.802   3.351  1.00  0.00    -0.238 OA
HETATM    4  C16 UNL     1       2.038  -2.645   3.753  1.00  0.00     0.399 A 
HETATM    5  O6  UNL     1       2.703  -3.534   4.367  1.00  0.00    -0.235 OA
HETATM    6  N13 UNL     1       2.451  -1.417   3.418  1.00  0.00    -0.145 N 
ENDROOT
BRANCH   2   7
HETATM    7  N8  UNL     1      -0.903  -1.606   2.193  1.00  0.00    -0.344 N 
ATOM      8  H8  UNL     1      -1.466  -2.439   2.363  1.00  0.00     0.163 HD
BRANCH   7   9
HETATM    9  C9  UNL     1      -1.594  -0.590   1.454  1.00  0.00     0.211 C 
HETATM   10  N9  UNL     1      -1.043  -0.441   0.163  1.00  0.00    -0.394 N 
HETATM   11  C10 UNL     1      -1.882  -0.747  -0.970  1.00  0.00     0.107 C 
ATOM     12  H9  UNL     1      -0.081  -0.127   0.035  1.00  0.00     0.155 HD
HETATM   13  C13 UNL     1      -2.690  -1.963  -0.696  1.00  0.00     0.061 C 
HETATM   14  C14 UNL     1      -3.612  -1.786   0.486  1.00  0.00     0.152 C 
HETATM   15  C15 UNL     1      -3.104  -0.829   1.493  1.00  0.00     0.189 C 
BRANCH  11  16
HETATM   16  C11 UNL     1      -2.634   0.444  -1.477  1.00  0.00     0.265 C 
BRANCH  16  17
HETATM   17  N10 UNL     1      -3.467   0.060  -2.598  1.00  0.00     0.010 N 
ATOM     18 2H10 UNL     1      -2.935  -0.388  -3.344  1.00  0.00     0.285 HD
ATOM     19 1H10 UNL     1      -4.084  -0.721  -2.375  1.00  0.00     0.285 HD
BRANCH  17  20
HETATM   20  C12 UNL     1      -4.201   1.238  -3.065  1.00  0.00     0.558 C 
BRANCH  20  21
HETATM   21  N11 UNL     1      -4.971   1.823  -1.976  1.00  0.00     0.005 N 
ATOM     22 3H11 UNL     1      -5.589   1.140  -1.538  1.00  0.00     0.282 HD
ATOM     23 2H11 UNL     1      -4.385   2.036  -1.169  1.00  0.00     0.282 HD
ATOM     24 1H11 UNL     1      -5.482   2.644  -2.301  1.00  0.00     0.282 HD
ENDBRANCH  20  21
BRANCH  20  25
HETATM   25  N12 UNL     1      -3.360   2.233  -3.663  1.00  0.00     0.005 N 
ATOM     26 3H12 UNL     1      -2.610   2.503  -3.026  1.00  0.00     0.282 HD
ATOM     27 2H12 UNL     1      -2.804   1.831  -4.418  1.00  0.00     0.282 HD
ATOM     28 1H12 UNL     1      -3.871   3.054  -3.988  1.00  0.00     0.282 HD
ENDBRANCH  20  25
BRANCH  20  29
HETATM   29  O2  UNL     1      -5.116   0.805  -4.023  1.00  0.00    -0.321 OA
ATOM     30  H2  UNL     1      -5.592   1.569  -4.326  1.00  0.00     0.216 HD
ENDBRANCH  20  29
ENDBRANCH  17  20
ENDBRANCH  16  17
ENDBRANCH  11  16
BRANCH  14  31
HETATM   31  O3  UNL     1      -3.958  -3.041   0.970  1.00  0.00    -0.393 OA
ATOM     32  H3  UNL     1      -4.538  -2.930   1.714  1.00  0.00     0.210 HD
ENDBRANCH  14  31
BRANCH  15  33
HETATM   33  O4  UNL     1      -3.347  -1.389   2.771  1.00  0.00    -0.389 OA
ATOM     34  H4  UNL     1      -4.285  -1.537   2.795  1.00  0.00     0.210 HD
ENDBRANCH  15  33
ENDBRANCH   7   9
ENDBRANCH   2   7
BRANCH   1  35
HETATM   35  N7  UNL     1       1.458   0.550   2.329  1.00  0.00    -0.354 N 
ATOM     36  H7  UNL     1       0.547   0.941   2.090  1.00  0.00     0.163 HD
BRANCH  35  37
HETATM   37  C6  UNL     1       2.566   1.447   2.165  1.00  0.00     0.274 C 
BRANCH  37  38
HETATM   38  N6  UNL     1       3.160   1.403   0.825  1.00  0.00    -0.147 N 
HETATM   39  C3  UNL     1       4.253   0.773   0.437  1.00  0.00     0.160 A 
HETATM   40  N3  UNL     1       5.223   0.060   1.001  1.00  0.00    -0.336 N 
HETATM   41  C4  UNL     1       4.407   0.955  -0.958  1.00  0.00     0.169 A 
HETATM   42  C2  UNL     1       6.268  -0.470   0.402  1.00  0.00     0.183 A 
ATOM     43  H3  UNL     1       5.149  -0.093   2.007  1.00  0.00     0.168 HD
HETATM   44  N2  UNL     1       6.413  -0.302  -0.898  1.00  0.00    -0.337 N 
HETATM   45  C1  UNL     1       5.484   0.413  -1.596  1.00  0.00     0.134 A 
ATOM     46  H2  UNL     1       7.217  -0.705  -1.380  1.00  0.00     0.168 HD
HETATM   47  N4  UNL     1       3.355   1.712  -1.325  1.00  0.00    -0.045 N 
HETATM   48  C5  UNL     1       2.608   1.981  -0.260  1.00  0.00     0.708 A 
BRANCH  45  49
HETATM   49  N1  UNL     1       5.641   0.560  -2.864  1.00  0.00    -0.383 N 
ATOM     50  H12 UNL     1       6.446   0.155  -3.341  1.00  0.00     0.157 HD
ATOM     51  H11 UNL     1       4.946   1.095  -3.386  1.00  0.00     0.157 HD
ENDBRANCH  45  49
BRANCH  47  52
HETATM   52  O1  UNL     1       3.097   2.142  -2.638  1.00  0.00    -0.269 OA
ATOM     53  H1  UNL     1       2.355   2.676  -2.897  1.00  0.00     0.245 HD
ENDBRANCH  47  52
BRANCH  48  54
HETATM   54  N5  UNL     1       1.535   2.682  -0.279  1.00  0.00    -0.232 N 
ATOM     55  H52 UNL     1       1.117   3.119  -1.100  1.00  0.00     0.174 HD
ATOM     56  H51 UNL     1       0.961   2.889   0.539  1.00  0.00     0.174 HD
ENDBRANCH  48  54
ENDBRANCH  37  38
ENDBRANCH  35  37
ENDBRANCH   1  35
BRANCH   6  57
HETATM   57  O7  UNL     1       3.690  -0.967   3.759  1.00  0.00    -0.277 OA
ATOM     58  H7  UNL     1       4.401  -1.405   4.212  1.00  0.00     0.245 HD
ENDBRANCH   6  57
TORSDOF 17
