REMARK  5 active torsions:
REMARK  status: ('A' for Active; 'I' for Inactive)
REMARK    1  A    between atoms: C2_2  and  C3_3 
REMARK    2  A    between atoms: C3_3  and  C4_4 
REMARK    3  A    between atoms: C4_4  and  C5_5 
REMARK    4  A    between atoms: N1_13  and  C13_14 
REMARK    5  A    between atoms: C13_14  and  C14_15 
ROOT
HETATM    1  C5  UNL     1       1.614   0.382  -0.277  1.00  0.00     0.013 A 
HETATM    2  C6  UNL     1       2.177   1.337  -1.097  1.00  0.00     0.039 A 
HETATM    3  C7  UNL     1       1.516   2.530  -0.901  1.00  0.00    -0.007 A 
HETATM    4  C8  UNL     1       1.629   3.798  -1.421  1.00  0.00     0.014 A 
HETATM    5  C9  UNL     1       0.806   4.829  -1.025  1.00  0.00     0.001 A 
HETATM    6  C10 UNL     1      -0.154   4.566  -0.078  1.00  0.00     0.002 A 
HETATM    7  C11 UNL     1      -0.259   3.296   0.436  1.00  0.00     0.030 A 
HETATM    8  C12 UNL     1       0.555   2.252   0.052  1.00  0.00     0.045 A 
HETATM    9  N1  UNL     1       0.624   0.961   0.418  1.00  0.00    -0.344 N 
ENDROOT
BRANCH   9  10
HETATM   10  C13 UNL     1      -0.232   0.340   1.381  1.00  0.00     0.186 C 
BRANCH  10  11
HETATM   11  C14 UNL     1      -1.476  -0.225   0.865  1.00  0.00     0.029 A 
HETATM   12  C15 UNL     1      -1.745  -1.496   0.409  1.00  0.00     0.040 A 
HETATM   13  C16 UNL     1      -3.065  -1.586   0.016  1.00  0.00    -0.008 A 
HETATM   14  C17 UNL     1      -3.855  -2.583  -0.503  1.00  0.00     0.014 A 
HETATM   15  C21 UNL     1      -3.598  -0.342   0.241  1.00  0.00     0.042 A 
HETATM   16  C18 UNL     1      -5.177  -2.327  -0.794  1.00  0.00     0.001 A 
HETATM   17  C19 UNL     1      -5.702  -1.060  -0.560  1.00  0.00     0.002 A 
HETATM   18  C20 UNL     1      -4.920  -0.054  -0.041  1.00  0.00     0.030 A 
HETATM   19  N2  UNL     1      -2.626   0.452   0.749  1.00  0.00    -0.357 N 
ATOM     20  H2  UNL     1      -2.752   1.431   1.008  1.00  0.00     0.166 HD
ENDBRANCH  10  11
ENDBRANCH   9  10
BRANCH   1  21
HETATM   21  C4  UNL     1       2.094  -1.020  -0.233  1.00  0.00     0.057 C 
BRANCH  21  22
HETATM   22  C3  UNL     1       3.192  -1.119   0.837  1.00  0.00     0.006 C 
BRANCH  22  23
HETATM   23  C2  UNL     1       3.694  -2.525   0.901  1.00  0.00    -0.004 C 
HETATM   24  C1  UNL     1       4.280  -3.012  -0.396  1.00  0.00     0.005 C 
ENDBRANCH  22  23
ENDBRANCH  21  22
ENDBRANCH   1  21
TORSDOF 5
