REMARK  6 active torsions:
REMARK  status: ('A' for Active; 'I' for Inactive)
REMARK    1  A    between atoms: C2_2  and  N1_3 
REMARK    2  A    between atoms: C2_2  and  C3_7 
REMARK    3  A    between atoms: C3_7  and  C4_8 
REMARK    4  A    between atoms: C4_8  and  C5_9 
REMARK    5  A    between atoms: C8_12  and  C9_13 
REMARK    6  A    between atoms: C12_16  and  C13_17 
ROOT
HETATM    1  C5  UNL     1       3.083  -1.198   0.484  1.00  0.00    -0.058 A 
HETATM    2  C6  UNL     1       2.371  -0.922   1.625  1.00  0.00     0.008 A 
HETATM    3  C7  UNL     1       1.019  -0.697   1.526  1.00  0.00     0.013 A 
HETATM    4  C8  UNL     1       0.360  -0.738   0.337  1.00  0.00    -0.026 A 
HETATM    5  C21 UNL     1       1.078  -1.015  -0.799  1.00  0.00     0.013 A 
HETATM    6  C22 UNL     1       2.445  -1.247  -0.731  1.00  0.00     0.008 A 
ENDROOT
BRANCH   4   7
HETATM    7  C9  UNL     1      -1.073  -0.482   0.292  1.00  0.00    -0.026 A 
HETATM    8  C10 UNL     1      -1.916  -1.065  -0.629  1.00  0.00     0.013 A 
HETATM    9  C11 UNL     1      -3.268  -0.813  -0.664  1.00  0.00     0.013 A 
HETATM   10  C12 UNL     1      -3.825   0.050   0.242  1.00  0.00    -0.026 A 
HETATM   11  C19 UNL     1      -3.019   0.652   1.176  1.00  0.00     0.013 A 
HETATM   12  C20 UNL     1      -1.674   0.383   1.190  1.00  0.00     0.013 A 
BRANCH  10  13
HETATM   13  C13 UNL     1      -5.250   0.369   0.268  1.00  0.00    -0.026 A 
HETATM   14  C14 UNL     1      -5.664   1.631   0.688  1.00  0.00     0.012 A 
HETATM   15  C15 UNL     1      -7.004   1.959   0.727  1.00  0.00     0.001 A 
HETATM   16  C16 UNL     1      -7.985   1.064   0.358  1.00  0.00     0.000 A 
HETATM   17  C17 UNL     1      -7.585  -0.194  -0.061  1.00  0.00     0.001 A 
HETATM   18  C18 UNL     1      -6.230  -0.523  -0.100  1.00  0.00     0.012 A 
ENDBRANCH  10  13
ENDBRANCH   4   7
BRANCH   1  19
HETATM   19  C4  UNL     1       4.521  -1.439   0.551  1.00  0.00     0.040 C 
BRANCH  19  20
HETATM   20  C3  UNL     1       5.352  -0.189   0.419  1.00  0.00     0.037 C 
BRANCH  20  21
HETATM   21  C2  UNL     1       5.175   0.547  -0.866  1.00  0.00     0.179 C 
HETATM   22  C1  UNL     1       6.080   1.776  -0.809  1.00  0.00     0.039 C 
BRANCH  21  23
HETATM   23  N1  UNL     1       5.667  -0.236  -1.988  1.00  0.00    -0.075 N 
ATOM     24  H13 UNL     1       5.712   0.283  -2.865  1.00  0.00     0.274 HD
ATOM     25  H12 UNL     1       6.661  -0.458  -1.931  1.00  0.00     0.274 HD
ATOM     26  H11 UNL     1       5.063  -1.057  -2.026  1.00  0.00     0.274 HD
ENDBRANCH  21  23
ENDBRANCH  20  21
ENDBRANCH  19  20
ENDBRANCH   1  19
TORSDOF 6
