REMARK  5 active torsions:
REMARK  status: ('A' for Active; 'I' for Inactive)
REMARK    1  A    between atoms: C4_4  and  C5_5 
REMARK    2  A    between atoms: C5_5  and  C6_6 
REMARK    3  A    between atoms: C6_6  and  C7_7 
REMARK    4  A    between atoms: C7_7  and  C8_8 
REMARK    5  A    between atoms: C8_8  and  C9_9 
ROOT
HETATM    1  C9  UNL     1      -1.157  -1.851  -0.112  1.00  0.00     0.036 A 
HETATM    2  N1  UNL     1      -1.401  -3.035  -0.714  1.00  0.00    -0.367 N 
ATOM      3  H1  UNL     1      -0.600  -3.620  -0.952  1.00  0.00     0.165 HD
HETATM    4  C10 UNL     1      -2.605  -3.489  -1.017  1.00  0.00     0.089 A 
HETATM    5  C11 UNL     1      -3.714  -2.720  -0.708  1.00  0.00     0.031 A 
HETATM    6  C12 UNL     1      -3.543  -1.496  -0.091  1.00  0.00     0.006 A 
HETATM    7  C13 UNL     1      -2.254  -1.074   0.202  1.00  0.00     0.066 A 
HETATM    8  N2  UNL     1      -2.361   0.141   0.797  1.00  0.00    -0.353 N 
ATOM      9  H2  UNL     1      -1.584   0.712   1.130  1.00  0.00     0.166 HD
HETATM   10  C14 UNL     1      -3.685   0.472   0.875  1.00  0.00     0.043 A 
HETATM   11  C15 UNL     1      -4.340   1.570   1.377  1.00  0.00     0.030 A 
HETATM   12  C16 UNL     1      -5.710   1.641   1.324  1.00  0.00     0.002 A 
HETATM   13  C17 UNL     1      -6.491   0.638   0.776  1.00  0.00     0.001 A 
HETATM   14  C18 UNL     1      -5.811  -0.465   0.273  1.00  0.00     0.014 A 
HETATM   15  C19 UNL     1      -4.437  -0.540   0.325  1.00  0.00     0.003 A 
ENDROOT
BRANCH   1  16
HETATM   16  C8  UNL     1       0.227  -1.445   0.178  1.00  0.00     0.059 C 
BRANCH  16  17
HETATM   17  C7  UNL     1       0.751  -0.397  -0.784  1.00  0.00     0.006 C 
BRANCH  17  18
HETATM   18  C6  UNL     1       2.172  -0.082  -0.370  1.00  0.00     0.005 C 
BRANCH  18  19
HETATM   19  C5  UNL     1       2.806   0.957  -1.262  1.00  0.00     0.038 C 
BRANCH  19  20
HETATM   20  C4  UNL     1       4.191   1.196  -0.783  1.00  0.00    -0.058 A 
HETATM   21  C3  UNL     1       5.216   0.432  -1.300  1.00  0.00     0.007 A 
HETATM   22  C2  UNL     1       6.516   0.631  -0.873  1.00  0.00     0.001 A 
HETATM   23  C1  UNL     1       6.782   1.590   0.066  1.00  0.00     0.000 A 
HETATM   24  C21 UNL     1       5.749   2.333   0.562  1.00  0.00     0.001 A 
HETATM   25  C20 UNL     1       4.425   2.159   0.153  1.00  0.00     0.007 A 
ENDBRANCH  19  20
ENDBRANCH  18  19
ENDBRANCH  17  18
ENDBRANCH  16  17
ENDBRANCH   1  16
TORSDOF 5
