REMARK  6 active torsions:
REMARK  status: ('A' for Active; 'I' for Inactive)
REMARK    1  A    between atoms: C2_2  and  C3_3 
REMARK    2  A    between atoms: C3_3  and  C4_4 
REMARK    3  A    between atoms: C4_4  and  C5_5 
REMARK    4  A    between atoms: C5_5  and  C6_6 
REMARK    5  A    between atoms: C6_6  and  N1_7 
REMARK    6  A    between atoms: N1_7  and  C7_9 
ROOT
HETATM    1  C7  UNL     1      -0.708  -0.071   0.530  1.00  0.00     0.115 A 
HETATM    2  N2  UNL     1      -0.723   1.194   0.976  1.00  0.00    -0.341 N 
ATOM      3  H2  UNL     1       0.111   1.538   1.451  1.00  0.00     0.167 HD
HETATM    4  C8  UNL     1      -1.760   2.042   0.842  1.00  0.00     0.044 A 
HETATM    5  C9  UNL     1      -1.681   3.327   1.335  1.00  0.00     0.030 A 
HETATM    6  C10 UNL     1      -2.757   4.169   1.182  1.00  0.00     0.002 A 
HETATM    7  C11 UNL     1      -3.913   3.788   0.558  1.00  0.00     0.001 A 
HETATM    8  C12 UNL     1      -3.970   2.478   0.065  1.00  0.00     0.014 A 
HETATM    9  C13 UNL     1      -2.918   1.595   0.193  1.00  0.00     0.002 A 
HETATM   10  C14 UNL     1      -2.971   0.308  -0.289  1.00  0.00    -0.007 A 
HETATM   11  C15 UNL     1      -4.098  -0.143  -0.926  1.00  0.00     0.014 A 
HETATM   12  C16 UNL     1      -4.102  -1.445  -1.393  1.00  0.00     0.015 A 
HETATM   13  C17 UNL     1      -3.010  -2.263  -1.225  1.00  0.00     0.001 A 
HETATM   14  C18 UNL     1      -2.730  -3.564  -1.572  1.00  0.00     0.039 A 
HETATM   15  C19 UNL     1      -1.453  -3.824  -1.126  1.00  0.00     0.143 A 
HETATM   16  O1  UNL     1      -0.982  -2.742  -0.540  1.00  0.00    -0.321 OA
HETATM   17  C20 UNL     1      -1.890  -1.774  -0.577  1.00  0.00     0.100 A 
HETATM   18  C21 UNL     1      -1.858  -0.497  -0.107  1.00  0.00     0.053 A 
ENDROOT
BRANCH   1  19
HETATM   19  N1  UNL     1       0.316  -0.855   0.682  1.00  0.00    -0.376 N 
ATOM     20  H1  UNL     1       0.304  -1.814   0.334  1.00  0.00     0.161 HD
BRANCH  19  21
HETATM   21  C6  UNL     1       1.462  -0.325   1.355  1.00  0.00     0.121 C 
BRANCH  21  22
HETATM   22  C5  UNL     1       2.574  -1.310   1.525  1.00  0.00     0.020 C 
BRANCH  22  23
HETATM   23  C4  UNL     1       3.104  -1.849   0.234  1.00  0.00     0.002 C 
BRANCH  23  24
HETATM   24  C3  UNL     1       3.658  -0.791  -0.675  1.00  0.00    -0.000 C 
BRANCH  24  25
HETATM   25  C2  UNL     1       4.795  -0.021  -0.085  1.00  0.00    -0.005 C 
HETATM   26  C1  UNL     1       5.239   1.002  -1.121  1.00  0.00     0.005 C 
ENDBRANCH  24  25
ENDBRANCH  23  24
ENDBRANCH  22  23
ENDBRANCH  21  22
ENDBRANCH  19  21
ENDBRANCH   1  19
TORSDOF 6
