REMARK  4 active torsions:
REMARK  status: ('A' for Active; 'I' for Inactive)
REMARK    1  A    between atoms: S1_2  and  C2_3 
REMARK    2  A    between atoms: C2_3  and  C4_10 
REMARK    3  A    between atoms: N1_4  and  S2_6 
REMARK    4  A    between atoms: C4_10  and  C15_28 
REMARK       I    between atoms: N2_11  and  C5_13 
REMARK       I    between atoms: C5_13  and  N4_17 
ROOT
HETATM    1  C4  UNL     1      -2.376  -0.807   0.742  1.00  0.00     0.064 C 
HETATM    2  N2  UNL     1      -1.146  -0.898   0.881  1.00  0.00    -0.193 N 
ATOM      3  H2  UNL     1      -0.823  -1.850   0.711  1.00  0.00     0.184 HD
HETATM    4  C5  UNL     1      -0.103  -0.068   1.201  1.00  0.00     0.676 C 
HETATM    5  N3  UNL     1       0.330   0.112   2.420  1.00  0.00    -0.234 N 
ATOM      6  H31 UNL     1       1.106   0.730   2.658  1.00  0.00     0.174 HD
ATOM      7  H32 UNL     1      -0.157  -0.396   3.158  1.00  0.00     0.174 HD
HETATM    8  N4  UNL     1       0.580   0.644   0.166  1.00  0.00    -0.199 N 
ATOM      9  H4  UNL     1       0.085   1.393  -0.318  1.00  0.00     0.183 HD
HETATM   10  C6  UNL     1       1.792   0.382  -0.182  1.00  0.00     0.005 C 
HETATM   11  C7  UNL     1       2.492   1.131  -1.261  1.00  0.00     0.058 C 
HETATM   12  C8  UNL     1       3.669   0.256  -1.537  1.00  0.00    -0.005 C 
HETATM   13  C9  UNL     1       4.859   0.950  -2.095  1.00  0.00     0.005 C 
HETATM   14  C10 UNL     1       6.094   0.805  -1.238  1.00  0.00     0.000 C 
HETATM   15  C11 UNL     1       6.335  -0.592  -0.761  1.00  0.00     0.000 C 
HETATM   16  C12 UNL     1       5.053  -1.258  -0.246  1.00  0.00     0.005 C 
HETATM   17  C13 UNL     1       4.034  -0.182  -0.111  1.00  0.00    -0.005 C 
HETATM   18  C14 UNL     1       2.694  -0.658   0.382  1.00  0.00     0.058 C 
ENDROOT
BRANCH   1  19
HETATM   19  C2  UNL     1      -3.113   0.471   0.933  1.00  0.00     0.102 C 
HETATM   20  N1  UNL     1      -4.327   0.429   0.767  1.00  0.00    -0.277 N 
ATOM     21  H1  UNL     1      -4.567  -0.532   0.522  1.00  0.00     0.179 HD
BRANCH  19  22
HETATM   22  S1  UNL     1      -2.149   1.868   1.370  1.00  0.00    -0.114 SA
HETATM   23  C1  UNL     1      -3.014   3.401   1.596  1.00  0.00     0.097 C 
ENDBRANCH  19  22
BRANCH  20  24
HETATM   24  S2  UNL     1      -5.723   1.294   0.780  1.00  0.00     0.227 S 
HETATM   25  C3  UNL     1      -7.052   0.315   0.050  1.00  0.00     0.186 C 
HETATM   26  O1  UNL     1      -5.652   2.577  -0.014  1.00  0.00    -0.206 OA
HETATM   27  O2  UNL     1      -6.158   1.568   2.209  1.00  0.00    -0.206 OA
ENDBRANCH  20  24
ENDBRANCH   1  19
BRANCH   1  28
HETATM   28  C15 UNL     1      -3.149  -2.044   0.366  1.00  0.00     0.031 C 
HETATM   29  C16 UNL     1      -3.850  -1.823  -0.939  1.00  0.00     0.016 C 
HETATM   30  C17 UNL     1      -2.218  -3.220   0.359  1.00  0.00     0.016 C 
ENDBRANCH   1  28
TORSDOF 4
