REMARK  6 active torsions:
REMARK  status: ('A' for Active; 'I' for Inactive)
REMARK    1  A    between atoms: C3_4  and  C4_5 
REMARK    2  A    between atoms: C4_5  and  C5_6 
REMARK    3  A    between atoms: C5_6  and  C6_7 
REMARK    4  A    between atoms: C6_7  and  N1_8 
REMARK    5  A    between atoms: C11_13  and  N2_14 
REMARK    6  A    between atoms: N2_14  and  C12_16 
ROOT
HETATM    1  C1  UNL     1      -0.356  -2.646  -2.009  1.00  0.00     0.057 C 
HETATM    2  C2  UNL     1       0.707  -1.688  -1.511  1.00  0.00    -0.011 A 
HETATM    3  S1  UNL     1       2.344  -1.610  -2.068  1.00  0.00    -0.085 SA
HETATM    4  C3  UNL     1       2.898  -0.367  -1.072  1.00  0.00     0.065 A 
HETATM    5  C9  UNL     1       1.811  -0.028  -0.319  1.00  0.00    -0.023 A 
HETATM    6  C10 UNL     1       0.663  -0.721  -0.554  1.00  0.00    -0.015 A 
HETATM    7  C11 UNL     1      -0.533  -0.252   0.291  1.00  0.00     0.112 C 
HETATM    8  C22 UNL     1      -0.175  -0.329   1.736  1.00  0.00     0.030 C 
HETATM    9  C23 UNL     1       1.252   0.179   1.993  1.00  0.00     0.007 C 
HETATM   10  C24 UNL     1       1.722   1.008   0.802  1.00  0.00     0.041 C 
ENDROOT
BRANCH   7  11
HETATM   11  N2  UNL     1      -1.706  -0.828  -0.179  1.00  0.00    -0.404 N 
ATOM     12  H2  UNL     1      -1.627  -1.603  -0.838  1.00  0.00     0.154 HD
BRANCH  11  13
HETATM   13  C12 UNL     1      -2.999  -0.409   0.197  1.00  0.00     0.027 C 
HETATM   14  C13 UNL     1      -3.436  -0.503   1.600  1.00  0.00     0.035 C 
HETATM   15  C14 UNL     1      -4.950  -0.234   1.671  1.00  0.00    -0.012 C 
HETATM   16  C15 UNL     1      -5.750  -1.150   0.813  1.00  0.00     0.009 C 
HETATM   17  C19 UNL     1      -5.143   1.225   1.311  1.00  0.00     0.009 C 
HETATM   18  C16 UNL     1      -5.341  -0.879  -0.631  1.00  0.00    -0.012 C 
HETATM   19  C17 UNL     1      -5.615   0.549  -0.975  1.00  0.00     0.009 C 
HETATM   20  C21 UNL     1      -3.912  -1.255  -0.729  1.00  0.00     0.035 C 
HETATM   21  C18 UNL     1      -4.693   1.404  -0.128  1.00  0.00    -0.012 C 
HETATM   22  C20 UNL     1      -3.254   1.032  -0.271  1.00  0.00     0.035 C 
ENDBRANCH  11  13
ENDBRANCH   7  11
BRANCH   4  23
HETATM   23  C4  UNL     1       4.223   0.235  -1.037  1.00  0.00    -0.057 C 
BRANCH  23  24
HETATM   24  C5  UNL     1       5.316   0.760  -1.027  1.00  0.00    -0.070 C 
BRANCH  24  25
HETATM   25  C6  UNL     1       6.600   1.412  -1.035  1.00  0.00     0.365 C 
BRANCH  25  26
HETATM   26  N1  UNL     1       7.690   0.574  -0.663  1.00  0.00     0.090 N 
HETATM   27  C7  UNL     1       7.698   0.166   0.709  1.00  0.00     0.310 C 
HETATM   28  C8  UNL     1       8.937   1.311  -0.907  1.00  0.00     0.310 C 
ENDBRANCH  25  26
ENDBRANCH  24  25
ENDBRANCH  23  24
ENDBRANCH   4  23
TORSDOF 6
