REMARK  5 active torsions:
REMARK  status: ('A' for Active; 'I' for Inactive)
REMARK    1  A    between atoms: O1_2  and  C2_3 
REMARK    2  A    between atoms: C2_3  and  C3_4 
REMARK    3  A    between atoms: N1_10  and  C8_11 
REMARK    4  A    between atoms: C8_11  and  N2_13 
REMARK    5  A    between atoms: N2_13  and  C9_15 
ROOT
HETATM    1  C8  UNL     1       0.044   0.834  -0.775  1.00  0.00     0.170 C 
HETATM    2  S2  UNL     1      -0.411   2.317  -0.294  1.00  0.00    -0.041 SA
ENDROOT
BRANCH   1   3
HETATM    3  N1  UNL     1       1.351   0.701  -1.288  1.00  0.00    -0.353 N 
HETATM    4  C7  UNL     1       2.245   1.865  -1.374  1.00  0.00     0.172 C 
HETATM    5  C6  UNL     1       3.634   1.417  -0.981  1.00  0.00     0.007 A 
HETATM    6  C5  UNL     1       4.111   0.267  -1.549  1.00  0.00    -0.041 A 
HETATM    7  S1  UNL     1       4.902   1.913   0.031  1.00  0.00    -0.095 SA
HETATM    8  C4  UNL     1       5.343  -0.126  -1.187  1.00  0.00     0.025 A 
HETATM    9  C21 UNL     1       3.152  -0.384  -2.527  1.00  0.00     0.059 C 
HETATM   10  C3  UNL     1       6.013   0.657  -0.282  1.00  0.00     0.007 A 
HETATM   11  C20 UNL     1       1.848  -0.577  -1.741  1.00  0.00     0.130 C 
BRANCH  10  12
HETATM   12  C2  UNL     1       7.398   0.433   0.275  1.00  0.00     0.213 C 
BRANCH  12  13
HETATM   13  O1  UNL     1       7.294  -0.423   1.337  1.00  0.00    -0.391 OA
HETATM   14  C1  UNL     1       6.492   0.060   2.355  1.00  0.00     0.201 C 
ENDBRANCH  12  13
ENDBRANCH  10  12
ENDBRANCH   1   3
BRANCH   1  15
HETATM   15  N2  UNL     1      -0.807  -0.277  -0.687  1.00  0.00    -0.358 N 
ATOM     16  H2  UNL     1      -0.414  -1.162  -1.009  1.00  0.00     0.162 HD
BRANCH  15  17
HETATM   17  C9  UNL     1      -2.165  -0.335  -0.201  1.00  0.00     0.033 C 
HETATM   18  C10 UNL     1      -3.048   0.514  -1.046  1.00  0.00     0.035 C 
HETATM   19  C11 UNL     1      -4.532   0.333  -0.712  1.00  0.00    -0.012 C 
HETATM   20  C12 UNL     1      -4.937   1.168   0.459  1.00  0.00     0.005 C 
HETATM   21  C17 UNL     1      -4.946  -1.093  -0.604  1.00  0.00     0.009 C 
HETATM   22  C13 UNL     1      -4.632   0.675   1.796  1.00  0.00     0.005 C 
HETATM   23  C14 UNL     1      -3.511  -0.308   1.942  1.00  0.00    -0.012 C 
HETATM   24  C15 UNL     1      -3.960  -1.716   1.623  1.00  0.00     0.009 C 
HETATM   25  C19 UNL     1      -2.258   0.107   1.216  1.00  0.00     0.035 C 
HETATM   26  C16 UNL     1      -3.982  -1.958   0.132  1.00  0.00    -0.012 C 
HETATM   27  C18 UNL     1      -2.602  -1.789  -0.381  1.00  0.00     0.035 C 
ENDBRANCH  15  17
ENDBRANCH   1  15
TORSDOF 5
