REMARK  6 active torsions:
REMARK  status: ('A' for Active; 'I' for Inactive)
REMARK       I    between atoms: C1_2  and  N1_3 
REMARK    1  A    between atoms: C1_2  and  C7_10 
REMARK    2  A    between atoms: N1_3  and  C2_5 
REMARK    3  A    between atoms: N2_14  and  C11_15 
REMARK    4  A    between atoms: C11_15  and  O2_16 
REMARK    5  A    between atoms: C11_15  and  C12_18 
REMARK    6  A    between atoms: C12_18  and  C13_19 
ROOT
HETATM    1  C11 UNL     1      -1.013  -0.192  -0.992  1.00  0.00     0.128 C 
ENDROOT
BRANCH   1   2
HETATM    2  N2  UNL     1      -0.279  -1.354  -0.646  1.00  0.00    -0.351 N 
HETATM    3  C7  UNL     1       1.168  -1.365  -0.654  1.00  0.00     0.178 C 
HETATM    4  C8  UNL     1       1.554  -2.755  -0.234  1.00  0.00     0.037 C 
HETATM    5  C9  UNL     1       0.359  -3.245   0.562  1.00  0.00     0.022 C 
HETATM    6  C10 UNL     1      -0.753  -2.649  -0.329  1.00  0.00     0.126 C 
BRANCH   3   7
HETATM    7  C1  UNL     1       1.760  -0.449   0.329  1.00  0.00     0.240 C 
HETATM    8  O1  UNL     1       1.062   0.205   1.117  1.00  0.00    -0.271 OA
HETATM    9  N1  UNL     1       3.163  -0.314   0.372  1.00  0.00    -0.355 N 
ATOM     10  H1  UNL     1       3.732  -0.854  -0.279  1.00  0.00     0.162 HD
BRANCH   9  11
HETATM   11  C2  UNL     1       3.823   0.574   1.319  1.00  0.00     0.084 C 
HETATM   12  C3  UNL     1       4.836  -0.218   2.086  1.00  0.00     0.025 C 
HETATM   13  C4  UNL     1       5.801   0.833   2.574  1.00  0.00     0.002 C 
HETATM   14  C5  UNL     1       5.979   1.680   1.329  1.00  0.00     0.002 C 
HETATM   15  C6  UNL     1       4.672   1.606   0.607  1.00  0.00     0.025 C 
ENDBRANCH   9  11
ENDBRANCH   3   7
ENDBRANCH   1   2
BRANCH   1  16
HETATM   16  O2  UNL     1      -0.239   0.791  -1.363  1.00  0.00    -0.349 OA
ATOM     17  H2  UNL     1      -0.731   1.570  -1.595  1.00  0.00     0.219 HD
ENDBRANCH   1  16
BRANCH   1  18
HETATM   18  C12 UNL     1      -2.422   0.114  -1.022  1.00  0.00     0.056 C 
HETATM   19  C17 UNL     1      -3.437  -0.936  -0.981  1.00  0.00     0.028 C 
HETATM   20  C18 UNL     1      -4.113  -0.900   0.369  1.00  0.00    -0.013 C 
HETATM   21  C19 UNL     1      -5.113   0.268   0.303  1.00  0.00     0.005 C 
HETATM   22  C22 UNL     1      -3.072  -0.212   1.239  1.00  0.00     0.011 C 
HETATM   23  C20 UNL     1      -4.175   1.482   0.161  1.00  0.00     0.006 C 
HETATM   24  C21 UNL     1      -2.761   0.899   0.276  1.00  0.00     0.007 C 
BRANCH  18  25
HETATM   25  C13 UNL     1      -2.704   1.196  -2.088  1.00  0.00    -0.034 A 
HETATM   26  C14 UNL     1      -2.126   2.399  -2.027  1.00  0.00     0.016 A 
HETATM   27  C15 UNL     1      -2.398   3.280  -3.043  1.00  0.00     0.050 A 
HETATM   28  S1  UNL     1      -3.452   2.402  -4.049  1.00  0.00    -0.113 SA
HETATM   29  C16 UNL     1      -3.515   0.928  -3.140  1.00  0.00     0.058 A 
ENDBRANCH  18  25
ENDBRANCH   1  18
TORSDOF 6
