REMARK  4 active torsions:
REMARK  status: ('A' for Active; 'I' for Inactive)
REMARK    1  A    between atoms: C2_2  and  C4_4 
REMARK    2  A    between atoms: N1_6  and  C6_7 
REMARK       I    between atoms: N2_15  and  C14_16 
REMARK    3  A    between atoms: C14_16  and  O2_18 
REMARK    4  A    between atoms: O2_18  and  C15_19 
ROOT
HETATM    1  C4  UNL     1      -1.422  -0.700   1.824  1.00  0.00     0.121 C 
HETATM    2  C5  UNL     1      -2.781  -0.607   1.207  1.00  0.00     0.298 C 
HETATM    3  N1  UNL     1      -2.793  -0.398  -0.210  1.00  0.00     0.096 N 
HETATM    4  C12 UNL     1      -1.934  -1.177  -1.008  1.00  0.00     0.293 C 
HETATM    5  C13 UNL     1      -0.567  -1.360  -0.453  1.00  0.00     0.159 C 
HETATM    6  N2  UNL     1      -0.361  -0.711   0.818  1.00  0.00    -0.320 N 
HETATM    7  C14 UNL     1       0.900  -0.097   1.027  1.00  0.00     0.363 C 
HETATM    8  O1  UNL     1       1.070   0.469   2.136  1.00  0.00    -0.238 OA
ENDROOT
BRANCH   1   9
HETATM    9  C2  UNL     1      -1.266  -1.807   2.817  1.00  0.00     0.002 C 
HETATM   10  C1  UNL     1      -1.494  -3.174   2.313  1.00  0.00     0.011 C 
HETATM   11  C3  UNL     1      -2.197  -1.538   3.976  1.00  0.00     0.011 C 
ENDBRANCH   1   9
BRANCH   7  12
HETATM   12  O2  UNL     1       1.916  -0.092   0.103  1.00  0.00    -0.298 OA
BRANCH  12  13
HETATM   13  C15 UNL     1       3.138   0.527   0.359  1.00  0.00     0.142 C 
HETATM   14  C16 UNL     1       3.451   1.674  -0.561  1.00  0.00     0.016 C 
HETATM   15  C17 UNL     1       4.582   2.481   0.090  1.00  0.00     0.012 C 
HETATM   16  C21 UNL     1       3.957   1.242  -1.902  1.00  0.00     0.012 C 
HETATM   17  C18 UNL     1       5.780   1.583   0.311  1.00  0.00    -0.013 C 
HETATM   18  C19 UNL     1       6.286   1.169  -1.050  1.00  0.00     0.009 C 
HETATM   19  C24 UNL     1       5.434   0.347   1.117  1.00  0.00     0.012 C 
HETATM   20  C20 UNL     1       5.195   0.394  -1.752  1.00  0.00    -0.013 C 
HETATM   21  C22 UNL     1       4.830  -0.826  -0.936  1.00  0.00     0.012 C 
HETATM   22  C23 UNL     1       4.310  -0.416   0.403  1.00  0.00     0.016 C 
ENDBRANCH  12  13
ENDBRANCH   7  12
BRANCH   3  23
HETATM   23  C6  UNL     1      -4.176  -0.437  -0.624  1.00  0.00     0.223 C 
HETATM   24  C7  UNL     1      -4.881   0.719   0.072  1.00  0.00     0.036 C 
HETATM   25  C8  UNL     1      -6.048   1.214  -0.785  1.00  0.00     0.002 C 
HETATM   26  C9  UNL     1      -5.512   1.930  -1.993  1.00  0.00     0.000 C 
HETATM   27  C10 UNL     1      -4.237   1.239  -2.482  1.00  0.00     0.002 C 
HETATM   28  C11 UNL     1      -4.372  -0.238  -2.097  1.00  0.00     0.036 C 
ENDBRANCH   3  23
TORSDOF 4
