REMARK  3 active torsions:
REMARK  status: ('A' for Active; 'I' for Inactive)
REMARK       I    between atoms: C1_2  and  N1_3 
REMARK    1  A    between atoms: C1_2  and  C9_13 
REMARK    2  A    between atoms: N1_3  and  C2_5 
REMARK    3  A    between atoms: N3_17  and  C13_18 
ROOT
HETATM    1  C9  UNL     1       0.211   0.905  -0.087  1.00  0.00     0.108 A 
HETATM    2  C10 UNL     1       0.818   2.168  -0.050  1.00  0.00     0.045 A 
HETATM    3  C11 UNL     1      -0.162   3.147   0.119  1.00  0.00    -0.033 A 
HETATM    4  C12 UNL     1      -1.331   2.466   0.181  1.00  0.00     0.023 A 
HETATM    5  N3  UNL     1      -1.114   1.097   0.057  1.00  0.00    -0.317 N 
HETATM    6  C21 UNL     1      -2.610   3.197   0.360  1.00  0.00     0.058 C 
HETATM    7  C22 UNL     1      -2.456   4.598  -0.195  1.00  0.00     0.006 C 
HETATM    8  C23 UNL     1      -1.276   5.303   0.427  1.00  0.00     0.005 C 
HETATM    9  C24 UNL     1       0.012   4.601   0.212  1.00  0.00     0.040 C 
ENDROOT
BRANCH   1  10
HETATM   10  C1  UNL     1       0.969  -0.292  -0.250  1.00  0.00     0.269 C 
HETATM   11  O1  UNL     1       0.531  -1.475  -0.329  1.00  0.00    -0.266 OA
HETATM   12  N1  UNL     1       2.409  -0.241  -0.345  1.00  0.00    -0.349 N 
ATOM     13  H1  UNL     1       2.868   0.668  -0.292  1.00  0.00     0.163 HD
BRANCH  12  14
HETATM   14  C2  UNL     1       3.231  -1.421  -0.512  1.00  0.00     0.117 C 
HETATM   15  C3  UNL     1       4.052  -1.339  -1.800  1.00  0.00     0.297 C 
HETATM   16  N2  UNL     1       5.376  -1.872  -1.595  1.00  0.00     0.090 N 
HETATM   17  C4  UNL     1       5.285  -3.170  -0.946  1.00  0.00     0.273 C 
HETATM   18  C8  UNL     1       6.166  -1.016  -0.726  1.00  0.00     0.273 C 
HETATM   19  C5  UNL     1       4.815  -2.996   0.471  1.00  0.00     0.037 C 
HETATM   20  C6  UNL     1       4.215  -1.606   0.617  1.00  0.00     0.013 C 
HETATM   21  C7  UNL     1       5.330  -0.591   0.454  1.00  0.00     0.037 C 
ENDBRANCH  12  14
ENDBRANCH   1  10
BRANCH   5  22
HETATM   22  C13 UNL     1      -2.135   0.130   0.085  1.00  0.00     0.008 C 
HETATM   23  C14 UNL     1      -2.197  -0.858   1.179  1.00  0.00     0.080 C 
HETATM   24  C15 UNL     1      -3.454  -1.087   1.938  1.00  0.00    -0.025 C 
HETATM   25  C16 UNL     1      -4.709  -1.528   1.394  1.00  0.00    -0.029 C 
HETATM   26  C17 UNL     1      -4.979  -2.550   0.387  1.00  0.00     0.038 C 
HETATM   27  C18 UNL     1      -4.721  -2.139  -1.104  1.00  0.00     0.084 C 
HETATM   28  C19 UNL     1      -3.647  -1.256  -1.037  1.00  0.00    -0.177 C 
HETATM   29  C20 UNL     1      -2.573  -0.390  -1.326  1.00  0.00     0.133 C 
ENDBRANCH   5  22
TORSDOF 3
