REMARK  3 active torsions:
REMARK  status: ('A' for Active; 'I' for Inactive)
REMARK    1  A    between atoms: C9_10  and  C10_11 
REMARK    2  A    between atoms: C13_16  and  C14_17 
REMARK    3  A    between atoms: C14_17  and  C15_18 
ROOT
HETATM    1  C10 UNL     1      -1.273  -0.951  -0.143  1.00  0.00     0.105 A 
HETATM    2  N1  UNL     1      -1.317  -2.229  -0.583  1.00  0.00    -0.347 N 
ATOM      3  H1  UNL     1      -2.187  -2.750  -0.471  1.00  0.00     0.167 HD
HETATM    4  C11 UNL     1      -0.289  -2.838  -1.152  1.00  0.00     0.018 A 
HETATM    5  C12 UNL     1       0.910  -2.137  -1.314  1.00  0.00    -0.013 A 
HETATM    6  C13 UNL     1       0.994  -0.841  -0.880  1.00  0.00     0.019 A 
HETATM    7  N2  UNL     1      -0.130  -0.305  -0.304  1.00  0.00    -0.347 N 
ATOM      8  H2  UNL     1      -0.081   0.660   0.023  1.00  0.00     0.167 HD
HETATM    9  C21 UNL     1       2.059  -2.768  -1.985  1.00  0.00     0.042 C 
HETATM   10  C22 UNL     1       2.220  -4.217  -1.620  1.00  0.00     0.005 C 
HETATM   11  C23 UNL     1       0.993  -4.877  -1.097  1.00  0.00     0.006 C 
HETATM   12  C24 UNL     1      -0.259  -4.237  -1.653  1.00  0.00     0.057 C 
ENDROOT
BRANCH   1  13
HETATM   13  C9  UNL     1      -2.481  -0.375   0.468  1.00  0.00     0.155 C 
HETATM   14  C8  UNL     1      -2.417  -0.360   1.997  1.00  0.00     0.033 C 
HETATM   15  C7  UNL     1      -3.812  -0.031   2.483  1.00  0.00     0.004 C 
HETATM   16  C6  UNL     1      -4.249   1.295   1.903  1.00  0.00     0.025 C 
HETATM   17  C5  UNL     1      -3.163   1.920   1.056  1.00  0.00     0.088 C 
HETATM   18  C4  UNL     1      -3.747   3.162   0.412  1.00  0.00     0.026 C 
HETATM   19  N3  UNL     1      -2.777   0.951   0.042  1.00  0.00    -0.336 N 
HETATM   20  C3  UNL     1      -2.887   3.632  -0.744  1.00  0.00     0.011 C 
HETATM   21  C2  UNL     1      -2.982   2.631  -1.865  1.00  0.00     0.103 C 
HETATM   22  C1  UNL     1      -2.693   1.289  -1.332  1.00  0.00     0.220 C 
HETATM   23  O1  UNL     1      -2.351   0.413  -2.198  1.00  0.00    -0.273 OA
ENDBRANCH   1  13
BRANCH   6  24
HETATM   24  C14 UNL     1       2.208   0.006  -0.953  1.00  0.00     0.062 C 
BRANCH  24  25
HETATM   25  C15 UNL     1       3.204  -0.199   0.131  1.00  0.00    -0.009 C 
HETATM   26  C16 UNL     1       2.667   0.081   1.526  1.00  0.00     0.005 C 
HETATM   27  C17 UNL     1       3.112   1.414   2.070  1.00  0.00     0.000 C 
HETATM   28  C18 UNL     1       3.105   2.516   1.047  1.00  0.00     0.000 C 
HETATM   29  C19 UNL     1       3.952   2.181  -0.143  1.00  0.00     0.000 C 
HETATM   30  C20 UNL     1       4.382   0.748  -0.053  1.00  0.00     0.005 C 
ENDBRANCH  24  25
ENDBRANCH   6  24
TORSDOF 3
