REMARK  4 active torsions:
REMARK  status: ('A' for Active; 'I' for Inactive)
REMARK    1  A    between atoms: C2_2  and  C3_3 
REMARK    2  A    between atoms: C10_10  and  N1_11 
REMARK    3  A    between atoms: N1_11  and  C11_14 
REMARK    4  A    between atoms: N2_17  and  C14_18 
ROOT
HETATM    1  C3  UNL     1      -4.551  -1.103   0.689  1.00  0.00    -0.044 C 
HETATM    2  C4  UNL     1      -4.348  -1.976   1.946  1.00  0.00     0.015 C 
HETATM    3  C5  UNL     1      -4.473  -1.992  -0.493  1.00  0.00     0.009 C 
HETATM    4  C6  UNL     1      -3.028  -2.340  -0.760  1.00  0.00     0.002 C 
HETATM    5  C7  UNL     1      -2.363  -1.020  -1.167  1.00  0.00     0.010 C 
HETATM    6  C8  UNL     1      -2.354  -0.062  -0.037  1.00  0.00    -0.030 C 
HETATM    7  C9  UNL     1      -1.139  -0.422   0.845  1.00  0.00     0.043 C 
HETATM    8  C10 UNL     1       0.025  -0.011   0.022  1.00  0.00     0.188 C 
HETATM    9  C20 UNL     1      -0.526   0.989  -0.998  1.00  0.00     0.043 C 
HETATM   10  C21 UNL     1      -1.920   1.314  -0.491  1.00  0.00    -0.031 C 
HETATM   11  C22 UNL     1      -2.758   1.976  -1.504  1.00  0.00     0.010 C 
HETATM   12  C23 UNL     1      -3.406   3.190  -0.896  1.00  0.00     0.001 C 
HETATM   13  C24 UNL     1      -2.864   3.340   0.483  1.00  0.00     0.001 C 
HETATM   14  C25 UNL     1      -1.817   2.263   0.660  1.00  0.00     0.010 C 
HETATM   15  C26 UNL     1      -3.614   0.064   0.719  1.00  0.00     0.019 C 
ENDROOT
BRANCH   8  16
HETATM   16  N1  UNL     1       1.090   0.686   0.686  1.00  0.00    -0.067 N 
ATOM     17  H12 UNL     1       0.979   1.697   0.613  1.00  0.00     0.278 HD
ATOM     18  H11 UNL     1       1.024   0.594   1.700  1.00  0.00     0.278 HD
BRANCH  16  19
HETATM   19  C11 UNL     1       2.376   0.259   0.199  1.00  0.00     0.189 C 
HETATM   20  C12 UNL     1       2.772  -1.152   0.538  1.00  0.00     0.063 C 
HETATM   21  C13 UNL     1       4.137  -1.370  -0.111  1.00  0.00     0.275 C 
HETATM   22  N2  UNL     1       5.102  -0.576   0.556  1.00  0.00     0.097 N 
HETATM   23  C18 UNL     1       4.740   0.776   0.867  1.00  0.00     0.275 C 
HETATM   24  C19 UNL     1       3.458   1.270   0.325  1.00  0.00     0.063 C 
BRANCH  22  25
HETATM   25  C14 UNL     1       6.430  -0.672  -0.016  1.00  0.00     0.149 C 
HETATM   26  C15 UNL     1       7.417  -0.023   0.911  1.00  0.00     0.048 C 
HETATM   27  C16 UNL     1       6.809  -2.114  -0.155  1.00  0.00     0.048 C 
HETATM   28  C17 UNL     1       6.534  -0.017  -1.374  1.00  0.00     0.048 C 
ENDBRANCH  22  25
ENDBRANCH  16  19
ENDBRANCH   8  16
BRANCH   1  29
HETATM   29  C2  UNL     1      -5.974  -0.611   0.792  1.00  0.00     0.004 C 
HETATM   30  C1  UNL     1      -6.376   0.297  -0.344  1.00  0.00     0.006 C 
ENDBRANCH   1  29
TORSDOF 4
