REMARK  5 active torsions:
REMARK  status: ('A' for Active; 'I' for Inactive)
REMARK    1  A    between atoms: C7_9  and  C8_10 
REMARK    2  A    between atoms: C11_13  and  C12_14 
REMARK    3  A    between atoms: C12_14  and  N2_15 
REMARK    4  A    between atoms: N2_15  and  N3_17 
REMARK    5  A    between atoms: N3_17  and  N4_18 
ROOT
HETATM    1  C1  UNL     1      -4.306   2.904  -2.022  1.00  0.00     0.016 C 
HETATM    2  C2  UNL     1      -4.146   2.456  -0.805  1.00  0.00    -0.068 C 
HETATM    3  C3  UNL     1      -3.130   3.071   0.084  1.00  0.00     0.153 C 
HETATM    4  N1  UNL     1      -2.296   2.014   0.598  1.00  0.00    -0.389 N 
ATOM      5  H1  UNL     1      -1.444   2.242   1.110  1.00  0.00     0.159 HD
HETATM    6  C4  UNL     1      -2.658   0.657   0.394  1.00  0.00     0.008 C 
HETATM    7  C5  UNL     1      -1.700  -0.238   0.327  1.00  0.00    -0.056 C 
HETATM    8  C6  UNL     1      -0.274   0.087   0.451  1.00  0.00     0.041 C 
HETATM    9  C7  UNL     1       0.571  -0.764  -0.489  1.00  0.00    -0.001 C 
HETATM   10  C15 UNL     1       0.312  -2.208  -0.465  1.00  0.00     0.006 C 
HETATM   11  C16 UNL     1       1.332  -3.116   0.125  1.00  0.00     0.013 C 
HETATM   12  C17 UNL     1       0.836  -3.535   1.487  1.00  0.00     0.079 C 
HETATM   13  C18 UNL     1      -0.455  -2.813   1.626  1.00  0.00     0.136 C 
HETATM   14  O1  UNL     1      -0.970  -2.468   2.655  1.00  0.00    -0.297 OA
HETATM   15  C19 UNL     1      -0.959  -2.615   0.248  1.00  0.00     0.024 C 
HETATM   16  C20 UNL     1      -1.430  -3.954  -0.306  1.00  0.00     0.024 C 
HETATM   17  C21 UNL     1      -2.074  -1.653   0.122  1.00  0.00     0.053 C 
HETATM   18  C22 UNL     1      -4.066   0.214   0.252  1.00  0.00     0.065 C 
HETATM   19  C23 UNL     1      -4.953   1.330  -0.256  1.00  0.00     0.017 C 
HETATM   20  C24 UNL     1      -5.833   1.832   0.853  1.00  0.00     0.015 C 
ENDROOT
BRANCH   9  21
HETATM   21  C8  UNL     1       1.989  -0.297  -0.527  1.00  0.00    -0.010 C 
HETATM   22  C9  UNL     1       2.674  -0.157   0.791  1.00  0.00     0.005 C 
HETATM   23  C10 UNL     1       4.185  -0.261   0.537  1.00  0.00     0.007 C 
HETATM   24  C11 UNL     1       4.534   0.527  -0.703  1.00  0.00     0.006 C 
HETATM   25  C13 UNL     1       3.520   1.625  -0.904  1.00  0.00     0.007 C 
HETATM   26  C14 UNL     1       2.166   1.018  -1.266  1.00  0.00     0.005 C 
BRANCH  24  27
HETATM   27  C12 UNL     1       5.902   1.181  -0.501  1.00  0.00     0.160 C 
BRANCH  27  28
HETATM   28  N2  UNL     1       6.272   1.946  -1.666  1.00  0.00    -0.252 N 
ATOM     29  H2  UNL     1       6.428   1.489  -2.565  1.00  0.00     0.196 HD
BRANCH  28  30
HETATM   30  N3  UNL     1       6.394   3.164  -1.547  1.00  0.00    -0.249 NA
BRANCH  30  31
HETATM   31  N4  UNL     1       6.573   4.364  -1.361  1.00  0.00    -0.261 N 
ATOM     32  H42 UNL     1       7.169   3.930  -0.656  1.00  0.00     0.193 HD
ATOM     33  H41 UNL     1       6.674   5.374  -1.262  1.00  0.00     0.193 HD
ENDBRANCH  30  31
ENDBRANCH  28  30
ENDBRANCH  27  28
ENDBRANCH  24  27
ENDBRANCH   9  21
TORSDOF 5
