REMARK  4 active torsions:
REMARK  status: ('A' for Active; 'I' for Inactive)
REMARK    1  A    between atoms: C4_6  and  C5_7 
REMARK    2  A    between atoms: C5_7  and  C6_8 
REMARK    3  A    between atoms: N3_17  and  C14_18 
REMARK    4  A    between atoms: C14_18  and  C15_19 
ROOT
HETATM    1  C6  UNL     1      -3.499  -1.310  -0.565  1.00  0.00     0.022 C 
HETATM    2  C7  UNL     1      -2.502  -1.885  -1.548  1.00  0.00     0.278 C 
HETATM    3  N2  UNL     1      -1.221  -2.093  -0.942  1.00  0.00     0.093 N 
HETATM    4  C8  UNL     1      -1.247  -2.449   0.427  1.00  0.00     0.273 C 
HETATM    5  C9  UNL     1      -1.990  -1.485   1.307  1.00  0.00     0.035 C 
HETATM    6  C10 UNL     1      -2.700  -0.494   0.425  1.00  0.00    -0.006 C 
HETATM    7  C11 UNL     1      -1.874   0.565  -0.156  1.00  0.00     0.013 C 
HETATM    8  C12 UNL     1      -0.520   0.253  -0.636  1.00  0.00     0.048 C 
HETATM    9  C13 UNL     1       0.575   0.484   0.420  1.00  0.00     0.279 C 
HETATM   10  N3  UNL     1       1.875   0.631  -0.211  1.00  0.00     0.089 N 
HETATM   11  C21 UNL     1       1.941  -0.183  -1.385  1.00  0.00     0.274 C 
HETATM   12  C22 UNL     1       1.138  -1.454  -1.246  1.00  0.00     0.066 C 
HETATM   13  C23 UNL     1      -0.342  -1.054  -1.333  1.00  0.00     0.230 C 
ENDROOT
BRANCH   1  14
HETATM   14  C5  UNL     1      -4.632  -0.617  -1.203  1.00  0.00     0.046 C 
BRANCH  14  15
HETATM   15  C4  UNL     1      -5.648  -0.030  -0.348  1.00  0.00    -0.042 A 
HETATM   16  C3  UNL     1      -6.768  -0.712   0.109  1.00  0.00     0.094 A 
HETATM   17  N1  UNL     1      -7.710  -0.175   0.889  1.00  0.00    -0.375 N 
HETATM   18  C2  UNL     1      -7.555   1.120   1.254  1.00  0.00     0.087 A 
ATOM     19  H1  UNL     1      -8.515  -0.719   1.198  1.00  0.00     0.164 HD
HETATM   20  C1  UNL     1      -6.479   1.864   0.847  1.00  0.00     0.018 A 
HETATM   21  C24 UNL     1      -5.525   1.287   0.045  1.00  0.00     0.010 A 
ENDBRANCH  14  15
ENDBRANCH   1  14
BRANCH  10  22
HETATM   22  C14 UNL     1       2.868   0.363   0.776  1.00  0.00     0.277 C 
BRANCH  22  23
HETATM   23  C15 UNL     1       4.280   0.463   0.318  1.00  0.00     0.014 C 
HETATM   24  C16 UNL     1       5.165   0.139   1.531  1.00  0.00     0.006 C 
HETATM   25  C17 UNL     1       6.542  -0.219   1.012  1.00  0.00     0.000 C 
HETATM   26  C18 UNL     1       6.904   0.818  -0.033  1.00  0.00     0.000 C 
HETATM   27  C19 UNL     1       6.132   2.080   0.214  1.00  0.00     0.000 C 
HETATM   28  C20 UNL     1       4.660   1.849  -0.125  1.00  0.00     0.006 C 
ENDBRANCH  22  23
ENDBRANCH  10  22
TORSDOF 4
