REMARK  5 active torsions:
REMARK  status: ('A' for Active; 'I' for Inactive)
REMARK    1  A    between atoms: C17_18  and  C18_19 
REMARK    2  A    between atoms: C18_19  and  C19_20 
REMARK    3  A    between atoms: C19_20  and  O3_22 
REMARK    4  A    between atoms: O3_22  and  C20_23 
REMARK    5  A    between atoms: C20_23  and  C21_24 
ROOT
HETATM    1  C1  UNL     1      -0.338  -2.333   0.479  1.00  0.00     0.016 C 
HETATM    2  C2  UNL     1      -0.079  -0.840   0.561  1.00  0.00    -0.036 C 
HETATM    3  C3  UNL     1      -0.822  -0.295   1.726  1.00  0.00     0.010 C 
HETATM    4  C4  UNL     1      -2.283  -0.204   1.463  1.00  0.00     0.006 C 
HETATM    5  C5  UNL     1      -2.782  -0.670   0.155  1.00  0.00    -0.003 C 
HETATM    6  C6  UNL     1      -1.914  -0.417  -1.031  1.00  0.00    -0.005 C 
HETATM    7  C7  UNL     1      -2.401   0.729  -1.898  1.00  0.00     0.008 C 
HETATM    8  C8  UNL     1      -2.948   1.865  -1.058  1.00  0.00     0.041 C 
HETATM    9  C9  UNL     1      -4.185   1.358  -0.399  1.00  0.00     0.091 A 
HETATM   10  O1  UNL     1      -5.338   1.633  -1.335  1.00  0.00    -0.369 OA
HETATM   11  C10 UNL     1      -5.295   1.940   0.088  1.00  0.00     0.157 A 
HETATM   12  C11 UNL     1      -6.110   0.883   0.835  1.00  0.00     0.035 C 
HETATM   13  C12 UNL     1      -5.065  -0.199   1.112  1.00  0.00     0.011 C 
HETATM   14  C13 UNL     1      -4.166  -0.100  -0.090  1.00  0.00     0.027 C 
HETATM   15  C14 UNL     1      -0.479  -0.112  -0.681  1.00  0.00    -0.002 C 
HETATM   16  C15 UNL     1       0.515  -0.599  -1.681  1.00  0.00     0.006 C 
HETATM   17  C16 UNL     1       1.716  -1.085  -0.873  1.00  0.00     0.006 C 
HETATM   18  C17 UNL     1       1.395  -0.646   0.570  1.00  0.00     0.003 C 
ENDROOT
BRANCH  18  19
HETATM   19  C18 UNL     1       1.873   0.768   0.675  1.00  0.00     0.116 C 
BRANCH  19  20
HETATM   20  C19 UNL     1       3.379   0.719   0.672  1.00  0.00     0.259 C 
HETATM   21  O2  UNL     1       3.928   0.280   1.699  1.00  0.00    -0.265 OA
BRANCH  20  22
HETATM   22  O3  UNL     1       4.143   1.127  -0.385  1.00  0.00    -0.321 OA
BRANCH  22  23
HETATM   23  C20 UNL     1       5.531   1.057  -0.322  1.00  0.00     0.183 C 
BRANCH  23  24
HETATM   24  C21 UNL     1       6.100  -0.313  -0.109  1.00  0.00     0.010 A 
HETATM   25  C22 UNL     1       7.622  -0.336  -0.054  1.00  0.00     0.007 A 
HETATM   26  C23 UNL     1       6.874  -0.539   1.210  1.00  0.00     0.007 A 
ENDBRANCH  23  24
ENDBRANCH  22  23
ENDBRANCH  20  22
ENDBRANCH  19  20
ENDBRANCH  18  19
TORSDOF 5
