REMARK  5 active torsions:
REMARK  status: ('A' for Active; 'I' for Inactive)
REMARK    1  A    between atoms: C2_2  and  C3_3 
REMARK    2  A    between atoms: C3_3  and  C4_4 
REMARK    3  A    between atoms: C4_4  and  C6_6 
REMARK    4  A    between atoms: C18_26  and  C19_27 
REMARK    5  A    between atoms: C20_28  and  C21_29 
ROOT
HETATM    1  C6  UNL     1       3.257  -0.370   0.655  1.00  0.00     0.000 A 
HETATM    2  C7  UNL     1       3.577  -1.055   1.793  1.00  0.00     0.014 A 
HETATM    3  C8  UNL     1       2.550  -1.641   2.465  1.00  0.00     0.002 A 
HETATM    4  C9  UNL     1       1.211  -1.572   2.045  1.00  0.00     0.011 A 
HETATM    5  C10 UNL     1       0.923  -0.869   0.888  1.00  0.00    -0.010 A 
HETATM    6  C11 UNL     1       1.930  -0.259   0.193  1.00  0.00     0.095 A 
HETATM    7  O1  UNL     1       1.790   0.548  -0.964  1.00  0.00    -0.295 OA
HETATM    8  C12 UNL     1       0.486   0.745  -1.399  1.00  0.00     0.137 C 
HETATM    9  N1  UNL     1       0.159   1.161  -2.553  1.00  0.00    -0.382 N 
ATOM     10  H11 UNL     1      -0.799   1.306  -2.873  1.00  0.00     0.158 HD
ATOM     11  H12 UNL     1       0.907   1.359  -3.218  1.00  0.00     0.158 HD
HETATM   12  C13 UNL     1      -0.616   0.453  -0.420  1.00  0.00     0.182 C 
HETATM   13  C14 UNL     1      -0.488   1.525   0.616  1.00  0.00     0.073 C 
HETATM   14  N2  UNL     1      -0.401   2.330   1.444  1.00  0.00    -0.196 NA
HETATM   15  C15 UNL     1      -0.409  -0.892   0.266  1.00  0.00     0.047 C 
HETATM   16  C16 UNL     1      -0.611  -1.980  -0.767  1.00  0.00     0.198 C 
HETATM   17  C17 UNL     1       0.350  -2.216  -1.805  1.00  0.00     0.041 C 
HETATM   18  N3  UNL     1      -1.875  -1.418  -1.324  1.00  0.00    -0.055 N 
ATOM     19  H31 UNL     1      -2.282  -1.926  -2.109  1.00  0.00     0.279 HD
ATOM     20  H32 UNL     1      -1.786  -0.540  -1.835  1.00  0.00     0.279 HD
HETATM   21  C18 UNL     1      -2.680  -1.371  -0.106  1.00  0.00     0.269 C 
HETATM   22  C25 UNL     1      -1.643  -1.147   1.056  1.00  0.00     0.041 C 
HETATM   23  C26 UNL     1      -1.770  -2.418   1.842  1.00  0.00     0.014 C 
ENDROOT
BRANCH  21  24
HETATM   24  C19 UNL     1      -3.745  -0.459  -0.075  1.00  0.00    -0.072 C 
HETATM   25  C20 UNL     1      -4.693   0.320  -0.041  1.00  0.00    -0.096 C 
BRANCH  25  26
HETATM   26  C21 UNL     1      -5.855   1.221  -0.006  1.00  0.00     0.013 C 
HETATM   27  C22 UNL     1      -6.087   1.608   1.437  1.00  0.00     0.028 C 
HETATM   28  C23 UNL     1      -5.611   2.373  -0.923  1.00  0.00     0.028 C 
HETATM   29  C24 UNL     1      -7.105   0.500  -0.477  1.00  0.00     0.028 C 
ENDBRANCH  25  26
ENDBRANCH  21  24
BRANCH   1  30
HETATM   30  C4  UNL     1       4.325   0.025  -0.293  1.00  0.00    -0.071 C 
HETATM   31  C5  UNL     1       4.108  -0.201  -1.739  1.00  0.00     0.044 C 
BRANCH  30  32
HETATM   32  C3  UNL     1       5.058   1.297   0.018  1.00  0.00     0.034 C 
BRANCH  32  33
HETATM   33  C2  UNL     1       6.412   1.312  -0.650  1.00  0.00    -0.000 C 
HETATM   34  C1  UNL     1       7.091   2.658  -0.460  1.00  0.00     0.005 C 
ENDBRANCH  32  33
ENDBRANCH  30  32
ENDBRANCH   1  30
TORSDOF 5
