REMARK  3 active torsions:
REMARK  status: ('A' for Active; 'I' for Inactive)
REMARK    1  A    between atoms: C2_2  and  C3_3 
REMARK    2  A    between atoms: C6_6  and  N1_7 
REMARK       I    between atoms: N1_7  and  C7_9 
REMARK       I    between atoms: C7_9  and  N2_11 
REMARK    3  A    between atoms: N2_11  and  C8_13 
ROOT
HETATM    1  C8  UNL     1       0.143  -0.730   0.268  1.00  0.00     0.086 C 
HETATM    2  C9  UNL     1      -0.872   0.387   0.420  1.00  0.00     0.025 C 
HETATM    3  C10 UNL     1      -1.125   1.052  -0.906  1.00  0.00     0.002 C 
HETATM    4  C11 UNL     1      -2.398   1.838  -0.937  1.00  0.00     0.000 C 
HETATM    5  C12 UNL     1      -2.607   2.694   0.282  1.00  0.00     0.000 C 
HETATM    6  C13 UNL     1      -4.080   3.045   0.348  1.00  0.00     0.000 C 
HETATM    7  C14 UNL     1      -4.827   1.854   0.833  1.00  0.00     0.000 C 
HETATM    8  C15 UNL     1      -6.183   1.684   0.194  1.00  0.00     0.000 C 
HETATM    9  C16 UNL     1      -6.669   0.288   0.534  1.00  0.00     0.010 C 
HETATM   10  C17 UNL     1      -6.344  -0.686  -0.580  1.00  0.00     0.111 C 
HETATM   11  C18 UNL     1      -6.193  -2.075  -0.077  1.00  0.00     0.258 C 
HETATM   12  O2  UNL     1      -7.195  -2.596   0.475  1.00  0.00    -0.265 OA
HETATM   13  O3  UNL     1      -5.031  -2.794  -0.186  1.00  0.00    -0.321 OA
HETATM   14  C19 UNL     1      -3.740  -2.194  -0.213  1.00  0.00     0.178 C 
HETATM   15  C20 UNL     1      -2.666  -3.218  -0.070  1.00  0.00     0.027 C 
HETATM   16  C21 UNL     1      -1.420  -2.666   0.607  1.00  0.00     0.004 C 
HETATM   17  C22 UNL     1      -0.517  -1.956  -0.353  1.00  0.00     0.025 C 
ENDROOT
BRANCH   1  18
HETATM   18  N2  UNL     1       1.289  -0.308  -0.479  1.00  0.00    -0.338 N 
HETATM   19  C7  UNL     1       2.619  -0.287   0.090  1.00  0.00     0.321 C 
HETATM   20  N1  UNL     1       3.705   0.130  -0.669  1.00  0.00    -0.309 N 
HETATM   21  O1  UNL     1       2.712  -0.654   1.263  1.00  0.00    -0.247 OA
ATOM     22  H1  UNL     1       3.509   0.420  -1.627  1.00  0.00     0.170 HD
ATOM     23  H2  UNL     1       1.163  -0.012  -1.447  1.00  0.00     0.164 HD
BRANCH  20  24
HETATM   24  C6  UNL     1       5.041   0.193  -0.254  1.00  0.00     0.036 A 
HETATM   25  C5  UNL     1       5.981   0.860  -1.077  1.00  0.00     0.030 A 
HETATM   26  C4  UNL     1       7.288   0.961  -0.768  1.00  0.00     0.009 A 
HETATM   27  C3  UNL     1       7.779   0.404   0.397  1.00  0.00    -0.058 A 
HETATM   28  C24 UNL     1       6.921  -0.256   1.238  1.00  0.00     0.009 A 
HETATM   29  C23 UNL     1       5.570  -0.342   0.886  1.00  0.00     0.030 A 
BRANCH  27  30
HETATM   30  C2  UNL     1       9.218   0.520   0.730  1.00  0.00     0.034 C 
HETATM   31  C1  UNL     1       9.982  -0.634   0.170  1.00  0.00     0.010 C 
ENDBRANCH  27  30
ENDBRANCH  20  24
ENDBRANCH   1  18
TORSDOF 3
