REMARK  5 active torsions:
REMARK  status: ('A' for Active; 'I' for Inactive)
REMARK    1  A    between atoms: C3_3  and  C4_4 
REMARK    2  A    between atoms: C4_4  and  C5_5 
REMARK    3  A    between atoms: C5_5  and  N1_6 
REMARK    4  A    between atoms: C7_8  and  O1_9 
REMARK    5  A    between atoms: C8_11  and  O2_12 
ROOT
HETATM    1  C1  UNL     1       1.683  -2.762   0.849  1.00  0.00     0.015 C 
HETATM    2  C2  UNL     1       0.661  -1.933   0.749  1.00  0.00    -0.076 C 
HETATM    3  C3  UNL     1       0.829  -0.507   0.988  1.00  0.00     0.044 C 
HETATM    4  C10 UNL     1      -0.134   0.259   0.214  1.00  0.00    -0.070 C 
HETATM    5  C11 UNL     1       0.169   1.498  -0.232  1.00  0.00    -0.022 C 
HETATM    6  C12 UNL     1      -0.901   2.180  -1.013  1.00  0.00     0.033 C 
HETATM    7  C13 UNL     1      -2.218   2.139  -0.267  1.00  0.00     0.005 C 
HETATM    8  C14 UNL     1      -3.286   2.555  -1.257  1.00  0.00     0.084 C 
HETATM    9  C15 UNL     1      -4.558   2.601  -0.512  1.00  0.00     0.127 C 
HETATM   10  O3  UNL     1      -5.329   3.505  -0.676  1.00  0.00    -0.298 OA
HETATM   11  C16 UNL     1      -4.850   1.515   0.432  1.00  0.00     0.079 C 
HETATM   12  C17 UNL     1      -3.882   0.357   0.296  1.00  0.00     0.017 C 
HETATM   13  C18 UNL     1      -2.469   0.812   0.383  1.00  0.00    -0.032 C 
HETATM   14  C19 UNL     1      -2.132   0.978   1.873  1.00  0.00     0.016 C 
HETATM   15  C20 UNL     1      -1.479  -0.203  -0.143  1.00  0.00     0.028 C 
HETATM   16  C21 UNL     1      -1.778  -1.614   0.186  1.00  0.00     0.003 C 
HETATM   17  C22 UNL     1      -2.559  -2.267  -0.935  1.00  0.00     0.006 C 
HETATM   18  C23 UNL     1      -1.960  -3.615  -1.144  1.00  0.00     0.001 C 
HETATM   19  C24 UNL     1      -0.499  -3.398  -0.807  1.00  0.00     0.009 C 
HETATM   20  C25 UNL     1      -0.638  -2.500   0.425  1.00  0.00     0.019 C 
ENDROOT
BRANCH   3  21
HETATM   21  C4  UNL     1       2.235   0.013   0.882  1.00  0.00     0.033 C 
BRANCH  21  22
HETATM   22  C5  UNL     1       2.898  -0.141  -0.431  1.00  0.00     0.129 C 
BRANCH  22  23
HETATM   23  N1  UNL     1       4.245   0.435  -0.275  1.00  0.00    -0.361 N 
HETATM   24  C6  UNL     1       5.296  -0.296   0.123  1.00  0.00     0.130 A 
HETATM   25  C7  UNL     1       6.420   0.492   0.181  1.00  0.00     0.115 A 
HETATM   26  C8  UNL     1       5.996   1.740  -0.203  1.00  0.00     0.115 A 
HETATM   27  C9  UNL     1       4.648   1.676  -0.479  1.00  0.00     0.130 A 
BRANCH  25  28
HETATM   28  O1  UNL     1       7.710   0.162   0.536  1.00  0.00    -0.357 OA
ATOM     29  H1  UNL     1       8.487   0.707   0.576  1.00  0.00     0.218 HD
ENDBRANCH  25  28
BRANCH  26  30
HETATM   30  O2  UNL     1       6.809   2.860  -0.290  1.00  0.00    -0.357 OA
ATOM     31  H2  UNL     1       6.516   3.724  -0.556  1.00  0.00     0.218 HD
ENDBRANCH  26  30
ENDBRANCH  22  23
ENDBRANCH  21  22
ENDBRANCH   3  21
TORSDOF 5
