REMARK  5 active torsions:
REMARK  status: ('A' for Active; 'I' for Inactive)
REMARK    1  A    between atoms: C9_9  and  C10_10 
REMARK    2  A    between atoms: C10_10  and  O1_11 
REMARK    3  A    between atoms: C15_17  and  C16_18 
REMARK    4  A    between atoms: C17_19  and  C18_20 
REMARK    5  A    between atoms: C26_28  and  O2_29 
ROOT
HETATM    1  C1  UNL     1      -0.627   3.490   0.513  1.00  0.00     0.019 C 
HETATM    2  C2  UNL     1      -1.208   2.598  -0.219  1.00  0.00    -0.060 C 
HETATM    3  C3  UNL     1      -2.518   3.085  -0.873  1.00  0.00     0.039 C 
HETATM    4  C4  UNL     1      -3.642   2.159  -0.449  1.00  0.00     0.011 C 
HETATM    5  C5  UNL     1      -3.266   0.719  -0.568  1.00  0.00     0.007 C 
HETATM    6  C6  UNL     1      -4.393  -0.217  -0.407  1.00  0.00    -0.037 C 
HETATM    7  C7  UNL     1      -5.465   0.279   0.556  1.00  0.00     0.015 C 
HETATM    8  C8  UNL     1      -5.140  -0.228  -1.766  1.00  0.00     0.015 C 
HETATM    9  C9  UNL     1      -3.991  -1.641  -0.168  1.00  0.00     0.017 C 
HETATM   10  C11 UNL     1      -2.532  -1.889  -0.529  1.00  0.00     0.009 C 
HETATM   11  C12 UNL     1      -1.686  -1.020   0.359  1.00  0.00     0.015 C 
HETATM   12  C13 UNL     1      -1.999   0.416   0.202  1.00  0.00    -0.012 C 
HETATM   13  C14 UNL     1      -2.004   1.024   1.600  1.00  0.00     0.021 C 
HETATM   14  C15 UNL     1      -0.911   1.222  -0.550  1.00  0.00    -0.044 C 
ENDROOT
BRANCH  14  15
HETATM   15  C16 UNL     1       0.395   0.654  -0.564  1.00  0.00     0.007 C 
HETATM   16  C17 UNL     1       1.583   0.992  -0.161  1.00  0.00     0.005 C 
BRANCH  16  17
HETATM   17  C18 UNL     1       2.764   0.105  -0.356  1.00  0.00     0.148 C 
HETATM   18  C19 UNL     1       3.532   0.521  -1.556  1.00  0.00     0.036 C 
HETATM   19  C20 UNL     1       4.987   0.361  -1.551  1.00  0.00     0.004 C 
HETATM   20  C21 UNL     1       5.688   0.514  -0.246  1.00  0.00     0.014 C 
HETATM   21  C22 UNL     1       5.710  -0.690   0.617  1.00  0.00     0.013 C 
HETATM   22  C23 UNL     1       6.633  -0.512   1.802  1.00  0.00     0.021 C 
HETATM   23  C24 UNL     1       5.840  -2.023  -0.015  1.00  0.00     0.020 C 
HETATM   24  C26 UNL     1       4.274  -1.055   0.999  1.00  0.00     0.169 C 
HETATM   25  C25 UNL     1       4.325  -2.189   0.085  1.00  0.00     0.070 C 
HETATM   26  O3  UNL     1       3.499   0.023   0.810  1.00  0.00    -0.345 OA
BRANCH  24  27
HETATM   27  O2  UNL     1       4.283  -1.490   2.346  1.00  0.00    -0.365 OA
ATOM     28  H2  UNL     1       3.391  -1.717   2.583  1.00  0.00     0.213 HD
ENDBRANCH  24  27
ENDBRANCH  16  17
ENDBRANCH  14  15
BRANCH   9  29
HETATM   29  C10 UNL     1      -4.329  -2.183   1.189  1.00  0.00     0.169 C 
BRANCH  29  30
HETATM   30  O1  UNL     1      -5.661  -2.196   1.507  1.00  0.00    -0.400 OA
ATOM     31  H1  UNL     1      -5.875  -2.539   2.367  1.00  0.00     0.209 HD
ENDBRANCH  29  30
ENDBRANCH   9  29
TORSDOF 5
