REMARK  5 active torsions:
REMARK  status: ('A' for Active; 'I' for Inactive)
REMARK    1  A    between atoms: C5_6  and  C6_7 
REMARK    2  A    between atoms: C9_10  and  C10_11 
REMARK    3  A    between atoms: C10_11  and  O2_12 
REMARK    4  A    between atoms: C10_11  and  C11_14 
REMARK    5  A    between atoms: C25_28  and  O3_29 
ROOT
HETATM    1  C6  UNL     1       2.647   0.971  -0.786  1.00  0.00    -0.008 C 
HETATM    2  C7  UNL     1       2.297  -0.271  -0.032  1.00  0.00     0.005 C 
HETATM    3  C8  UNL     1       0.771  -0.288   0.129  1.00  0.00     0.007 C 
HETATM    4  C9  UNL     1       0.092   0.111  -1.157  1.00  0.00     0.015 C 
HETATM    5  C22 UNL     1       1.057  -0.194  -2.285  1.00  0.00     0.007 C 
HETATM    6  C23 UNL     1       2.191   0.837  -2.207  1.00  0.00     0.005 C 
ENDROOT
BRANCH   4   7
HETATM    7  C10 UNL     1      -1.167  -0.702  -1.329  1.00  0.00     0.126 C 
BRANCH   7   8
HETATM    8  O2  UNL     1      -1.816  -0.353  -2.513  1.00  0.00    -0.395 OA
ATOM      9  H2  UNL     1      -2.609  -0.865  -2.621  1.00  0.00     0.210 HD
ENDBRANCH   7   8
BRANCH   7  10
HETATM   10  C11 UNL     1      -2.062  -0.677  -0.140  1.00  0.00     0.015 C 
HETATM   11  C12 UNL     1      -2.549   0.677   0.251  1.00  0.00     0.007 C 
HETATM   12  C13 UNL     1      -3.483   1.323  -0.714  1.00  0.00     0.000 C 
HETATM   13  C14 UNL     1      -4.703   1.912   0.006  1.00  0.00     0.000 C 
HETATM   14  C15 UNL     1      -5.979   1.307  -0.538  1.00  0.00     0.000 C 
HETATM   15  C16 UNL     1      -6.876   0.763   0.524  1.00  0.00     0.000 C 
HETATM   16  C17 UNL     1      -6.300  -0.426   1.240  1.00  0.00     0.000 C 
HETATM   17  C18 UNL     1      -6.172  -1.624   0.361  1.00  0.00     0.000 C 
HETATM   18  C19 UNL     1      -5.170  -2.631   0.831  1.00  0.00     0.000 C 
HETATM   19  C20 UNL     1      -3.786  -2.093   0.960  1.00  0.00     0.000 C 
HETATM   20  C21 UNL     1      -3.203  -1.626  -0.357  1.00  0.00     0.007 C 
ENDBRANCH   7  10
ENDBRANCH   4   7
BRANCH   1  21
HETATM   21  C5  UNL     1       4.133   1.274  -0.759  1.00  0.00     0.016 C 
HETATM   22  C4  UNL     1       4.952   0.180  -1.360  1.00  0.00     0.174 C 
HETATM   23  O1  UNL     1       6.287   0.339  -1.003  1.00  0.00    -0.378 OA
HETATM   24  C2  UNL     1       6.520   0.087   0.326  1.00  0.00     0.079 C 
HETATM   25  C1  UNL     1       6.573  -1.433   0.527  1.00  0.00     0.048 C 
HETATM   26  C3  UNL     1       7.946   0.573   0.624  1.00  0.00     0.048 C 
HETATM   27  C25 UNL     1       5.529   0.710   1.253  1.00  0.00     0.152 C 
HETATM   28  C24 UNL     1       4.608   1.694   0.607  1.00  0.00     0.042 C 
BRANCH  27  29
HETATM   29  O3  UNL     1       6.254   1.414   2.242  1.00  0.00    -0.393 OA
ATOM     30  H3  UNL     1       5.623   1.810   2.832  1.00  0.00     0.210 HD
ENDBRANCH  27  29
ENDBRANCH   1  21
TORSDOF 5
