REMARK  13 active torsions:
REMARK  status: ('A' for Active; 'I' for Inactive)
REMARK    1  A    between atoms: C4_4  and  C5_5 
REMARK    2  A    between atoms: C5_5  and  C6_6 
REMARK    3  A    between atoms: C6_6  and  C7_7 
REMARK    4  A    between atoms: C7_7  and  C8_8 
REMARK    5  A    between atoms: C8_8  and  C9_9 
REMARK    6  A    between atoms: C9_9  and  C10_10 
REMARK    7  A    between atoms: C10_10  and  C11_11 
REMARK    8  A    between atoms: C11_11  and  C12_12 
REMARK    9  A    between atoms: C12_12  and  C13_13 
REMARK   10  A    between atoms: C13_13  and  C14_14 
REMARK   11  A    between atoms: C14_14  and  C15_15 
REMARK   12  A    between atoms: C15_15  and  N1_16 
REMARK   13  A    between atoms: N1_16  and  C16_19 
ROOT
HETATM    1  C11 UNL     1       0.701  -2.193  -0.274  1.00  0.00     0.000 C 
ENDROOT
BRANCH   1   2
HETATM    2  C10 UNL     1       2.010  -2.019   0.427  1.00  0.00     0.000 C 
BRANCH   2   3
HETATM    3  C9  UNL     1       2.258  -0.621   0.891  1.00  0.00     0.000 C 
BRANCH   3   4
HETATM    4  C8  UNL     1       2.260   0.391  -0.200  1.00  0.00     0.000 C 
BRANCH   4   5
HETATM    5  C7  UNL     1       3.282   0.190  -1.266  1.00  0.00     0.000 C 
BRANCH   5   6
HETATM    6  C6  UNL     1       4.699   0.195  -0.807  1.00  0.00     0.005 C 
BRANCH   6   7
HETATM    7  C5  UNL     1       5.033   1.511  -0.150  1.00  0.00     0.038 C 
BRANCH   7   8
HETATM    8  C4  UNL     1       6.470   1.429   0.277  1.00  0.00    -0.058 A 
HETATM    9  C3  UNL     1       7.419   1.853  -0.611  1.00  0.00     0.007 A 
HETATM   10  C2  UNL     1       8.763   1.816  -0.318  1.00  0.00     0.001 A 
HETATM   11  C1  UNL     1       9.102   1.323   0.935  1.00  0.00     0.000 A 
HETATM   12  C23 UNL     1       8.157   0.891   1.842  1.00  0.00     0.001 A 
HETATM   13  C22 UNL     1       6.816   0.940   1.521  1.00  0.00     0.007 A 
ENDBRANCH   7   8
ENDBRANCH   6   7
ENDBRANCH   5   6
ENDBRANCH   4   5
ENDBRANCH   3   4
ENDBRANCH   2   3
ENDBRANCH   1   2
BRANCH   1  14
HETATM   14  C12 UNL     1      -0.498  -1.831   0.556  1.00  0.00     0.000 C 
BRANCH  14  15
HETATM   15  C13 UNL     1      -1.719  -2.080  -0.295  1.00  0.00     0.002 C 
BRANCH  15  16
HETATM   16  C14 UNL     1      -3.009  -1.716   0.434  1.00  0.00     0.027 C 
BRANCH  16  17
HETATM   17  C15 UNL     1      -4.205  -2.009  -0.466  1.00  0.00     0.232 C 
BRANCH  17  18
HETATM   18  N1  UNL     1      -5.464  -1.677   0.149  1.00  0.00    -0.071 N 
ATOM     19  H12 UNL     1      -6.249  -2.095  -0.350  1.00  0.00     0.277 HD
ATOM     20  H11 UNL     1      -5.582  -2.149   1.046  1.00  0.00     0.277 HD
BRANCH  18  21
HETATM   21  C16 UNL     1      -5.612  -0.265   0.274  1.00  0.00     0.185 C 
HETATM   22  C17 UNL     1      -6.879   0.056   1.077  1.00  0.00     0.033 C 
HETATM   23  C18 UNL     1      -7.024   1.520   1.310  1.00  0.00     0.002 C 
HETATM   24  C19 UNL     1      -6.953   2.335   0.041  1.00  0.00     0.000 C 
HETATM   25  C20 UNL     1      -5.823   1.888  -0.854  1.00  0.00     0.002 C 
HETATM   26  C21 UNL     1      -5.845   0.401  -1.092  1.00  0.00     0.033 C 
ENDBRANCH  18  21
ENDBRANCH  17  18
ENDBRANCH  16  17
ENDBRANCH  15  16
ENDBRANCH  14  15
ENDBRANCH   1  14
TORSDOF 13
