REMARK  13 active torsions:
REMARK  status: ('A' for Active; 'I' for Inactive)
REMARK    1  A    between atoms: C4_4  and  C5_5 
REMARK    2  A    between atoms: C5_5  and  C6_6 
REMARK    3  A    between atoms: C6_6  and  C7_7 
REMARK    4  A    between atoms: C7_7  and  C8_8 
REMARK    5  A    between atoms: C8_8  and  C9_9 
REMARK    6  A    between atoms: C9_9  and  C10_10 
REMARK    7  A    between atoms: C10_10  and  C11_11 
REMARK    8  A    between atoms: C12_12  and  C13_13 
REMARK    9  A    between atoms: C13_13  and  C14_14 
REMARK   10  A    between atoms: C14_14  and  C15_15 
REMARK   11  A    between atoms: C15_15  and  C16_16 
REMARK   12  A    between atoms: C16_16  and  C17_17 
REMARK   13  A    between atoms: C17_17  and  C18_18 
ROOT
HETATM    1  C11 UNL     1       1.085  -0.333  -0.401  1.00  0.00    -0.031 C 
HETATM    2  C12 UNL     1       1.267  -0.019   0.988  1.00  0.00    -0.031 C 
ENDROOT
BRANCH   1   3
HETATM    3  C10 UNL     1       0.385   0.557  -1.317  1.00  0.00     0.027 C 
BRANCH   3   4
HETATM    4  C9  UNL     1      -1.049   0.821  -1.100  1.00  0.00     0.004 C 
BRANCH   4   5
HETATM    5  C8  UNL     1      -1.398   1.539   0.140  1.00  0.00     0.000 C 
BRANCH   5   6
HETATM    6  C7  UNL     1      -2.914   1.788   0.148  1.00  0.00     0.000 C 
BRANCH   6   7
HETATM    7  C6  UNL     1      -3.621   0.483   0.105  1.00  0.00     0.005 C 
BRANCH   7   8
HETATM    8  C5  UNL     1      -5.131   0.787   0.145  1.00  0.00     0.038 C 
BRANCH   8   9
HETATM    9  C4  UNL     1      -5.801  -0.561   0.100  1.00  0.00    -0.058 A 
HETATM   10  C3  UNL     1      -6.073  -1.204   1.277  1.00  0.00     0.007 A 
HETATM   11  C2  UNL     1      -6.685  -2.434   1.244  1.00  0.00     0.001 A 
HETATM   12  C1  UNL     1      -7.040  -3.057   0.057  1.00  0.00     0.000 A 
HETATM   13  C22 UNL     1      -6.747  -2.374  -1.106  1.00  0.00     0.001 A 
HETATM   14  C21 UNL     1      -6.136  -1.144  -1.093  1.00  0.00     0.007 A 
ENDBRANCH   8   9
ENDBRANCH   7   8
ENDBRANCH   6   7
ENDBRANCH   5   6
ENDBRANCH   4   5
ENDBRANCH   3   4
ENDBRANCH   1   3
BRANCH   2  15
HETATM   15  C13 UNL     1       1.922   1.159   1.541  1.00  0.00     0.027 C 
BRANCH  15  16
HETATM   16  C14 UNL     1       3.361   1.349   1.289  1.00  0.00     0.004 C 
BRANCH  16  17
HETATM   17  C15 UNL     1       3.754   1.557  -0.117  1.00  0.00     0.001 C 
BRANCH  17  18
HETATM   18  C16 UNL     1       5.269   1.789  -0.254  1.00  0.00     0.006 C 
BRANCH  18  19
HETATM   19  C17 UNL     1       6.066   0.619   0.204  1.00  0.00     0.058 C 
BRANCH  19  20
HETATM   20  C18 UNL     1       5.857  -0.622  -0.529  1.00  0.00     0.027 A 
HETATM   21  C19 UNL     1       4.963  -1.628  -0.291  1.00  0.00     0.045 A 
HETATM   22  C20 UNL     1       5.170  -2.575  -1.272  1.00  0.00     0.109 A 
HETATM   23  N1  UNL     1       6.169  -2.148  -2.086  1.00  0.00    -0.312 N 
HETATM   24  N2  UNL     1       6.553  -0.989  -1.619  1.00  0.00    -0.305 N 
ATOM     25  H1  UNL     1       6.545  -2.635  -2.900  1.00  0.00     0.186 HD
ATOM     26  H2  UNL     1       7.296  -0.427  -2.034  1.00  0.00     0.186 HD
ENDBRANCH  19  20
ENDBRANCH  18  19
ENDBRANCH  17  18
ENDBRANCH  16  17
ENDBRANCH  15  16
ENDBRANCH   2  15
TORSDOF 13
