REMARK  14 active torsions:
REMARK  status: ('A' for Active; 'I' for Inactive)
REMARK    1  A    between atoms: C4_4  and  C5_5 
REMARK    2  A    between atoms: C5_5  and  C6_6 
REMARK    3  A    between atoms: C6_6  and  C7_7 
REMARK    4  A    between atoms: C7_7  and  C8_8 
REMARK    5  A    between atoms: C8_8  and  C9_9 
REMARK    6  A    between atoms: C9_9  and  C10_10 
REMARK    7  A    between atoms: C10_10  and  C11_11 
REMARK    8  A    between atoms: C11_11  and  C12_12 
REMARK    9  A    between atoms: C12_12  and  C13_13 
REMARK   10  A    between atoms: C13_13  and  N1_14 
REMARK   11  A    between atoms: N1_14  and  C14_16 
REMARK   12  A    between atoms: C14_16  and  C15_17 
REMARK   13  A    between atoms: C15_17  and  C16_18 
REMARK   14  A    between atoms: C16_18  and  C17_19 
ROOT
HETATM    1  C11 UNL     1       0.820  -1.880  -0.358  1.00  0.00     0.005 C 
ENDROOT
BRANCH   1   2
HETATM    2  C10 UNL     1       1.668  -1.281  -1.431  1.00  0.00     0.000 C 
BRANCH   2   3
HETATM    3  C9  UNL     1       2.052   0.150  -1.215  1.00  0.00     0.000 C 
BRANCH   3   4
HETATM    4  C8  UNL     1       2.900   0.738  -2.312  1.00  0.00     0.000 C 
BRANCH   4   5
HETATM    5  C7  UNL     1       4.173  -0.039  -2.442  1.00  0.00     0.000 C 
BRANCH   5   6
HETATM    6  C6  UNL     1       4.993  -0.059  -1.188  1.00  0.00     0.005 C 
BRANCH   6   7
HETATM    7  C5  UNL     1       5.416   1.303  -0.719  1.00  0.00     0.038 C 
BRANCH   7   8
HETATM    8  C4  UNL     1       6.227   1.169   0.536  1.00  0.00    -0.058 A 
HETATM    9  C3  UNL     1       7.603   1.024   0.443  1.00  0.00     0.007 A 
HETATM   10  C2  UNL     1       8.361   0.896   1.584  1.00  0.00     0.001 A 
HETATM   11  C1  UNL     1       7.781   0.907   2.827  1.00  0.00     0.000 A 
HETATM   12  C23 UNL     1       6.407   1.051   2.946  1.00  0.00     0.001 A 
HETATM   13  C22 UNL     1       5.669   1.178   1.785  1.00  0.00     0.007 A 
ENDBRANCH   7   8
ENDBRANCH   6   7
ENDBRANCH   5   6
ENDBRANCH   4   5
ENDBRANCH   3   4
ENDBRANCH   2   3
ENDBRANCH   1   2
BRANCH   1  14
HETATM   14  C12 UNL     1      -0.495  -1.148  -0.183  1.00  0.00     0.044 C 
BRANCH  14  15
HETATM   15  C13 UNL     1      -1.342  -1.140  -1.408  1.00  0.00     0.060 C 
BRANCH  15  16
HETATM   16  N1  UNL     1      -2.550  -0.483  -1.297  1.00  0.00    -0.382 N 
ATOM     17  H1  UNL     1      -2.604   0.423  -1.763  1.00  0.00     0.163 HD
BRANCH  16  18
HETATM   18  C14 UNL     1      -3.684  -0.882  -0.647  1.00  0.00     0.060 C 
BRANCH  18  19
HETATM   19  C15 UNL     1      -3.692  -0.970   0.830  1.00  0.00     0.045 C 
BRANCH  19  20
HETATM   20  C16 UNL     1      -5.096  -1.350   1.367  1.00  0.00     0.009 C 
BRANCH  20  21
HETATM   21  C17 UNL     1      -6.052  -0.295   0.949  1.00  0.00    -0.014 C 
HETATM   22  C18 UNL     1      -5.667   1.085   1.480  1.00  0.00     0.004 C 
HETATM   23  C19 UNL     1      -6.931   1.870   1.106  1.00  0.00     0.000 C 
HETATM   24  C20 UNL     1      -8.066   0.874   1.319  1.00  0.00     0.000 C 
HETATM   25  C21 UNL     1      -7.406  -0.449   1.651  1.00  0.00     0.004 C 
ENDBRANCH  20  21
ENDBRANCH  19  20
ENDBRANCH  18  19
ENDBRANCH  16  18
ENDBRANCH  15  16
ENDBRANCH  14  15
ENDBRANCH   1  14
TORSDOF 14
