REMARK  3 active torsions:
REMARK  status: ('A' for Active; 'I' for Inactive)
REMARK    1  A    between atoms: N1_1  and  N2_4 
REMARK       I    between atoms: N2_4  and  C1_6 
REMARK    2  A    between atoms: C1_6  and  C2_8 
REMARK    3  A    between atoms: C3_9  and  C4_10 
REMARK       I    between atoms: C4_10  and  N3_12 
ROOT
HETATM    1  C2  UNL     1       0.900   0.122  -0.035  1.00  0.00     0.176 A 
HETATM    2  C3  UNL     1      -0.401  -0.111  -0.421  1.00  0.00     0.152 A 
HETATM    3  N6  UNL     1      -0.503  -1.484  -0.472  1.00  0.00    -0.182 N 
ATOM      4  H6  UNL     1      -1.353  -1.985  -0.730  1.00  0.00     0.184 HD
HETATM    5  C6  UNL     1       0.641  -2.077  -0.145  1.00  0.00     0.709 A 
HETATM    6  N7  UNL     1       1.259  -3.282   0.024  1.00  0.00    -0.138 N 
ATOM      7  H7  UNL     1       0.843  -4.203  -0.113  1.00  0.00     0.189 HD
HETATM    8  C7  UNL     1       2.508  -3.024   0.401  1.00  0.00     0.354 A 
HETATM    9  O3  UNL     1       3.428  -3.847   0.666  1.00  0.00    -0.245 OA
HETATM   10  N8  UNL     1       2.648  -1.653   0.460  1.00  0.00    -0.229 N 
ATOM     11  H8  UNL     1       3.499  -1.154   0.721  1.00  0.00     0.193 HD
HETATM   12  N9  UNL     1       1.511  -1.096   0.126  1.00  0.00    -0.074 N 
ENDROOT
BRANCH   1  13
HETATM   13  C1  UNL     1       1.508   1.413   0.230  1.00  0.00     0.291 C 
HETATM   14  N2  UNL     1       2.918   1.579   0.054  1.00  0.00    -0.271 N 
ATOM     15  H2  UNL     1       3.495   0.798  -0.260  1.00  0.00     0.189 HD
HETATM   16  O1  UNL     1       0.815   2.373   0.604  1.00  0.00    -0.264 OA
BRANCH  14  17
HETATM   17  N1  UNL     1       3.501   2.836   0.320  1.00  0.00    -0.342 N 
ATOM     18  H12 UNL     1       2.910   3.606   0.633  1.00  0.00     0.176 HD
ATOM     19  H11 UNL     1       4.506   2.954   0.195  1.00  0.00     0.176 HD
ENDBRANCH  14  17
ENDBRANCH   1  13
BRANCH   2  20
HETATM   20  C4  UNL     1      -1.506   0.777  -0.749  1.00  0.00     0.277 C 
HETATM   21  O2  UNL     1      -1.399   2.004  -0.710  1.00  0.00    -0.266 OA
HETATM   22  N3  UNL     1      -2.752   0.145  -1.127  1.00  0.00    -0.298 N 
HETATM   23  C5  UNL     1      -3.827   0.417  -0.482  1.00  0.00     0.203 C 
ATOM     24  H3  UNL     1      -2.775  -0.515  -1.904  1.00  0.00     0.171 HD
HETATM   25  N4  UNL     1      -3.773   1.339   0.596  1.00  0.00    -0.066 NA
HETATM   26  N5  UNL     1      -5.021  -0.211  -0.871  1.00  0.00    -0.066 NA
ENDBRANCH   2  20
TORSDOF 3
