REMARK  4 active torsions:
REMARK  status: ('A' for Active; 'I' for Inactive)
REMARK    1  A    between atoms: N1_1  and  N2_4 
REMARK       I    between atoms: N2_4  and  C1_6 
REMARK    2  A    between atoms: C1_6  and  C2_8 
REMARK       I    between atoms: C2_8  and  N3_10 
REMARK    3  A    between atoms: N3_10  and  N4_12 
REMARK    4  A    between atoms: N4_12  and  C3_14 
ROOT
HETATM    1  C3  UNL     1      -1.286   0.921   0.052  1.00  0.00     0.193 C 
HETATM    2  N5  UNL     1      -1.182  -0.363   0.431  1.00  0.00    -0.289 N 
ATOM      3  H5  UNL     1      -0.329  -0.617   0.929  1.00  0.00     0.172 HD
HETATM    4  C4  UNL     1      -2.079  -1.363   0.229  1.00  0.00     0.328 C 
HETATM    5  O3  UNL     1      -1.600  -2.503   0.158  1.00  0.00    -0.247 OA
HETATM    6  N6  UNL     1      -3.414  -1.207   0.105  1.00  0.00    -0.285 N 
ATOM      7  H6  UNL     1      -3.966  -2.062   0.174  1.00  0.00     0.173 HD
HETATM    8  C5  UNL     1      -4.114  -0.076  -0.097  1.00  0.00     0.182 C 
HETATM    9  S1  UNL     1      -5.715  -0.258   0.057  1.00  0.00    -0.040 SA
HETATM   10  N7  UNL     1      -3.655   1.151  -0.403  1.00  0.00    -0.297 N 
ATOM     11  H7  UNL     1      -4.372   1.835  -0.644  1.00  0.00     0.171 HD
HETATM   12  C6  UNL     1      -2.392   1.610  -0.439  1.00  0.00     0.293 C 
HETATM   13  O4  UNL     1      -2.142   2.722  -0.935  1.00  0.00    -0.264 OA
ENDROOT
BRANCH   1  14
HETATM   14  N4  UNL     1      -0.241   1.647   0.142  1.00  0.00    -0.278 N 
ATOM     15  H4  UNL     1      -0.306   2.625  -0.141  1.00  0.00     0.189 HD
BRANCH  14  16
HETATM   16  N3  UNL     1       0.977   1.177   0.604  1.00  0.00    -0.260 N 
HETATM   17  C2  UNL     1       1.833   0.475  -0.280  1.00  0.00     0.329 C 
HETATM   18  O2  UNL     1       1.516   0.271  -1.462  1.00  0.00    -0.261 OA
ATOM     19  H3  UNL     1       1.255   1.335   1.572  1.00  0.00     0.190 HD
BRANCH  17  20
HETATM   20  C1  UNL     1       3.106  -0.011   0.219  1.00  0.00     0.329 C 
HETATM   21  N2  UNL     1       3.964  -0.710  -0.652  1.00  0.00    -0.268 N 
ATOM     22  H2  UNL     1       3.692  -0.871  -1.622  1.00  0.00     0.190 HD
HETATM   23  O1  UNL     1       3.471   0.169   1.405  1.00  0.00    -0.261 OA
BRANCH  21  24
HETATM   24  N1  UNL     1       5.185  -1.179  -0.179  1.00  0.00    -0.342 N 
ATOM     25  H12 UNL     1       5.442  -1.010   0.793  1.00  0.00     0.176 HD
ATOM     26  H11 UNL     1       5.806  -1.685  -0.810  1.00  0.00     0.176 HD
ENDBRANCH  21  24
ENDBRANCH  17  20
ENDBRANCH  14  16
ENDBRANCH   1  14
TORSDOF 4
