REMARK  4 active torsions:
REMARK  status: ('A' for Active; 'I' for Inactive)
REMARK    1  A    between atoms: N1_1  and  C1_4 
REMARK    2  A    between atoms: C2_7  and  C3_8 
REMARK       I    between atoms: C3_8  and  N3_10 
REMARK    3  A    between atoms: N3_10  and  N4_12 
REMARK    4  A    between atoms: N4_12  and  C4_14 
ROOT
HETATM    1  C3  UNL     1       0.314   0.746   0.427  1.00  0.00     0.287 C 
HETATM    2  O1  UNL     1       0.714   1.915   0.200  1.00  0.00    -0.264 OA
HETATM    3  N3  UNL     1       1.192  -0.135   1.080  1.00  0.00    -0.250 N 
ATOM      4  H3  UNL     1       0.870  -1.085   1.266  1.00  0.00     0.191 HD
ENDROOT
BRANCH   1   5
HETATM    5  C2  UNL     1      -1.014   0.345   0.018  1.00  0.00     0.109 C 
HETATM    6  N2  UNL     1      -1.772   1.329  -0.566  1.00  0.00    -0.334 N 
HETATM    7  C1  UNL     1      -3.121   1.364  -0.613  1.00  0.00     0.169 C 
ATOM      8  H2  UNL     1      -1.272   2.103  -1.003  1.00  0.00     0.168 HD
HETATM    9  C7  UNL     1      -4.050   0.424  -0.149  1.00  0.00     0.291 C 
HETATM   10  N9  UNL     1      -3.848  -0.821   0.300  1.00  0.00    -0.287 N 
HETATM   11  O3  UNL     1      -5.258   0.798  -0.152  1.00  0.00    -0.264 OA
HETATM   12  C6  UNL     1      -2.671  -1.447   0.485  1.00  0.00     0.250 C 
ATOM     13  H9  UNL     1      -4.684  -1.358   0.529  1.00  0.00     0.172 HD
HETATM   14  C5  UNL     1      -1.432  -0.951   0.225  1.00  0.00     0.109 C 
HETATM   15  O2  UNL     1      -2.782  -2.609   0.950  1.00  0.00    -0.268 OA
BRANCH   7  16
HETATM   16  N1  UNL     1      -3.658   2.412  -1.163  1.00  0.00    -0.381 N 
ATOM     17  H12 UNL     1      -2.981   3.097  -1.501  1.00  0.00     0.157 HD
ATOM     18  H11 UNL     1      -4.677   2.438  -1.199  1.00  0.00     0.157 HD
ENDBRANCH   7  16
ENDBRANCH   1   5
BRANCH   3  19
HETATM   19  N4  UNL     1       2.478   0.215   1.488  1.00  0.00    -0.127 N 
ATOM     20  H4  UNL     1       2.620   0.908   2.223  1.00  0.00     0.206 HD
BRANCH  19  21
HETATM   21  C4  UNL     1       3.480  -0.353   0.920  1.00  0.00     0.728 A 
HETATM   22  N5  UNL     1       3.459  -1.271  -0.047  1.00  0.00    -0.114 N 
HETATM   23  N6  UNL     1       4.704  -1.611  -0.367  1.00  0.00    -0.213 N 
ATOM     24  H5  UNL     1       2.616  -1.654  -0.476  1.00  0.00     0.207 HD
HETATM   25  N7  UNL     1       5.499  -0.899   0.406  1.00  0.00    -0.213 N 
ATOM     26  H6  UNL     1       4.988  -2.290  -1.073  1.00  0.00     0.210 HD
HETATM   27  N8  UNL     1       4.770  -0.120   1.204  1.00  0.00    -0.114 N 
ATOM     28  H7  UNL     1       6.518  -0.938   0.395  1.00  0.00     0.210 HD
ATOM     29  H8  UNL     1       5.127   0.533   1.902  1.00  0.00     0.207 HD
ENDBRANCH  19  21
ENDBRANCH   3  19
TORSDOF 4
