REMARK  5 active torsions:
REMARK  status: ('A' for Active; 'I' for Inactive)
REMARK    1  A    between atoms: N2_3  and  C2_5 
REMARK    2  A    between atoms: C6_12  and  C7_13 
REMARK       I    between atoms: C7_13  and  N5_15 
REMARK       I    between atoms: C8_17  and  N7_19 
REMARK    3  A    between atoms: N7_19  and  N8_21 
REMARK    4  A    between atoms: N8_21  and  N9_22 
REMARK    5  A    between atoms: N8_21  and  O2_25 
ROOT
HETATM    1  N1  UNL     1      -0.080   0.269  -4.053  1.00  0.00    -0.172 NA
HETATM    2  C1  UNL     1      -0.225   0.237  -2.924  1.00  0.00     0.182 C 
HETATM    3  N2  UNL     1      -0.383   0.208  -1.534  1.00  0.00    -0.293 N 
ATOM      4  H2  UNL     1       0.389   0.506  -0.938  1.00  0.00     0.178 HD
ENDROOT
BRANCH   3   5
HETATM    5  C2  UNL     1      -1.476  -0.184  -0.995  1.00  0.00     0.062 A 
HETATM    6  C3  UNL     1      -2.554  -0.596  -1.725  1.00  0.00     0.048 A 
HETATM    7  C4  UNL     1      -3.687  -1.000  -1.065  1.00  0.00     0.091 A 
HETATM    8  N3  UNL     1      -3.789  -1.010   0.266  1.00  0.00    -0.354 N 
HETATM    9  C5  UNL     1      -2.729  -0.604   1.008  1.00  0.00     0.134 A 
ATOM     10  H3  UNL     1      -4.650  -1.318   0.718  1.00  0.00     0.166 HD
HETATM   11  N4  UNL     1      -2.773  -0.591   2.417  1.00  0.00    -0.082 NA
HETATM   12  C6  UNL     1      -1.566  -0.188   0.390  1.00  0.00     0.100 A 
BRANCH  12  13
HETATM   13  C7  UNL     1      -0.412   0.253   1.158  1.00  0.00     0.263 C 
HETATM   14  O1  UNL     1      -0.495   0.248   2.409  1.00  0.00    -0.267 OA
HETATM   15  N5  UNL     1       0.790   0.684   0.555  1.00  0.00    -0.296 N 
HETATM   16  C8  UNL     1       1.873   0.057   0.828  1.00  0.00     0.208 C 
ATOM     17  H5  UNL     1       0.796   1.478  -0.085  1.00  0.00     0.171 HD
HETATM   18  N6  UNL     1       1.849  -1.044   1.718  1.00  0.00    -0.062 NA
HETATM   19  N7  UNL     1       3.117   0.433   0.260  1.00  0.00    -0.251 N 
ATOM     20  H7  UNL     1       3.995   0.087   0.648  1.00  0.00     0.187 HD
BRANCH  19  21
HETATM   21  N8  UNL     1       3.110   1.283  -0.837  1.00  0.00    -0.009 NA
BRANCH  21  22
HETATM   22  N9  UNL     1       4.378   1.790  -1.139  1.00  0.00    -0.322 NA
ATOM     23  H92 UNL     1       4.979   1.000  -1.374  1.00  0.00     0.175 HD
ATOM     24  H91 UNL     1       4.373   2.415  -1.945  1.00  0.00     0.175 HD
ENDBRANCH  21  22
BRANCH  21  25
HETATM   25  O2  UNL     1       2.306   2.340  -0.523  1.00  0.00    -0.276 OA
ATOM     26  H2  UNL     1       2.301   2.922  -1.274  1.00  0.00     0.241 HD
ENDBRANCH  21  25
ENDBRANCH  19  21
ENDBRANCH  12  13
ENDBRANCH   3   5
TORSDOF 5
