REMARK  3 active torsions:
REMARK  status: ('A' for Active; 'I' for Inactive)
REMARK    1  A    between atoms: C1_2  and  C2_4 
REMARK    2  A    between atoms: C2_4  and  N2_5 
REMARK    3  A    between atoms: C2_4  and  N3_9 
ROOT
HETATM    1  N3  UNL     1       1.389  -0.138   0.433  1.00  0.00    -0.337 N 
ATOM      2  H3  UNL     1       1.371   0.656   1.073  1.00  0.00     0.163 HD
HETATM    3  C3  UNL     1       0.248  -0.575   0.137  1.00  0.00     0.170 C 
HETATM    4  N4  UNL     1      -0.928   0.053   0.702  1.00  0.00    -0.339 N 
ATOM      5  H4  UNL     1      -0.865   0.554   1.588  1.00  0.00     0.163 HD
HETATM    6  C4  UNL     1      -2.183  -0.032   0.010  1.00  0.00     0.279 C 
HETATM    7  C5  UNL     1      -2.203   0.894  -1.149  1.00  0.00     0.284 C 
HETATM    8  O2  UNL     1      -1.781   0.638  -2.320  1.00  0.00    -0.268 OA
HETATM    9  N5  UNL     1      -2.778   2.105  -0.696  1.00  0.00    -0.264 N 
ATOM     10  H5  UNL     1      -2.719   3.001  -1.180  1.00  0.00     0.190 HD
HETATM   11  N6  UNL     1      -3.438   1.887   0.512  1.00  0.00    -0.264 N 
ATOM     12  H6  UNL     1      -3.939   2.585   1.062  1.00  0.00     0.190 HD
HETATM   13  C6  UNL     1      -3.283   0.512   0.836  1.00  0.00     0.284 C 
HETATM   14  O3  UNL     1      -3.954  -0.112   1.666  1.00  0.00    -0.268 OA
HETATM   15  C7  UNL     1      -2.413  -1.418  -0.411  1.00  0.00     0.272 C 
HETATM   16  O4  UNL     1      -3.509  -2.017  -0.271  1.00  0.00    -0.269 OA
HETATM   17  N7  UNL     1      -1.300  -2.098  -1.013  1.00  0.00    -0.288 N 
ATOM     18  H7  UNL     1      -1.475  -2.885  -1.638  1.00  0.00     0.172 HD
HETATM   19  C8  UNL     1       0.041  -1.699  -0.757  1.00  0.00     0.291 C 
HETATM   20  O5  UNL     1       1.010  -2.292  -1.283  1.00  0.00    -0.264 OA
ENDROOT
BRANCH   1  21
HETATM   21  C2  UNL     1       2.689  -0.530   0.054  1.00  0.00     0.373 C 
BRANCH  21  22
HETATM   22  C1  UNL     1       3.604   0.620   0.382  1.00  0.00     0.281 C 
HETATM   23  N1  UNL     1       3.342   1.915  -0.143  1.00  0.00    -0.059 NA
HETATM   24  O1  UNL     1       4.583   0.398   1.119  1.00  0.00    -0.273 OA
ENDBRANCH  21  22
BRANCH  21  25
HETATM   25  N2  UNL     1       3.177  -1.720   0.708  1.00  0.00    -0.050 N 
ATOM     26  H23 UNL     1       4.150  -1.919   0.476  1.00  0.00     0.277 HD
ATOM     27  H22 UNL     1       3.293  -1.591   1.713  1.00  0.00     0.277 HD
ATOM     28  H21 UNL     1       2.557  -2.499   0.486  1.00  0.00     0.277 HD
ENDBRANCH  21  25
ENDBRANCH   1  21
TORSDOF 3
