REMARK  5 active torsions:
REMARK  status: ('A' for Active; 'I' for Inactive)
REMARK    1  A    between atoms: N1_1  and  N2_4 
REMARK    2  A    between atoms: N2_4  and  C1_6 
REMARK    3  A    between atoms: C2_9  and  C3_10 
REMARK       I    between atoms: C3_10  and  N4_12 
REMARK    4  A    between atoms: N4_12  and  C4_14 
REMARK    5  A    between atoms: C5_21  and  C6_22 
ROOT
HETATM    1  C1  UNL     1       1.894  -0.342   0.345  1.00  0.00     0.190 A 
HETATM    2  N3  UNL     1       0.571  -0.613   0.414  1.00  0.00    -0.330 N 
ATOM      3  H3  UNL     1       0.255  -1.575   0.292  1.00  0.00     0.168 HD
HETATM    4  C2  UNL     1      -0.362   0.373   0.644  1.00  0.00     0.135 A 
HETATM    5  C5  UNL     1       0.032   1.659   0.813  1.00  0.00     0.133 A 
HETATM    6  N10 UNL     1       1.387   1.882   0.733  1.00  0.00    -0.314 N 
ATOM      7  H10 UNL     1       1.710   2.842   0.854  1.00  0.00     0.169 HD
HETATM    8  C7  UNL     1       2.307   0.958   0.512  1.00  0.00     0.291 A 
HETATM    9  O3  UNL     1       3.550   1.226   0.450  1.00  0.00    -0.264 OA
ENDROOT
BRANCH   4  10
HETATM   10  C3  UNL     1      -1.730  -0.072   0.642  1.00  0.00     0.289 C 
HETATM   11  O1  UNL     1      -2.733   0.629   0.793  1.00  0.00    -0.265 OA
HETATM   12  N4  UNL     1      -2.042  -1.478   0.447  1.00  0.00    -0.152 N 
ATOM     13  H4  UNL     1      -2.105  -2.106   1.249  1.00  0.00     0.187 HD
BRANCH  12  14
HETATM   14  C4  UNL     1      -2.238  -1.927  -0.745  1.00  0.00     0.710 A 
HETATM   15  N5  UNL     1      -2.195  -1.254  -1.902  1.00  0.00    -0.117 N 
HETATM   16  N6  UNL     1      -2.458  -2.097  -2.910  1.00  0.00     0.006 NA
ATOM     17  H5  UNL     1      -1.994  -0.259  -2.000  1.00  0.00     0.202 HD
HETATM   18  N7  UNL     1      -2.666  -3.303  -2.373  1.00  0.00     0.006 NA
HETATM   19  N8  UNL     1      -2.530  -3.192  -1.050  1.00  0.00    -0.117 N 
ATOM     20  H8  UNL     1      -2.633  -3.953  -0.379  1.00  0.00     0.202 HD
ENDBRANCH  12  14
ENDBRANCH   4  10
BRANCH   5  21
HETATM   21  C6  UNL     1      -0.836   2.765   1.137  1.00  0.00     0.284 C 
HETATM   22  N9  UNL     1      -0.316   4.098   0.786  1.00  0.00    -0.056 NA
HETATM   23  O2  UNL     1      -1.953   2.745   1.666  1.00  0.00    -0.269 OA
ENDBRANCH   5  21
BRANCH   1  24
HETATM   24  N2  UNL     1       2.755  -1.269   0.126  1.00  0.00    -0.287 N 
ATOM     25  H2  UNL     1       2.413  -2.222   0.004  1.00  0.00     0.188 HD
BRANCH  24  26
HETATM   26  N1  UNL     1       4.108  -1.054   0.046  1.00  0.00    -0.343 N 
ATOM     27  H12 UNL     1       4.432  -0.095   0.170  1.00  0.00     0.176 HD
ATOM     28  H11 UNL     1       4.792  -1.790  -0.128  1.00  0.00     0.176 HD
ENDBRANCH  24  26
ENDBRANCH   1  24
TORSDOF 5
