REMARK  2 active torsions:
REMARK  status: ('A' for Active; 'I' for Inactive)
REMARK       I    between atoms: N1_2  and  C2_4 
REMARK       I    between atoms: C2_4  and  N3_11 
REMARK       I    between atoms: N2_5  and  C3_7 
REMARK    1  A    between atoms: C3_7  and  C4_9 
REMARK    2  A    between atoms: N3_11  and  N4_13 
ROOT
HETATM    1  N4  UNL     1      -0.189  -0.643  -0.918  1.00  0.00    -0.117 N 
ATOM      2  H4  UNL     1      -0.472  -0.736  -1.894  1.00  0.00     0.206 HD
HETATM    3  C5  UNL     1       0.985  -0.152  -0.632  1.00  0.00     0.710 C 
HETATM    4  N5  UNL     1       1.802   0.226  -1.731  1.00  0.00    -0.196 N 
ATOM      5  H5  UNL     1       1.352   0.206  -2.646  1.00  0.00     0.183 HD
HETATM    6  C6  UNL     1       3.052   0.595  -1.721  1.00  0.00     0.155 C 
HETATM    7  C7  UNL     1       3.913   0.705  -0.555  1.00  0.00     0.128 C 
HETATM    8  N6  UNL     1       5.184   0.833  -0.764  1.00  0.00    -0.384 N 
ATOM      9  H61 UNL     1       5.788   0.910   0.054  1.00  0.00     0.157 HD
ATOM     10  H62 UNL     1       5.471   0.844  -1.743  1.00  0.00     0.157 HD
HETATM   11  N7  UNL     1       3.510   0.689   0.820  1.00  0.00    -0.268 N 
ATOM     12  H7  UNL     1       4.252   0.551   1.506  1.00  0.00     0.186 HD
HETATM   13  N8  UNL     1       2.202   0.843   1.336  1.00  0.00    -0.006 NA
HETATM   14  N9  UNL     1       1.307  -0.054   0.746  1.00  0.00    -0.115 N 
ATOM     15  H9  UNL     1       0.836  -0.707   1.372  1.00  0.00     0.203 HD
ENDROOT
BRANCH   1  16
HETATM   16  N3  UNL     1      -1.065  -1.044   0.095  1.00  0.00    -0.118 N 
HETATM   17  C2  UNL     1      -2.295  -0.407   0.359  1.00  0.00     0.695 C 
HETATM   18  N1  UNL     1      -2.840  -0.420   1.659  1.00  0.00    -0.229 N 
HETATM   19  N2  UNL     1      -2.945   0.193  -0.563  1.00  0.00    -0.152 N 
HETATM   20  C1  UNL     1      -3.591  -1.599   2.046  1.00  0.00     0.165 C 
ATOM     21  H1  UNL     1      -2.712   0.364   2.299  1.00  0.00     0.177 HD
HETATM   22  C3  UNL     1      -2.561   0.307  -1.899  1.00  0.00     0.297 C 
ATOM     23  H2  UNL     1      -3.828   0.630  -0.297  1.00  0.00     0.187 HD
HETATM   24  O1  UNL     1      -2.665  -0.681  -2.662  1.00  0.00    -0.264 OA
ATOM     25  H3  UNL     1      -0.800  -1.840   0.675  1.00  0.00     0.206 HD
BRANCH  22  26
HETATM   26  C4  UNL     1      -2.045   1.552  -2.417  1.00  0.00     0.333 C 
HETATM   27  O2  UNL     1      -1.928   2.566  -1.678  1.00  0.00    -0.296 OA
ENDBRANCH  22  26
ENDBRANCH   1  16
TORSDOF 2
