REMARK  5 active torsions:
REMARK  status: ('A' for Active; 'I' for Inactive)
REMARK    1  A    between atoms: N1_2  and  C2_4 
REMARK    2  A    between atoms: C3_9  and  N4_10 
REMARK    3  A    between atoms: C5_13  and  N5_14 
REMARK       I    between atoms: N5_14  and  C6_16 
REMARK    4  A    between atoms: C6_16  and  C7_18 
REMARK    5  A    between atoms: C7_18  and  N6_19 
ROOT
HETATM    1  C2  UNL     1       2.600   0.715   0.073  1.00  0.00     0.694 A 
HETATM    2  N2  UNL     1       3.569  -0.180   0.283  1.00  0.00    -0.131 N 
ATOM      3  H2  UNL     1       4.526   0.148   0.409  1.00  0.00     0.205 HD
HETATM    4  N3  UNL     1       3.326  -1.473   0.332  1.00  0.00    -0.268 N 
ATOM      5  H3  UNL     1       4.099  -2.118   0.497  1.00  0.00     0.189 HD
HETATM    6  C3  UNL     1       2.064  -1.975   0.168  1.00  0.00     0.161 A 
HETATM    7  C5  UNL     1       1.079  -1.057  -0.046  1.00  0.00     0.169 A 
HETATM    8  N10 UNL     1       1.361   0.276  -0.091  1.00  0.00    -0.172 N 
ATOM      9  H10 UNL     1       0.608   0.944  -0.253  1.00  0.00     0.186 HD
ENDROOT
BRANCH   7  10
HETATM   10  N5  UNL     1      -0.133  -1.404  -0.212  1.00  0.00    -0.308 N 
HETATM   11  C6  UNL     1      -1.145  -0.450  -0.433  1.00  0.00     0.243 C 
HETATM   12  O1  UNL     1      -1.277   0.072  -1.560  1.00  0.00    -0.271 OA
ATOM     13  H5  UNL     1      -0.377  -2.394  -0.185  1.00  0.00     0.170 HD
BRANCH  11  14
HETATM   14  C7  UNL     1      -2.053  -0.060   0.661  1.00  0.00     0.254 C 
BRANCH  14  15
HETATM   15  N6  UNL     1      -2.995   0.929   0.180  1.00  0.00    -0.262 N 
HETATM   16  C8  UNL     1      -4.203   0.710  -0.374  1.00  0.00     0.220 A 
HETATM   17  N7  UNL     1      -4.736   1.918  -0.674  1.00  0.00    -0.279 N 
HETATM   18  N8  UNL     1      -3.882   2.858  -0.315  1.00  0.00    -0.227 N 
ATOM     19  H7  UNL     1      -5.647   2.075  -1.106  1.00  0.00     0.189 HD
HETATM   20  N9  UNL     1      -2.848   2.243   0.193  1.00  0.00    -0.225 N 
ATOM     21  H8  UNL     1      -4.005   3.866  -0.415  1.00  0.00     0.210 HD
ATOM     22  H9  UNL     1      -2.023   2.720   0.557  1.00  0.00     0.210 HD
ENDBRANCH  14  15
ENDBRANCH  11  14
ENDBRANCH   7  10
BRANCH   6  23
HETATM   23  N4  UNL     1       1.885  -3.204   0.222  1.00  0.00    -0.377 N 
HETATM   24  C4  UNL     1       0.668  -3.925   0.080  1.00  0.00     0.148 C 
ATOM     25  H4  UNL     1       2.718  -3.768   0.390  1.00  0.00     0.160 HD
ENDBRANCH   6  23
BRANCH   1  26
HETATM   26  N1  UNL     1       2.885   1.992   0.033  1.00  0.00    -0.229 N 
HETATM   27  C1  UNL     1       1.802   2.917  -0.198  1.00  0.00     0.165 C 
ATOM     28  H1  UNL     1       3.841   2.322   0.161  1.00  0.00     0.177 HD
ENDBRANCH   1  26
TORSDOF 5
