REMARK  5 active torsions:
REMARK  status: ('A' for Active; 'I' for Inactive)
REMARK    1  A    between atoms: N1_1  and  C1_4 
REMARK    2  A    between atoms: C2_7  and  C3_8 
REMARK       I    between atoms: C3_8  and  N3_10 
REMARK       I    between atoms: N3_10  and  C4_12 
REMARK    3  A    between atoms: C4_12  and  C5_14 
REMARK    4  A    between atoms: N4_15  and  N5_17 
REMARK    5  A    between atoms: N8_26  and  O3_27 
ROOT
HETATM    1  C1  UNL     1      -2.519   1.680  -0.020  1.00  0.00     0.719 A 
HETATM    2  N2  UNL     1      -1.228   1.306   0.009  1.00  0.00    -0.168 N 
ATOM      3  H2  UNL     1      -0.522   2.040   0.065  1.00  0.00     0.186 HD
HETATM    4  C2  UNL     1      -0.805   0.037  -0.031  1.00  0.00     0.211 A 
HETATM    5  N6  UNL     1      -1.794  -0.907  -0.105  1.00  0.00    -0.133 N 
HETATM    6  C6  UNL     1      -1.770  -2.236  -0.161  1.00  0.00     0.135 A 
HETATM    7  C7  UNL     1      -3.071  -2.762  -0.229  1.00  0.00     0.124 A 
HETATM    8  N7  UNL     1      -3.870  -1.700  -0.212  1.00  0.00    -0.197 N 
ATOM      9  H7  UNL     1      -4.889  -1.722  -0.249  1.00  0.00     0.183 HD
HETATM   10  C8  UNL     1      -3.105  -0.583  -0.137  1.00  0.00     0.732 A 
HETATM   11  N8  UNL     1      -3.452   0.715  -0.094  1.00  0.00     0.127 N 
ENDROOT
BRANCH   4  12
HETATM   12  C3  UNL     1       0.601  -0.325   0.003  1.00  0.00     0.294 C 
HETATM   13  O1  UNL     1       1.002  -1.510  -0.033  1.00  0.00    -0.264 OA
HETATM   14  N3  UNL     1       1.597   0.671   0.080  1.00  0.00    -0.286 N 
HETATM   15  C4  UNL     1       2.995   0.319   0.113  1.00  0.00     0.265 C 
ATOM     16  H3  UNL     1       1.325   1.653   0.113  1.00  0.00     0.172 HD
HETATM   17  O2  UNL     1       3.280  -0.895   0.072  1.00  0.00    -0.267 OA
BRANCH  15  18
HETATM   18  C5  UNL     1       4.002   1.375   0.193  1.00  0.00     0.180 C 
HETATM   19  N4  UNL     1       5.258   1.081   0.224  1.00  0.00    -0.313 N 
ATOM     20  H4  UNL     1       5.947   1.831   0.280  1.00  0.00     0.185 HD
BRANCH  19  21
HETATM   21  N5  UNL     1       5.688  -0.240   0.183  1.00  0.00    -0.345 N 
ATOM     22  H52 UNL     1       4.986  -0.978   0.128  1.00  0.00     0.176 HD
ATOM     23  H51 UNL     1       6.681  -0.472   0.208  1.00  0.00     0.176 HD
ENDBRANCH  19  21
ENDBRANCH  15  18
ENDBRANCH   4  12
BRANCH   1  24
HETATM   24  N1  UNL     1      -2.891   2.914   0.020  1.00  0.00    -0.232 N 
ATOM     25  H12 UNL     1      -2.183   3.646   0.076  1.00  0.00     0.174 HD
ATOM     26  H11 UNL     1      -3.870   3.198  -0.002  1.00  0.00     0.174 HD
ENDBRANCH   1  24
BRANCH  11  27
HETATM   27  O3  UNL     1      -4.787   1.032  -0.127  1.00  0.00    -0.256 OA
ATOM     28  H3  UNL     1      -5.446   0.350  -0.179  1.00  0.00     0.246 HD
ENDBRANCH  11  27
TORSDOF 5
