REMARK  3 active torsions:
REMARK  status: ('A' for Active; 'I' for Inactive)
REMARK    1  A    between atoms: C2_9  and  C3_10 
REMARK       I    between atoms: C3_10  and  N4_12 
REMARK    2  A    between atoms: N4_12  and  N5_14 
REMARK       I    between atoms: N5_14  and  C4_16 
REMARK    3  A    between atoms: C4_16  and  C5_18 
ROOT
HETATM    1  N1  UNL     1      -4.665   0.634  -1.961  1.00  0.00    -0.381 N 
ATOM      2  H11 UNL     1      -5.622   0.847  -1.680  1.00  0.00     0.157 HD
ATOM      3  H12 UNL     1      -4.313   0.504  -2.910  1.00  0.00     0.157 HD
HETATM    4  C1  UNL     1      -3.783   0.515  -1.038  1.00  0.00     0.164 C 
HETATM    5  N2  UNL     1      -2.500   0.230  -1.414  1.00  0.00    -0.282 N 
ATOM      6  H2  UNL     1      -2.219   0.560  -2.337  1.00  0.00     0.188 HD
HETATM    7  N3  UNL     1      -1.572  -0.428  -0.719  1.00  0.00    -0.294 N 
ATOM      8  H3  UNL     1      -1.023  -1.138  -1.203  1.00  0.00     0.187 HD
HETATM    9  C2  UNL     1      -1.311  -0.205   0.615  1.00  0.00     0.117 C 
HETATM   10  C6  UNL     1      -2.268   0.051   1.597  1.00  0.00     0.041 C 
HETATM   11  C7  UNL     1      -3.580   0.449   1.426  1.00  0.00     0.061 C 
HETATM   12  C8  UNL     1      -4.256   0.690   0.238  1.00  0.00     0.216 C 
HETATM   13  O4  UNL     1      -5.428   1.113   0.362  1.00  0.00    -0.284 OA
ENDROOT
BRANCH   9  14
HETATM   14  C3  UNL     1       0.049  -0.258   1.082  1.00  0.00     0.288 C 
HETATM   15  O1  UNL     1       0.293   0.182   2.247  1.00  0.00    -0.264 OA
HETATM   16  N4  UNL     1       1.138  -0.772   0.331  1.00  0.00    -0.262 N 
ATOM     17  H4  UNL     1       0.969  -1.142  -0.604  1.00  0.00     0.190 HD
BRANCH  16  18
HETATM   18  N5  UNL     1       2.426  -0.782   0.842  1.00  0.00    -0.259 N 
HETATM   19  C4  UNL     1       3.552  -0.333   0.095  1.00  0.00     0.325 C 
HETATM   20  O2  UNL     1       3.414   0.087  -1.084  1.00  0.00    -0.261 OA
ATOM     21  H5  UNL     1       2.573  -1.125   1.791  1.00  0.00     0.190 HD
BRANCH  19  22
HETATM   22  C5  UNL     1       4.892  -0.350   0.662  1.00  0.00     0.324 C 
HETATM   23  N6  UNL     1       6.025  -0.002  -0.083  1.00  0.00    -0.053 NA
HETATM   24  O3  UNL     1       5.012  -0.691   1.862  1.00  0.00    -0.266 OA
ENDBRANCH  19  22
ENDBRANCH  16  18
ENDBRANCH   9  14
TORSDOF 3
