REMARK  9 active torsions:
REMARK  status: ('A' for Active; 'I' for Inactive)
REMARK    1  A    between atoms: N1_1  and  C1_4 
REMARK    2  A    between atoms: N3_9  and  O1_10 
REMARK    3  A    between atoms: O1_10  and  C4_11 
REMARK    4  A    between atoms: C5_14  and  C6_15 
REMARK    5  A    between atoms: C6_15  and  O3_16 
REMARK    6  A    between atoms: C6_15  and  N5_18 
REMARK    7  A    between atoms: N5_18  and  N6_20 
REMARK    8  A    between atoms: C7_23  and  O4_24 
REMARK    9  A    between atoms: C8_27  and  N8_28 
ROOT
HETATM    1  C1  UNL     1       3.890  -0.774  -0.195  1.00  0.00     0.692 A 
HETATM    2  N2  UNL     1       2.759  -1.485  -0.295  1.00  0.00    -0.174 N 
ATOM      3  H2  UNL     1       2.778  -2.499  -0.401  1.00  0.00     0.186 HD
HETATM    4  C2  UNL     1       1.594  -0.807  -0.250  1.00  0.00     0.164 A 
HETATM    5  C3  UNL     1       0.445  -1.521  -0.354  1.00  0.00     0.174 A 
HETATM    6  N3  UNL     1      -0.750  -0.936  -0.323  1.00  0.00    -0.211 N 
HETATM    7  C5  UNL     1      -0.824   0.431  -0.182  1.00  0.00     0.166 A 
HETATM    8  C7  UNL     1       0.321   1.168  -0.075  1.00  0.00     0.199 A 
HETATM    9  N7  UNL     1       1.529   0.541  -0.111  1.00  0.00    -0.107 N 
HETATM   10  C8  UNL     1       2.664   1.251  -0.012  1.00  0.00     0.700 A 
HETATM   11  N9  UNL     1       3.833   0.563  -0.057  1.00  0.00    -0.022 N 
ATOM     12  H9  UNL     1       4.707   1.083   0.017  1.00  0.00     0.203 HD
ENDROOT
BRANCH   7  13
HETATM   13  C6  UNL     1      -2.151   0.997  -0.174  1.00  0.00     0.188 C 
BRANCH  13  14
HETATM   14  O3  UNL     1      -3.168   0.189  -0.276  1.00  0.00    -0.343 OA
ATOM     15  H3  UNL     1      -4.042   0.562  -0.271  1.00  0.00     0.219 HD
ENDBRANCH  13  14
BRANCH  13  16
HETATM   16  N5  UNL     1      -2.489   2.331  -0.071  1.00  0.00    -0.285 N 
ATOM     17  H5  UNL     1      -1.739   3.017   0.009  1.00  0.00     0.188 HD
BRANCH  16  18
HETATM   18  N6  UNL     1      -3.833   2.794  -0.071  1.00  0.00    -0.343 N 
ATOM     19  H62 UNL     1      -4.570   2.094  -0.152  1.00  0.00     0.176 HD
ATOM     20  H61 UNL     1      -4.083   3.780   0.005  1.00  0.00     0.176 HD
ENDBRANCH  16  18
ENDBRANCH  13  16
ENDBRANCH   7  13
BRANCH   6  21
HETATM   21  O1  UNL     1      -1.877  -1.719  -0.434  1.00  0.00    -0.176 OA
BRANCH  21  22
HETATM   22  C4  UNL     1      -2.110  -2.773   0.422  1.00  0.00     0.395 C 
HETATM   23  N4  UNL     1      -3.237  -3.614   0.368  1.00  0.00    -0.031 NA
HETATM   24  O2  UNL     1      -1.227  -2.980   1.318  1.00  0.00    -0.240 OA
ENDBRANCH  21  22
ENDBRANCH   6  21
BRANCH   8  25
HETATM   25  O4  UNL     1       0.347   2.539   0.072  1.00  0.00    -0.343 OA
ATOM     26  H4  UNL     1       1.143   3.052   0.146  1.00  0.00     0.219 HD
ENDBRANCH   8  25
BRANCH  10  27
HETATM   27  N8  UNL     1       2.677   2.532   0.117  1.00  0.00    -0.233 N 
ATOM     28  H82 UNL     1       1.798   3.049   0.151  1.00  0.00     0.174 HD
ATOM     29  H81 UNL     1       3.539   3.071   0.192  1.00  0.00     0.174 HD
ENDBRANCH  10  27
BRANCH   1  30
HETATM   30  N1  UNL     1       5.064  -1.310  -0.225  1.00  0.00    -0.234 N 
ATOM     31  H12 UNL     1       5.107  -2.324  -0.330  1.00  0.00     0.174 HD
ATOM     32  H11 UNL     1       5.925  -0.769  -0.149  1.00  0.00     0.174 HD
ENDBRANCH   1  30
TORSDOF 9
