REMARK  6 active torsions:
REMARK  status: ('A' for Active; 'I' for Inactive)
REMARK    1  A    between atoms: C2_2  and  O1_4 
REMARK    2  A    between atoms: C2_2  and  C4_6 
REMARK    3  A    between atoms: C4_6  and  C5_8 
REMARK    4  A    between atoms: C9_17  and  N3_18 
REMARK    5  A    between atoms: N4_21  and  N5_22 
REMARK    6  A    between atoms: N5_22  and  N6_24 
ROOT
HETATM    1  C5  UNL     1       0.835  -0.617  -0.123  1.00  0.00     0.108 A 
HETATM    2  C6  UNL     1       1.230  -1.857  -0.656  1.00  0.00     0.124 A 
HETATM    3  N1  UNL     1       0.109  -2.581  -0.784  1.00  0.00    -0.345 N 
ATOM      4  H1  UNL     1       0.064  -3.533  -1.147  1.00  0.00     0.167 HD
HETATM    5  C7  UNL     1      -0.930  -1.877  -0.369  1.00  0.00     0.185 A 
HETATM    6  C8  UNL     1      -2.245  -2.343  -0.412  1.00  0.00     0.304 C 
HETATM    7  O3  UNL     1      -2.438  -3.576  -0.456  1.00  0.00    -0.263 OA
HETATM    8  N2  UNL     1      -3.379  -1.610  -0.412  1.00  0.00    -0.151 N 
ATOM      9  H2  UNL     1      -4.255  -2.106  -0.578  1.00  0.00     0.188 HD
HETATM   10  C9  UNL     1      -3.454  -0.264  -0.209  1.00  0.00     0.704 C 
HETATM   11  N4  UNL     1      -2.534   0.585   0.322  1.00  0.00    -0.042 N 
HETATM   12  C10 UNL     1      -1.264   0.262   0.617  1.00  0.00     0.241 C 
HETATM   13  N7  UNL     1      -0.690   0.941   1.707  1.00  0.00    -0.060 NA
HETATM   14  N8  UNL     1      -0.472  -0.654   0.048  1.00  0.00    -0.259 N 
ENDROOT
BRANCH   1  15
HETATM   15  C4  UNL     1       1.727   0.469   0.165  1.00  0.00     0.211 C 
HETATM   16  O2  UNL     1       1.426   1.607   0.471  1.00  0.00    -0.287 OA
BRANCH  15  17
HETATM   17  C2  UNL     1       3.223   0.242   0.104  1.00  0.00     0.117 C 
HETATM   18  C1  UNL     1       3.613   0.011  -1.339  1.00  0.00     0.054 C 
HETATM   19  C3  UNL     1       3.667  -0.921   0.924  1.00  0.00     0.054 C 
BRANCH  17  20
HETATM   20  O1  UNL     1       3.927   1.377   0.521  1.00  0.00    -0.382 OA
ATOM     21  H1  UNL     1       3.682   1.522   1.427  1.00  0.00     0.211 HD
ENDBRANCH  17  20
ENDBRANCH  15  17
ENDBRANCH   1  15
BRANCH  11  22
HETATM   22  N5  UNL     1      -2.976   1.863   0.566  1.00  0.00    -0.226 N 
ATOM     23  H5  UNL     1      -3.399   2.057   1.474  1.00  0.00     0.209 HD
BRANCH  22  24
HETATM   24  N6  UNL     1      -2.882   2.917  -0.353  1.00  0.00    -0.330 N 
ATOM     25  H62 UNL     1      -2.456   2.705  -1.255  1.00  0.00     0.178 HD
ATOM     26  H61 UNL     1      -3.210   3.866  -0.172  1.00  0.00     0.178 HD
ENDBRANCH  22  24
ENDBRANCH  11  22
BRANCH  10  27
HETATM   27  N3  UNL     1      -4.569   0.239  -0.581  1.00  0.00    -0.233 N 
ATOM     28  H32 UNL     1      -5.259  -0.398  -0.979  1.00  0.00     0.174 HD
ATOM     29  H31 UNL     1      -4.625   1.246  -0.429  1.00  0.00     0.174 HD
ENDBRANCH  10  27
TORSDOF 6
