REMARK  8 active torsions:
REMARK  status: ('A' for Active; 'I' for Inactive)
REMARK    1  A    between atoms: C2_3  and  O1_4 
REMARK    2  A    between atoms: C2_3  and  C3_6 
REMARK    3  A    between atoms: C3_6  and  O2_7 
REMARK    4  A    between atoms: C3_6  and  C4_9 
REMARK    5  A    between atoms: C6_17  and  N5_18 
REMARK    6  A    between atoms: C9_26  and  N7_27 
REMARK    7  A    between atoms: N7_27  and  N8_28 
REMARK    8  A    between atoms: N7_27  and  N9_31 
ROOT
HETATM    1  N1  UNL     1       3.298   0.532   2.946  1.00  0.00    -0.194 NA
HETATM    2  C1  UNL     1       3.287   0.814   1.828  1.00  0.00     0.094 C 
HETATM    3  C2  UNL     1       3.260   1.187   0.381  1.00  0.00     0.259 C 
ENDROOT
BRANCH   3   4
HETATM    4  O1  UNL     1       4.563   0.986  -0.056  1.00  0.00    -0.378 OA
ATOM      5  H1  UNL     1       4.546   1.223  -0.976  1.00  0.00     0.211 HD
ENDBRANCH   3   4
BRANCH   3   6
HETATM    6  C3  UNL     1       2.290   0.197  -0.306  1.00  0.00     0.214 C 
BRANCH   6   7
HETATM    7  O2  UNL     1       2.471   0.503  -1.688  1.00  0.00    -0.386 OA
ATOM      8  H2  UNL     1       1.875  -0.105  -2.110  1.00  0.00     0.210 HD
ENDBRANCH   6   7
BRANCH   6   9
HETATM    9  C4  UNL     1       0.909   0.542  -0.018  1.00  0.00     0.089 A 
HETATM   10  N2  UNL     1       0.640   1.781   0.452  1.00  0.00    -0.298 N 
HETATM   11  N3  UNL     1      -0.621   2.144   0.699  1.00  0.00    -0.284 N 
ATOM     12  H2  UNL     1       1.401   2.439   0.618  1.00  0.00     0.187 HD
HETATM   13  C5  UNL     1      -1.646   1.303   0.490  1.00  0.00     0.153 A 
ATOM     14  H3  UNL     1      -0.810   3.081   1.054  1.00  0.00     0.188 HD
HETATM   15  N4  UNL     1      -2.917   1.668   0.742  1.00  0.00    -0.174 N 
HETATM   16  C8  UNL     1      -1.397   0.016   0.002  1.00  0.00     0.111 A 
HETATM   17  C6  UNL     1      -3.926   0.812   0.532  1.00  0.00     0.680 A 
ATOM     18  H4  UNL     1      -3.114   2.604   1.096  1.00  0.00     0.186 HD
HETATM   19  N6  UNL     1      -3.727  -0.437   0.064  1.00  0.00    -0.155 N 
HETATM   20  C7  UNL     1      -2.463  -0.823  -0.197  1.00  0.00     0.276 A 
ATOM     21  H6  UNL     1      -4.511  -1.071  -0.088  1.00  0.00     0.187 HD
HETATM   22  O3  UNL     1      -2.292  -1.962  -0.624  1.00  0.00    -0.267 OA
HETATM   23  C9  UNL     1      -0.088  -0.361  -0.253  1.00  0.00     0.120 A 
BRANCH  17  24
HETATM   24  N5  UNL     1      -5.132   1.261   0.792  1.00  0.00    -0.234 N 
ATOM     25  H52 UNL     1      -5.283   2.206   1.146  1.00  0.00     0.174 HD
ATOM     26  H51 UNL     1      -5.900   0.609   0.632  1.00  0.00     0.174 HD
ENDBRANCH  17  24
BRANCH  23  27
HETATM   27  N7  UNL     1       0.210  -1.626  -0.728  1.00  0.00    -0.207 N 
BRANCH  27  28
HETATM   28  N8  UNL     1       0.312  -2.015  -2.070  1.00  0.00    -0.324 N 
ATOM     29  H82 UNL     1       0.137  -1.279  -2.755  1.00  0.00     0.178 HD
ATOM     30  H81 UNL     1       0.532  -2.947  -2.420  1.00  0.00     0.178 HD
ENDBRANCH  27  28
BRANCH  27  31
HETATM   31  N9  UNL     1       0.454  -2.649   0.224  1.00  0.00    -0.324 N 
ATOM     32  H92 UNL     1       0.380  -2.366   1.201  1.00  0.00     0.178 HD
ATOM     33  H91 UNL     1       0.674  -3.581  -0.126  1.00  0.00     0.178 HD
ENDBRANCH  27  31
ENDBRANCH  23  27
ENDBRANCH   6   9
ENDBRANCH   3   6
TORSDOF 8
