REMARK  3 active torsions:
REMARK  status: ('A' for Active; 'I' for Inactive)
REMARK    1  A    between atoms: N2_5  and  C2_6 
REMARK       I    between atoms: N6_12  and  C4_13 
REMARK       I    between atoms: C4_13  and  N7_14 
REMARK       I    between atoms: C4_13  and  N8_18 
REMARK    2  A    between atoms: C5_24  and  C6_25 
REMARK    3  A    between atoms: C6_25  and  O1_26 
ROOT
HETATM    1  N1  UNL     1      -2.098   0.404  -2.348  1.00  0.00    -0.384 N 
ATOM      2  H11 UNL     1      -1.690   0.053  -3.214  1.00  0.00     0.157 HD
ATOM      3  H12 UNL     1      -2.940   0.582  -2.895  1.00  0.00     0.157 HD
HETATM    4  C1  UNL     1      -1.736   0.564  -1.102  1.00  0.00     0.149 C 
HETATM    5  N2  UNL     1      -2.305   1.054   0.106  1.00  0.00    -0.218 N 
HETATM    6  N4  UNL     1      -1.031   1.314   0.562  1.00  0.00    -0.084 NA
HETATM    7  C3  UNL     1      -0.518   0.306  -0.311  1.00  0.00     0.266 C 
HETATM    8  N5  UNL     1       0.705   0.636  -1.011  1.00  0.00    -0.073 NA
HETATM    9  N6  UNL     1       1.833   0.105  -0.415  1.00  0.00    -0.178 N 
HETATM   10  C4  UNL     1       3.115   0.749  -0.743  1.00  0.00     0.514 C 
HETATM   11  N7  UNL     1       4.161   0.071  -0.041  1.00  0.00    -0.030 N 
ATOM     12  H71 UNL     1       5.050   0.517  -0.268  1.00  0.00     0.279 HD
ATOM     13  H72 UNL     1       4.169  -0.932  -0.226  1.00  0.00     0.279 HD
ATOM     14  H73 UNL     1       3.992   0.027   0.964  1.00  0.00     0.279 HD
HETATM   15  N8  UNL     1       3.097   2.146  -0.370  1.00  0.00    -0.030 N 
ATOM     16  H81 UNL     1       3.986   2.592  -0.597  1.00  0.00     0.279 HD
ATOM     17  H82 UNL     1       2.852   2.272   0.612  1.00  0.00     0.279 HD
ATOM     18  H83 UNL     1       2.309   2.639  -0.789  1.00  0.00     0.279 HD
HETATM   19  N9  UNL     1       1.800  -0.992   0.464  1.00  0.00    -0.282 N 
ATOM     20  H9  UNL     1       2.680  -1.338   0.845  1.00  0.00     0.188 HD
HETATM   21  C5  UNL     1       0.705  -1.579   0.809  1.00  0.00     0.100 C 
HETATM   22  C7  UNL     1      -0.531  -1.054   0.240  1.00  0.00     0.227 C 
HETATM   23  O2  UNL     1      -1.585  -1.778   0.235  1.00  0.00    -0.286 OA
ENDROOT
BRANCH   5  24
HETATM   24  C2  UNL     1      -3.661   1.173   0.544  1.00  0.00     0.205 C 
HETATM   25  N3  UNL     1      -4.756   0.776  -0.252  1.00  0.00    -0.068 NA
HETATM   26  S1  UNL     1      -3.915   1.794   2.020  1.00  0.00    -0.043 SA
ENDBRANCH   5  24
BRANCH  21  27
HETATM   27  C6  UNL     1       0.652  -2.740   1.737  1.00  0.00     0.226 C 
BRANCH  27  28
HETATM   28  O1  UNL     1       0.089  -3.841   1.101  1.00  0.00    -0.395 OA
ATOM     29  H1  UNL     1       0.055  -4.583   1.694  1.00  0.00     0.209 HD
ENDBRANCH  27  28
ENDBRANCH  21  27
TORSDOF 3
