REMARK  7 active torsions:
REMARK  status: ('A' for Active; 'I' for Inactive)
REMARK    1  A    between atoms: N1_1  and  C1_4 
REMARK    2  A    between atoms: N4_14  and  C5_15 
REMARK    3  A    between atoms: C5_15  and  O3_16 
REMARK    4  A    between atoms: O3_16  and  C6_17 
REMARK    5  A    between atoms: C8_21  and  N6_22 
REMARK    6  A    between atoms: N6_22  and  N7_23 
REMARK    7  A    between atoms: N6_22  and  O5_26 
ROOT
HETATM    1  C1  UNL     1      -3.297  -0.154   1.237  1.00  0.00     0.678 A 
HETATM    2  N2  UNL     1      -2.941  -1.382   0.875  1.00  0.00    -0.184 N 
ATOM      3  H2  UNL     1      -3.561  -2.164   1.086  1.00  0.00     0.184 HD
HETATM    4  C2  UNL     1      -1.779  -1.615   0.235  1.00  0.00     0.148 A 
HETATM    5  C3  UNL     1      -1.475  -2.910  -0.134  1.00  0.00     0.279 A 
HETATM    6  O1  UNL     1      -2.268  -3.843   0.145  1.00  0.00    -0.265 OA
HETATM    7  N3  UNL     1      -0.327  -3.100  -0.781  1.00  0.00    -0.273 N 
ATOM      8  H3  UNL     1      -0.070  -4.044  -1.069  1.00  0.00     0.173 HD
HETATM    9  C4  UNL     1       0.478  -2.109  -1.056  1.00  0.00     0.331 A 
HETATM   10  O2  UNL     1       1.564  -2.363  -1.680  1.00  0.00    -0.246 OA
HETATM   11  N4  UNL     1       0.249  -0.776  -0.721  1.00  0.00    -0.271 N 
HETATM   12  C7  UNL     1      -0.897  -0.564  -0.075  1.00  0.00     0.122 A 
HETATM   13  C8  UNL     1      -1.281   0.668   0.300  1.00  0.00     0.195 A 
HETATM   14  N8  UNL     1      -2.489   0.857   0.958  1.00  0.00    -0.171 N 
ATOM     15  H8  UNL     1      -2.761   1.800   1.234  1.00  0.00     0.186 HD
ENDROOT
BRANCH  13  16
HETATM   16  N6  UNL     1      -0.609   1.857   0.070  1.00  0.00    -0.150 N 
BRANCH  16  17
HETATM   17  N7  UNL     1       0.173   2.425   1.041  1.00  0.00    -0.317 N 
ATOM     18  H72 UNL     1       0.337   1.912   1.907  1.00  0.00     0.179 HD
ATOM     19  H71 UNL     1       0.668   3.301   0.872  1.00  0.00     0.179 HD
ENDBRANCH  16  17
BRANCH  16  20
HETATM   20  O5  UNL     1      -0.823   2.528  -1.064  1.00  0.00    -0.267 OA
ATOM     21  H5  UNL     1      -0.362   3.344  -1.222  1.00  0.00     0.247 HD
ENDBRANCH  16  20
ENDBRANCH  13  16
BRANCH  11  22
HETATM   22  C5  UNL     1       1.265   0.143  -1.102  1.00  0.00     0.316 C 
BRANCH  22  23
HETATM   23  O3  UNL     1       2.241   0.024  -0.023  1.00  0.00    -0.286 OA
BRANCH  23  24
HETATM   24  C6  UNL     1       3.404   0.716   0.059  1.00  0.00     0.374 C 
HETATM   25  N5  UNL     1       4.349   0.592   1.114  1.00  0.00    -0.032 NA
HETATM   26  O4  UNL     1       3.628   1.530  -0.906  1.00  0.00    -0.242 OA
ENDBRANCH  23  24
ENDBRANCH  22  23
ENDBRANCH  11  22
BRANCH   1  27
HETATM   27  N1  UNL     1      -4.407   0.068   1.852  1.00  0.00    -0.234 N 
ATOM     28  H12 UNL     1      -5.030  -0.711   2.067  1.00  0.00     0.174 HD
ATOM     29  H11 UNL     1      -4.680   1.011   2.130  1.00  0.00     0.174 HD
ENDBRANCH   1  27
TORSDOF 7
