REMARK  5 active torsions:
REMARK  status: ('A' for Active; 'I' for Inactive)
REMARK       I    between atoms: N1_1  and  C1_4 
REMARK       I    between atoms: C1_4  and  N3_6 
REMARK    1  A    between atoms: N3_6  and  C2_8 
REMARK    2  A    between atoms: C3_11  and  N5_12 
REMARK    3  A    between atoms: N5_12  and  C4_14 
REMARK    4  A    between atoms: C4_14  and  C5_15 
REMARK    5  A    between atoms: C5_15  and  O1_16 
ROOT
HETATM    1  C2  UNL     1      -1.097  -0.829   0.305  1.00  0.00     0.154 A 
HETATM    2  N4  UNL     1       0.063  -1.473   0.208  1.00  0.00    -0.174 N 
ATOM      3  H4  UNL     1       0.115  -2.457   0.473  1.00  0.00     0.186 HD
HETATM    4  C3  UNL     1       1.194  -0.832  -0.245  1.00  0.00     0.681 A 
HETATM    5  N6  UNL     1       1.091   0.459  -0.584  1.00  0.00    -0.174 N 
ATOM      6  H6  UNL     1       1.921   0.947  -0.921  1.00  0.00     0.186 HD
HETATM    7  C6  UNL     1      -0.084   1.143  -0.495  1.00  0.00     0.153 A 
HETATM    8  N7  UNL     1      -0.117   2.455  -0.856  1.00  0.00    -0.322 N 
ATOM      9  H7  UNL     1       0.713   2.943  -1.192  1.00  0.00     0.169 HD
HETATM   10  C7  UNL     1      -1.312   3.073  -0.743  1.00  0.00     0.166 A 
HETATM   11  N8  UNL     1      -1.457   4.383  -1.078  1.00  0.00    -0.281 N 
ATOM     12  H8  UNL     1      -0.654   4.910  -1.420  1.00  0.00     0.188 HD
HETATM   13  N9  UNL     1      -2.632   4.977  -0.963  1.00  0.00    -0.294 N 
ATOM     14  H9  UNL     1      -2.698   5.961  -1.225  1.00  0.00     0.187 HD
HETATM   15  C8  UNL     1      -3.737   4.370  -0.526  1.00  0.00     0.199 A 
HETATM   16  N10 UNL     1      -3.633   3.072  -0.185  1.00  0.00    -0.334 N 
ATOM     17  H10 UNL     1      -4.453   2.570   0.154  1.00  0.00     0.168 HD
HETATM   18  C9  UNL     1      -2.444   2.428  -0.290  1.00  0.00     0.153 A 
HETATM   19  N11 UNL     1      -2.382   1.122   0.064  1.00  0.00    -0.333 N 
ATOM     20  H11 UNL     1      -3.209   0.629   0.402  1.00  0.00     0.168 HD
HETATM   21  C10 UNL     1      -1.213   0.503  -0.043  1.00  0.00     0.124 A 
ENDROOT
BRANCH   1  22
HETATM   22  N3  UNL     1      -2.143  -1.441   0.729  1.00  0.00    -0.315 N 
HETATM   23  C1  UNL     1      -2.133  -2.807   1.111  1.00  0.00     0.187 C 
HETATM   24  N1  UNL     1      -2.234  -3.040   2.395  1.00  0.00    -0.373 N 
HETATM   25  N2  UNL     1      -2.021  -3.867   0.169  1.00  0.00    -0.064 NA
ATOM     26  H12 UNL     1      -2.227  -4.022   2.670  1.00  0.00     0.158 HD
ATOM     27  H11 UNL     1      -2.314  -2.280   3.070  1.00  0.00     0.158 HD
ATOM     28  H3  UNL     1      -3.019  -0.923   0.794  1.00  0.00     0.170 HD
ENDBRANCH   1  22
BRANCH   4  29
HETATM   29  N5  UNL     1       2.291  -1.474  -0.328  1.00  0.00    -0.224 N 
ATOM     30  H5  UNL     1       2.279  -2.455  -0.050  1.00  0.00     0.177 HD
BRANCH  29  31
HETATM   31  C4  UNL     1       3.526  -0.942  -0.774  1.00  0.00     0.164 C 
BRANCH  31  32
HETATM   32  C5  UNL     1       4.385  -0.536   0.420  1.00  0.00     0.184 C 
BRANCH  32  33
HETATM   33  O1  UNL     1       3.761   0.417   1.186  1.00  0.00    -0.399 OA
ATOM     34  H1  UNL     1       4.296   0.670   1.929  1.00  0.00     0.209 HD
ENDBRANCH  32  33
ENDBRANCH  31  32
ENDBRANCH  29  31
ENDBRANCH   4  29
TORSDOF 5
