REMARK  3 active torsions:
REMARK  status: ('A' for Active; 'I' for Inactive)
REMARK    1  A    between atoms: C4_7  and  C5_8 
REMARK       I    between atoms: C5_8  and  N3_10 
REMARK    2  A    between atoms: N3_10  and  C6_12 
REMARK    3  A    between atoms: C9_21  and  N8_22 
ROOT
HETATM    1  C6  UNL     1      -1.238   0.217   0.737  1.00  0.00     0.158 A 
HETATM    2  N4  UNL     1      -1.173  -1.057   0.322  1.00  0.00    -0.282 N 
ATOM      3  H4  UNL     1      -0.304  -1.577   0.444  1.00  0.00     0.188 HD
HETATM    4  N5  UNL     1      -2.213  -1.657  -0.244  1.00  0.00    -0.285 N 
ATOM      5  H5  UNL     1      -2.107  -2.627  -0.540  1.00  0.00     0.188 HD
HETATM    6  C7  UNL     1      -3.393  -1.058  -0.447  1.00  0.00     0.157 A 
HETATM    7  N6  UNL     1      -4.496  -1.727  -1.049  1.00  0.00    -0.079 NA
HETATM    8  C8  UNL     1      -3.495   0.261  -0.028  1.00  0.00     0.125 A 
HETATM    9  N7  UNL     1      -4.730   0.945  -0.218  1.00  0.00    -0.096 NA
HETATM   10  C9  UNL     1      -2.417   0.884   0.558  1.00  0.00     0.175 A 
ENDROOT
BRANCH   1  11
HETATM   11  N3  UNL     1      -0.251   0.844   1.288  1.00  0.00    -0.308 N 
HETATM   12  C5  UNL     1       0.979   0.116   1.462  1.00  0.00     0.246 C 
HETATM   13  O1  UNL     1       0.998  -0.753   2.368  1.00  0.00    -0.271 OA
ATOM     14  H3  UNL     1      -0.340   1.815   1.587  1.00  0.00     0.170 HD
BRANCH  12  15
HETATM   15  C4  UNL     1       2.168   0.343   0.644  1.00  0.00     0.178 C 
HETATM   16  C3  UNL     1       1.891   0.766  -0.759  1.00  0.00     0.054 C 
HETATM   17  C2  UNL     1       3.152   0.857  -1.559  1.00  0.00     0.125 C 
HETATM   18  N2  UNL     1       4.150  -0.091  -1.195  1.00  0.00    -0.365 N 
HETATM   19  C1  UNL     1       4.108  -0.868  -0.182  1.00  0.00     0.184 C 
ATOM     20  H2  UNL     1       4.971  -0.155  -1.796  1.00  0.00     0.162 HD
HETATM   21  N1  UNL     1       5.161  -1.794   0.114  1.00  0.00    -0.064 NA
HETATM   22  N9  UNL     1       2.995  -0.852   0.701  1.00  0.00    -0.351 N 
ATOM     23  H9  UNL     1       2.790  -1.626   1.332  1.00  0.00     0.163 HD
ENDBRANCH  12  15
ENDBRANCH   1  11
BRANCH  10  24
HETATM   24  N8  UNL     1      -2.519   2.249   0.974  1.00  0.00    -0.110 N 
HETATM   25  O2  UNL     1      -2.638   2.475   2.184  1.00  0.00    -0.532 OA
HETATM   26  O3  UNL     1      -2.486   3.296   0.103  1.00  0.00    -0.532 OA
ENDBRANCH  10  24
TORSDOF 3
