REMARK  3 active torsions:
REMARK  status: ('A' for Active; 'I' for Inactive)
REMARK       I    between atoms: C2_2  and  N1_4 
REMARK    1  A    between atoms: N1_4  and  C3_6 
REMARK    2  A    between atoms: C5_12  and  C6_13 
REMARK    3  A    between atoms: C9_21  and  N6_22 
ROOT
HETATM    1  C3  UNL     1       2.365   0.572  -0.083  1.00  0.00     0.714 A 
HETATM    2  N2  UNL     1       2.342  -0.661   0.423  1.00  0.00    -0.129 N 
ATOM      3  H2  UNL     1       3.223  -1.129   0.634  1.00  0.00     0.205 HD
HETATM    4  N3  UNL     1       1.207  -1.291   0.657  1.00  0.00    -0.269 N 
ATOM      5  H3  UNL     1       1.236  -2.234   1.045  1.00  0.00     0.189 HD
HETATM    6  C4  UNL     1       0.013  -0.728   0.399  1.00  0.00     0.161 A 
HETATM    7  C5  UNL     1      -1.307  -1.201   0.563  1.00  0.00     0.096 A 
HETATM    8  C7  UNL     1      -2.124  -0.202   0.134  1.00  0.00     0.098 A 
HETATM    9  C8  UNL     1      -3.499  -0.030   0.032  1.00  0.00     0.274 A 
HETATM   10  O3  UNL     1      -4.264  -0.953   0.394  1.00  0.00    -0.267 OA
HETATM   11  N5  UNL     1      -3.973   1.130  -0.455  1.00  0.00    -0.155 N 
ATOM     12  H5  UNL     1      -4.983   1.251  -0.527  1.00  0.00     0.187 HD
HETATM   13  C9  UNL     1      -3.182   2.131  -0.849  1.00  0.00     0.680 A 
HETATM   14  N7  UNL     1      -1.857   1.950  -0.744  1.00  0.00    -0.174 N 
ATOM     15  H7  UNL     1      -1.248   2.712  -1.042  1.00  0.00     0.186 HD
HETATM   16  C10 UNL     1      -1.278   0.836  -0.274  1.00  0.00     0.162 A 
HETATM   17  N8  UNL     1       0.009   0.501  -0.107  1.00  0.00    -0.205 N 
HETATM   18  N9  UNL     1       1.161   1.133  -0.340  1.00  0.00    -0.120 N 
ATOM     19  H9  UNL     1       1.133   2.076  -0.727  1.00  0.00     0.206 HD
ENDROOT
BRANCH   1  20
HETATM   20  N1  UNL     1       3.575   1.265  -0.340  1.00  0.00    -0.157 N 
HETATM   21  C2  UNL     1       4.859   0.754  -0.101  1.00  0.00     0.232 C 
HETATM   22  C1  UNL     1       5.102  -0.573   0.449  1.00  0.00     0.118 C 
HETATM   23  O1  UNL     1       5.869   1.488  -0.380  1.00  0.00    -0.273 OA
ATOM     24  H1  UNL     1       3.506   2.206  -0.728  1.00  0.00     0.187 HD
ENDBRANCH   1  20
BRANCH   7  25
HETATM   25  C6  UNL     1      -1.638  -2.493   1.086  1.00  0.00     0.270 C 
HETATM   26  N4  UNL     1      -2.873  -3.096   1.307  1.00  0.00    -0.057 NA
HETATM   27  O2  UNL     1      -0.633  -3.246   1.418  1.00  0.00    -0.271 OA
ENDBRANCH   7  25
BRANCH  13  28
HETATM   28  N6  UNL     1      -3.670   3.250  -1.320  1.00  0.00    -0.234 N 
ATOM     29  H62 UNL     1      -4.678   3.388  -1.400  1.00  0.00     0.174 HD
ATOM     30  H61 UNL     1      -3.066   4.015  -1.621  1.00  0.00     0.174 HD
ENDBRANCH  13  28
TORSDOF 3
