REMARK  2 active torsions:
REMARK  status: ('A' for Active; 'I' for Inactive)
REMARK    1  A    between atoms: C6_14  and  N7_15 
REMARK    2  A    between atoms: C6_14  and  C8_22 
REMARK       I    between atoms: N7_15  and  C7_17 
ROOT
HETATM    1  N1  UNL     1      -2.281  -1.554  -2.407  1.00  0.00    -0.195 NA
HETATM    2  C1  UNL     1      -1.866  -1.297  -1.381  1.00  0.00     0.097 C 
HETATM    3  C2  UNL     1      -1.324  -0.999  -0.074  1.00  0.00     0.241 C 
HETATM    4  C3  UNL     1      -0.885  -2.323   0.553  1.00  0.00     0.097 C 
HETATM    5  N2  UNL     1      -0.568  -3.352   1.006  1.00  0.00    -0.195 NA
HETATM    6  C4  UNL     1      -2.471  -0.703   0.855  1.00  0.00     0.137 C 
HETATM    7  N3  UNL     1      -3.726  -1.342   0.588  1.00  0.00    -0.084 NA
HETATM    8  N4  UNL     1      -2.394   0.120   1.801  1.00  0.00    -0.320 N 
ATOM      9  H4  UNL     1      -3.200   0.250   2.413  1.00  0.00     0.169 HD
HETATM   10  C5  UNL     1      -1.231   0.863   2.037  1.00  0.00     0.191 C 
HETATM   11  N5  UNL     1      -1.101   1.707   3.173  1.00  0.00    -0.063 NA
HETATM   12  N6  UNL     1      -0.261   0.754   1.237  1.00  0.00    -0.330 N 
ATOM     13  H6  UNL     1       0.581   1.288   1.453  1.00  0.00     0.165 HD
HETATM   14  C6  UNL     1      -0.236  -0.051   0.055  1.00  0.00     0.193 C 
ENDROOT
BRANCH  14  15
HETATM   15  N7  UNL     1      -0.580   0.961  -1.041  1.00  0.00    -0.330 N 
HETATM   16  C7  UNL     1       0.012   2.235  -1.150  1.00  0.00     0.184 C 
HETATM   17  N8  UNL     1      -0.496   3.292  -0.660  1.00  0.00    -0.374 N 
HETATM   18  N9  UNL     1       1.233   2.394  -1.853  1.00  0.00    -0.064 NA
ATOM     19  H82 UNL     1      -1.374   3.178  -0.154  1.00  0.00     0.158 HD
ATOM     20  H81 UNL     1      -0.067   4.214  -0.739  1.00  0.00     0.158 HD
ATOM     21  H7  UNL     1      -1.280   0.697  -1.734  1.00  0.00     0.165 HD
ENDBRANCH  14  15
BRANCH  14  22
HETATM   22  C8  UNL     1       1.161  -0.483  -0.171  1.00  0.00     0.061 A 
HETATM   23  C9  UNL     1       1.546  -1.616  -0.851  1.00  0.00     0.029 A 
HETATM   24  C10 UNL     1       2.918  -1.928  -1.011  1.00  0.00     0.003 A 
HETATM   25  C11 UNL     1       3.848  -1.085  -0.474  1.00  0.00     0.017 A 
HETATM   26  C12 UNL     1       3.453   0.028   0.197  1.00  0.00     0.088 A 
HETATM   27  N10 UNL     1       2.146   0.290   0.320  1.00  0.00    -0.366 N 
ATOM     28  H10 UNL     1       1.878   1.136   0.822  1.00  0.00     0.165 HD
ENDBRANCH  14  22
TORSDOF 2
