REMARK  16 active torsions:
REMARK  status: ('A' for Active; 'I' for Inactive)
REMARK       I    between atoms: C2_4  and  N2_5 
REMARK       I    between atoms: C2_4  and  N5_18 
REMARK    1  A    between atoms: N2_5  and  C3_7 
REMARK    2  A    between atoms: C3_7  and  C4_8 
REMARK    3  A    between atoms: C4_8  and  N3_9 
REMARK       I    between atoms: N3_9  and  C5_11 
REMARK    4  A    between atoms: C5_11  and  C6_13 
REMARK    5  A    between atoms: C6_13  and  N4_14 
REMARK    6  A    between atoms: N5_18  and  N6_20 
REMARK       I    between atoms: N6_20  and  C9_22 
REMARK    7  A    between atoms: C9_22  and  C10_24 
REMARK    8  A    between atoms: C13_27  and  N7_28 
REMARK    9  A    between atoms: N7_28  and  C14_30 
REMARK   10  A    between atoms: C16_34  and  C17_35 
REMARK   11  A    between atoms: C17_35  and  N10_39 
REMARK   12  A    between atoms: N10_39  and  N11_41 
REMARK       I    between atoms: N11_41  and  C18_43 
REMARK   13  A    between atoms: N13_45  and  O4_47 
REMARK   14  A    between atoms: O4_47  and  C19_48 
REMARK   15  A    between atoms: C19_48  and  N14_49 
REMARK   16  A    between atoms: C19_48  and  N15_53 
ROOT
HETATM    1  N7  UNL     1       2.917  -1.655  -0.753  1.00  0.00    -0.192 N 
ATOM      2  H7  UNL     1       2.984  -2.668  -0.658  1.00  0.00     0.184 HD
ENDROOT
BRANCH   1   3
HETATM    3  C13 UNL     1       1.722  -1.035  -0.386  1.00  0.00     0.049 A 
HETATM    4  C12 UNL     1       1.602  -0.158   0.676  1.00  0.00     0.031 A 
HETATM    5  C11 UNL     1       0.394   0.411   0.985  1.00  0.00     0.019 A 
HETATM    6  C10 UNL     1      -0.778   0.151   0.264  1.00  0.00     0.033 A 
HETATM    7  C22 UNL     1      -0.632  -0.728  -0.792  1.00  0.00     0.019 A 
HETATM    8  C21 UNL     1       0.581  -1.311  -1.118  1.00  0.00     0.031 A 
BRANCH   6   9
HETATM    9  C9  UNL     1      -2.026   0.790   0.639  1.00  0.00     0.270 C 
HETATM   10  N6  UNL     1      -3.264   0.289   0.206  1.00  0.00    -0.251 N 
ATOM     11  H6  UNL     1      -3.273  -0.539  -0.390  1.00  0.00     0.191 HD
HETATM   12  O3  UNL     1      -1.983   1.806   1.364  1.00  0.00    -0.266 OA
BRANCH  10  13
HETATM   13  N5  UNL     1      -4.492   0.876   0.556  1.00  0.00    -0.130 N 
HETATM   14  C2  UNL     1      -5.039   0.564   1.823  1.00  0.00     0.688 C 
HETATM   15  N1  UNL     1      -4.315   0.740   2.862  1.00  0.00    -0.229 N 
HETATM   16  N2  UNL     1      -6.351   0.069   2.016  1.00  0.00    -0.224 N 
HETATM   17  C1  UNL     1      -4.662   0.500   4.221  1.00  0.00     0.165 C 
ATOM     18  H1  UNL     1      -3.374   1.096   2.697  1.00  0.00     0.177 HD
ATOM     19  H2  UNL     1      -7.107   0.749   2.101  1.00  0.00     0.177 HD
ATOM     20  H5  UNL     1      -4.974   1.508  -0.084  1.00  0.00     0.205 HD
BRANCH  16  21
HETATM   21  C3  UNL     1      -6.697  -1.339   2.102  1.00  0.00     0.157 C 
BRANCH  21  22
HETATM   22  C4  UNL     1      -8.169  -1.455   2.332  1.00  0.00     0.143 C 
BRANCH  22  23
HETATM   23  N3  UNL     1      -8.984  -0.871   1.279  1.00  0.00    -0.358 N 
HETATM   24  C5  UNL     1      -8.955  -1.306  -0.050  1.00  0.00     0.251 C 
HETATM   25  O1  UNL     1      -8.140  -2.286  -0.283  1.00  0.00    -0.271 OA
ATOM     26  H3  UNL     1      -9.610  -0.103   1.522  1.00  0.00     0.162 HD
BRANCH  24  27
HETATM   27  C6  UNL     1      -9.721  -0.793  -1.173  1.00  0.00     0.413 C 
BRANCH  27  28
HETATM   28  N4  UNL     1     -10.614   0.290  -0.947  1.00  0.00     0.014 N 
HETATM   29  C7  UNL     1     -10.015   1.491  -0.436  1.00  0.00     0.356 C 
HETATM   30  C8  UNL     1     -11.822  -0.036  -0.237  1.00  0.00     0.356 C 
HETATM   31  O2  UNL     1     -11.062   0.648  -2.222  1.00  0.00    -0.065 OA
ENDBRANCH  27  28
ENDBRANCH  24  27
ENDBRANCH  22  23
ENDBRANCH  21  22
ENDBRANCH  16  21
ENDBRANCH  10  13
ENDBRANCH   6   9
ENDBRANCH   1   3
BRANCH   1  32
HETATM   32  C14 UNL     1       3.940  -1.016  -1.206  1.00  0.00     0.682 A 
HETATM   33  N8  UNL     1       5.058  -1.729  -1.531  1.00  0.00    -0.201 N 
HETATM   34  C15 UNL     1       6.167  -1.141  -2.003  1.00  0.00     0.122 A 
ATOM     35  H8  UNL     1       5.049  -2.742  -1.411  1.00  0.00     0.183 HD
HETATM   36  C16 UNL     1       6.243   0.237  -2.191  1.00  0.00     0.041 A 
HETATM   37  C20 UNL     1       5.113   0.948  -1.864  1.00  0.00     0.122 A 
HETATM   38  N16 UNL     1       4.006   0.307  -1.386  1.00  0.00    -0.201 N 
ATOM     39  H16 UNL     1       3.186   0.867  -1.154  1.00  0.00     0.183 HD
BRANCH  36  40
HETATM   40  C17 UNL     1       7.462   0.857  -2.686  1.00  0.00     0.126 C 
HETATM   41  N9  UNL     1       7.616   2.106  -2.909  1.00  0.00    -0.384 N 
ATOM     42  H92 UNL     1       6.807   2.699  -2.726  1.00  0.00     0.157 HD
ATOM     43  H91 UNL     1       8.471   2.541  -3.256  1.00  0.00     0.157 HD
BRANCH  40  44
HETATM   44  N10 UNL     1       8.591   0.029  -2.942  1.00  0.00    -0.283 N 
ATOM     45  H10 UNL     1       8.562  -0.662  -3.691  1.00  0.00     0.188 HD
BRANCH  44  46
HETATM   46  N11 UNL     1       9.740   0.171  -2.158  1.00  0.00    -0.271 N 
HETATM   47  C18 UNL     1       9.740   0.450  -0.771  1.00  0.00     0.227 C 
HETATM   48  N12 UNL     1       8.620   0.973  -0.054  1.00  0.00    -0.060 NA
HETATM   49  N13 UNL     1      10.796   0.239  -0.043  1.00  0.00    -0.233 N 
ATOM     50  H13 UNL     1      10.775   0.445   0.956  1.00  0.00     0.197 HD
ATOM     51  H11 UNL     1      10.644   0.066  -2.619  1.00  0.00     0.189 HD
BRANCH  49  52
HETATM   52  O4  UNL     1      11.937  -0.259  -0.613  1.00  0.00    -0.217 OA
BRANCH  52  53
HETATM   53  C19 UNL     1      13.142  -0.371   0.124  1.00  0.00     0.542 C 
BRANCH  53  54
HETATM   54  N14 UNL     1      13.496  -1.763   0.227  1.00  0.00    -0.025 N 
ATOM     55 3H14 UNL     1      12.744  -2.328   0.622  1.00  0.00     0.279 HD
ATOM     56 2H14 UNL     1      13.553  -2.219  -0.684  1.00  0.00     0.279 HD
ATOM     57 1H14 UNL     1      14.363  -1.844   0.758  1.00  0.00     0.279 HD
ENDBRANCH  53  54
BRANCH  53  58
HETATM   58  N15 UNL     1      14.223   0.322  -0.538  1.00  0.00    -0.025 N 
ATOM     59 3H15 UNL     1      14.340   0.003  -1.500  1.00  0.00     0.279 HD
ATOM     60 2H15 UNL     1      13.986   1.296  -0.725  1.00  0.00     0.279 HD
ATOM     61 1H15 UNL     1      15.090   0.241  -0.007  1.00  0.00     0.279 HD
ENDBRANCH  53  58
ENDBRANCH  52  53
ENDBRANCH  49  52
ENDBRANCH  44  46
ENDBRANCH  40  44
ENDBRANCH  36  40
ENDBRANCH   1  32
TORSDOF 16
