REMARK  18 active torsions:
REMARK  status: ('A' for Active; 'I' for Inactive)
REMARK    1  A    between atoms: O1_2  and  C2_3 
REMARK    2  A    between atoms: C2_3  and  C3_4 
REMARK    3  A    between atoms: C3_4  and  N1_6 
REMARK    4  A    between atoms: N1_6  and  C5_8 
REMARK    5  A    between atoms: C5_8  and  C6_9 
REMARK    6  A    between atoms: C5_8  and  N7_29 
REMARK    7  A    between atoms: C6_9  and  C7_10 
REMARK    8  A    between atoms: C7_10  and  C8_11 
REMARK    9  A    between atoms: C8_11  and  C9_12 
REMARK   10  A    between atoms: C9_12  and  C10_13 
REMARK   11  A    between atoms: C12_17  and  N3_18 
REMARK       I    between atoms: N7_29  and  C15_31 
REMARK   12  A    between atoms: C15_31  and  C16_33 
REMARK   13  A    between atoms: C16_33  and  C17_34 
REMARK   14  A    between atoms: C16_33  and  N11_44 
REMARK   15  A    between atoms: C17_34  and  C18_35 
REMARK   16  A    between atoms: C18_35  and  C19_36 
REMARK   17  A    between atoms: C19_36  and  N8_37 
REMARK       I    between atoms: N8_37  and  C20_39 
REMARK       I    between atoms: C20_39  and  N9_40 
REMARK   18  A    between atoms: C24_52  and  N14_53 
ROOT
HETATM    1  N7  UNL     1      -0.605  -0.420  -1.543  1.00  0.00    -0.328 N 
ATOM      2  H7  UNL     1      -0.822  -0.870  -0.654  1.00  0.00     0.165 HD
HETATM    3  C15 UNL     1      -1.388   0.671  -1.992  1.00  0.00     0.243 C 
HETATM    4  O2  UNL     1      -1.105   1.213  -3.090  1.00  0.00    -0.271 OA
ENDROOT
BRANCH   1   5
HETATM    5  C5  UNL     1       0.515  -0.904  -2.351  1.00  0.00     0.263 C 
BRANCH   5   6
HETATM    6  N1  UNL     1       0.368  -2.209  -2.788  1.00  0.00    -0.386 N 
ATOM      7  H1  UNL     1       0.423  -2.367  -3.794  1.00  0.00     0.156 HD
BRANCH   6   8
HETATM    8  C3  UNL     1       0.154  -3.320  -1.990  1.00  0.00     0.099 C 
HETATM    9  C4  UNL     1      -0.226  -4.545  -2.803  1.00  0.00     0.034 C 
BRANCH   8  10
HETATM   10  C2  UNL     1       1.263  -3.659  -1.054  1.00  0.00     0.191 C 
BRANCH  10  11
HETATM   11  O1  UNL     1       2.468  -3.845  -1.583  1.00  0.00    -0.394 OA
HETATM   12  C1  UNL     1       2.781  -4.781  -2.481  1.00  0.00     0.201 C 
ENDBRANCH  10  11
ENDBRANCH   8  10
ENDBRANCH   6   8
ENDBRANCH   5   6
BRANCH   5  13
HETATM   13  C6  UNL     1       1.703  -0.614  -1.557  1.00  0.00    -0.046 C 
BRANCH  13  14
HETATM   14  C7  UNL     1       2.707  -0.328  -0.907  1.00  0.00    -0.011 C 
BRANCH  14  15
HETATM   15  C8  UNL     1       3.873   0.012  -0.180  1.00  0.00    -0.006 C 
BRANCH  15  16
HETATM   16  C9  UNL     1       4.874   0.314   0.424  1.00  0.00    -0.016 C 
BRANCH  16  17
HETATM   17  C10 UNL     1       6.069   0.691   1.123  1.00  0.00     0.164 A 
HETATM   18  N2  UNL     1       6.719  -0.028   2.062  1.00  0.00    -0.329 N 
HETATM   19  C11 UNL     1       7.794   0.640   2.494  1.00  0.00     0.123 A 
ATOM     20  H2  UNL     1       6.432  -0.949   2.394  1.00  0.00     0.168 HD
HETATM   21  C12 UNL     1       8.808   0.426   3.410  1.00  0.00     0.131 A 
HETATM   22  C14 UNL     1       7.823   1.829   1.798  1.00  0.00     0.139 A 
HETATM   23  N4  UNL     1       9.771   1.354   3.598  1.00  0.00    -0.337 N 
HETATM   24  C13 UNL     1       9.774   2.493   2.913  1.00  0.00     0.183 A 
ATOM     25  H4  UNL     1      10.510   1.177   4.279  1.00  0.00     0.168 HD
HETATM   26  N5  UNL     1       8.795   2.716   2.018  1.00  0.00    -0.337 N 
ATOM     27  H5  UNL     1       8.796   3.590   1.492  1.00  0.00     0.168 HD
HETATM   28  N6  UNL     1       6.780   1.845   0.979  1.00  0.00    -0.319 N 
ATOM     29  H6  UNL     1       6.546   2.604   0.339  1.00  0.00     0.169 HD
BRANCH  21  30
HETATM   30  N3  UNL     1       8.838  -0.662   4.091  1.00  0.00    -0.383 N 
ATOM     31  H32 UNL     1       8.111  -1.363   3.949  1.00  0.00     0.157 HD
ATOM     32  H31 UNL     1       9.586  -0.820   4.767  1.00  0.00     0.157 HD
ENDBRANCH  21  30
ENDBRANCH  16  17
ENDBRANCH  15  16
ENDBRANCH  14  15
ENDBRANCH  13  14
ENDBRANCH   5  13
ENDBRANCH   1   5
BRANCH   3  33
HETATM   33  C16 UNL     1      -2.534   1.210  -1.227  1.00  0.00     0.184 C 
BRANCH  33  34
HETATM   34  C17 UNL     1      -3.147   2.385  -1.969  1.00  0.00     0.037 C 
BRANCH  34  35
HETATM   35  C18 UNL     1      -4.321   2.980  -1.247  1.00  0.00     0.022 C 
BRANCH  35  36
HETATM   36  C19 UNL     1      -5.442   1.985  -1.055  1.00  0.00     0.122 C 
BRANCH  36  37
HETATM   37  N8  UNL     1      -6.543   2.609  -0.357  1.00  0.00    -0.365 N 
HETATM   38  C20 UNL     1      -7.734   1.886  -0.050  1.00  0.00     0.181 C 
HETATM   39  N9  UNL     1      -7.750   0.859   0.726  1.00  0.00    -0.374 N 
HETATM   40  N10 UNL     1      -8.981   2.301  -0.615  1.00  0.00    -0.064 NA
ATOM     41  H92 UNL     1      -6.861   0.563   1.129  1.00  0.00     0.158 HD
ATOM     42  H91 UNL     1      -8.601   0.342   0.945  1.00  0.00     0.158 HD
ATOM     43  H8  UNL     1      -6.467   3.587  -0.078  1.00  0.00     0.162 HD
ENDBRANCH  36  37
ENDBRANCH  35  36
ENDBRANCH  34  35
ENDBRANCH  33  34
BRANCH  33  44
HETATM   44  N11 UNL     1      -2.201   1.537   0.125  1.00  0.00    -0.313 N 
HETATM   45  C21 UNL     1      -1.498   2.600   0.536  1.00  0.00     0.186 A 
HETATM   46  N12 UNL     1      -1.397   2.560   1.883  1.00  0.00    -0.348 N 
HETATM   47  C22 UNL     1      -2.029   1.479   2.350  1.00  0.00     0.094 A 
ATOM     48  H12 UNL     1      -0.912   3.250   2.456  1.00  0.00     0.167 HD
HETATM   49  C23 UNL     1      -2.226   0.976   3.615  1.00  0.00     0.139 A 
HETATM   50  C25 UNL     1      -2.535   0.837   1.232  1.00  0.00     0.153 A 
HETATM   51  N13 UNL     1      -2.934  -0.179   3.774  1.00  0.00    -0.200 N 
HETATM   52  C24 UNL     1      -3.424  -0.800   2.682  1.00  0.00     0.677 A 
ATOM     53  H13 UNL     1      -3.090  -0.567   4.704  1.00  0.00     0.183 HD
HETATM   54  N15 UNL     1      -3.227  -0.299   1.436  1.00  0.00    -0.174 N 
ATOM     55  H15 UNL     1      -3.613  -0.796   0.634  1.00  0.00     0.186 HD
BRANCH  52  56
HETATM   56  N14 UNL     1      -4.083  -1.884   2.885  1.00  0.00    -0.234 N 
ATOM     57 2H14 UNL     1      -4.231  -2.260   3.821  1.00  0.00     0.174 HD
ATOM     58 1H14 UNL     1      -4.454  -2.354   2.059  1.00  0.00     0.174 HD
ENDBRANCH  52  56
ENDBRANCH  33  44
ENDBRANCH   3  33
TORSDOF 18
