REMARK  12 active torsions:
REMARK  status: ('A' for Active; 'I' for Inactive)
REMARK    1  A    between atoms: N1_1  and  C1_4 
REMARK    2  A    between atoms: C5_11  and  N3_12 
REMARK    3  A    between atoms: N3_12  and  S1_14 
REMARK    4  A    between atoms: S1_14  and  N4_17 
REMARK       I    between atoms: N4_17  and  C6_19 
REMARK       I    between atoms: C6_19  and  N5_21 
REMARK    5  A    between atoms: N5_21  and  C7_23 
REMARK    6  A    between atoms: C7_23  and  C8_24 
REMARK       I    between atoms: C8_24  and  N6_26 
REMARK    7  A    between atoms: N6_26  and  C9_28 
REMARK    8  A    between atoms: C13_32  and  S2_33 
REMARK    9  A    between atoms: S2_33  and  N7_36 
REMARK   10  A    between atoms: N7_36  and  N8_38 
REMARK       I    between atoms: N8_38  and  C14_40 
REMARK   11  A    between atoms: C14_40  and  C15_42 
REMARK   12  A    between atoms: C15_42  and  N9_43 
ROOT
HETATM    1  N4  UNL     1      -3.324  -0.264  -0.242  1.00  0.00    -0.219 N 
ATOM      2  H4  UNL     1      -3.885  -0.424  -1.079  1.00  0.00     0.185 HD
HETATM    3  C6  UNL     1      -1.973  -0.672  -0.193  1.00  0.00     0.331 C 
HETATM    4  O4  UNL     1      -1.259  -0.480   0.842  1.00  0.00    -0.246 OA
HETATM    5  N5  UNL     1      -1.366  -1.311  -1.297  1.00  0.00    -0.334 N 
ATOM      6  H5  UNL     1      -1.937  -1.472  -2.127  1.00  0.00     0.164 HD
ENDROOT
BRANCH   5   7
HETATM    7  C7  UNL     1      -0.017  -1.744  -1.330  1.00  0.00     0.227 C 
BRANCH   7   8
HETATM    8  C8  UNL     1       1.002  -0.658  -1.186  1.00  0.00     0.239 C 
HETATM    9  O5  UNL     1       0.571   0.493  -1.068  1.00  0.00    -0.271 OA
HETATM   10  N6  UNL     1       2.347  -0.981  -1.190  1.00  0.00    -0.326 N 
ATOM     11  H6  UNL     1       2.582  -1.968  -1.299  1.00  0.00     0.169 HD
BRANCH  10  12
HETATM   12  C9  UNL     1       3.417  -0.090  -1.060  1.00  0.00     0.036 A 
HETATM   13  C10 UNL     1       3.285   1.174  -0.564  1.00  0.00     0.029 A 
HETATM   14  C11 UNL     1       4.376   2.053  -0.468  1.00  0.00     0.004 A 
HETATM   15  C12 UNL     1       5.600   1.596  -0.893  1.00  0.00     0.025 A 
HETATM   16  C13 UNL     1       5.803   0.345  -1.399  1.00  0.00     0.083 A 
HETATM   17  C16 UNL     1       4.712  -0.484  -1.477  1.00  0.00     0.054 A 
BRANCH  16  18
HETATM   18  S2  UNL     1       7.347  -0.216  -1.931  1.00  0.00     0.276 S 
HETATM   19  O6  UNL     1       7.161  -1.208  -3.069  1.00  0.00    -0.199 OA
HETATM   20  O7  UNL     1       8.191   0.905  -2.514  1.00  0.00    -0.199 OA
BRANCH  18  21
HETATM   21  N7  UNL     1       8.271  -0.976  -0.717  1.00  0.00    -0.220 N 
ATOM     22  H7  UNL     1       8.213  -1.973  -0.510  1.00  0.00     0.200 HD
BRANCH  21  23
HETATM   23  N8  UNL     1       9.113  -0.102  -0.036  1.00  0.00    -0.259 N 
HETATM   24  C14 UNL     1       9.929  -0.590   1.019  1.00  0.00     0.262 C 
HETATM   25  O8  UNL     1       9.892  -1.805   1.339  1.00  0.00    -0.270 OA
ATOM     26  H8  UNL     1       9.144   0.885  -0.293  1.00  0.00     0.190 HD
BRANCH  24  27
HETATM   27  C15 UNL     1      10.847   0.282   1.783  1.00  0.00     0.333 C 
BRANCH  27  28
HETATM   28  N9  UNL     1      10.815   1.650   1.339  1.00  0.00    -0.071 N 
ATOM     29  H93 UNL     1      10.999   1.714   0.338  1.00  0.00     0.274 HD
ATOM     30  H92 UNL     1       9.864   2.017   1.356  1.00  0.00     0.274 HD
ATOM     31  H91 UNL     1      11.448   2.251   1.866  1.00  0.00     0.274 HD
ENDBRANCH  27  28
ENDBRANCH  24  27
ENDBRANCH  21  23
ENDBRANCH  18  21
ENDBRANCH  16  18
ENDBRANCH  10  12
ENDBRANCH   7   8
ENDBRANCH   5   7
BRANCH   1  32
HETATM   32  S1  UNL     1      -4.007   0.509   1.139  1.00  0.00     0.327 S 
HETATM   33  O2  UNL     1      -4.564  -0.537   2.038  1.00  0.00    -0.182 OA
HETATM   34  O3  UNL     1      -2.919   1.211   1.922  1.00  0.00    -0.182 OA
BRANCH  32  35
HETATM   35  N3  UNL     1      -5.194   1.628   0.608  1.00  0.00    -0.266 N 
ATOM     36  H3  UNL     1      -4.931   2.590   0.393  1.00  0.00     0.180 HD
BRANCH  35  37
HETATM   37  C5  UNL     1      -6.545   1.211   0.468  1.00  0.00     0.060 A 
HETATM   38  C4  UNL     1      -7.236   0.540   1.446  1.00  0.00     0.052 A 
HETATM   39  C3  UNL     1      -8.570   0.182   1.220  1.00  0.00     0.079 A 
HETATM   40  C2  UNL     1      -9.291  -0.496   2.188  1.00  0.00     0.273 A 
HETATM   41  C18 UNL     1      -9.222   0.481   0.043  1.00  0.00     0.136 A 
HETATM   42  N2  UNL     1     -10.568  -0.834   1.962  1.00  0.00    -0.156 N 
HETATM   43  O1  UNL     1      -8.703  -0.770   3.259  1.00  0.00    -0.267 OA
HETATM   44  C1  UNL     1     -11.149  -0.512   0.788  1.00  0.00     0.680 A 
ATOM     45  H2  UNL     1     -11.099  -1.333   2.676  1.00  0.00     0.187 HD
HETATM   46  N11 UNL     1     -10.503   0.146  -0.193  1.00  0.00    -0.176 N 
ATOM     47  H11 UNL     1     -10.963   0.379  -1.073  1.00  0.00     0.186 HD
HETATM   48  N10 UNL     1      -8.504   1.138  -0.881  1.00  0.00    -0.349 N 
HETATM   49  C17 UNL     1      -7.233   1.498  -0.710  1.00  0.00     0.119 A 
ATOM     50  H10 UNL     1      -8.957   1.375  -1.764  1.00  0.00     0.167 HD
BRANCH  44  51
HETATM   51  N1  UNL     1     -12.396  -0.862   0.609  1.00  0.00    -0.234 N 
ATOM     52  H12 UNL     1     -12.885  -1.361   1.352  1.00  0.00     0.174 HD
ATOM     53  H11 UNL     1     -12.835  -0.619  -0.279  1.00  0.00     0.174 HD
ENDBRANCH  44  51
ENDBRANCH  35  37
ENDBRANCH  32  35
ENDBRANCH   1  32
TORSDOF 12
