REMARK  15 active torsions:
REMARK  status: ('A' for Active; 'I' for Inactive)
REMARK       I    between atoms: C1_4  and  N2_5 
REMARK       I    between atoms: C1_4  and  N11_38 
REMARK    1  A    between atoms: N2_5  and  C2_7 
REMARK    2  A    between atoms: C3_10  and  N4_11 
REMARK    3  A    between atoms: C5_18  and  N8_19 
REMARK    4  A    between atoms: N8_19  and  C6_21 
REMARK    5  A    between atoms: C6_21  and  C7_22 
REMARK    6  A    between atoms: C7_22  and  O1_23 
REMARK    7  A    between atoms: C7_22  and  C8_25 
REMARK    8  A    between atoms: C11_28  and  N9_29 
REMARK    9  A    between atoms: N9_29  and  C12_31 
REMARK   10  A    between atoms: C12_31  and  O2_32 
REMARK   11  A    between atoms: N11_38  and  C15_40 
REMARK   12  A    between atoms: C15_40  and  C16_41 
REMARK   13  A    between atoms: C16_41  and  N12_42 
REMARK   14  A    between atoms: N12_42  and  S1_44 
REMARK   15  A    between atoms: S1_44  and  C17_47 
ROOT
HETATM    1  C2  UNL     1      -0.398   0.279  -0.191  1.00  0.00     0.725 A 
HETATM    2  N3  UNL     1      -0.482  -0.895   0.414  1.00  0.00    -0.020 N 
ATOM      3  H3  UNL     1      -1.407  -1.248   0.659  1.00  0.00     0.203 HD
HETATM    4  C3  UNL     1       0.627  -1.671   0.732  1.00  0.00     0.713 A 
HETATM    5  N7  UNL     1       1.792  -1.149   0.383  1.00  0.00    -0.021 N 
ATOM      6  H7  UNL     1       2.643  -1.671   0.590  1.00  0.00     0.203 HD
HETATM    7  C5  UNL     1       1.902   0.068  -0.247  1.00  0.00     0.707 A 
HETATM    8  N10 UNL     1       0.809   0.782  -0.533  1.00  0.00    -0.021 N 
ATOM      9  H10 UNL     1       0.884   1.686  -0.999  1.00  0.00     0.203 HD
ENDROOT
BRANCH   1  10
HETATM   10  N2  UNL     1      -1.450   0.978  -0.490  1.00  0.00    -0.022 N 
HETATM   11  C1  UNL     1      -2.723   0.462  -0.157  1.00  0.00     0.686 C 
HETATM   12  N1  UNL     1      -3.044   0.288   1.059  1.00  0.00    -0.234 N 
HETATM   13  N11 UNL     1      -3.607   0.143  -1.213  1.00  0.00    -0.224 N 
ATOM     14  H12 UNL     1      -2.406   0.518   1.821  1.00  0.00     0.174 HD
ATOM     15  H11 UNL     1      -3.963  -0.084   1.299  1.00  0.00     0.174 HD
ATOM     16  H11 UNL     1      -3.602  -0.789  -1.627  1.00  0.00     0.177 HD
ATOM     17  H2  UNL     1      -1.360   1.881  -0.956  1.00  0.00     0.203 HD
BRANCH  13  18
HETATM   18  C15 UNL     1      -4.519   1.155  -1.699  1.00  0.00     0.158 C 
BRANCH  18  19
HETATM   19  C16 UNL     1      -5.548   1.415  -0.627  1.00  0.00     0.152 C 
BRANCH  19  20
HETATM   20  N12 UNL     1      -6.508   2.426  -1.042  1.00  0.00    -0.314 N 
ATOM     21  H12 UNL     1      -6.514   2.918  -1.936  1.00  0.00     0.172 HD
BRANCH  20  22
HETATM   22  S1  UNL     1      -7.636   2.646   0.246  1.00  0.00     0.260 S 
HETATM   23  O3  UNL     1      -8.656   3.692  -0.089  1.00  0.00    -0.200 OA
HETATM   24  O4  UNL     1      -6.948   3.097   1.508  1.00  0.00    -0.200 OA
BRANCH  22  25
HETATM   25  C17 UNL     1      -8.456   1.127   0.502  1.00  0.00     0.095 A 
HETATM   26  C18 UNL     1      -7.975   0.184   1.382  1.00  0.00     0.032 A 
HETATM   27  C19 UNL     1      -8.637  -1.020   1.576  1.00  0.00     0.076 A 
HETATM   28  C20 UNL     1      -9.796  -1.236   0.853  1.00  0.00     0.245 A 
HETATM   29  O5  UNL     1     -10.445  -2.303   0.979  1.00  0.00    -0.268 OA
HETATM   30  N13 UNL     1     -10.247  -0.307   0.002  1.00  0.00    -0.332 N 
HETATM   31  C21 UNL     1      -9.614   0.867  -0.196  1.00  0.00     0.116 A 
ATOM     32  H13 UNL     1     -11.104  -0.495  -0.518  1.00  0.00     0.168 HD
ENDBRANCH  22  25
ENDBRANCH  20  22
ENDBRANCH  19  20
ENDBRANCH  18  19
ENDBRANCH  13  18
ENDBRANCH   1  10
BRANCH   4  33
HETATM   33  N4  UNL     1       0.366  -2.876   1.370  1.00  0.00    -0.165 N 
HETATM   34  C4  UNL     1       1.100  -3.781   1.777  1.00  0.00     0.215 C 
HETATM   35  N5  UNL     1       2.512  -3.771   1.663  1.00  0.00    -0.066 NA
HETATM   36  N6  UNL     1       0.501  -4.953   2.425  1.00  0.00    -0.066 NA
ATOM     37  H4  UNL     1      -0.626  -3.047   1.535  1.00  0.00     0.186 HD
ENDBRANCH   4  33
BRANCH   7  38
HETATM   38  N8  UNL     1       3.087   0.474  -0.548  1.00  0.00    -0.222 N 
ATOM     39  H8  UNL     1       3.860  -0.141  -0.295  1.00  0.00     0.177 HD
BRANCH  38  40
HETATM   40  C6  UNL     1       3.427   1.693  -1.197  1.00  0.00     0.174 C 
BRANCH  40  41
HETATM   41  C7  UNL     1       4.579   1.526  -2.179  1.00  0.00     0.169 C 
BRANCH  41  42
HETATM   42  O1  UNL     1       4.235   0.597  -3.166  1.00  0.00    -0.389 OA
ATOM     43  H1  UNL     1       4.954   0.493  -3.779  1.00  0.00     0.210 HD
ENDBRANCH  41  42
BRANCH  41  44
HETATM   44  C8  UNL     1       5.785   1.167  -1.424  1.00  0.00    -0.028 A 
HETATM   45  C9  UNL     1       6.748   2.111  -1.185  1.00  0.00     0.012 A 
HETATM   46  C10 UNL     1       7.898   1.838  -0.490  1.00  0.00     0.030 A 
HETATM   47  C11 UNL     1       8.122   0.558   0.001  1.00  0.00     0.029 A 
HETATM   48  C13 UNL     1       7.149  -0.391  -0.242  1.00  0.00     0.030 A 
HETATM   49  C14 UNL     1       5.988  -0.103  -0.946  1.00  0.00     0.012 A 
BRANCH  47  50
HETATM   50  N9  UNL     1       9.297   0.227   0.721  1.00  0.00    -0.369 N 
ATOM     51  H9  UNL     1       9.997   0.954   0.869  1.00  0.00     0.161 HD
BRANCH  50  52
HETATM   52  C12 UNL     1       9.548  -1.082   1.252  1.00  0.00     0.287 C 
BRANCH  52  53
HETATM   53  O2  UNL     1       8.609  -1.505   2.186  1.00  0.00    -0.382 OA
ATOM     54  H2  UNL     1       8.775  -2.372   2.538  1.00  0.00     0.211 HD
ENDBRANCH  52  53
ENDBRANCH  50  52
ENDBRANCH  47  50
ENDBRANCH  41  44
ENDBRANCH  40  41
ENDBRANCH  38  40
ENDBRANCH   7  38
TORSDOF 15
