REMARK  14 active torsions:
REMARK  status: ('A' for Active; 'I' for Inactive)
REMARK    1  A    between atoms: O1_2  and  C2_3 
REMARK    2  A    between atoms: C4_5  and  N1_6 
REMARK    3  A    between atoms: N1_6  and  C5_8 
REMARK    4  A    between atoms: C6_11  and  N3_12 
REMARK    5  A    between atoms: N3_12  and  N4_14 
REMARK       I    between atoms: N4_14  and  C7_15 
REMARK    6  A    between atoms: C7_15  and  C8_17 
REMARK    7  A    between atoms: C8_17  and  C9_18 
REMARK    8  A    between atoms: C9_18  and  N5_19 
REMARK    9  A    between atoms: C10_25  and  N7_26 
REMARK       I    between atoms: N7_26  and  C11_28 
REMARK   10  A    between atoms: C14_37  and  C15_38 
REMARK   11  A    between atoms: C15_38  and  N11_39 
REMARK   12  A    between atoms: N11_39  and  N12_40 
REMARK       I    between atoms: N12_40  and  C16_42 
REMARK   13  A    between atoms: C16_42  and  C17_44 
REMARK   14  A    between atoms: C18_50  and  N15_51 
ROOT
HETATM    1  C5  UNL     1      -1.433   1.396   0.046  1.00  0.00     0.712 A 
HETATM    2  N2  UNL     1      -2.170   0.375  -0.399  1.00  0.00    -0.019 N 
ATOM      3  H2  UNL     1      -1.711  -0.450  -0.787  1.00  0.00     0.203 HD
HETATM    4  C6  UNL     1      -3.526   0.427  -0.339  1.00  0.00     0.736 A 
HETATM    5  N6  UNL     1      -4.095   1.514   0.172  1.00  0.00    -0.019 N 
ATOM      6  H6  UNL     1      -5.113   1.550   0.214  1.00  0.00     0.203 HD
HETATM    7  C10 UNL     1      -3.384   2.598   0.649  1.00  0.00     0.713 A 
HETATM    8  N10 UNL     1      -2.064   2.512   0.574  1.00  0.00    -0.021 N 
ATOM      9  H10 UNL     1      -1.496   3.288   0.914  1.00  0.00     0.203 HD
ENDROOT
BRANCH   1  10
HETATM   10  N1  UNL     1      -0.183   1.475  -0.005  1.00  0.00    -0.191 N 
ATOM     11  H1  UNL     1       0.175   2.342   0.395  1.00  0.00     0.184 HD
BRANCH  10  12
HETATM   12  C4  UNL     1       0.823   0.649  -0.483  1.00  0.00     0.051 A 
HETATM   13  C3  UNL     1       2.033   0.530   0.230  1.00  0.00     0.067 A 
HETATM   14  C2  UNL     1       3.091  -0.227  -0.153  1.00  0.00     0.083 A 
HETATM   15  C14 UNL     1       2.998  -0.953  -1.338  1.00  0.00     0.028 A 
HETATM   16  C13 UNL     1       1.815  -0.850  -2.053  1.00  0.00     0.019 A 
HETATM   17  C12 UNL     1       0.753  -0.075  -1.649  1.00  0.00     0.031 A 
BRANCH  14  18
HETATM   18  O1  UNL     1       4.267  -0.308   0.589  1.00  0.00    -0.355 OA
HETATM   19  C1  UNL     1       4.503   0.354   1.784  1.00  0.00     0.210 C 
ENDBRANCH  14  18
BRANCH  15  20
HETATM   20  C15 UNL     1       4.117  -1.761  -1.842  1.00  0.00     0.223 C 
BRANCH  20  21
HETATM   21  N11 UNL     1       5.222  -1.937  -1.453  1.00  0.00    -0.335 NA
BRANCH  21  22
HETATM   22  N12 UNL     1       6.331  -1.884  -0.738  1.00  0.00    -0.198 N 
HETATM   23  C16 UNL     1       7.387  -1.008  -1.103  1.00  0.00     0.302 C 
HETATM   24  O3  UNL     1       7.195  -0.280  -2.147  1.00  0.00    -0.263 OA
ATOM     25  H12 UNL     1       6.430  -2.478   0.085  1.00  0.00     0.205 HD
BRANCH  23  26
HETATM   26  C17 UNL     1       8.649  -0.844  -0.428  1.00  0.00     0.171 A 
HETATM   27  N13 UNL     1       9.602   0.095  -0.802  1.00  0.00    -0.232 N 
HETATM   28  O4  UNL     1      10.613  -0.002  -0.028  1.00  0.00    -0.155 OA
ATOM     29  H13 UNL     1       9.509   0.757  -1.573  1.00  0.00     0.197 HD
HETATM   30  N14 UNL     1      10.469  -0.912   0.849  1.00  0.00    -0.224 N 
HETATM   31  C18 UNL     1       9.223  -1.492   0.645  1.00  0.00     0.155 A 
ATOM     32  H14 UNL     1      11.144  -1.169   1.569  1.00  0.00     0.198 HD
BRANCH  31  33
HETATM   33  N15 UNL     1       8.809  -2.423   1.350  1.00  0.00    -0.382 N 
ATOM     34 2H15 UNL     1       7.894  -2.849   1.200  1.00  0.00     0.157 HD
ATOM     35 1H15 UNL     1       9.234  -2.902   2.144  1.00  0.00     0.157 HD
ENDBRANCH  31  33
ENDBRANCH  23  26
ENDBRANCH  21  22
ENDBRANCH  20  21
ENDBRANCH  15  20
ENDBRANCH  10  12
ENDBRANCH   1  10
BRANCH   4  36
HETATM   36  N3  UNL     1      -4.178  -0.571  -0.808  1.00  0.00    -0.061 N 
ATOM     37  H3  UNL     1      -3.581  -1.309  -1.180  1.00  0.00     0.221 HD
BRANCH  36  38
HETATM   38  N4  UNL     1      -5.442  -0.830  -0.904  1.00  0.00    -0.272 NA
HETATM   39  C7  UNL     1      -6.765  -1.101  -1.006  1.00  0.00     0.314 C 
HETATM   40  O2  UNL     1      -7.647  -0.492  -1.667  1.00  0.00    -0.255 OA
BRANCH  39  41
HETATM   41  C8  UNL     1      -7.287  -2.305  -0.224  1.00  0.00     0.148 C 
BRANCH  41  42
HETATM   42  C9  UNL     1      -8.630  -2.658  -0.805  1.00  0.00     0.240 C 
BRANCH  42  43
HETATM   43  N5  UNL     1      -9.274  -3.777  -0.177  1.00  0.00    -0.079 N 
ATOM     44  H53 UNL     1      -8.659  -4.591  -0.184  1.00  0.00     0.274 HD
ATOM     45  H52 UNL     1      -9.351  -3.624   0.829  1.00  0.00     0.274 HD
ATOM     46  H51 UNL     1     -10.184  -4.016  -0.571  1.00  0.00     0.274 HD
ENDBRANCH  42  43
ENDBRANCH  41  42
ENDBRANCH  39  41
ENDBRANCH  36  38
ENDBRANCH   4  36
BRANCH   7  47
HETATM   47  N7  UNL     1      -4.011   3.568   1.106  1.00  0.00    -0.163 N 
HETATM   48  C11 UNL     1      -3.700   4.771   1.647  1.00  0.00     0.200 C 
HETATM   49  N8  UNL     1      -4.596   5.435   2.361  1.00  0.00    -0.373 N 
HETATM   50  N9  UNL     1      -2.433   5.398   1.504  1.00  0.00    -0.063 NA
ATOM     51  H82 UNL     1      -5.506   4.985   2.464  1.00  0.00     0.158 HD
ATOM     52  H81 UNL     1      -4.362   6.340   2.768  1.00  0.00     0.158 HD
ATOM     53  H7  UNL     1      -5.019   3.421   1.063  1.00  0.00     0.187 HD
ENDBRANCH   7  47
TORSDOF 14
