REMARK  15 active torsions:
REMARK  status: ('A' for Active; 'I' for Inactive)
REMARK    1  A    between atoms: C2_2  and  C4_4 
REMARK    2  A    between atoms: C4_4  and  C5_5 
REMARK    3  A    between atoms: C5_5  and  N1_6 
REMARK    4  A    between atoms: C5_5  and  C19_43 
REMARK    5  A    between atoms: N1_6  and  C6_8 
REMARK    6  A    between atoms: C7_11  and  N3_12 
REMARK    7  A    between atoms: N3_12  and  C8_14 
REMARK    8  A    between atoms: C10_18  and  C11_19 
REMARK    9  A    between atoms: C11_19  and  N5_20 
REMARK   10  A    between atoms: C11_19  and  O1_23 
REMARK   11  A    between atoms: C12_25  and  N6_26 
REMARK   12  A    between atoms: C18_37  and  N9_38 
REMARK   13  A    between atoms: C19_43  and  O2_44 
REMARK   14  A    between atoms: C19_43  and  N11_46 
REMARK       I    between atoms: N11_46  and  C20_47 
REMARK       I    between atoms: C20_47  and  N12_48 
REMARK       I    between atoms: C20_47  and  N13_52 
REMARK   15  A    between atoms: N13_52  and  N14_53 
ROOT
HETATM    1  C6  UNL     1      -1.579  -0.950   0.602  1.00  0.00     0.681 A 
HETATM    2  N2  UNL     1      -0.329  -0.707   0.178  1.00  0.00    -0.177 N 
ATOM      3  H2  UNL     1      -0.155   0.237  -0.168  1.00  0.00     0.186 HD
HETATM    4  C7  UNL     1       0.725  -1.544   0.149  1.00  0.00     0.126 A 
HETATM    5  C17 UNL     1       0.445  -2.804   0.634  1.00  0.00     0.097 A 
HETATM    6  C18 UNL     1      -0.867  -3.118   1.096  1.00  0.00     0.118 A 
HETATM    7  N10 UNL     1      -1.835  -2.222   1.069  1.00  0.00    -0.177 N 
ATOM      8  H10 UNL     1      -2.770  -2.469   1.393  1.00  0.00     0.185 HD
ENDROOT
BRANCH   4   9
HETATM    9  N3  UNL     1       1.971  -1.147  -0.300  1.00  0.00    -0.327 N 
ATOM     10  H3  UNL     1       1.977  -0.138  -0.447  1.00  0.00     0.169 HD
BRANCH   9  11
HETATM   11  C8  UNL     1       3.082  -1.615  -0.582  1.00  0.00     0.123 A 
HETATM   12  C9  UNL     1       3.487  -2.910  -0.529  1.00  0.00     0.137 A 
HETATM   13  N4  UNL     1       4.772  -3.270  -0.767  1.00  0.00    -0.356 N 
HETATM   14  C10 UNL     1       5.708  -2.380  -1.058  1.00  0.00     0.127 A 
ATOM     15  H4  UNL     1       5.026  -4.257  -0.720  1.00  0.00     0.165 HD
HETATM   16  C12 UNL     1       5.328  -1.027  -1.133  1.00  0.00     0.136 A 
HETATM   17  N8  UNL     1       4.069  -0.629  -0.915  1.00  0.00    -0.326 N 
ATOM     18  H8  UNL     1       3.816   0.357  -0.984  1.00  0.00     0.169 HD
BRANCH  14  19
HETATM   19  C11 UNL     1       7.045  -2.743  -1.179  1.00  0.00     0.165 C 
BRANCH  19  20
HETATM   20  N5  UNL     1       7.967  -3.551  -0.569  1.00  0.00    -0.378 N 
ATOM     21  H52 UNL     1       7.462  -4.004   0.192  1.00  0.00     0.158 HD
ATOM     22  H51 UNL     1       8.948  -3.817  -0.658  1.00  0.00     0.158 HD
ENDBRANCH  19  20
BRANCH  19  23
HETATM   23  O1  UNL     1       7.738  -2.122  -2.223  1.00  0.00    -0.345 OA
ATOM     24  H1  UNL     1       8.651  -2.370  -2.306  1.00  0.00     0.219 HD
ENDBRANCH  19  23
ENDBRANCH  14  19
BRANCH  16  25
HETATM   25  N6  UNL     1       6.326  -0.035  -1.430  1.00  0.00    -0.362 N 
HETATM   26  C13 UNL     1       6.331   0.690  -2.687  1.00  0.00     0.152 C 
HETATM   27  C14 UNL     1       7.311   1.852  -2.572  1.00  0.00     0.252 C 
HETATM   28  N7  UNL     1       7.030   2.599  -1.384  1.00  0.00    -0.072 N 
HETATM   29  C15 UNL     1       7.309   1.810  -0.182  1.00  0.00     0.252 C 
ATOM     30  H72 UNL     1       7.530   3.488  -1.373  1.00  0.00     0.277 HD
ATOM     31  H71 UNL     1       6.075   2.957  -1.384  1.00  0.00     0.277 HD
HETATM   32  C16 UNL     1       7.381   0.323  -0.497  1.00  0.00     0.152 C 
ENDBRANCH  16  25
ENDBRANCH   9  11
ENDBRANCH   4   9
BRANCH   1  33
HETATM   33  N1  UNL     1      -2.318   0.033   0.639  1.00  0.00    -0.213 N 
ATOM     34  H1  UNL     1      -1.768   0.827   0.311  1.00  0.00     0.178 HD
BRANCH  33  35
HETATM   35  C5  UNL     1      -3.608   0.527   0.944  1.00  0.00     0.189 C 
BRANCH  35  36
HETATM   36  C4  UNL     1      -4.281  -0.380   1.868  1.00  0.00     0.039 C 
BRANCH  36  37
HETATM   37  C2  UNL     1      -5.540  -0.204   2.575  1.00  0.00    -0.020 C 
HETATM   38  C1  UNL     1      -6.774  -0.012   1.794  1.00  0.00     0.009 C 
HETATM   39  C3  UNL     1      -5.501   0.786   3.713  1.00  0.00     0.009 C 
ENDBRANCH  36  37
ENDBRANCH  35  36
BRANCH  35  40
HETATM   40  C19 UNL     1      -4.259   0.733  -0.416  1.00  0.00     0.211 C 
BRANCH  40  41
HETATM   41  O2  UNL     1      -3.770  -0.088  -1.308  1.00  0.00    -0.338 OA
ATOM     42  H2  UNL     1      -4.176   0.041  -2.157  1.00  0.00     0.220 HD
ENDBRANCH  40  41
BRANCH  40  43
HETATM   43  N11 UNL     1      -5.222   1.666  -0.682  1.00  0.00    -0.375 NA
HETATM   44  C20 UNL     1      -6.186   2.598  -0.956  1.00  0.00     0.474 C 
HETATM   45  N12 UNL     1      -7.553   2.003  -1.087  1.00  0.00    -0.031 N 
HETATM   46  N13 UNL     1      -6.299   3.583   0.106  1.00  0.00    -0.081 NA
ATOM     47 3H12 UNL     1      -7.560   1.256  -1.782  1.00  0.00     0.279 HD
ATOM     48 2H12 UNL     1      -7.795   1.461  -0.258  1.00  0.00     0.279 HD
ATOM     49 1H12 UNL     1      -8.271   2.698  -1.291  1.00  0.00     0.279 HD
BRANCH  46  50
HETATM   50  N14 UNL     1      -7.396   4.442  -0.131  1.00  0.00    -0.344 N 
ATOM     51 2H14 UNL     1      -8.013   4.368  -0.940  1.00  0.00     0.172 HD
ATOM     52 1H14 UNL     1      -7.475   5.134   0.615  1.00  0.00     0.172 HD
ENDBRANCH  46  50
ENDBRANCH  40  43
ENDBRANCH  35  40
ENDBRANCH  33  35
ENDBRANCH   1  33
BRANCH   6  53
HETATM   53  N9  UNL     1      -1.024  -4.334   1.517  1.00  0.00    -0.385 N 
ATOM     54  H92 UNL     1      -0.276  -5.027   1.538  1.00  0.00     0.157 HD
ATOM     55  H91 UNL     1      -1.962  -4.559   1.847  1.00  0.00     0.157 HD
ENDBRANCH   6  53
TORSDOF 15
