REMARK  11 active torsions:
REMARK  status: ('A' for Active; 'I' for Inactive)
REMARK    1  A    between atoms: O1_2  and  C2_3 
REMARK    2  A    between atoms: C2_3  and  C3_5 
REMARK       I    between atoms: N1_9  and  C7_10 
REMARK    3  A    between atoms: C7_10  and  C8_12 
REMARK    4  A    between atoms: C10_18  and  C11_19 
REMARK    5  A    between atoms: C11_19  and  N4_20 
REMARK    6  A    between atoms: C11_19  and  C20_37 
REMARK    7  A    between atoms: C12_22  and  C13_23 
REMARK    8  A    between atoms: C13_23  and  C14_25 
REMARK       I    between atoms: C14_25  and  N5_27 
REMARK    9  A    between atoms: N5_27  and  C15_29 
REMARK   10  A    between atoms: C15_29  and  C16_32 
REMARK   11  A    between atoms: C16_32  and  C17_34 
ROOT
HETATM    1  C11 UNL     1      -0.929   1.273  -0.601  1.00  0.00     0.141 C 
ENDROOT
BRANCH   1   2
HETATM    2  C10 UNL     1      -2.038   2.122   0.012  1.00  0.00     0.066 A 
HETATM    3  C8  UNL     1      -3.085   1.596   0.788  1.00  0.00     0.126 A 
HETATM    4  N2  UNL     1      -3.794   2.691   1.165  1.00  0.00    -0.346 N 
HETATM    5  C9  UNL     1      -3.258   3.804   0.676  1.00  0.00     0.181 A 
ATOM      6  H2  UNL     1      -4.630   2.663   1.748  1.00  0.00     0.167 HD
HETATM    7  N3  UNL     1      -2.154   3.432  -0.050  1.00  0.00    -0.352 N 
ATOM      8  H3  UNL     1      -1.530   4.063  -0.552  1.00  0.00     0.166 HD
BRANCH   3   9
HETATM    9  C7  UNL     1      -3.373   0.224   1.092  1.00  0.00     0.273 C 
HETATM   10  N1  UNL     1      -4.519  -0.131   1.920  1.00  0.00    -0.333 N 
HETATM   11  C3  UNL     1      -4.914  -1.456   2.271  1.00  0.00     0.187 C 
HETATM   12  C6  UNL     1      -5.388   0.836   2.495  1.00  0.00     0.127 C 
HETATM   13  C4  UNL     1      -5.855  -1.300   3.426  1.00  0.00     0.037 C 
HETATM   14  C5  UNL     1      -6.328   0.103   3.403  1.00  0.00     0.022 C 
HETATM   15  O3  UNL     1      -2.707  -0.737   0.698  1.00  0.00    -0.266 OA
BRANCH  11  16
HETATM   16  C2  UNL     1      -5.493  -2.223   1.154  1.00  0.00     0.281 C 
HETATM   17  O2  UNL     1      -5.881  -3.393   1.364  1.00  0.00    -0.263 OA
BRANCH  16  18
HETATM   18  O1  UNL     1      -5.626  -1.707  -0.121  1.00  0.00    -0.325 OA
HETATM   19  C1  UNL     1      -6.176  -2.410  -1.220  1.00  0.00     0.213 C 
ENDBRANCH  16  18
ENDBRANCH  11  16
ENDBRANCH   3   9
ENDBRANCH   1   2
BRANCH   1  20
HETATM   20  N4  UNL     1      -0.229   0.761   0.496  1.00  0.00    -0.385 N 
HETATM   21  C12 UNL     1       0.759  -0.132   0.666  1.00  0.00     0.145 C 
ATOM     22  H4  UNL     1      -0.545   1.162   1.379  1.00  0.00     0.159 HD
BRANCH  21  23
HETATM   23  C13 UNL     1       2.194   0.077   0.481  1.00  0.00     0.254 C 
HETATM   24  O4  UNL     1       2.723   1.196   0.594  1.00  0.00    -0.281 OA
BRANCH  23  25
HETATM   25  C14 UNL     1       3.098  -1.034   0.151  1.00  0.00     0.296 C 
HETATM   26  O5  UNL     1       2.629  -2.186   0.047  1.00  0.00    -0.264 OA
HETATM   27  N5  UNL     1       4.467  -0.816  -0.045  1.00  0.00    -0.299 N 
ATOM     28  H5  UNL     1       4.812   0.140   0.039  1.00  0.00     0.167 HD
BRANCH  27  29
HETATM   29  C15 UNL     1       5.423  -1.850  -0.357  1.00  0.00     0.318 C 
HETATM   30  F1  UNL     1       5.111  -2.506  -1.531  1.00  0.00    -0.192 F 
HETATM   31 CL1  UNL     1       5.504  -2.960   1.037  1.00  0.00    -0.051 Cl
BRANCH  29  32
HETATM   32  C16 UNL     1       6.794  -1.273  -0.531  1.00  0.00     0.206 C 
HETATM   33  O6  UNL     1       6.931  -0.065  -0.470  1.00  0.00    -0.290 OA
BRANCH  32  34
HETATM   34  C17 UNL     1       7.972  -2.122  -0.768  1.00  0.00     0.054 C 
HETATM   35  C18 UNL     1       9.210  -1.247  -0.958  1.00  0.00     0.018 C 
HETATM   36  C19 UNL     1       7.830  -2.979  -1.995  1.00  0.00     0.018 C 
ENDBRANCH  32  34
ENDBRANCH  29  32
ENDBRANCH  27  29
ENDBRANCH  23  25
ENDBRANCH  21  23
ENDBRANCH   1  20
BRANCH   1  37
HETATM   37  C20 UNL     1      -0.198   2.028  -1.647  1.00  0.00    -0.025 C 
HETATM   38  C21 UNL     1       0.828   1.151  -2.377  1.00  0.00     0.017 C 
HETATM   39  C22 UNL     1      -1.159   2.547  -2.720  1.00  0.00     0.017 C 
HETATM   40  C23 UNL     1       0.579   3.239  -1.123  1.00  0.00     0.017 C 
ENDBRANCH   1  37
TORSDOF 11
