REMARK  13 active torsions:
REMARK  status: ('A' for Active; 'I' for Inactive)
REMARK    1  A    between atoms: C2_2  and  C3_3 
REMARK    2  A    between atoms: C3_3  and  N1_4 
REMARK       I    between atoms: N1_4  and  C4_6 
REMARK    3  A    between atoms: C4_6  and  O2_8 
REMARK    4  A    between atoms: O2_8  and  C5_9 
REMARK    5  A    between atoms: C6_10  and  N2_11 
REMARK       I    between atoms: N2_11  and  C7_13 
REMARK    6  A    between atoms: C7_13  and  C8_15 
REMARK    7  A    between atoms: C8_15  and  C9_16 
REMARK    8  A    between atoms: C12_19  and  O4_20 
REMARK    9  A    between atoms: O4_20  and  C13_21 
REMARK   10  A    between atoms: C19_27  and  O5_28 
REMARK   11  A    between atoms: C20_30  and  O6_31 
REMARK   12  A    between atoms: C21_33  and  S1_34 
REMARK   13  A    between atoms: S1_34  and  C22_37 
ROOT
HETATM    1  C5  UNL     1      -1.397  -1.113   0.277  1.00  0.00     0.180 C 
HETATM    2  C6  UNL     1      -0.222  -0.307  -0.188  1.00  0.00     0.147 C 
HETATM    3  C12 UNL     1       0.308  -1.009  -1.423  1.00  0.00     0.178 C 
HETATM    4  C19 UNL     1      -0.683  -0.910  -2.566  1.00  0.00     0.179 C 
HETATM    5  C20 UNL     1      -2.067  -1.297  -2.176  1.00  0.00     0.170 C 
HETATM    6  C21 UNL     1      -2.253  -1.722  -0.770  1.00  0.00     0.177 C 
ENDROOT
BRANCH   1   7
HETATM    7  O2  UNL     1      -2.145  -0.349   1.218  1.00  0.00    -0.295 OA
BRANCH   7   8
HETATM    8  C4  UNL     1      -2.220  -0.642   2.573  1.00  0.00     0.361 C 
HETATM    9  N1  UNL     1      -2.984   0.140   3.480  1.00  0.00    -0.333 N 
ATOM     10  H1  UNL     1      -3.504   0.956   3.156  1.00  0.00     0.165 HD
HETATM   11  O1  UNL     1      -1.572  -1.652   2.979  1.00  0.00    -0.238 OA
BRANCH   9  12
HETATM   12  C3  UNL     1      -3.008  -0.247   4.872  1.00  0.00     0.151 C 
BRANCH  12  13
HETATM   13  C2  UNL     1      -3.868   0.682   5.644  1.00  0.00    -0.018 C 
HETATM   14  C1  UNL     1      -3.356   1.380   6.649  1.00  0.00     0.008 C 
ENDBRANCH  12  13
ENDBRANCH   9  12
ENDBRANCH   7   8
ENDBRANCH   1   7
BRANCH   2  15
HETATM   15  N2  UNL     1      -0.502   1.069  -0.366  1.00  0.00    -0.351 N 
HETATM   16  C7  UNL     1       0.319   2.093   0.119  1.00  0.00     0.218 C 
HETATM   17  O3  UNL     1       1.376   1.726   0.746  1.00  0.00    -0.274 OA
ATOM     18  H2  UNL     1      -1.347   1.328  -0.875  1.00  0.00     0.163 HD
BRANCH  16  19
HETATM   19  C8  UNL     1      -0.011   3.503  -0.076  1.00  0.00     0.106 C 
BRANCH  19  20
HETATM   20  C9  UNL     1       1.053   4.478   0.345  1.00  0.00    -0.014 C 
HETATM   21  C10 UNL     1       1.449   4.431   1.772  1.00  0.00     0.010 C 
HETATM   22  C11 UNL     1       2.317   4.315  -0.495  1.00  0.00     0.010 C 
ENDBRANCH  19  20
ENDBRANCH  16  19
ENDBRANCH   2  15
BRANCH   6  23
HETATM   23  S1  UNL     1      -4.006  -1.643  -0.321  1.00  0.00     0.214 S 
HETATM   24  O7  UNL     1      -4.285  -2.290   0.979  1.00  0.00    -0.222 OA
HETATM   25  O8  UNL     1      -4.517  -0.259  -0.307  1.00  0.00    -0.222 OA
BRANCH  23  26
HETATM   26  C22 UNL     1      -4.951  -2.558  -1.548  1.00  0.00     0.473 C 
HETATM   27  F1  UNL     1      -6.275  -2.480  -1.152  1.00  0.00    -0.197 F 
HETATM   28  F2  UNL     1      -4.519  -3.863  -1.484  1.00  0.00    -0.197 F 
ENDBRANCH  23  26
ENDBRANCH   6  23
BRANCH   3  29
HETATM   29  O4  UNL     1       1.541  -0.539  -1.729  1.00  0.00    -0.376 OA
BRANCH  29  30
HETATM   30  C13 UNL     1       2.596  -1.419  -1.681  1.00  0.00     0.122 C 
HETATM   31  C14 UNL     1       3.613  -1.158  -0.616  1.00  0.00     0.032 C 
HETATM   32  C15 UNL     1       5.024  -1.052  -1.075  1.00  0.00     0.002 C 
HETATM   33  C16 UNL     1       5.479  -2.062  -2.067  1.00  0.00     0.000 C 
HETATM   34  C17 UNL     1       4.304  -2.755  -2.768  1.00  0.00     0.002 C 
HETATM   35  C18 UNL     1       3.278  -1.658  -2.980  1.00  0.00     0.032 C 
ENDBRANCH  29  30
ENDBRANCH   3  29
BRANCH   5  36
HETATM   36  O6  UNL     1      -2.973  -0.308  -2.611  1.00  0.00    -0.391 OA
ATOM     37  H6  UNL     1      -3.856  -0.555  -2.362  1.00  0.00     0.210 HD
ENDBRANCH   5  36
BRANCH   4  38
HETATM   38  O5  UNL     1      -0.239  -1.633  -3.667  1.00  0.00    -0.390 OA
ATOM     39  H5  UNL     1      -0.860  -1.571  -4.383  1.00  0.00     0.210 HD
ENDBRANCH   4  38
TORSDOF 13
