REMARK  13 active torsions:
REMARK  status: ('A' for Active; 'I' for Inactive)
REMARK    1  A    between atoms: C2_2  and  C3_3 
REMARK    2  A    between atoms: C3_3  and  C4_4 
REMARK    3  A    between atoms: C4_4  and  C5_5 
REMARK    4  A    between atoms: C4_4  and  N1_8 
REMARK    5  A    between atoms: C5_5  and  O1_6 
REMARK    6  A    between atoms: N1_8  and  C7_10 
REMARK    7  A    between atoms: N3_13  and  C8_14 
REMARK    8  A    between atoms: C8_14  and  C9_15 
REMARK    9  A    between atoms: C9_15  and  C10_16 
REMARK   10  A    between atoms: C10_16  and  O2_17 
REMARK   11  A    between atoms: C13_22  and  N4_23 
REMARK   12  A    between atoms: N4_23  and  S1_25 
REMARK   13  A    between atoms: S1_25  and  C14_28 
ROOT
HETATM    1  C7  UNL     1      -0.959  -0.550   0.210  1.00  0.00     0.146 A 
HETATM    2  N2  UNL     1      -0.992   0.767   0.476  1.00  0.00    -0.279 N 
ATOM      3  H2  UNL     1      -1.897   1.232   0.543  1.00  0.00     0.189 HD
HETATM    4  N3  UNL     1       0.117   1.489   0.656  1.00  0.00    -0.255 N 
HETATM    5  C11 UNL     1       1.326   0.910   0.575  1.00  0.00     0.278 A 
HETATM    6  O3  UNL     1       2.338   1.630   0.752  1.00  0.00    -0.265 OA
HETATM    7  C12 UNL     1       1.460  -0.445   0.305  1.00  0.00     0.111 A 
HETATM    8  C13 UNL     1       2.533  -1.301   0.164  1.00  0.00     0.148 A 
HETATM    9  N5  UNL     1       1.991  -2.503  -0.095  1.00  0.00    -0.283 N 
ATOM     10  H5  UNL     1       2.521  -3.360  -0.252  1.00  0.00     0.188 HD
HETATM   11  N6  UNL     1       0.662  -2.415  -0.118  1.00  0.00    -0.294 N 
ATOM     12  H6  UNL     1       0.025  -3.192  -0.295  1.00  0.00     0.187 HD
HETATM   13  C18 UNL     1       0.288  -1.148   0.127  1.00  0.00     0.113 A 
ENDROOT
BRANCH   8  14
HETATM   14  N4  UNL     1       3.769  -0.957   0.272  1.00  0.00    -0.263 N 
ATOM     15  H4  UNL     1       4.042   0.004   0.476  1.00  0.00     0.180 HD
BRANCH  14  16
HETATM   16  S1  UNL     1       4.952  -2.218   0.052  1.00  0.00     0.271 S 
HETATM   17  O4  UNL     1       4.707  -3.315   1.022  1.00  0.00    -0.200 OA
HETATM   18  O5  UNL     1       4.854  -2.663  -1.368  1.00  0.00    -0.200 OA
BRANCH  16  19
HETATM   19  C14 UNL     1       6.567  -1.569   0.370  1.00  0.00     0.123 A 
HETATM   20  C15 UNL     1       7.465  -1.982   1.320  1.00  0.00     0.059 A 
HETATM   21  C16 UNL     1       8.640  -1.335   1.378  1.00  0.00     0.064 A 
HETATM   22 CL1  UNL     1       9.939  -1.725   2.548  1.00  0.00    -0.082 Cl
HETATM   23  C17 UNL     1       8.838  -0.319   0.480  1.00  0.00     0.097 A 
HETATM   24 CL2  UNL     1      10.268   0.720   0.297  1.00  0.00    -0.074 Cl
HETATM   25  S2  UNL     1       7.384  -0.300  -0.411  1.00  0.00    -0.063 SA
ENDBRANCH  16  19
ENDBRANCH  14  16
ENDBRANCH   8  14
BRANCH   4  26
HETATM   26  C8  UNL     1       0.040   2.909   0.941  1.00  0.00     0.154 C 
BRANCH  26  27
HETATM   27  C9  UNL     1       0.059   3.633  -0.373  1.00  0.00     0.048 C 
BRANCH  27  28
HETATM   28  C10 UNL     1      -0.015   5.129  -0.217  1.00  0.00     0.165 C 
BRANCH  28  29
HETATM   29  O2  UNL     1       0.013   5.670  -1.515  1.00  0.00    -0.401 OA
ATOM     30  H2  UNL     1      -0.034   6.614  -1.417  1.00  0.00     0.209 HD
ENDBRANCH  28  29
ENDBRANCH  27  28
ENDBRANCH  26  27
ENDBRANCH   4  26
BRANCH   1  31
HETATM   31  N1  UNL     1      -2.019  -1.263   0.036  1.00  0.00    -0.367 N 
ATOM     32  H1  UNL     1      -1.882  -2.255  -0.160  1.00  0.00     0.161 HD
BRANCH  31  33
HETATM   33  C4  UNL     1      -3.366  -0.795   0.092  1.00  0.00     0.107 C 
BRANCH  33  34
HETATM   34  C3  UNL     1      -4.238  -2.010   0.426  1.00  0.00     0.027 C 
BRANCH  34  35
HETATM   35  C2  UNL     1      -5.692  -1.633   0.552  1.00  0.00    -0.002 C 
HETATM   36  C1  UNL     1      -5.864  -0.620   1.644  1.00  0.00     0.005 C 
ENDBRANCH  34  35
ENDBRANCH  33  34
BRANCH  33  37
HETATM   37  C5  UNL     1      -3.834  -0.207  -1.224  1.00  0.00     0.192 C 
BRANCH  37  38
HETATM   38  O1  UNL     1      -3.744  -1.210  -2.177  1.00  0.00    -0.394 OA
HETATM   39  C6  UNL     1      -4.151  -0.793  -3.443  1.00  0.00     0.201 C 
ENDBRANCH  37  38
ENDBRANCH  33  37
ENDBRANCH  31  33
ENDBRANCH   1  31
TORSDOF 13
