REMARK  14 active torsions:
REMARK  status: ('A' for Active; 'I' for Inactive)
REMARK    1  A    between atoms: C2_2  and  C3_3 
REMARK    2  A    between atoms: C3_3  and  C4_4 
REMARK    3  A    between atoms: C4_4  and  N1_5 
REMARK    4  A    between atoms: C4_4  and  C20_38 
REMARK       I    between atoms: N1_5  and  C5_7 
REMARK    5  A    between atoms: C5_7  and  C6_9 
REMARK    6  A    between atoms: N2_16  and  C11_17 
REMARK    7  A    between atoms: C11_17  and  O2_18 
REMARK    8  A    between atoms: C11_17  and  C12_20 
REMARK    9  A    between atoms: C12_20  and  N3_22 
REMARK   10  A    between atoms: N3_22  and  N4_24 
REMARK       I    between atoms: N4_24  and  C14_26 
REMARK   11  A    between atoms: C14_26  and  C15_28 
REMARK       I    between atoms: C15_28  and  N5_30 
REMARK   12  A    between atoms: N5_30  and  N6_32 
REMARK   13  A    between atoms: N6_32  and  C16_34 
REMARK   14  A    between atoms: C16_34  and  C17_35 
ROOT
HETATM    1  C6  UNL     1      -2.812  -0.768   2.110  1.00  0.00     0.178 C 
HETATM    2  C7  UNL     1      -3.499  -1.772   2.980  1.00  0.00     0.041 C 
HETATM    3  C8  UNL     1      -2.592  -2.387   4.009  1.00  0.00     0.083 C 
HETATM    4  C9  UNL     1      -1.530  -3.209   3.308  1.00  0.00     0.259 C 
HETATM    5  F1  UNL     1      -0.376  -3.033   4.007  1.00  0.00    -0.205 F 
HETATM    6  F2  UNL     1      -1.892  -4.530   3.257  1.00  0.00    -0.205 F 
HETATM    7  C10 UNL     1      -1.401  -2.735   1.851  1.00  0.00     0.204 C 
HETATM    8  N2  UNL     1      -1.431  -1.305   1.834  1.00  0.00    -0.341 N 
ENDROOT
BRANCH   8   9
HETATM    9  C11 UNL     1      -0.381  -0.443   1.635  1.00  0.00     0.163 C 
BRANCH   9  10
HETATM   10  O2  UNL     1      -0.684   0.826   1.748  1.00  0.00    -0.345 OA
ATOM     11  H2  UNL     1       0.043   1.422   1.610  1.00  0.00     0.219 HD
ENDBRANCH   9  10
BRANCH   9  12
HETATM   12  C12 UNL     1       0.998  -0.694   1.325  1.00  0.00     0.072 C 
HETATM   13  C13 UNL     1       1.635  -1.997   1.074  1.00  0.00     0.074 C 
BRANCH  12  14
HETATM   14  N3  UNL     1       1.805   0.350   1.219  1.00  0.00    -0.298 N 
ATOM     15  H3  UNL     1       1.442   1.293   1.356  1.00  0.00     0.187 HD
BRANCH  14  16
HETATM   16  N4  UNL     1       3.135   0.159   0.924  1.00  0.00    -0.262 N 
HETATM   17  C14 UNL     1       3.782   0.704  -0.221  1.00  0.00     0.329 C 
HETATM   18  O3  UNL     1       3.051   1.409  -0.996  1.00  0.00    -0.261 OA
ATOM     19  H4  UNL     1       3.691  -0.407   1.564  1.00  0.00     0.190 HD
BRANCH  17  20
HETATM   20  C15 UNL     1       5.184   0.478  -0.499  1.00  0.00     0.329 C 
HETATM   21  O4  UNL     1       5.839  -0.225   0.305  1.00  0.00    -0.261 OA
HETATM   22  N5  UNL     1       5.858   1.004  -1.627  1.00  0.00    -0.266 N 
ATOM     23  H5  UNL     1       5.335   1.580  -2.287  1.00  0.00     0.190 HD
BRANCH  22  24
HETATM   24  N6  UNL     1       7.199   0.767  -1.869  1.00  0.00    -0.333 N 
ATOM     25  H6  UNL     1       7.594  -0.173  -1.902  1.00  0.00     0.180 HD
BRANCH  24  26
HETATM   26  C16 UNL     1       7.994   1.949  -2.071  1.00  0.00     0.143 C 
BRANCH  26  27
HETATM   27  C17 UNL     1       9.416   1.500  -2.330  1.00  0.00    -0.003 C 
HETATM   28  C18 UNL     1       9.980   0.712  -1.181  1.00  0.00     0.011 C 
HETATM   29  C19 UNL     1      10.353   2.675  -2.559  1.00  0.00     0.011 C 
ENDBRANCH  26  27
ENDBRANCH  24  26
ENDBRANCH  22  24
ENDBRANCH  17  20
ENDBRANCH  14  16
ENDBRANCH  12  14
ENDBRANCH   9  12
ENDBRANCH   8   9
BRANCH   1  30
HETATM   30  C5  UNL     1      -3.525  -0.591   0.843  1.00  0.00     0.241 C 
HETATM   31  N1  UNL     1      -4.834  -0.060   0.774  1.00  0.00    -0.349 N 
ATOM     32  H1  UNL     1      -5.303   0.211   1.638  1.00  0.00     0.163 HD
HETATM   33  O1  UNL     1      -2.971  -0.918  -0.258  1.00  0.00    -0.271 OA
BRANCH  31  34
HETATM   34  C4  UNL     1      -5.535   0.113  -0.494  1.00  0.00     0.142 C 
BRANCH  34  35
HETATM   35  C3  UNL     1      -6.811  -0.684  -0.526  1.00  0.00     0.032 C 
BRANCH  35  36
HETATM   36  C2  UNL     1      -7.482  -0.443  -1.878  1.00  0.00    -0.002 C 
HETATM   37  C1  UNL     1      -8.764  -1.234  -1.954  1.00  0.00     0.005 C 
ENDBRANCH  35  36
ENDBRANCH  34  35
BRANCH  34  38
HETATM   38  C20 UNL     1      -5.886   1.549  -0.710  1.00  0.00     0.073 A 
HETATM   39  N7  UNL     1      -5.730   2.266  -1.807  1.00  0.00    -0.361 N 
HETATM   40  C21 UNL     1      -6.093   3.517  -1.826  1.00  0.00     0.096 A 
ATOM     41  H7  UNL     1      -5.325   1.840  -2.641  1.00  0.00     0.165 HD
HETATM   42  C22 UNL     1      -6.631   4.027  -0.668  1.00  0.00     0.068 A 
HETATM   43  S1  UNL     1      -6.577   2.671   0.368  1.00  0.00    -0.085 SA
ENDBRANCH  34  38
ENDBRANCH  31  34
ENDBRANCH   1  30
TORSDOF 14
