REMARK  11 active torsions:
REMARK  status: ('A' for Active; 'I' for Inactive)
REMARK    1  A    between atoms: O1_2  and  C2_3 
REMARK    2  A    between atoms: N2_12  and  C9_13 
REMARK    3  A    between atoms: C9_13  and  C10_14 
REMARK    4  A    between atoms: C10_14  and  C11_15 
REMARK    5  A    between atoms: C11_15  and  C12_16 
REMARK    6  A    between atoms: C15_19  and  C16_20 
REMARK    7  A    between atoms: C17_21  and  C18_22 
REMARK    8  A    between atoms: C18_22  and  N3_23 
REMARK    9  A    between atoms: N3_23  and  C20_25 
REMARK   10  A    between atoms: C20_25  and  C21_26 
REMARK   11  A    between atoms: C21_26  and  C22_27 
ROOT
HETATM    1  C12 UNL     1       2.169  -1.670  -0.111  1.00  0.00    -0.058 A 
HETATM    2  C13 UNL     1       1.046  -2.027   0.631  1.00  0.00     0.008 A 
HETATM    3  C14 UNL     1      -0.229  -1.701   0.245  1.00  0.00     0.021 A 
HETATM    4  C15 UNL     1      -0.405  -0.989  -0.927  1.00  0.00     0.017 A 
HETATM    5  C29 UNL     1       0.682  -0.624  -1.677  1.00  0.00     0.021 A 
HETATM    6  C30 UNL     1       1.953  -0.973  -1.254  1.00  0.00     0.008 A 
ENDROOT
BRANCH   1   7
HETATM    7  C11 UNL     1       3.525  -2.084   0.374  1.00  0.00     0.040 C 
BRANCH   7   8
HETATM    8  C10 UNL     1       4.107  -1.177   1.384  1.00  0.00     0.025 C 
BRANCH   8   9
HETATM    9  C9  UNL     1       4.472   0.205   1.035  1.00  0.00     0.130 C 
BRANCH   9  10
HETATM   10  N2  UNL     1       5.539   0.401   0.114  1.00  0.00    -0.341 N 
HETATM   11  C5  UNL     1       6.858   0.496   0.494  1.00  0.00     0.062 A 
HETATM   12  C4  UNL     1       7.391   0.413   1.762  1.00  0.00     0.035 A 
HETATM   13  C6  UNL     1       7.656   0.704  -0.617  1.00  0.00     0.062 A 
HETATM   14  C3  UNL     1       8.761   0.541   1.917  1.00  0.00     0.039 A 
HETATM   15  C2  UNL     1       9.559   0.751   0.787  1.00  0.00     0.070 A 
HETATM   16  C7  UNL     1       9.025   0.832  -0.470  1.00  0.00     0.068 A 
HETATM   17  N1  UNL     1       6.821   0.734  -1.670  1.00  0.00    -0.350 N 
HETATM   18  C8  UNL     1       5.567   0.552  -1.204  1.00  0.00     0.183 A 
ATOM     19  H1  UNL     1       7.087   0.870  -2.645  1.00  0.00     0.166 HD
BRANCH  15  20
HETATM   20  O1  UNL     1      10.931   0.878   0.955  1.00  0.00    -0.356 OA
HETATM   21  C1  UNL     1      11.742   1.091  -0.174  1.00  0.00     0.210 C 
ENDBRANCH  15  20
ENDBRANCH   9  10
ENDBRANCH   8   9
ENDBRANCH   7   8
ENDBRANCH   1   7
BRANCH   4  22
HETATM   22  C16 UNL     1      -1.760  -0.646  -1.329  1.00  0.00    -0.065 C 
HETATM   23  C17 UNL     1      -2.896  -0.380  -1.651  1.00  0.00    -0.071 C 
BRANCH  23  24
HETATM   24  C18 UNL     1      -4.295  -0.072  -2.023  1.00  0.00     0.365 C 
BRANCH  24  25
HETATM   25  N3  UNL     1      -4.884   0.839  -1.056  1.00  0.00     0.095 N 
HETATM   26  C19 UNL     1      -4.234   2.132  -1.173  1.00  0.00     0.310 C 
BRANCH  25  27
HETATM   27  C20 UNL     1      -4.812   0.329   0.273  1.00  0.00     0.277 C 
BRANCH  27  28
HETATM   28  C21 UNL     1      -5.704  -0.851   0.495  1.00  0.00     0.068 C 
BRANCH  28  29
HETATM   29  C22 UNL     1      -7.119  -0.433   0.277  1.00  0.00    -0.057 A 
HETATM   30  C23 UNL     1      -7.829   0.074   1.374  1.00  0.00     0.007 A 
HETATM   31  C24 UNL     1      -9.140   0.462   1.241  1.00  0.00     0.007 A 
HETATM   32  C25 UNL     1      -9.819   0.376   0.040  1.00  0.00    -0.062 A 
HETATM   33  C26 UNL     1     -11.244   0.810  -0.049  1.00  0.00     0.048 C 
HETATM   34  C27 UNL     1      -9.113  -0.123  -1.029  1.00  0.00     0.007 A 
HETATM   35  C28 UNL     1      -7.781  -0.524  -0.922  1.00  0.00     0.007 A 
ENDBRANCH  28  29
ENDBRANCH  27  28
ENDBRANCH  25  27
ENDBRANCH  24  25
ENDBRANCH  23  24
ENDBRANCH   4  22
TORSDOF 11
