REMARK  2 active torsions:
REMARK  status: ('A' for Active; 'I' for Inactive)
REMARK    1  A    between atoms: C2_2  and  C5_5 
REMARK    2  A    between atoms: C7_12  and  O1_13 
ROOT
HETATM    1  C5  UNL     1      -1.180  -1.107   0.476  1.00  0.00     0.028 A 
HETATM    2  C6  UNL     1      -1.502   0.032   1.145  1.00  0.00     0.056 A 
HETATM    3  N1  UNL     1      -0.432   0.641   1.815  1.00  0.00    -0.288 N 
ATOM      4  H1  UNL     1      -0.600   1.498   2.343  1.00  0.00     0.188 HD
HETATM    5  N2  UNL     1       0.675   0.183   1.785  1.00  0.00    -0.233 N 
ATOM      6  H2  UNL     1       1.379   0.704   2.308  1.00  0.00     0.209 HD
HETATM    7  N3  UNL     1       1.121  -0.924   1.157  1.00  0.00    -0.215 N 
HETATM    8  C7  UNL     1       0.175  -1.544   0.516  1.00  0.00     0.172 A 
HETATM    9  C8  UNL     1       2.553  -0.953   1.350  1.00  0.00     0.110 A 
HETATM   10  C9  UNL     1       3.336  -1.626   2.237  1.00  0.00     0.123 A 
HETATM   11  N4  UNL     1       4.668  -1.549   2.366  1.00  0.00    -0.363 N 
ATOM     12  H4  UNL     1       5.163  -2.100   3.067  1.00  0.00     0.165 HD
HETATM   13  C10 UNL     1       5.323  -0.728   1.547  1.00  0.00     0.045 A 
HETATM   14  C11 UNL     1       6.699  -0.589   1.622  1.00  0.00     0.030 A 
HETATM   15  C12 UNL     1       7.346   0.267   0.768  1.00  0.00     0.002 A 
HETATM   16  C13 UNL     1       6.668   1.004  -0.173  1.00  0.00     0.001 A 
HETATM   17  C14 UNL     1       5.323   0.861  -0.238  1.00  0.00     0.017 A 
HETATM   18  C15 UNL     1       4.618  -0.014   0.626  1.00  0.00     0.027 A 
HETATM   19  C16 UNL     1       3.235  -0.068   0.460  1.00  0.00     0.117 A 
HETATM   20  O2  UNL     1       2.584   0.656  -0.474  1.00  0.00    -0.319 OA
HETATM   21  C17 UNL     1       1.689   0.760  -1.454  1.00  0.00     0.144 C 
HETATM   22  C18 UNL     1       0.643   1.539  -1.685  1.00  0.00     0.041 C 
HETATM   23  C19 UNL     1      -0.018   2.619  -1.001  1.00  0.00     0.091 C 
HETATM   24  N5  UNL     1      -1.208   2.810  -0.658  1.00  0.00    -0.352 N 
ATOM     25  H5  UNL     1      -1.169   3.721  -0.201  1.00  0.00     0.166 HD
HETATM   26  C20 UNL     1      -2.515   2.478  -0.558  1.00  0.00     0.107 A 
HETATM   27  C21 UNL     1      -3.391   3.048  -1.518  1.00  0.00     0.049 A 
HETATM   28  C22 UNL     1      -4.737   2.857  -1.582  1.00  0.00     0.005 A 
HETATM   29  C23 UNL     1      -5.330   2.053  -0.656  1.00  0.00     0.017 A 
HETATM   30  C24 UNL     1      -4.518   1.493   0.278  1.00  0.00     0.093 A 
HETATM   31  N6  UNL     1      -3.157   1.678   0.351  1.00  0.00    -0.338 N 
HETATM   32  C25 UNL     1      -2.562   0.992   1.467  1.00  0.00     0.189 C 
ENDROOT
BRANCH   1  33
HETATM   33  C2  UNL     1      -2.107  -2.000  -0.334  1.00  0.00    -0.018 C 
HETATM   34  C1  UNL     1      -2.718  -1.291  -1.540  1.00  0.00     0.019 C 
HETATM   35  C3  UNL     1      -3.351  -2.406   0.506  1.00  0.00     0.019 C 
HETATM   36  C4  UNL     1      -1.570  -3.325  -0.729  1.00  0.00     0.019 C 
ENDBRANCH   1  33
BRANCH   8  37
HETATM   37  O1  UNL     1       0.370  -2.649  -0.181  1.00  0.00    -0.344 OA
ATOM     38  H1  UNL     1       1.274  -2.940  -0.154  1.00  0.00     0.219 HD
ENDBRANCH   8  37
TORSDOF 2
