REMARK  2 active torsions:
REMARK  status: ('A' for Active; 'I' for Inactive)
REMARK    1  A    between atoms: C13_19  and  C14_20 
REMARK    2  A    between atoms: C15_21  and  C16_22 
ROOT
HETATM    1  N1  UNL     1      -8.340   2.391  -3.595  1.00  0.00    -0.191 NA
HETATM    2  C1  UNL     1      -7.498   1.867  -2.980  1.00  0.00     0.099 C 
HETATM    3  C2  UNL     1      -6.481   1.212  -2.219  1.00  0.00     0.045 A 
HETATM    4  C3  UNL     1      -5.186   1.050  -2.668  1.00  0.00     0.025 A 
HETATM    5  C4  UNL     1      -4.221   0.408  -1.898  1.00  0.00     0.032 A 
HETATM    6  C5  UNL     1      -4.634  -0.038  -0.690  1.00  0.00     0.052 A 
HETATM    7  C6  UNL     1      -5.943   0.107  -0.209  1.00  0.00    -0.006 A 
HETATM    8  C7  UNL     1      -6.857   0.725  -0.960  1.00  0.00     0.034 A 
HETATM    9  C8  UNL     1      -6.388  -0.511   1.097  1.00  0.00     0.209 C 
HETATM   10  O1  UNL     1      -6.142  -1.865   0.900  1.00  0.00    -0.379 OA
HETATM   11  C9  UNL     1      -4.954  -2.389   1.277  1.00  0.00     0.245 C 
HETATM   12  C10 UNL     1      -3.708  -1.694   0.878  1.00  0.00     0.117 A 
HETATM   13  N2  UNL     1      -2.612  -2.181   1.487  1.00  0.00    -0.329 N 
ATOM     14  H2  UNL     1      -2.684  -2.982   2.114  1.00  0.00     0.168 HD
HETATM   15  C11 UNL     1      -1.424  -1.602   1.261  1.00  0.00     0.122 A 
HETATM   16  N3  UNL     1      -0.314  -2.089   1.869  1.00  0.00    -0.350 N 
ATOM     17  H3  UNL     1      -0.403  -2.892   2.492  1.00  0.00     0.166 HD
HETATM   18  C12 UNL     1       0.899  -1.546   1.676  1.00  0.00     0.110 A 
HETATM   19  C13 UNL     1       1.092  -0.450   0.839  1.00  0.00     0.034 A 
HETATM   20  C26 UNL     1      -0.045   0.031   0.231  1.00  0.00     0.043 A 
HETATM   21  C27 UNL     1      -1.283  -0.515   0.422  1.00  0.00     0.078 A 
HETATM   22  C28 UNL     1      -2.419  -0.011  -0.207  1.00  0.00     0.267 A 
HETATM   23  O2  UNL     1      -2.312   0.963  -0.943  1.00  0.00    -0.267 OA
HETATM   24  N4  UNL     1      -3.561  -0.625   0.049  1.00  0.00    -0.265 N 
ENDROOT
BRANCH  19  25
HETATM   25  C14 UNL     1       2.386   0.132   0.631  1.00  0.00    -0.060 C 
HETATM   26  C15 UNL     1       3.471   0.619   0.435  1.00  0.00    -0.060 C 
BRANCH  26  27
HETATM   27  C16 UNL     1       4.778   1.185   0.216  1.00  0.00     0.029 A 
HETATM   28  C17 UNL     1       4.936   2.533   0.009  1.00  0.00     0.021 A 
HETATM   29  C18 UNL     1       6.188   3.107  -0.205  1.00  0.00     0.002 A 
HETATM   30  C19 UNL     1       7.278   2.271  -0.202  1.00  0.00     0.012 A 
HETATM   31  C20 UNL     1       7.174   0.907   0.002  1.00  0.00    -0.025 A 
HETATM   32  C21 UNL     1       8.293   0.098  -0.002  1.00  0.00     0.012 A 
HETATM   33  C25 UNL     1       5.916   0.381   0.209  1.00  0.00    -0.007 A 
HETATM   34  C22 UNL     1       8.179  -1.263   0.202  1.00  0.00     0.001 A 
HETATM   35  C23 UNL     1       6.901  -1.774   0.409  1.00  0.00     0.001 A 
HETATM   36  C24 UNL     1       5.781  -0.975   0.415  1.00  0.00     0.014 A 
ENDBRANCH  26  27
ENDBRANCH  19  25
TORSDOF 2
