REMARK  0 active torsions:
REMARK  status: ('A' for Active; 'I' for Inactive)
ROOT
HETATM    1  C1  UNL     1      -0.331  -1.893   3.620  1.00  0.00     0.181 C 
HETATM    2  N1  UNL     1       0.028  -1.405   2.299  1.00  0.00    -0.261 N 
HETATM    3  C2  UNL     1       1.302  -0.794   2.159  1.00  0.00     0.272 C 
HETATM    4  O1  UNL     1       2.147  -0.825   3.102  1.00  0.00    -0.266 OA
HETATM    5  C3  UNL     1       1.579  -0.140   0.889  1.00  0.00     0.045 A 
HETATM    6  C4  UNL     1       2.794   0.478   0.704  1.00  0.00     0.030 A 
HETATM    7  C5  UNL     1       3.043   1.105  -0.498  1.00  0.00    -0.025 A 
HETATM    8  C6  UNL     1       4.243   1.749  -0.756  1.00  0.00     0.012 A 
HETATM    9  C7  UNL     1       4.465   2.369  -1.967  1.00  0.00     0.001 A 
HETATM   10  C8  UNL     1       3.510   2.372  -2.957  1.00  0.00     0.001 A 
HETATM   11  C9  UNL     1       2.309   1.726  -2.693  1.00  0.00     0.012 A 
HETATM   12  C10 UNL     1       2.076   1.099  -1.478  1.00  0.00    -0.025 A 
HETATM   13  C11 UNL     1       0.859   0.468  -1.265  1.00  0.00     0.025 A 
HETATM   14  C12 UNL     1       0.589  -0.174  -0.051  1.00  0.00     0.014 A 
HETATM   15  C13 UNL     1      -0.739  -0.827   0.094  1.00  0.00     0.190 C 
HETATM   16  C14 UNL     1      -0.938  -1.665  -1.113  1.00  0.00     0.051 A 
HETATM   17  C15 UNL     1       0.247  -2.311  -1.457  1.00  0.00     0.018 A 
HETATM   18  C16 UNL     1       0.315  -3.146  -2.541  1.00  0.00     0.018 A 
HETATM   19  C17 UNL     1      -0.813  -3.351  -3.307  1.00  0.00     0.090 A 
HETATM   20  N2  UNL     1      -1.950  -2.728  -2.971  1.00  0.00    -0.344 N 
ATOM     21  H2  UNL     1      -2.780  -2.886  -3.542  1.00  0.00     0.167 HD
HETATM   22  C18 UNL     1      -2.046  -1.890  -1.896  1.00  0.00     0.181 A 
HETATM   23  O2  UNL     1      -3.351  -1.383  -1.788  1.00  0.00    -0.217 OA
HETATM   24  N3  UNL     1      -3.620  -0.168  -1.200  1.00  0.00    -0.242 N 
ATOM     25  H3  UNL     1      -4.514   0.241  -1.473  1.00  0.00     0.196 HD
HETATM   26  C19 UNL     1      -2.949   0.539  -0.373  1.00  0.00     0.143 A 
HETATM   27  C20 UNL     1      -2.961   1.779   0.382  1.00  0.00     0.037 A 
HETATM   28  C21 UNL     1      -3.566   2.978   0.761  1.00  0.00     0.017 A 
HETATM   29  C22 UNL     1      -2.995   3.868   1.644  1.00  0.00     0.001 A 
HETATM   30  C23 UNL     1      -1.757   3.568   2.189  1.00  0.00     0.002 A 
HETATM   31  C24 UNL     1      -1.135   2.382   1.828  1.00  0.00     0.031 A 
HETATM   32  C25 UNL     1      -1.724   1.503   0.941  1.00  0.00     0.053 A 
HETATM   33  N4  UNL     1      -1.704   0.267   0.194  1.00  0.00    -0.293 N 
HETATM   34  N5  UNL     1      -0.873  -1.564   1.297  1.00  0.00    -0.289 N 
HETATM   35  C26 UNL     1      -1.393  -2.880   1.179  1.00  0.00     0.175 C 
ENDROOT
TORSDOF 0
