REMARK  2 active torsions:
REMARK  status: ('A' for Active; 'I' for Inactive)
REMARK    1  A    between atoms: C7_9  and  C8_10 
REMARK    2  A    between atoms: C9_11  and  C10_12 
ROOT
HETATM    1  C1  UNL     1      -4.297   1.762  -1.720  1.00  0.00     0.170 C 
HETATM    2  N1  UNL     1      -4.771   0.881  -0.699  1.00  0.00    -0.273 N 
HETATM    3  C2  UNL     1      -3.919  -0.037  -0.079  1.00  0.00     0.095 C 
HETATM    4  C3  UNL     1      -2.672   0.218   0.245  1.00  0.00     0.027 C 
HETATM    5  C4  UNL     1      -1.940   1.467   0.038  1.00  0.00     0.128 C 
HETATM    6  S1  UNL     1      -0.610   1.550   1.312  1.00  0.00    -0.123 SA
HETATM    7  C5  UNL     1       0.512   0.230   0.874  1.00  0.00     0.019 A 
HETATM    8  C6  UNL     1       1.854   0.370   0.668  1.00  0.00     0.040 A 
HETATM    9  C7  UNL     1       2.665  -0.716   0.319  1.00  0.00     0.019 A 
HETATM   10  C15 UNL     1       2.106  -1.961   0.177  1.00  0.00     0.022 A 
HETATM   11  C16 UNL     1       0.733  -2.144   0.380  1.00  0.00     0.021 A 
HETATM   12  C17 UNL     1      -0.030  -1.051   0.723  1.00  0.00     0.022 A 
HETATM   13  S2  UNL     1      -1.784  -1.159   1.017  1.00  0.00    -0.090 SA
HETATM   14  S3  UNL     1      -4.634  -1.654   0.323  1.00  0.00    -0.110 SA
HETATM   15  C18 UNL     1      -6.202  -1.269   1.195  1.00  0.00     0.097 C 
HETATM   16  C19 UNL     1      -7.101  -0.548   0.244  1.00  0.00     0.174 C 
HETATM   17  S4  UNL     1      -6.456   1.016  -0.286  1.00  0.00     0.233 S 
HETATM   18  O1  UNL     1      -7.272   1.515  -1.442  1.00  0.00    -0.205 OA
HETATM   19  O2  UNL     1      -6.566   2.017   0.825  1.00  0.00    -0.205 OA
ENDROOT
BRANCH   9  20
HETATM   20  C8  UNL     1       4.074  -0.527   0.110  1.00  0.00    -0.061 C 
HETATM   21  C9  UNL     1       5.258  -0.382  -0.079  1.00  0.00    -0.061 C 
BRANCH  21  22
HETATM   22  C10 UNL     1       6.662  -0.198  -0.312  1.00  0.00     0.020 A 
HETATM   23  C11 UNL     1       7.470   0.609   0.458  1.00  0.00     0.037 A 
HETATM   24  C12 UNL     1       8.823   0.762   0.201  1.00  0.00     0.089 A 
HETATM   25  N2  UNL     1       9.346   0.095  -0.833  1.00  0.00    -0.375 N 
HETATM   26  C13 UNL     1       8.628  -0.706  -1.624  1.00  0.00     0.089 A 
ATOM     27  H2  UNL     1      10.342   0.203  -1.027  1.00  0.00     0.164 HD
HETATM   28  C14 UNL     1       7.285  -0.855  -1.367  1.00  0.00     0.037 A 
ENDBRANCH  21  22
ENDBRANCH   9  20
TORSDOF 2
