REMARK  4 active torsions:
REMARK  status: ('A' for Active; 'I' for Inactive)
REMARK    1  A    between atoms: C2_2  and  N1_3 
REMARK    2  A    between atoms: N3_12  and  O2_13 
REMARK    3  A    between atoms: O2_13  and  N4_14 
REMARK    4  A    between atoms: N5_19  and  O4_20 
ROOT
HETATM    1  N1  UNL     1      -1.468  -0.258   0.472  1.00  0.00    -0.289 N 
HETATM    2  C3  UNL     1      -1.271  -1.547   0.161  1.00  0.00     0.182 A 
HETATM    3  S1  UNL     1      -2.578  -2.518   0.014  1.00  0.00    -0.040 SA
HETATM    4  N2  UNL     1      -0.011  -2.022  -0.026  1.00  0.00    -0.315 N 
ATOM      5  H2  UNL     1       0.121  -3.005  -0.263  1.00  0.00     0.170 HD
HETATM    6  C4  UNL     1       1.062  -1.226   0.094  1.00  0.00     0.175 A 
HETATM    7  C5  UNL     1       0.896   0.113   0.415  1.00  0.00     0.184 A 
HETATM    8  C6  UNL     1      -0.399   0.544   0.593  1.00  0.00     0.283 A 
HETATM    9  O1  UNL     1      -0.580   1.763   0.887  1.00  0.00    -0.265 OA
HETATM   10  N3  UNL     1       2.132   0.645   0.464  1.00  0.00    -0.134 N 
HETATM   11  C7  UNL     1       3.053  -0.288   0.192  1.00  0.00     0.381 A 
HETATM   12  O3  UNL     1       4.295  -0.147   0.150  1.00  0.00    -0.242 OA
HETATM   13  N5  UNL     1       2.384  -1.435  -0.034  1.00  0.00    -0.151 N 
ENDROOT
BRANCH  10  14
HETATM   14  O2  UNL     1       2.370   1.974   0.759  1.00  0.00    -0.152 OA
BRANCH  14  15
HETATM   15  N4  UNL     1       2.493   2.892  -0.257  1.00  0.00    -0.285 N 
ATOM     16  H42 UNL     1       2.406   2.576  -1.223  1.00  0.00     0.186 HD
ATOM     17  H41 UNL     1       2.669   3.873  -0.039  1.00  0.00     0.186 HD
ENDBRANCH  14  15
ENDBRANCH  10  14
BRANCH  13  18
HETATM   18  O4  UNL     1       3.000  -2.635  -0.349  1.00  0.00    -0.277 OA
ATOM     19  H4  UNL     1       3.934  -2.783  -0.439  1.00  0.00     0.245 HD
ENDBRANCH  13  18
BRANCH   1  20
HETATM   20  C2  UNL     1      -2.815   0.236   0.667  1.00  0.00     0.130 C 
HETATM   21  C1  UNL     1      -3.345   0.724  -0.665  1.00  0.00     0.027 C 
ENDBRANCH   1  20
TORSDOF 4
