REMARK  1 active torsions:
REMARK  status: ('A' for Active; 'I' for Inactive)
REMARK       I    between atoms: C1_2  and  N2_4 
REMARK    1  A    between atoms: C5_11  and  N5_12 
ROOT
HETATM    1  N1  UNL     1       4.502   0.021   0.765  1.00  0.00    -0.039 NA
HETATM    2  C1  UNL     1       3.673  -0.225  -0.364  1.00  0.00     0.343 C 
HETATM    3  O1  UNL     1       4.253  -0.508  -1.447  1.00  0.00    -0.250 OA
HETATM    4  N2  UNL     1       2.258  -0.151  -0.264  1.00  0.00    -0.224 N 
HETATM    5  C2  UNL     1       1.535   0.139   0.827  1.00  0.00     0.155 A 
HETATM    6  C3  UNL     1       0.177   0.114   0.528  1.00  0.00     0.137 A 
HETATM    7  N3  UNL     1      -0.951   0.323   1.231  1.00  0.00    -0.327 N 
ATOM      8  H3  UNL     1      -0.867   0.559   2.220  1.00  0.00     0.168 HD
HETATM    9  C4  UNL     1      -2.184   0.238   0.700  1.00  0.00     0.157 A 
HETATM   10  N4  UNL     1      -3.348   0.470   1.492  1.00  0.00    -0.080 NA
HETATM   11  C5  UNL     1      -2.266  -0.083  -0.633  1.00  0.00     0.212 A 
HETATM   12  C6  UNL     1      -1.095  -0.294  -1.335  1.00  0.00     0.294 A 
HETATM   13  O4  UNL     1      -1.147  -0.591  -2.570  1.00  0.00    -0.265 OA
HETATM   14  N6  UNL     1       0.126  -0.203  -0.787  1.00  0.00    -0.211 N 
HETATM   15  C7  UNL     1       1.381  -0.362  -1.260  1.00  0.00     0.345 A 
HETATM   16  O5  UNL     1       1.720  -0.659  -2.436  1.00  0.00    -0.245 OA
ENDROOT
BRANCH  11  17
HETATM   17  N5  UNL     1      -3.522  -0.195  -1.282  1.00  0.00    -0.106 N 
HETATM   18  O2  UNL     1      -4.231  -1.182  -1.047  1.00  0.00    -0.531 OA
HETATM   19  O3  UNL     1      -3.905   0.790  -2.144  1.00  0.00    -0.531 OA
ENDBRANCH  11  17
TORSDOF 1
