REMARK  5 active torsions:
REMARK  status: ('A' for Active; 'I' for Inactive)
REMARK    1  A    between atoms: O1_2  and  N1_3 
REMARK    2  A    between atoms: C6_12  and  O2_13 
REMARK    3  A    between atoms: C6_12  and  C7_15 
REMARK    4  A    between atoms: C7_15  and  O4_17 
REMARK    5  A    between atoms: C9_20  and  N3_21 
ROOT
HETATM    1  N1  UNL     1      -3.315   0.214   0.140  1.00  0.00    -0.273 N 
ATOM      2  H1  UNL     1      -4.207  -0.131  -0.214  1.00  0.00     0.193 HD
HETATM    3  C2  UNL     1      -2.235  -0.359  -0.267  1.00  0.00     0.045 C 
HETATM    4  C3  UNL     1      -2.047  -1.474  -1.192  1.00  0.00     0.061 C 
HETATM    5  C4  UNL     1      -0.894  -2.238  -0.534  1.00  0.00     0.078 C 
HETATM    6  C5  UNL     1       0.018  -1.099  -0.146  1.00  0.00     0.271 C 
HETATM    7  N2  UNL     1       0.974  -1.377   0.884  1.00  0.00     0.028 N 
ATOM      8  H21 UNL     1       0.859  -2.150   1.540  1.00  0.00     0.288 HD
ATOM      9  H22 UNL     1       1.093  -0.770   1.695  1.00  0.00     0.288 HD
HETATM   10  C6  UNL     1       1.934  -1.418  -0.198  1.00  0.00     0.432 C 
HETATM   11  O5  UNL     1       0.981  -0.892  -1.098  1.00  0.00    -0.283 OA
HETATM   12  C9  UNL     1      -0.880   0.059   0.180  1.00  0.00     0.294 C 
ENDROOT
BRANCH  12  13
HETATM   13  N3  UNL     1      -0.544   1.267  -0.512  1.00  0.00    -0.065 N 
ATOM     14  H33 UNL     1      -0.616   1.176  -1.525  1.00  0.00     0.275 HD
ATOM     15  H32 UNL     1      -1.244   1.999  -0.392  1.00  0.00     0.275 HD
ATOM     16  H31 UNL     1       0.386   1.554  -0.205  1.00  0.00     0.275 HD
ENDBRANCH  12  13
BRANCH  10  17
HETATM   17  O2  UNL     1       2.272  -2.740  -0.472  1.00  0.00    -0.335 OA
ATOM     18  H2  UNL     1       2.902  -2.767  -1.182  1.00  0.00     0.215 HD
ENDBRANCH  10  17
BRANCH  10  19
HETATM   19  C7  UNL     1       3.072  -0.494  -0.072  1.00  0.00     0.352 C 
HETATM   20  O3  UNL     1       4.241  -0.935  -0.215  1.00  0.00    -0.257 OA
BRANCH  19  21
HETATM   21  O4  UNL     1       2.910   0.838   0.195  1.00  0.00    -0.321 OA
HETATM   22  C8  UNL     1       3.945   1.771   0.328  1.00  0.00     0.213 C 
ENDBRANCH  19  21
ENDBRANCH  10  19
BRANCH   1  23
HETATM   23  O1  UNL     1      -3.329   1.250   1.012  1.00  0.00    -0.285 OA
HETATM   24  C1  UNL     1      -4.028   2.450   0.846  1.00  0.00     0.237 C 
ENDBRANCH   1  23
TORSDOF 5
