REMARK  4 active torsions:
REMARK  status: ('A' for Active; 'I' for Inactive)
REMARK    1  A    between atoms: O1_3  and  C3_4 
REMARK    2  A    between atoms: C3_4  and  N1_5 
REMARK    3  A    between atoms: N2_8  and  O3_9 
REMARK    4  A    between atoms: C6_14  and  N4_15 
ROOT
HETATM    1  C1  UNL     1       5.503   0.969  -0.660  1.00  0.00     0.045 C 
HETATM    2  C2  UNL     1       4.445   0.605  -0.209  1.00  0.00     0.049 C 
HETATM    3  O1  UNL     1       3.258   0.219   0.286  1.00  0.00    -0.256 OA
ENDROOT
BRANCH   3   4
HETATM    4  C3  UNL     1       2.372  -0.496  -0.457  1.00  0.00     0.258 C 
BRANCH   4   5
HETATM    5  N1  UNL     1       1.139  -0.899   0.050  1.00  0.00    -0.242 N 
HETATM    6  C4  UNL     1       0.948  -2.091   0.691  1.00  0.00     0.361 A 
HETATM    7  O2  UNL     1       1.818  -2.984   0.917  1.00  0.00    -0.243 OA
HETATM    8  N2  UNL     1      -0.322  -2.205   1.066  1.00  0.00    -0.152 N 
HETATM    9  C5  UNL     1      -0.995  -1.108   0.689  1.00  0.00     0.186 A 
HETATM   10  N3  UNL     1      -2.254  -0.666   0.785  1.00  0.00    -0.172 N 
HETATM   11  C9  UNL     1      -0.063  -0.297   0.052  1.00  0.00     0.161 A 
HETATM   12  C6  UNL     1      -2.615   0.527   0.283  1.00  0.00     0.682 A 
ATOM     13  H3  UNL     1      -2.954  -1.246   1.248  1.00  0.00     0.186 HD
HETATM   14  N5  UNL     1      -1.731   1.327  -0.337  1.00  0.00    -0.150 N 
HETATM   15  C7  UNL     1      -2.170   2.618  -0.867  1.00  0.00     0.179 C 
HETATM   16  C8  UNL     1      -0.458   0.919  -0.453  1.00  0.00     0.292 A 
HETATM   17  O4  UNL     1       0.406   1.627  -1.022  1.00  0.00    -0.265 OA
BRANCH   8  18
HETATM   18  O3  UNL     1      -0.941  -3.251   1.741  1.00  0.00    -0.277 OA
ATOM     19  H3  UNL     1      -1.849  -3.332   2.009  1.00  0.00     0.245 HD
ENDBRANCH   8  18
BRANCH  12  20
HETATM   20  N4  UNL     1      -3.840   0.949   0.380  1.00  0.00    -0.234 N 
ATOM     21  H42 UNL     1      -4.511   0.342   0.851  1.00  0.00     0.174 HD
ATOM     22  H41 UNL     1      -4.114   1.855  -0.001  1.00  0.00     0.174 HD
ENDBRANCH  12  20
ENDBRANCH   4   5
ENDBRANCH   3   4
TORSDOF 4
