REMARK  6 active torsions:
REMARK  status: ('A' for Active; 'I' for Inactive)
REMARK    1  A    between atoms: O1_2  and  C2_3 
REMARK    2  A    between atoms: C2_3  and  C3_5 
REMARK    3  A    between atoms: N3_12  and  C7_13 
REMARK    4  A    between atoms: C7_13  and  O3_14 
REMARK    5  A    between atoms: C7_13  and  O4_16 
REMARK    6  A    between atoms: C9_18  and  O5_20 
ROOT
HETATM    1  C3  UNL     1       1.202  -0.324  -0.223  1.00  0.00     0.112 C 
HETATM    2  C4  UNL     1       0.685  -1.490   0.117  1.00  0.00     0.131 C 
HETATM    3  N1  UNL     1       1.029  -2.878   0.330  1.00  0.00    -0.373 N 
ATOM      4  H1  UNL     1       1.963  -3.285   0.284  1.00  0.00     0.161 HD
HETATM    5  C5  UNL     1      -0.197  -3.579   0.619  1.00  0.00     0.142 C 
HETATM    6  C6  UNL     1      -1.295  -2.637   0.151  1.00  0.00     0.165 C 
HETATM    7  N2  UNL     1      -0.713  -1.338   0.373  1.00  0.00    -0.287 N 
HETATM    8  N3  UNL     1      -0.813   0.024   0.719  1.00  0.00    -0.136 NA
HETATM    9  C9  UNL     1       0.066   0.632  -0.204  1.00  0.00     0.169 C 
HETATM   10  C10 UNL     1       0.494   2.026   0.120  1.00  0.00     0.072 C 
ENDROOT
BRANCH   8  11
HETATM   11  C7  UNL     1      -2.205   0.366   0.629  1.00  0.00     0.362 C 
BRANCH  11  12
HETATM   12  O3  UNL     1      -2.854  -0.490   1.561  1.00  0.00    -0.357 OA
ATOM     13  H3  UNL     1      -3.775  -0.264   1.501  1.00  0.00     0.214 HD
ENDBRANCH  11  12
BRANCH  11  14
HETATM   14  O4  UNL     1      -2.462   1.646   1.096  1.00  0.00    -0.352 OA
HETATM   15  C8  UNL     1      -3.299   2.361   0.245  1.00  0.00     0.206 C 
ENDBRANCH  11  14
ENDBRANCH   8  11
BRANCH   9  16
HETATM   16  O5  UNL     1      -0.459   0.626  -1.515  1.00  0.00    -0.369 OA
ATOM     17  H5  UNL     1      -1.186   1.238  -1.503  1.00  0.00     0.212 HD
ENDBRANCH   9  16
BRANCH   1  18
HETATM   18  C2  UNL     1       2.600  -0.081  -0.550  1.00  0.00     0.297 C 
HETATM   19  O2  UNL     1       3.391  -1.054  -0.508  1.00  0.00    -0.259 OA
BRANCH  18  20
HETATM   20  O1  UNL     1       3.114   1.135  -0.901  1.00  0.00    -0.323 OA
HETATM   21  C1  UNL     1       4.441   1.415  -1.221  1.00  0.00     0.213 C 
ENDBRANCH  18  20
ENDBRANCH   1  18
TORSDOF 6
