REMARK  7 active torsions:
REMARK  status: ('A' for Active; 'I' for Inactive)
REMARK    1  A    between atoms: C2_2  and  N1_3 
REMARK    2  A    between atoms: C2_2  and  C11_17 
REMARK    3  A    between atoms: N1_3  and  C3_5 
REMARK    4  A    between atoms: C3_5  and  C4_6 
REMARK    5  A    between atoms: C4_6  and  O1_7 
REMARK    6  A    between atoms: C4_6  and  C5_9 
REMARK    7  A    between atoms: C5_9  and  N2_10 
ROOT
HETATM    1  N1  UNL     1      -0.404   0.631  -0.059  1.00  0.00    -0.395 N 
ATOM      2  H1  UNL     1      -0.982   1.468   0.014  1.00  0.00     0.159 HD
ENDROOT
BRANCH   1   3
HETATM    3  C2  UNL     1      -1.042  -0.611   0.022  1.00  0.00     0.085 C 
HETATM    4  C1  UNL     1      -0.725  -1.500   1.157  1.00  0.00     0.033 C 
BRANCH   3   5
HETATM    5  C11 UNL     1      -2.544  -0.358  -0.122  1.00  0.00    -0.019 C 
HETATM    6  C12 UNL     1      -3.325  -1.631  -0.365  1.00  0.00     0.016 C 
HETATM    7  C13 UNL     1      -4.786  -1.203  -0.570  1.00  0.00    -0.013 C 
HETATM    8  C14 UNL     1      -5.258  -0.603   0.725  1.00  0.00     0.009 C 
HETATM    9  C18 UNL     1      -4.935  -0.285  -1.739  1.00  0.00     0.009 C 
HETATM   10  C15 UNL     1      -4.461   0.648   0.998  1.00  0.00    -0.013 C 
HETATM   11  C16 UNL     1      -4.605   1.611  -0.134  1.00  0.00     0.009 C 
HETATM   12  C20 UNL     1      -3.027   0.208   1.185  1.00  0.00     0.016 C 
HETATM   13  C17 UNL     1      -4.170   0.982  -1.438  1.00  0.00    -0.013 C 
HETATM   14  C19 UNL     1      -2.710   0.596  -1.278  1.00  0.00     0.016 C 
ENDBRANCH   3   5
ENDBRANCH   1   3
BRANCH   1  15
HETATM   15  C3  UNL     1       0.973   0.803  -0.233  1.00  0.00     0.089 C 
BRANCH  15  16
HETATM   16  C4  UNL     1       1.776   0.463   0.978  1.00  0.00     0.173 C 
BRANCH  16  17
HETATM   17  O1  UNL     1       1.288   1.315   2.009  1.00  0.00    -0.389 OA
ATOM     18  H1  UNL     1       1.799   1.099   2.780  1.00  0.00     0.210 HD
ENDBRANCH  16  17
BRANCH  16  19
HETATM   19  C5  UNL     1       3.261   0.788   0.775  1.00  0.00     0.156 C 
BRANCH  19  20
HETATM   20  N2  UNL     1       3.744  -0.074  -0.261  1.00  0.00    -0.394 N 
HETATM   21  C6  UNL     1       4.976  -0.143  -0.508  1.00  0.00    -0.018 C 
HETATM   22  C7  UNL     1       6.047   0.621   0.205  1.00  0.00     0.052 C 
HETATM   23  C10 UNL     1       5.592  -0.996  -1.559  1.00  0.00     0.052 C 
HETATM   24  C8  UNL     1       7.085   0.710  -0.922  1.00  0.00     0.006 C 
HETATM   25  C9  UNL     1       7.067  -0.725  -1.417  1.00  0.00     0.006 C 
ATOM     26  H2  UNL     1       3.086  -0.635  -0.802  1.00  0.00     0.159 HD
ENDBRANCH  19  20
ENDBRANCH  16  19
ENDBRANCH  15  16
ENDBRANCH   1  15
TORSDOF 7
