REMARK  9 active torsions:
REMARK  status: ('A' for Active; 'I' for Inactive)
REMARK    1  A    between atoms: C2_2  and  S1_5 
REMARK    2  A    between atoms: S1_5  and  C5_6 
REMARK    3  A    between atoms: C5_6  and  C6_7 
REMARK    4  A    between atoms: C6_7  and  C7_8 
REMARK    5  A    between atoms: C7_8  and  N1_9 
REMARK    6  A    between atoms: N1_9  and  C8_12 
REMARK    7  A    between atoms: C8_12  and  O1_13 
REMARK    8  A    between atoms: C8_12  and  C9_15 
REMARK    9  A    between atoms: C9_15  and  C10_16 
ROOT
HETATM    1  C8  UNL     1      -0.844  -1.013  -0.331  1.00  0.00     0.318 C 
ENDROOT
BRANCH   1   2
HETATM    2  N1  UNL     1       0.449  -0.564  -0.778  1.00  0.00    -0.049 N 
ATOM      3  H12 UNL     1       0.350   0.062  -1.578  1.00  0.00     0.280 HD
ATOM      4  H11 UNL     1       0.958  -1.331  -1.217  1.00  0.00     0.280 HD
BRANCH   2   5
HETATM    5  C7  UNL     1       1.250   0.048   0.234  1.00  0.00     0.236 C 
BRANCH   5   6
HETATM    6  C6  UNL     1       2.602   0.473  -0.351  1.00  0.00     0.038 C 
BRANCH   6   7
HETATM    7  C5  UNL     1       3.383   1.106   0.784  1.00  0.00     0.076 C 
BRANCH   7   8
HETATM    8  S1  UNL     1       5.002   1.675   0.265  1.00  0.00    -0.160 SA
BRANCH   8   9
HETATM    9  C2  UNL     1       6.116   0.354  -0.214  1.00  0.00    -0.003 C 
HETATM   10  C1  UNL     1       5.662  -0.368  -1.455  1.00  0.00     0.026 C 
HETATM   11  C3  UNL     1       7.502   0.975  -0.444  1.00  0.00     0.026 C 
HETATM   12  C4  UNL     1       6.317  -0.675   0.881  1.00  0.00     0.026 C 
ENDBRANCH   8   9
ENDBRANCH   7   8
ENDBRANCH   6   7
ENDBRANCH   5   6
ENDBRANCH   2   5
ENDBRANCH   1   2
BRANCH   1  13
HETATM   13  O1  UNL     1      -0.636  -1.841   0.808  1.00  0.00    -0.370 OA
ATOM     14  H1  UNL     1      -1.489  -2.137   1.103  1.00  0.00     0.212 HD
ENDBRANCH   1  13
BRANCH   1  15
HETATM   15  C9  UNL     1      -1.667   0.161   0.133  1.00  0.00     0.067 C 
BRANCH  15  16
HETATM   16  C10 UNL     1      -3.026  -0.143   0.611  1.00  0.00     0.002 C 
HETATM   17  C11 UNL     1      -3.745   1.103   1.091  1.00  0.00    -0.009 C 
HETATM   18  C12 UNL     1      -4.048   1.995  -0.056  1.00  0.00     0.005 C 
HETATM   19  C15 UNL     1      -5.127   0.445   1.325  1.00  0.00     0.010 C 
HETATM   20  C13 UNL     1      -5.308   1.436  -0.740  1.00  0.00     0.006 C 
HETATM   21  C14 UNL     1      -5.324   0.041  -0.140  1.00  0.00    -0.006 C 
HETATM   22  C16 UNL     1      -4.009  -0.692  -0.383  1.00  0.00    -0.040 C 
HETATM   23  C17 UNL     1      -4.311  -2.153  -0.025  1.00  0.00     0.015 C 
HETATM   24  C18 UNL     1      -3.594  -0.635  -1.807  1.00  0.00     0.015 C 
ENDBRANCH  15  16
ENDBRANCH   1  15
TORSDOF 9
