REMARK  6 active torsions:
REMARK  status: ('A' for Active; 'I' for Inactive)
REMARK    1  A    between atoms: C2_2  and  C3_3 
REMARK    2  A    between atoms: C3_3  and  C4_4 
REMARK    3  A    between atoms: C4_4  and  C5_5 
REMARK    4  A    between atoms: C5_5  and  C6_6 
REMARK    5  A    between atoms: C6_6  and  N1_7 
REMARK    6  A    between atoms: C20_22  and  O1_23 
ROOT
HETATM    1  N1  UNL     1       1.236  -1.333   0.577  1.00  0.00    -0.370 N 
ATOM      2  H1  UNL     1       1.330  -2.094   1.249  1.00  0.00     0.164 HD
HETATM    3  C7  UNL     1      -0.014  -1.074   0.156  1.00  0.00     0.040 C 
HETATM    4  C8  UNL     1      -0.650  -1.399  -1.140  1.00  0.00    -0.058 C 
HETATM    5  C9  UNL     1       0.082  -2.085  -2.206  1.00  0.00     0.045 C 
HETATM    6  C10 UNL     1      -1.452  -0.172  -1.581  1.00  0.00     0.041 C 
HETATM    7  C11 UNL     1      -2.180   0.328  -0.367  1.00  0.00     0.001 C 
HETATM    8  C12 UNL     1      -3.591   0.689  -0.839  1.00  0.00    -0.006 C 
HETATM    9  C13 UNL     1      -3.760   2.133  -1.281  1.00  0.00     0.006 C 
HETATM   10  C14 UNL     1      -4.954   2.250  -0.339  1.00  0.00     0.005 C 
HETATM   11  C15 UNL     1      -4.511   0.976   0.298  1.00  0.00    -0.010 C 
HETATM   12  C16 UNL     1      -3.756   1.262   1.582  1.00  0.00     0.010 C 
HETATM   13  C17 UNL     1      -2.847   0.147   1.958  1.00  0.00    -0.011 C 
HETATM   14  C18 UNL     1      -3.506  -0.851   2.891  1.00  0.00     0.010 C 
HETATM   15  C19 UNL     1      -2.350  -0.635   0.749  1.00  0.00     0.029 C 
HETATM   16  C20 UNL     1      -1.125  -1.358   1.209  1.00  0.00     0.172 C 
ENDROOT
BRANCH   1  17
HETATM   17  C6  UNL     1       2.408  -0.702   0.217  1.00  0.00     0.061 C 
BRANCH  17  18
HETATM   18  C5  UNL     1       3.026  -0.801  -1.117  1.00  0.00     0.044 C 
BRANCH  18  19
HETATM   19  C4  UNL     1       4.318   0.048  -1.175  1.00  0.00     0.005 C 
BRANCH  19  20
HETATM   20  C3  UNL     1       5.293  -0.431  -0.177  1.00  0.00     0.000 C 
BRANCH  20  21
HETATM   21  C2  UNL     1       6.553   0.452  -0.321  1.00  0.00    -0.005 C 
HETATM   22  C1  UNL     1       6.097   1.867  -0.041  1.00  0.00     0.005 C 
ENDBRANCH  20  21
ENDBRANCH  19  20
ENDBRANCH  18  19
ENDBRANCH  17  18
ENDBRANCH   1  17
BRANCH  16  23
HETATM   23  O1  UNL     1      -0.688  -1.045   2.469  1.00  0.00    -0.389 OA
ATOM     24  H1  UNL     1      -1.366  -1.218   3.112  1.00  0.00     0.210 HD
ENDBRANCH  16  23
TORSDOF 6
