REMARK  7 active torsions:
REMARK  status: ('A' for Active; 'I' for Inactive)
REMARK    1  A    between atoms: C2_2  and  C4_4 
REMARK    2  A    between atoms: C4_4  and  C5_5 
REMARK    3  A    between atoms: C5_5  and  C7_7 
REMARK    4  A    between atoms: C10_10  and  C11_11 
REMARK    5  A    between atoms: C11_11  and  N1_12 
REMARK       I    between atoms: N1_12  and  C12_14 
REMARK       I    between atoms: C12_14  and  N2_16 
REMARK    6  A    between atoms: N2_16  and  N3_18 
REMARK    7  A    between atoms: N3_18  and  C14_20 
ROOT
HETATM    1  C7  UNL     1      -2.649   0.433   1.000  1.00  0.00    -0.011 C 
HETATM    2  C8  UNL     1      -1.817   0.454  -0.256  1.00  0.00     0.005 C 
HETATM    3  C9  UNL     1      -0.534  -0.337  -0.074  1.00  0.00     0.006 C 
HETATM    4  C10 UNL     1       0.185   0.209   1.128  1.00  0.00     0.003 C 
HETATM    5  C17 UNL     1      -0.657   0.085   2.368  1.00  0.00     0.006 C 
HETATM    6  C18 UNL     1      -2.011  -0.482   2.005  1.00  0.00     0.005 C 
ENDROOT
BRANCH   4   7
HETATM    7  C11 UNL     1       1.543  -0.432   1.317  1.00  0.00     0.129 C 
BRANCH   7   8
HETATM    8  N1  UNL     1       2.348  -0.176   0.166  1.00  0.00    -0.341 N 
HETATM    9  C12 UNL     1       3.685  -0.655   0.013  1.00  0.00     0.334 C 
HETATM   10  O1  UNL     1       4.189  -1.345   0.948  1.00  0.00    -0.246 OA
HETATM   11  N2  UNL     1       4.417  -0.355  -1.169  1.00  0.00    -0.254 N 
ATOM     12  H2  UNL     1       3.936   0.214  -1.865  1.00  0.00     0.191 HD
ATOM     13  H1  UNL     1       1.946   0.380  -0.589  1.00  0.00     0.164 HD
BRANCH  11  14
HETATM   14  N3  UNL     1       5.672  -0.735  -1.475  1.00  0.00    -0.324 N 
HETATM   15  C13 UNL     1       5.960  -2.125  -1.491  1.00  0.00     0.171 C 
BRANCH  14  16
HETATM   16  C14 UNL     1       6.781   0.068  -1.202  1.00  0.00     0.093 C 
HETATM   17  C15 UNL     1       6.462   1.520  -0.929  1.00  0.00     0.033 C 
HETATM   18  C16 UNL     1       7.548  -0.440   0.021  1.00  0.00     0.033 C 
ENDBRANCH  14  16
ENDBRANCH  11  14
ENDBRANCH   7   8
ENDBRANCH   4   7
BRANCH   1  19
HETATM   19  C5  UNL     1      -4.081   0.038   0.710  1.00  0.00    -0.014 C 
HETATM   20  C6  UNL     1      -4.792  -0.100   2.018  1.00  0.00     0.010 C 
BRANCH  19  21
HETATM   21  C4  UNL     1      -4.707   1.005  -0.231  1.00  0.00     0.008 C 
BRANCH  21  22
HETATM   22  C2  UNL     1      -6.120   0.657  -0.607  1.00  0.00    -0.022 C 
HETATM   23  C1  UNL     1      -6.668   1.694  -1.565  1.00  0.00     0.009 C 
HETATM   24  C3  UNL     1      -6.180  -0.685  -1.301  1.00  0.00     0.009 C 
ENDBRANCH  21  22
ENDBRANCH  19  21
ENDBRANCH   1  19
TORSDOF 7
