REMARK  7 active torsions:
REMARK  status: ('A' for Active; 'I' for Inactive)
REMARK    1  A    between atoms: C2_2  and  C3_3 
REMARK    2  A    between atoms: C7_7  and  C8_8 
REMARK    3  A    between atoms: C8_8  and  C9_9 
REMARK    4  A    between atoms: C9_9  and  C10_10 
REMARK    5  A    between atoms: C10_10  and  C11_11 
REMARK    6  A    between atoms: C11_11  and  N1_12 
REMARK    7  A    between atoms: N1_12  and  C12_14 
ROOT
HETATM    1  C11 UNL     1       1.010  -0.748   0.420  1.00  0.00     0.114 C 
ENDROOT
BRANCH   1   2
HETATM    2  C10 UNL     1      -0.275  -1.257  -0.243  1.00  0.00     0.019 C 
BRANCH   2   3
HETATM    3  C9  UNL     1      -1.282  -1.428   0.868  1.00  0.00     0.004 C 
BRANCH   3   4
HETATM    4  C8  UNL     1      -2.597  -1.929   0.325  1.00  0.00     0.024 C 
BRANCH   4   5
HETATM    5  C7  UNL     1      -3.220  -1.024  -0.679  1.00  0.00     0.077 C 
HETATM    6  C6  UNL     1      -4.536  -1.556  -1.206  1.00  0.00     0.025 C 
HETATM    7  C5  UNL     1      -5.598  -1.545  -0.158  1.00  0.00     0.004 C 
HETATM    8  C4  UNL     1      -5.472  -0.449   0.847  1.00  0.00     0.024 C 
HETATM    9  C3  UNL     1      -4.548   0.651   0.468  1.00  0.00     0.076 C 
HETATM   10  N2  UNL     1      -3.352   0.298  -0.195  1.00  0.00    -0.413 N 
ATOM     11  H2  UNL     1      -2.603   0.979  -0.321  1.00  0.00     0.154 HD
BRANCH   9  12
HETATM   12  C2  UNL     1      -5.307   1.661  -0.364  1.00  0.00     0.020 C 
HETATM   13  C1  UNL     1      -6.467   2.233   0.421  1.00  0.00     0.007 C 
ENDBRANCH   9  12
ENDBRANCH   4   5
ENDBRANCH   3   4
ENDBRANCH   2   3
ENDBRANCH   1   2
BRANCH   1  14
HETATM   14  N1  UNL     1       1.978  -0.576  -0.594  1.00  0.00    -0.412 N 
ATOM     15  H1  UNL     1       1.763  -0.782  -1.570  1.00  0.00     0.154 HD
BRANCH  14  16
HETATM   16  C12 UNL     1       3.258  -0.107  -0.207  1.00  0.00     0.026 C 
HETATM   17  C13 UNL     1       3.093   1.286   0.388  1.00  0.00     0.035 C 
HETATM   18  C14 UNL     1       4.437   1.924   0.665  1.00  0.00    -0.012 C 
HETATM   19  C15 UNL     1       5.174   1.066   1.654  1.00  0.00     0.009 C 
HETATM   20  C19 UNL     1       5.173   2.009  -0.662  1.00  0.00     0.009 C 
HETATM   21  C16 UNL     1       5.326  -0.331   1.088  1.00  0.00    -0.012 C 
HETATM   22  C17 UNL     1       6.177  -0.233  -0.144  1.00  0.00     0.009 C 
HETATM   23  C21 UNL     1       3.964  -0.945   0.805  1.00  0.00     0.035 C 
HETATM   24  C18 UNL     1       5.443   0.616  -1.153  1.00  0.00    -0.012 C 
HETATM   25  C20 UNL     1       4.134  -0.056  -1.448  1.00  0.00     0.035 C 
ENDBRANCH  14  16
ENDBRANCH   1  14
TORSDOF 7
