REMARK  8 active torsions:
REMARK  status: ('A' for Active; 'I' for Inactive)
REMARK    1  A    between atoms: C2_2  and  C3_3 
REMARK    2  A    between atoms: C3_3  and  C4_4 
REMARK    3  A    between atoms: C4_4  and  C5_5 
REMARK    4  A    between atoms: C5_5  and  O1_6 
REMARK    5  A    between atoms: C9_11  and  N1_12 
REMARK    6  A    between atoms: N1_12  and  C10_14 
REMARK    7  A    between atoms: C10_14  and  C11_15 
REMARK    8  A    between atoms: C11_15  and  C12_16 
ROOT
HETATM    1  C4  UNL     1      -3.337  -0.212  -0.211  1.00  0.00    -0.010 C 
HETATM    2  C6  UNL     1      -3.137   0.875   0.799  1.00  0.00    -0.003 C 
HETATM    3  C7  UNL     1      -2.124   1.903   0.364  1.00  0.00     0.007 C 
HETATM    4  C8  UNL     1      -0.732   1.267   0.179  1.00  0.00     0.026 C 
HETATM    5  C9  UNL     1      -0.806  -0.161  -0.231  1.00  0.00     0.085 C 
HETATM    6  C19 UNL     1      -2.063  -0.826   0.307  1.00  0.00     0.019 C 
HETATM    7  C20 UNL     1      -2.348  -0.137   1.632  1.00  0.00     0.013 C 
ENDROOT
BRANCH   5   8
HETATM    8  N1  UNL     1       0.284  -0.955   0.162  1.00  0.00    -0.397 N 
ATOM      9  H1  UNL     1       0.102  -1.688   0.847  1.00  0.00     0.159 HD
BRANCH   8  10
HETATM   10  C10 UNL     1       1.578  -0.832  -0.296  1.00  0.00     0.056 C 
BRANCH  10  11
HETATM   11  C11 UNL     1       2.328   0.367   0.152  1.00  0.00     0.049 C 
BRANCH  11  12
HETATM   12  C12 UNL     1       3.750   0.395  -0.404  1.00  0.00    -0.005 C 
HETATM   13  C13 UNL     1       4.400   1.665   0.134  1.00  0.00     0.010 C 
HETATM   14  C14 UNL     1       5.709   1.136   0.668  1.00  0.00    -0.014 C 
HETATM   15  C15 UNL     1       6.489   0.606  -0.489  1.00  0.00     0.005 C 
HETATM   16  C18 UNL     1       5.233  -0.181   1.302  1.00  0.00     0.009 C 
HETATM   17  C16 UNL     1       5.839  -0.717  -0.887  1.00  0.00     0.005 C 
HETATM   18  C17 UNL     1       4.611  -0.738   0.005  1.00  0.00    -0.010 C 
ENDBRANCH  11  12
ENDBRANCH  10  11
ENDBRANCH   8  10
ENDBRANCH   5   8
BRANCH   1  19
HETATM   19  C3  UNL     1      -4.492  -1.094   0.169  1.00  0.00     0.012 C 
BRANCH  19  20
HETATM   20  C2  UNL     1      -5.835  -0.464  -0.105  1.00  0.00    -0.004 C 
HETATM   21  C1  UNL     1      -6.981  -1.363   0.293  1.00  0.00     0.005 C 
ENDBRANCH  19  20
ENDBRANCH   1  19
BRANCH   1  22
HETATM   22  C5  UNL     1      -3.283   0.187  -1.656  1.00  0.00     0.174 C 
BRANCH  22  23
HETATM   23  O1  UNL     1      -3.176  -0.899  -2.517  1.00  0.00    -0.400 OA
ATOM     24  H1  UNL     1      -3.142  -0.646  -3.432  1.00  0.00     0.209 HD
ENDBRANCH  22  23
ENDBRANCH   1  22
TORSDOF 8
