REMARK  12 active torsions:
REMARK  status: ('A' for Active; 'I' for Inactive)
REMARK    1  A    between atoms: O1_2  and  C2_3 
REMARK    2  A    between atoms: C2_3  and  C3_5 
REMARK    3  A    between atoms: C6_8  and  O3_9 
REMARK    4  A    between atoms: C7_11  and  N1_12 
REMARK    5  A    between atoms: N1_12  and  C8_13 
REMARK    6  A    between atoms: C9_15  and  O5_16 
REMARK    7  A    between atoms: O5_16  and  C10_17 
REMARK    8  A    between atoms: C12_19  and  N2_20 
REMARK    9  A    between atoms: C13_24  and  O6_25 
REMARK   10  A    between atoms: O6_25  and  C14_26 
REMARK   11  A    between atoms: C19_31  and  N3_32 
REMARK   12  A    between atoms: C21_37  and  N4_38 
ROOT
HETATM    1  C10 UNL     1       0.162  -0.923  -0.386  1.00  0.00     0.154 C 
HETATM    2  C11 UNL     1       0.748  -1.697   0.769  1.00  0.00     0.069 C 
HETATM    3  C12 UNL     1       1.759  -0.905   1.547  1.00  0.00     0.216 C 
HETATM    4  C13 UNL     1       2.845  -0.300   0.765  1.00  0.00     0.182 C 
HETATM    5  C19 UNL     1       3.284  -1.138  -0.413  1.00  0.00     0.216 C 
HETATM    6  C20 UNL     1       2.447  -0.790  -1.575  1.00  0.00     0.070 C 
HETATM    7  C21 UNL     1       1.000  -0.963  -1.600  1.00  0.00     0.214 C 
ENDROOT
BRANCH   1   8
HETATM    8  O5  UNL     1      -1.116  -1.338  -0.730  1.00  0.00    -0.375 OA
BRANCH   8   9
HETATM    9  C9  UNL     1      -2.193  -0.634  -0.344  1.00  0.00     0.161 C 
HETATM   10  C7  UNL     1      -3.239  -1.438   0.467  1.00  0.00     0.223 C 
HETATM   11  C6  UNL     1      -4.507  -1.579  -0.428  1.00  0.00     0.157 C 
HETATM   12  C5  UNL     1      -5.116  -0.195  -0.441  1.00  0.00     0.054 C 
HETATM   13  C3  UNL     1      -4.186   0.712  -1.147  1.00  0.00     0.049 C 
HETATM   14  C4  UNL     1      -3.933   1.919  -0.276  1.00  0.00     0.026 C 
HETATM   15  C22 UNL     1      -2.850   0.100  -1.462  1.00  0.00     0.054 C 
BRANCH  10  16
HETATM   16  N1  UNL     1      -2.815  -2.628   0.916  1.00  0.00    -0.412 NA
BRANCH  16  17
HETATM   17  C8  UNL     1      -2.382  -3.844   1.376  1.00  0.00     0.435 C 
HETATM   18  O4  UNL     1      -2.277  -4.322   2.533  1.00  0.00    -0.269 OA
ENDBRANCH  16  17
ENDBRANCH  10  16
BRANCH  11  19
HETATM   19  O3  UNL     1      -5.374  -2.403   0.244  1.00  0.00    -0.392 OA
ATOM     20  H3  UNL     1      -4.991  -3.273   0.252  1.00  0.00     0.210 HD
ENDBRANCH  11  19
BRANCH  13  21
HETATM   21  C2  UNL     1      -4.846   1.212  -2.398  1.00  0.00     0.267 C 
HETATM   22  O2  UNL     1      -5.991   0.863  -2.769  1.00  0.00    -0.264 OA
BRANCH  21  23
HETATM   23  O1  UNL     1      -4.181   2.121  -3.228  1.00  0.00    -0.326 OA
HETATM   24  C1  UNL     1      -4.739   2.637  -4.421  1.00  0.00     0.213 C 
ENDBRANCH  21  23
ENDBRANCH  13  21
ENDBRANCH   8   9
ENDBRANCH   1   8
BRANCH   7  25
HETATM   25  N4  UNL     1       0.516   0.183  -2.441  1.00  0.00    -0.072 N 
ATOM     26  H43 UNL     1      -0.486   0.164  -2.629  1.00  0.00     0.274 HD
ATOM     27  H42 UNL     1       0.527   1.083  -1.960  1.00  0.00     0.274 HD
ATOM     28  H41 UNL     1       1.095   0.155  -3.280  1.00  0.00     0.274 HD
ENDBRANCH   7  25
BRANCH   3  29
HETATM   29  N2  UNL     1       2.335  -1.822   2.533  1.00  0.00    -0.072 N 
ATOM     30  H23 UNL     1       1.635  -2.273   3.122  1.00  0.00     0.274 HD
ATOM     31  H22 UNL     1       2.719  -2.671   2.119  1.00  0.00     0.274 HD
ATOM     32  H21 UNL     1       3.022  -1.284   3.061  1.00  0.00     0.274 HD
ENDBRANCH   3  29
BRANCH   4  33
HETATM   33  O6  UNL     1       3.835   0.068   1.635  1.00  0.00    -0.376 OA
BRANCH  33  34
HETATM   34  C14 UNL     1       4.180   1.378   1.645  1.00  0.00     0.122 C 
HETATM   35  C15 UNL     1       5.671   1.483   1.450  1.00  0.00     0.032 C 
HETATM   36  C16 UNL     1       6.032   2.846   1.899  1.00  0.00     0.002 C 
HETATM   37  C17 UNL     1       4.962   3.286   2.837  1.00  0.00     0.002 C 
HETATM   38  C18 UNL     1       4.027   2.077   2.998  1.00  0.00     0.032 C 
ENDBRANCH  33  34
ENDBRANCH   4  33
BRANCH   5  39
HETATM   39  N3  UNL     1       3.507  -2.513  -0.142  1.00  0.00    -0.072 N 
ATOM     40  H33 UNL     1       4.174  -2.613   0.623  1.00  0.00     0.274 HD
ATOM     41  H32 UNL     1       2.676  -2.922   0.286  1.00  0.00     0.274 HD
ATOM     42  H31 UNL     1       3.803  -3.079  -0.937  1.00  0.00     0.274 HD
ENDBRANCH   5  39
TORSDOF 12
