REMARK  14 active torsions:
REMARK  status: ('A' for Active; 'I' for Inactive)
REMARK    1  A    between atoms: C1_2  and  O3_4 
REMARK    2  A    between atoms: O3_4  and  C2_5 
REMARK    3  A    between atoms: C3_6  and  O4_7 
REMARK    4  A    between atoms: C4_9  and  O5_10 
REMARK    5  A    between atoms: C5_12  and  O6_13 
REMARK    6  A    between atoms: C6_15  and  O7_16 
REMARK    7  A    between atoms: C6_15  and  C7_18 
REMARK    8  A    between atoms: N1_23  and  C11_24 
REMARK    9  A    between atoms: C11_24  and  C12_25 
REMARK   10  A    between atoms: C12_25  and  C13_26 
REMARK   11  A    between atoms: C13_26  and  C14_27 
REMARK   12  A    between atoms: C14_27  and  C15_28 
REMARK   13  A    between atoms: C15_28  and  N2_29 
REMARK   14  A    between atoms: C21_35  and  O9_36 
ROOT
HETATM    1  C2  UNL     1       4.745  -0.154  -0.572  1.00  0.00     0.198 C 
HETATM    2  C3  UNL     1       5.136   1.231  -0.887  1.00  0.00     0.181 C 
HETATM    3  C4  UNL     1       3.975   2.141  -1.029  1.00  0.00     0.181 C 
HETATM    4  C5  UNL     1       2.906   2.020   0.030  1.00  0.00     0.188 C 
HETATM    5  C6  UNL     1       2.671   0.579   0.423  1.00  0.00     0.147 C 
HETATM    6  C21 UNL     1       3.248  -0.327  -0.652  1.00  0.00     0.189 C 
ENDROOT
BRANCH   5   7
HETATM    7  O7  UNL     1       3.444   0.323   1.549  1.00  0.00    -0.382 OA
ATOM      8  H7  UNL     1       3.296  -0.582   1.796  1.00  0.00     0.210 HD
ENDBRANCH   5   7
BRANCH   5   9
HETATM    9  C7  UNL     1       1.248   0.294   0.743  1.00  0.00     0.286 C 
HETATM   10  C8  UNL     1       0.785   1.198   1.898  1.00  0.00     0.206 C 
HETATM   11  O8  UNL     1       1.478   0.829   3.048  1.00  0.00    -0.387 OA
HETATM   12  C9  UNL     1       0.898  -0.364   3.476  1.00  0.00     0.198 C 
HETATM   13  C10 UNL     1       0.985  -1.444   2.439  1.00  0.00     0.299 C 
HETATM   14  N1  UNL     1       0.916  -1.024   1.084  1.00  0.00     0.100 N 
BRANCH  14  15
HETATM   15  C11 UNL     1      -0.404  -1.437   0.578  1.00  0.00     0.277 C 
BRANCH  15  16
HETATM   16  C12 UNL     1      -0.459  -1.567  -0.878  1.00  0.00     0.057 C 
BRANCH  16  17
HETATM   17  C13 UNL     1      -1.732  -2.044  -1.449  1.00  0.00    -0.027 C 
BRANCH  17  18
HETATM   18  C14 UNL     1      -2.997  -1.325  -1.352  1.00  0.00    -0.001 C 
BRANCH  18  19
HETATM   19  C15 UNL     1      -3.659  -1.032  -0.070  1.00  0.00     0.299 C 
BRANCH  19  20
HETATM   20  N2  UNL     1      -4.948  -0.374  -0.429  1.00  0.00     0.091 N 
HETATM   21  C16 UNL     1      -4.720   0.931  -1.003  1.00  0.00     0.272 C 
HETATM   22  C17 UNL     1      -5.945   1.768  -0.810  1.00  0.00     0.030 C 
HETATM   23  C18 UNL     1      -7.221   0.921  -0.883  1.00  0.00     0.003 C 
HETATM   24  C19 UNL     1      -7.178   0.004   0.323  1.00  0.00     0.030 C 
HETATM   25  C20 UNL     1      -5.741  -0.197   0.773  1.00  0.00     0.272 C 
ENDBRANCH  19  20
ENDBRANCH  18  19
ENDBRANCH  17  18
ENDBRANCH  16  17
ENDBRANCH  15  16
ENDBRANCH  14  15
ENDBRANCH   5   9
BRANCH   4  26
HETATM   26  O6  UNL     1       1.732   2.511  -0.607  1.00  0.00    -0.390 OA
ATOM     27  H6  UNL     1       1.059   2.435   0.059  1.00  0.00     0.210 HD
ENDBRANCH   4  26
BRANCH   6  28
HETATM   28  O9  UNL     1       2.719  -0.155  -1.896  1.00  0.00    -0.390 OA
ATOM     29  H9  UNL     1       1.777  -0.264  -1.946  1.00  0.00     0.210 HD
ENDBRANCH   6  28
BRANCH   3  30
HETATM   30  O5  UNL     1       4.482   3.461  -0.908  1.00  0.00    -0.390 OA
ATOM     31  H5  UNL     1       3.738   4.044  -0.999  1.00  0.00     0.210 HD
ENDBRANCH   3  30
BRANCH   1  32
HETATM   32  O3  UNL     1       5.430  -1.136  -1.326  1.00  0.00    -0.285 OA
BRANCH  32  33
HETATM   33  C1  UNL     1       6.257  -2.090  -0.752  1.00  0.00     0.333 C 
HETATM   34  O1  UNL     1       6.373  -2.039   0.521  1.00  0.00    -0.624 OA
HETATM   35  O2  UNL     1       6.933  -3.060  -1.499  1.00  0.00    -0.624 OA
ENDBRANCH  32  33
ENDBRANCH   1  32
BRANCH   2  36
HETATM   36  O4  UNL     1       6.047   1.691   0.099  1.00  0.00    -0.390 OA
ATOM     37  H4  UNL     1       6.299   2.584  -0.104  1.00  0.00     0.210 HD
ENDBRANCH   2  36
TORSDOF 14
