REMARK  11 active torsions:
REMARK  status: ('A' for Active; 'I' for Inactive)
REMARK    1  A    between atoms: C1_2  and  C2_4 
REMARK    2  A    between atoms: C3_6  and  O4_7 
REMARK    3  A    between atoms: O4_7  and  C4_8 
REMARK    4  A    between atoms: C4_8  and  C5_9 
REMARK    5  A    between atoms: C7_11  and  O5_12 
REMARK    6  A    between atoms: C8_14  and  O6_15 
REMARK    7  A    between atoms: C9_17  and  O7_18 
REMARK    8  A    between atoms: O7_18  and  C10_19 
REMARK    9  A    between atoms: C10_19  and  C11_20 
REMARK   10  A    between atoms: C19_28  and  O8_29 
REMARK   11  A    between atoms: C21_34  and  O11_35 
ROOT
HETATM    1  C5  UNL     1       2.635   0.495   0.445  1.00  0.00     0.151 C 
HETATM    2  C6  UNL     1       3.023   1.744  -0.298  1.00  0.00     0.068 C 
HETATM    3  C7  UNL     1       1.788   2.356  -0.973  1.00  0.00     0.154 C 
HETATM    4  C8  UNL     1       0.791   1.283  -1.318  1.00  0.00     0.202 C 
HETATM    5  C9  UNL     1       0.465   0.366  -0.185  1.00  0.00     0.291 C 
HETATM    6  O10 UNL     1       1.311   0.642   0.882  1.00  0.00    -0.351 OA
ENDROOT
BRANCH   5   7
HETATM    7  O7  UNL     1      -0.863   0.390   0.166  1.00  0.00    -0.356 OA
BRANCH   7   8
HETATM    8  C10 UNL     1      -1.485  -0.845   0.002  1.00  0.00     0.203 C 
BRANCH   8   9
HETATM    9  C11 UNL     1      -2.936  -0.736   0.407  1.00  0.00     0.148 C 
HETATM   10  C12 UNL     1      -3.667   0.327  -0.356  1.00  0.00     0.039 C 
HETATM   11  C13 UNL     1      -5.017  -0.231  -0.743  1.00  0.00    -0.003 C 
HETATM   12  C14 UNL     1      -5.973   0.832  -1.190  1.00  0.00     0.005 C 
HETATM   13  C18 UNL     1      -5.616  -0.920   0.461  1.00  0.00     0.045 C 
HETATM   14  C15 UNL     1      -7.078   1.121  -0.201  1.00  0.00     0.000 C 
HETATM   15  C16 UNL     1      -7.874  -0.121   0.136  1.00  0.00     0.001 C 
HETATM   16  C17 UNL     1      -7.013  -1.369   0.038  1.00  0.00     0.010 C 
HETATM   17  C19 UNL     1      -4.754  -2.087   0.841  1.00  0.00     0.261 C 
HETATM   18  O9  UNL     1      -3.528  -1.961   0.237  1.00  0.00    -0.354 OA
BRANCH  17  19
HETATM   19  O8  UNL     1      -4.558  -2.121   2.236  1.00  0.00    -0.371 OA
ATOM     20  H8  UNL     1      -4.012  -2.860   2.477  1.00  0.00     0.212 HD
ENDBRANCH  17  19
ENDBRANCH   8   9
ENDBRANCH   7   8
ENDBRANCH   5   7
BRANCH   4  21
HETATM   21  O6  UNL     1      -0.359   1.938  -1.790  1.00  0.00    -0.388 OA
ATOM     22  H6  UNL     1      -0.988   1.261  -2.008  1.00  0.00     0.210 HD
ENDBRANCH   4  21
BRANCH   3  23
HETATM   23  O5  UNL     1       2.183   2.948  -2.180  1.00  0.00    -0.393 OA
ATOM     24  H5  UNL     1       1.419   3.327  -2.598  1.00  0.00     0.210 HD
ENDBRANCH   3  23
BRANCH   1  25
HETATM   25  C4  UNL     1       3.515   0.246   1.639  1.00  0.00     0.203 C 
BRANCH  25  26
HETATM   26  O4  UNL     1       4.845   0.084   1.358  1.00  0.00    -0.359 OA
BRANCH  26  27
HETATM   27  C3  UNL     1       5.157  -0.974   0.534  1.00  0.00     0.263 C 
HETATM   28  O3  UNL     1       5.781  -0.486  -0.591  1.00  0.00    -0.343 OA
HETATM   29  C2  UNL     1       7.142  -0.512  -0.415  1.00  0.00     0.254 C 
HETATM   30  C21 UNL     1       7.464  -1.542   0.640  1.00  0.00     0.162 C 
HETATM   31  C20 UNL     1       6.123  -1.947   1.189  1.00  0.00     0.095 C 
BRANCH  29  32
HETATM   32  C1  UNL     1       7.610   0.834  -0.031  1.00  0.00     0.205 C 
HETATM   33  O1  UNL     1       8.823   1.027   0.180  1.00  0.00    -0.646 OA
HETATM   34  O2  UNL     1       6.721   1.875   0.094  1.00  0.00    -0.646 OA
ENDBRANCH  29  32
BRANCH  30  35
HETATM   35  O11 UNL     1       8.113  -2.606   0.021  1.00  0.00    -0.392 OA
ATOM     36  H11 UNL     1       8.316  -3.254   0.685  1.00  0.00     0.210 HD
ENDBRANCH  30  35
ENDBRANCH  26  27
ENDBRANCH  25  26
ENDBRANCH   1  25
TORSDOF 11
