REMARK  12 active torsions:
REMARK  status: ('A' for Active; 'I' for Inactive)
REMARK    1  A    between atoms: C4_4  and  C5_5 
REMARK    2  A    between atoms: C5_5  and  C6_6 
REMARK    3  A    between atoms: C7_8  and  N1_9 
REMARK    4  A    between atoms: N1_9  and  N3_12 
REMARK    5  A    between atoms: C9_17  and  O2_18 
REMARK    6  A    between atoms: O2_18  and  C10_19 
REMARK    7  A    between atoms: C13_22  and  O3_23 
REMARK    8  A    between atoms: O3_23  and  C14_24 
REMARK    9  A    between atoms: C17_28  and  O5_29 
REMARK   10  A    between atoms: C18_31  and  O6_32 
REMARK   11  A    between atoms: C19_34  and  O7_35 
REMARK   12  A    between atoms: C20_37  and  O8_38 
ROOT
HETATM    1  N1  UNL     1       2.952   1.983  -0.602  1.00  0.00    -0.181 N 
HETATM    2  C8  UNL     1       3.152   3.282  -1.098  1.00  0.00     0.204 C 
HETATM    3  N2  UNL     1       3.338   4.352  -1.500  1.00  0.00    -0.170 NA
ENDROOT
BRANCH   1   4
HETATM    4  C7  UNL     1       1.732   1.253  -0.609  1.00  0.00     0.288 C 
HETATM    5  O1  UNL     1       1.989  -0.007  -0.046  1.00  0.00    -0.353 OA
HETATM    6  C6  UNL     1       1.915   0.094   1.314  1.00  0.00     0.159 C 
HETATM    7  C20 UNL     1       0.522   0.261   1.815  1.00  0.00     0.179 C 
HETATM    8  C13 UNL     1      -0.325   1.068   0.841  1.00  0.00     0.189 C 
HETATM    9  C9  UNL     1       0.531   1.937  -0.055  1.00  0.00     0.204 C 
BRANCH   6  10
HETATM   10  C5  UNL     1       2.545  -1.129   1.921  1.00  0.00     0.062 C 
BRANCH  10  11
HETATM   11  C4  UNL     1       1.869  -2.347   1.475  1.00  0.00    -0.022 C 
HETATM   12  C2  UNL     1       2.541  -3.271   0.788  1.00  0.00    -0.091 C 
HETATM   13  C1  UNL     1       3.971  -3.043   0.487  1.00  0.00     0.042 C 
HETATM   14  C3  UNL     1       1.817  -4.485   0.358  1.00  0.00     0.042 C 
ENDBRANCH  10  11
ENDBRANCH   6  10
BRANCH   7  15
HETATM   15  O8  UNL     1       0.582   0.934   3.034  1.00  0.00    -0.390 OA
ATOM     16  H8  UNL     1      -0.306   1.040   3.353  1.00  0.00     0.210 HD
ENDBRANCH   7  15
BRANCH   8  17
HETATM   17  O3  UNL     1      -1.035   0.115   0.127  1.00  0.00    -0.348 OA
BRANCH  17  18
HETATM   18  C14 UNL     1      -2.383   0.072   0.362  1.00  0.00     0.292 C 
HETATM   19  O4  UNL     1      -2.766  -1.099   1.040  1.00  0.00    -0.351 OA
HETATM   20  C15 UNL     1      -2.390  -2.236   0.336  1.00  0.00     0.152 C 
HETATM   21  C16 UNL     1      -3.215  -3.394   0.851  1.00  0.00     0.042 C 
HETATM   22  C17 UNL     1      -2.654  -2.109  -1.140  1.00  0.00     0.178 C 
HETATM   23  C18 UNL     1      -3.693  -1.061  -1.420  1.00  0.00     0.183 C 
HETATM   24  C19 UNL     1      -3.143   0.266  -0.899  1.00  0.00     0.204 C 
BRANCH  22  25
HETATM   25  O5  UNL     1      -2.966  -3.321  -1.732  1.00  0.00    -0.390 OA
ATOM     26  H5  UNL     1      -3.133  -3.241  -2.664  1.00  0.00     0.210 HD
ENDBRANCH  22  25
BRANCH  23  27
HETATM   27  O6  UNL     1      -4.898  -1.357  -0.788  1.00  0.00    -0.390 OA
ATOM     28  H6  UNL     1      -5.555  -0.694  -0.965  1.00  0.00     0.210 HD
ENDBRANCH  23  27
BRANCH  24  29
HETATM   29  O7  UNL     1      -4.225   1.120  -0.641  1.00  0.00    -0.388 OA
ATOM     30  H7  UNL     1      -4.711   1.244  -1.448  1.00  0.00     0.210 HD
ENDBRANCH  24  29
ENDBRANCH  17  18
ENDBRANCH   8  17
BRANCH   9  31
HETATM   31  O2  UNL     1      -0.284   2.352  -1.082  1.00  0.00    -0.374 OA
BRANCH  31  32
HETATM   32  C10 UNL     1      -0.580   3.660  -1.211  1.00  0.00     0.114 C 
HETATM   33  C11 UNL     1      -2.038   4.004  -0.947  1.00  0.00     0.039 C 
HETATM   34  C12 UNL     1      -0.271   4.278  -2.555  1.00  0.00     0.039 C 
ENDBRANCH  31  32
ENDBRANCH   9  31
ENDBRANCH   1   4
BRANCH   1  35
HETATM   35  N3  UNL     1       4.119   1.371  -0.088  1.00  0.00    -0.236 N 
HETATM   36  N4  UNL     1       5.037   2.057   0.447  1.00  0.00    -0.330 N 
ATOM     37  H42 UNL     1       4.918   3.069   0.501  1.00  0.00     0.178 HD
ATOM     38  H41 UNL     1       5.879   1.616   0.818  1.00  0.00     0.178 HD
ATOM     39  H3  UNL     1       4.222   0.358  -0.150  1.00  0.00     0.208 HD
ENDBRANCH   1  35
TORSDOF 12
