REMARK  10 active torsions:
REMARK  status: ('A' for Active; 'I' for Inactive)
REMARK    1  A    between atoms: N2_3  and  C2_5 
REMARK    2  A    between atoms: C3_7  and  C4_8 
REMARK    3  A    between atoms: C4_8  and  C5_9 
REMARK       I    between atoms: C5_9  and  N3_11 
REMARK    4  A    between atoms: C6_13  and  C7_14 
REMARK    5  A    between atoms: C11_24  and  C12_25 
REMARK    6  A    between atoms: C12_25  and  N9_32 
REMARK    7  A    between atoms: N6_26  and  N7_28 
REMARK    8  A    between atoms: N9_32  and  C14_34 
REMARK    9  A    between atoms: C14_34  and  C15_35 
REMARK   10  A    between atoms: C18_38  and  N10_39 
ROOT
HETATM    1  N1  UNL     1      -1.989  -1.426  -4.904  1.00  0.00    -0.172 NA
HETATM    2  C1  UNL     1      -1.117  -1.030  -4.223  1.00  0.00     0.179 C 
HETATM    3  N2  UNL     1      -0.065  -0.573  -3.427  1.00  0.00    -0.300 N 
ATOM      4  H2  UNL     1       0.403   0.293  -3.697  1.00  0.00     0.174 HD
ENDROOT
BRANCH   3   5
HETATM    5  C2  UNL     1       0.396  -1.256  -2.247  1.00  0.00     0.245 C 
HETATM    6  O1  UNL     1       1.556  -0.617  -1.813  1.00  0.00    -0.332 OA
HETATM    7  C3  UNL     1       2.189  -1.339  -0.800  1.00  0.00     0.331 C 
HETATM    8  N5  UNL     1       1.251  -1.952   0.089  1.00  0.00    -0.047 N 
HETATM    9  C10 UNL     1       0.010  -1.218   0.167  1.00  0.00     0.252 C 
ATOM     10  H52 UNL     1       1.087  -2.927  -0.163  1.00  0.00     0.280 HD
ATOM     11  H51 UNL     1       1.657  -2.089   1.015  1.00  0.00     0.280 HD
HETATM   12  C11 UNL     1      -0.656  -1.340  -1.202  1.00  0.00     0.129 C 
BRANCH   7  13
HETATM   13  C4  UNL     1       3.158  -0.398  -0.114  1.00  0.00     0.164 C 
BRANCH  13  14
HETATM   14  C5  UNL     1       3.908  -1.028   0.989  1.00  0.00     0.225 C 
HETATM   15  O2  UNL     1       3.384  -1.117   2.151  1.00  0.00    -0.273 OA
HETATM   16  N3  UNL     1       5.202  -1.541   0.796  1.00  0.00    -0.334 N 
HETATM   17  C6  UNL     1       6.299  -0.968   1.026  1.00  0.00     0.128 C 
ATOM     18  H3  UNL     1       5.259  -2.490   0.426  1.00  0.00     0.168 HD
BRANCH  17  19
HETATM   19  C7  UNL     1       6.316   0.395   1.559  1.00  0.00     0.089 A 
HETATM   20  N4  UNL     1       5.302   1.190   1.863  1.00  0.00    -0.359 N 
HETATM   21  C8  UNL     1       5.520   2.379   2.328  1.00  0.00     0.096 A 
ATOM     22  H4  UNL     1       4.344   0.865   1.730  1.00  0.00     0.166 HD
HETATM   23  C9  UNL     1       6.824   2.771   2.489  1.00  0.00     0.069 A 
HETATM   24  S1  UNL     1       7.666   1.384   1.952  1.00  0.00    -0.082 SA
ENDBRANCH  17  19
ENDBRANCH  13  14
ENDBRANCH   7  13
BRANCH  12  25
HETATM   25  C12 UNL     1      -1.760  -0.361  -1.343  1.00  0.00     0.102 C 
HETATM   26  N6  UNL     1      -3.005  -0.736  -1.425  1.00  0.00    -0.288 N 
ATOM     27  H6  UNL     1      -3.732  -0.027  -1.522  1.00  0.00     0.188 HD
BRANCH  26  28
HETATM   28  N7  UNL     1      -3.372  -2.090  -1.383  1.00  0.00    -0.297 N 
HETATM   29  C13 UNL     1      -4.491  -2.433  -1.894  1.00  0.00     0.206 C 
HETATM   30  N8  UNL     1      -4.911  -3.790  -1.878  1.00  0.00    -0.095 NA
ATOM     31  H7  UNL     1      -2.759  -2.784  -0.954  1.00  0.00     0.187 HD
ENDBRANCH  26  28
BRANCH  25  32
HETATM   32  N9  UNL     1      -1.527   1.041  -1.387  1.00  0.00    -0.374 N 
ATOM     33  H9  UNL     1      -0.610   1.356  -1.702  1.00  0.00     0.161 HD
BRANCH  32  34
HETATM   34  C14 UNL     1      -2.483   2.047  -1.022  1.00  0.00     0.161 C 
BRANCH  34  35
HETATM   35  C15 UNL     1      -2.947   1.963   0.387  1.00  0.00    -0.025 A 
HETATM   36  C16 UNL     1      -2.130   2.344   1.445  1.00  0.00     0.014 A 
HETATM   37  C17 UNL     1      -2.581   2.265   2.744  1.00  0.00     0.048 A 
HETATM   38  C18 UNL     1      -3.850   1.809   3.036  1.00  0.00     0.098 A 
HETATM   39  N11 UNL     1      -4.644   1.440   2.017  1.00  0.00    -0.352 N 
HETATM   40  C19 UNL     1      -4.204   1.516   0.733  1.00  0.00     0.098 A 
ATOM     41  H11 UNL     1      -5.586   1.099   2.209  1.00  0.00     0.166 HD
BRANCH  38  42
HETATM   42  N10 UNL     1      -4.277   1.735   4.272  1.00  0.00    -0.385 N 
ATOM     43 2H10 UNL     1      -3.674   2.015   5.046  1.00  0.00     0.157 HD
ATOM     44 1H10 UNL     1      -5.215   1.398   4.488  1.00  0.00     0.157 HD
ENDBRANCH  38  42
ENDBRANCH  34  35
ENDBRANCH  32  34
ENDBRANCH  25  32
ENDBRANCH  12  25
ENDBRANCH   3   5
TORSDOF 10
