REMARK  4 active torsions:
REMARK  status: ('A' for Active; 'I' for Inactive)
REMARK    1  A    between atoms: C2_2  and  C3_3 
REMARK    2  A    between atoms: C14_15  and  C16_17 
REMARK    3  A    between atoms: C16_17  and  O1_18 
REMARK    4  A    between atoms: C17_20  and  O2_21 
ROOT
HETATM    1  C3  UNL     1      -3.390   0.356   2.055  1.00  0.00     0.137 C 
HETATM    2  C4  UNL     1      -4.813   0.717   2.051  1.00  0.00     0.060 C 
HETATM    3  N1  UNL     1      -5.946   1.013   2.067  1.00  0.00    -0.197 NA
ENDROOT
BRANCH   1   4
HETATM    4  C2  UNL     1      -2.954   0.120   0.590  1.00  0.00    -0.008 C 
HETATM    5  C1  UNL     1      -3.800  -0.992   0.106  1.00  0.00     0.021 C 
HETATM    6  C5  UNL     1      -3.297   1.431  -0.087  1.00  0.00     0.014 C 
HETATM    7  C6  UNL     1      -2.693   1.482  -1.434  1.00  0.00     0.002 C 
HETATM    8  C7  UNL     1      -1.211   1.242  -1.502  1.00  0.00     0.014 C 
HETATM    9  C8  UNL     1      -0.819  -0.079  -0.823  1.00  0.00    -0.012 C 
HETATM   10  C9  UNL     1      -1.418  -1.175  -1.703  1.00  0.00     0.021 C 
HETATM   11  C10 UNL     1      -1.491  -0.038   0.495  1.00  0.00    -0.065 C 
HETATM   12  C20 UNL     1       0.658  -0.249  -0.815  1.00  0.00    -0.028 C 
HETATM   13  C11 UNL     1      -0.802  -0.123   1.601  1.00  0.00    -0.022 C 
HETATM   14  C12 UNL     1       0.687  -0.282   1.664  1.00  0.00     0.033 C 
HETATM   15  C13 UNL     1       1.322   0.308   0.414  1.00  0.00     0.011 C 
HETATM   16  C14 UNL     1       2.783   0.123   0.529  1.00  0.00     0.008 C 
HETATM   17  C15 UNL     1       3.161  -0.016   2.027  1.00  0.00     0.020 C 
HETATM   18  C17 UNL     1       3.313  -1.114  -0.118  1.00  0.00     0.128 C 
HETATM   19  C18 UNL     1       2.292  -2.158  -0.429  1.00  0.00     0.033 C 
HETATM   20  C19 UNL     1       1.048  -1.672  -1.091  1.00  0.00     0.013 C 
HETATM   21  C21 UNL     1       1.178   0.535  -2.038  1.00  0.00     0.016 C 
BRANCH  16  22
HETATM   22  C16 UNL     1       3.634   1.292   0.084  1.00  0.00     0.176 C 
BRANCH  22  23
HETATM   23  O1  UNL     1       3.352   2.443   0.830  1.00  0.00    -0.400 OA
ATOM     24  H1  UNL     1       3.886   3.177   0.551  1.00  0.00     0.209 HD
ENDBRANCH  22  23
ENDBRANCH  16  22
BRANCH  18  25
HETATM   25  O2  UNL     1       4.285  -1.739   0.696  1.00  0.00    -0.395 OA
ATOM     26  H2  UNL     1       4.622  -2.526   0.284  1.00  0.00     0.210 HD
ENDBRANCH  18  25
ENDBRANCH   1   4
TORSDOF 4
