REMARK  4 active torsions:
REMARK  status: ('A' for Active; 'I' for Inactive)
REMARK    1  A    between atoms: S1_2  and  C2_3 
REMARK    2  A    between atoms: C5_6  and  O1_7 
REMARK    3  A    between atoms: O1_7  and  O2_8 
REMARK    4  A    between atoms: C9_13  and  O3_14 
ROOT
HETATM    1  C2  UNL     1       2.322  -0.381   0.441  1.00  0.00     0.074 C 
HETATM    2  C3  UNL     1       2.762  -0.121  -0.939  1.00  0.00    -0.013 C 
HETATM    3  C4  UNL     1       2.168   0.880  -1.563  1.00  0.00     0.006 C 
HETATM    4  C5  UNL     1       1.121   1.707  -0.940  1.00  0.00     0.191 C 
HETATM    5  C6  UNL     1       0.426   1.088   0.223  1.00  0.00    -0.003 C 
HETATM    6  C7  UNL     1       0.714   2.025   1.416  1.00  0.00     0.019 C 
HETATM    7  C8  UNL     1      -1.063   1.248   0.022  1.00  0.00     0.051 C 
HETATM    8  C9  UNL     1      -1.666   0.195  -0.839  1.00  0.00     0.066 C 
HETATM    9  C10 UNL     1      -3.173   0.306  -0.732  1.00  0.00     0.016 C 
HETATM   10  C11 UNL     1      -3.639   1.626  -0.218  1.00  0.00     0.013 C 
HETATM   11  C12 UNL     1      -3.624  -0.765   0.229  1.00  0.00     0.008 C 
HETATM   12  C13 UNL     1      -2.339  -1.197   0.904  1.00  0.00     0.009 C 
HETATM   13  C14 UNL     1      -1.381  -1.127  -0.278  1.00  0.00     0.028 C 
HETATM   14  C15 UNL     1       0.038  -1.432   0.097  1.00  0.00    -0.035 C 
HETATM   15  C16 UNL     1      -0.154  -2.529   1.170  1.00  0.00     0.016 C 
HETATM   16  C17 UNL     1       0.630  -2.183  -1.088  1.00  0.00     0.016 C 
HETATM   17  C18 UNL     1       0.829  -0.301   0.608  1.00  0.00     0.022 C 
ENDROOT
BRANCH   4  18
HETATM   18  O1  UNL     1       1.716   2.946  -0.649  1.00  0.00    -0.233 OA
BRANCH  18  19
HETATM   19  O2  UNL     1       1.275   3.934  -1.351  1.00  0.00    -0.250 OA
ATOM     20  H2  UNL     1       1.677   4.772  -1.154  1.00  0.00     0.253 HD
ENDBRANCH  18  19
ENDBRANCH   4  18
BRANCH   1  21
HETATM   21  S1  UNL     1       3.105  -1.779   1.218  1.00  0.00    -0.164 SA
HETATM   22  C1  UNL     1       4.859  -1.445   1.448  1.00  0.00     0.090 C 
ENDBRANCH   1  21
BRANCH   8  23
HETATM   23  O3  UNL     1      -1.330   0.247  -2.165  1.00  0.00    -0.389 OA
ATOM     24  H3  UNL     1      -1.715  -0.425  -2.715  1.00  0.00     0.210 HD
ENDBRANCH   8  23
TORSDOF 4
