REMARK  3 active torsions:
REMARK  status: ('A' for Active; 'I' for Inactive)
REMARK    1  A    between atoms: C8_11  and  C9_12 
REMARK    2  A    between atoms: C13_17  and  N3_18 
REMARK    3  A    between atoms: N3_18  and  C14_21 
ROOT
HETATM    1  C9  UNL     1      -0.552  -0.685  -0.795  1.00  0.00     0.080 C 
HETATM    2  C10 UNL     1      -0.583  -1.563  -1.957  1.00  0.00     0.071 C 
HETATM    3  N2  UNL     1      -0.721  -2.265  -2.852  1.00  0.00    -0.196 NA
HETATM    4  C11 UNL     1      -0.506   0.736  -1.248  1.00  0.00     0.029 C 
HETATM    5  C12 UNL     1      -1.477   1.530  -0.414  1.00  0.00     0.035 C 
HETATM    6  C13 UNL     1      -2.517   0.520  -0.033  1.00  0.00     0.188 C 
HETATM    7  C18 UNL     1      -1.846  -0.821   0.019  1.00  0.00     0.059 C 
ENDROOT
BRANCH   1   8
HETATM    8  C8  UNL     1       0.596  -0.966   0.101  1.00  0.00     0.219 C 
HETATM    9  N1  UNL     1       1.836  -0.989  -0.652  1.00  0.00    -0.050 N 
HETATM   10  C5  UNL     1       2.917  -1.043   0.333  1.00  0.00     0.174 C 
ATOM     11  H12 UNL     1       1.925  -0.213  -1.308  1.00  0.00     0.279 HD
ATOM     12  H11 UNL     1       1.878  -1.741  -1.340  1.00  0.00     0.279 HD
HETATM   13  C4  UNL     1       4.197  -1.541  -0.235  1.00  0.00     0.050 C 
HETATM   14  C6  UNL     1       2.972   0.285   0.994  1.00  0.00     0.050 C 
HETATM   15  S1  UNL     1       2.253  -2.355   1.426  1.00  0.00    -0.128 SA
HETATM   16  C3  UNL     1       5.054  -0.411  -0.734  1.00  0.00     0.007 C 
HETATM   17  C2  UNL     1       5.390   0.580   0.338  1.00  0.00    -0.019 C 
HETATM   18  C1  UNL     1       5.797   1.892  -0.327  1.00  0.00     0.010 C 
HETATM   19  C7  UNL     1       4.329   0.769   1.368  1.00  0.00     0.007 C 
HETATM   20  C19 UNL     1       0.547  -2.339   0.749  1.00  0.00     0.111 C 
ENDBRANCH   1   8
BRANCH   6  21
HETATM   21  N3  UNL     1      -3.624   0.443  -0.949  1.00  0.00    -0.063 N 
ATOM     22  H32 UNL     1      -3.589   1.200  -1.632  1.00  0.00     0.278 HD
ATOM     23  H31 UNL     1      -3.524  -0.352  -1.580  1.00  0.00     0.278 HD
BRANCH  21  24
HETATM   24  C14 UNL     1      -4.906   0.412  -0.269  1.00  0.00     0.115 C 
HETATM   25  C15 UNL     1      -5.943   0.100  -1.330  1.00  0.00     0.045 C 
HETATM   26  C16 UNL     1      -4.981  -0.698   0.755  1.00  0.00     0.045 C 
HETATM   27  C17 UNL     1      -5.172   1.726   0.424  1.00  0.00     0.045 C 
ENDBRANCH  21  24
ENDBRANCH   6  21
TORSDOF 3
