REMARK  3 active torsions:
REMARK  status: ('A' for Active; 'I' for Inactive)
REMARK    1  A    between atoms: N1_1  and  C1_4 
REMARK    2  A    between atoms: C2_7  and  C3_8 
REMARK    3  A    between atoms: N4_20  and  C12_21 
ROOT
HETATM    1  C1  UNL     1       3.088  -1.005   0.444  1.00  0.00     0.114 A 
HETATM    2  N2  UNL     1       4.417  -0.703   0.313  1.00  0.00    -0.331 N 
ATOM      3  H2  UNL     1       5.081  -1.377   0.693  1.00  0.00     0.168 HD
HETATM    4  C2  UNL     1       4.923   0.371  -0.255  1.00  0.00     0.087 A 
HETATM    5  N3  UNL     1       4.047   1.253  -0.752  1.00  0.00    -0.339 N 
ATOM      6  H3  UNL     1       4.386   2.103  -1.202  1.00  0.00     0.168 HD
HETATM    7  C6  UNL     1       2.699   1.024  -0.661  1.00  0.00     0.090 A 
HETATM    8  S1  UNL     1       1.332   1.912  -1.178  1.00  0.00    -0.070 SA
HETATM    9  C7  UNL     1       0.107   0.883  -0.653  1.00  0.00     0.029 A 
HETATM   10  C8  UNL     1       0.811  -0.179  -0.059  1.00  0.00    -0.021 A 
HETATM   11  C9  UNL     1       2.149  -0.087  -0.074  1.00  0.00     0.049 A 
HETATM   12  C10 UNL     1      -0.197  -1.184   0.476  1.00  0.00     0.061 C 
HETATM   13  C11 UNL     1      -1.095  -0.328   1.381  1.00  0.00     0.127 C 
HETATM   14  N4  UNL     1      -1.909   0.469   0.567  1.00  0.00    -0.384 N 
HETATM   15  C18 UNL     1      -1.408   0.850  -0.683  1.00  0.00     0.105 C 
ENDROOT
BRANCH  14  16
HETATM   16  C12 UNL     1      -3.298   0.428   0.764  1.00  0.00     0.083 C 
HETATM   17  C13 UNL     1      -3.942  -0.915   0.518  1.00  0.00     0.025 C 
HETATM   18  C14 UNL     1      -4.513  -1.044  -0.878  1.00  0.00     0.002 C 
HETATM   19  C15 UNL     1      -5.747  -0.174  -0.946  1.00  0.00     0.000 C 
HETATM   20  C16 UNL     1      -5.544   1.016  -0.035  1.00  0.00     0.002 C 
HETATM   21  C17 UNL     1      -4.074   1.449  -0.011  1.00  0.00     0.025 C 
ENDBRANCH  14  16
BRANCH   1  22
HETATM   22  N1  UNL     1       2.857  -2.091   1.016  1.00  0.00    -0.385 N 
ATOM     23  H12 UNL     1       3.535  -2.754   1.390  1.00  0.00     0.157 HD
ATOM     24  H11 UNL     1       1.867  -2.316   1.114  1.00  0.00     0.157 HD
ENDBRANCH   1  22
BRANCH   4  25
HETATM   25  C3  UNL     1       6.379   0.644  -0.367  1.00  0.00     0.053 A 
HETATM   26  C4  UNL     1       7.334   0.055   0.602  1.00  0.00     0.013 A 
HETATM   27  C5  UNL     1       7.195  -0.591  -0.731  1.00  0.00     0.013 A 
ENDBRANCH   4  25
TORSDOF 3
