REMARK  4 active torsions:
REMARK  status: ('A' for Active; 'I' for Inactive)
REMARK    1  A    between atoms: C2_2  and  C3_3 
REMARK    2  A    between atoms: C7_7  and  N1_8 
REMARK    3  A    between atoms: N1_8  and  C8_10 
REMARK    4  A    between atoms: C13_18  and  O1_19 
ROOT
HETATM    1  C3  UNL     1       2.903  -0.202   0.663  1.00  0.00    -0.027 C 
HETATM    2  C4  UNL     1       2.797   0.402   2.048  1.00  0.00     0.019 C 
HETATM    3  C5  UNL     1       2.346  -1.592   0.586  1.00  0.00     0.017 C 
HETATM    4  C6  UNL     1       0.872  -1.677   0.752  1.00  0.00     0.055 C 
HETATM    5  C7  UNL     1       0.114  -1.393  -0.552  1.00  0.00     0.111 C 
HETATM    6  N2  UNL     1      -0.977  -2.266  -0.625  1.00  0.00    -0.376 N 
ATOM      7  H2  UNL     1      -0.809  -3.272  -0.622  1.00  0.00     0.161 HD
HETATM    8  C9  UNL     1      -2.282  -1.798  -0.701  1.00  0.00     0.063 C 
HETATM    9  C10 UNL     1      -2.484  -0.368  -1.072  1.00  0.00     0.029 C 
HETATM   10  C11 UNL     1      -3.920   0.025  -0.885  1.00  0.00     0.013 C 
HETATM   11  C12 UNL     1      -4.096   1.538  -0.824  1.00  0.00     0.032 C 
HETATM   12  C13 UNL     1      -3.238   2.016   0.330  1.00  0.00     0.118 C 
HETATM   13  C14 UNL     1      -1.794   1.866  -0.147  1.00  0.00     0.038 C 
HETATM   14  C15 UNL     1      -1.523   0.410  -0.234  1.00  0.00     0.009 C 
HETATM   15  C16 UNL     1      -0.140   0.059  -0.730  1.00  0.00     0.004 C 
HETATM   16  C17 UNL     1      -0.094   0.422  -2.220  1.00  0.00     0.020 C 
HETATM   17  C18 UNL     1       0.834   0.960  -0.037  1.00  0.00     0.015 C 
HETATM   18  C19 UNL     1       2.259   0.725  -0.347  1.00  0.00     0.014 C 
ENDROOT
BRANCH   5  19
HETATM   19  N1  UNL     1       1.054  -1.800  -1.614  1.00  0.00    -0.363 N 
ATOM     20  H1  UNL     1       1.772  -1.144  -1.922  1.00  0.00     0.162 HD
BRANCH  19  21
HETATM   21  C8  UNL     1       0.990  -2.948  -2.153  1.00  0.00     0.167 C 
HETATM   22  S1  UNL     1       1.287  -4.537  -2.361  1.00  0.00    -0.075 SA
ENDBRANCH  19  21
ENDBRANCH   5  19
BRANCH   1  23
HETATM   23  C2  UNL     1       4.353  -0.254   0.325  1.00  0.00    -0.028 C 
HETATM   24  C1  UNL     1       5.138   0.807   0.491  1.00  0.00     0.007 C 
ENDBRANCH   1  23
BRANCH  12  25
HETATM   25  O1  UNL     1      -3.527   3.297   0.732  1.00  0.00    -0.396 OA
ATOM     26  H1  UNL     1      -2.989   3.597   1.455  1.00  0.00     0.210 HD
ENDBRANCH  12  25
TORSDOF 4
