REMARK  16 active torsions:
REMARK  status: ('A' for Active; 'I' for Inactive)
REMARK    1  A    between atoms: C2_2  and  C3_3 
REMARK    2  A    between atoms: C3_3  and  C4_4 
REMARK    3  A    between atoms: C4_4  and  O2_6 
REMARK    4  A    between atoms: O2_6  and  C5_7 
REMARK    5  A    between atoms: C5_7  and  C8_10 
REMARK    6  A    between atoms: C8_10  and  C9_11 
REMARK    7  A    between atoms: C9_11  and  O4_13 
REMARK    8  A    between atoms: O4_13  and  C10_14 
REMARK    9  A    between atoms: C10_14  and  C21_25 
REMARK   10  A    between atoms: C11_15  and  C12_16 
REMARK   11  A    between atoms: C13_17  and  C15_19 
REMARK   12  A    between atoms: C15_19  and  C16_20 
REMARK   13  A    between atoms: C16_20  and  C17_21 
REMARK   14  A    between atoms: C17_21  and  C18_22 
REMARK   15  A    between atoms: C25_29  and  C27_31 
REMARK   16  A    between atoms: C30_36  and  O7_37 
ROOT
HETATM    1  C10 UNL     1      -0.510   0.484  -1.019  1.00  0.00     0.061 C 
HETATM    2  C11 UNL     1      -1.686  -0.148  -1.223  1.00  0.00     0.033 C 
ENDROOT
BRANCH   1   3
HETATM    3  O4  UNL     1       0.653  -0.197  -0.968  1.00  0.00    -0.283 OA
BRANCH   3   4
HETATM    4  C9  UNL     1       1.339  -0.931  -0.078  1.00  0.00     0.266 C 
HETATM    5  O3  UNL     1       0.861  -1.110   1.093  1.00  0.00    -0.265 OA
BRANCH   4   6
HETATM    6  C8  UNL     1       2.653  -1.538  -0.431  1.00  0.00     0.149 C 
BRANCH   6   7
HETATM    7  C5  UNL     1       3.751  -1.313   0.542  1.00  0.00     0.072 C 
HETATM    8  C6  UNL     1       3.453  -1.659   1.967  1.00  0.00     0.047 C 
HETATM    9  C7  UNL     1       4.129   0.196   0.563  1.00  0.00     0.047 C 
BRANCH   7  10
HETATM   10  O2  UNL     1       4.935  -1.932   0.093  1.00  0.00    -0.310 OA
BRANCH  10  11
HETATM   11  C4  UNL     1       5.185  -3.285   0.074  1.00  0.00     0.259 C 
HETATM   12  O1  UNL     1       4.288  -4.054   0.495  1.00  0.00    -0.265 OA
BRANCH  11  13
HETATM   13  C3  UNL     1       6.514  -3.769  -0.446  1.00  0.00     0.111 C 
BRANCH  13  14
HETATM   14  C2  UNL     1       7.558  -3.707   0.627  1.00  0.00     0.005 C 
HETATM   15  C1  UNL     1       8.910  -4.180   0.116  1.00  0.00     0.005 C 
ENDBRANCH  13  14
ENDBRANCH  11  13
ENDBRANCH  10  11
ENDBRANCH   7  10
ENDBRANCH   6   7
ENDBRANCH   4   6
ENDBRANCH   3   4
ENDBRANCH   1   3
BRANCH   1  16
HETATM   16  C21 UNL     1      -0.616   1.922  -0.884  1.00  0.00     0.054 C 
HETATM   17  C22 UNL     1       0.331   2.639  -1.894  1.00  0.00     0.013 C 
HETATM   18  C23 UNL     1       0.543   4.029  -1.292  1.00  0.00     0.007 C 
HETATM   19  C24 UNL     1      -0.507   4.058  -0.217  1.00  0.00     0.015 C 
HETATM   20  C25 UNL     1      -0.574   5.202   0.657  1.00  0.00     0.049 C 
HETATM   21  C31 UNL     1      -0.308   2.660   0.379  1.00  0.00    -0.004 C 
HETATM   22  C26 UNL     1      -1.222   6.350  -0.151  1.00  0.00     0.027 C 
HETATM   23  C28 UNL     1      -1.522   4.936   1.807  1.00  0.00     0.023 C 
HETATM   24  C29 UNL     1      -1.249   3.590   2.439  1.00  0.00     0.034 C 
HETATM   25  C30 UNL     1      -1.351   2.472   1.434  1.00  0.00     0.127 C 
HETATM   26  C32 UNL     1       1.080   2.461   0.848  1.00  0.00     0.019 C 
BRANCH  20  27
HETATM   27  C27 UNL     1       0.648   5.791   1.203  1.00  0.00     0.181 C 
HETATM   28  O5  UNL     1       0.851   5.922   2.450  1.00  0.00    -0.647 OA
HETATM   29  O6  UNL     1       1.654   6.245   0.372  1.00  0.00    -0.647 OA
ENDBRANCH  20  27
BRANCH  25  30
HETATM   30  O7  UNL     1      -2.603   2.507   0.828  1.00  0.00    -0.395 OA
ATOM     31  H7  UNL     1      -2.667   1.802   0.194  1.00  0.00     0.210 HD
ENDBRANCH  25  30
ENDBRANCH   1  16
BRANCH   2  32
HETATM   32  C12 UNL     1      -1.831  -1.577  -1.400  1.00  0.00     0.005 C 
HETATM   33  C13 UNL     1      -3.039  -2.125  -1.605  1.00  0.00    -0.083 C 
HETATM   34  C14 UNL     1      -4.255  -1.276  -1.659  1.00  0.00     0.043 C 
BRANCH  33  35
HETATM   35  C15 UNL     1      -3.170  -3.578  -1.791  1.00  0.00     0.045 C 
BRANCH  35  36
HETATM   36  C16 UNL     1      -3.998  -4.277  -0.712  1.00  0.00     0.084 C 
BRANCH  36  37
HETATM   37  C17 UNL     1      -5.327  -3.909  -0.514  1.00  0.00    -0.179 C 
BRANCH  37  38
HETATM   38  C18 UNL     1      -6.547  -3.572  -0.331  1.00  0.00     0.044 C 
HETATM   39  C19 UNL     1      -7.531  -3.941  -1.432  1.00  0.00     0.022 C 
HETATM   40  C20 UNL     1      -7.129  -2.835   0.846  1.00  0.00     0.022 C 
ENDBRANCH  37  38
ENDBRANCH  36  37
ENDBRANCH  35  36
ENDBRANCH  33  35
ENDBRANCH   2  32
TORSDOF 16
