REMARK  15 active torsions:
REMARK  status: ('A' for Active; 'I' for Inactive)
REMARK    1  A    between atoms: C2_2  and  C3_3 
REMARK    2  A    between atoms: C6_6  and  O1_8 
REMARK    3  A    between atoms: C8_10  and  C9_11 
REMARK    4  A    between atoms: C10_12  and  C11_13 
REMARK    5  A    between atoms: C11_13  and  C12_14 
REMARK    6  A    between atoms: C12_14  and  C13_15 
REMARK    7  A    between atoms: C12_14  and  C21_23 
REMARK    8  A    between atoms: C13_15  and  C15_17 
REMARK    9  A    between atoms: C15_17  and  C16_18 
REMARK   10  A    between atoms: C17_19  and  C18_20 
REMARK   11  A    between atoms: C22_25  and  C23_26 
REMARK   12  A    between atoms: C23_26  and  C24_27 
REMARK   13  A    between atoms: C28_31  and  O3_32 
REMARK   14  A    between atoms: C31_37  and  C32_38 
REMARK   15  A    between atoms: C32_38  and  O6_40 
ROOT
HETATM    1  C12 UNL     1       0.522   0.186  -0.260  1.00  0.00     0.029 C 
ENDROOT
BRANCH   1   2
HETATM    2  C11 UNL     1      -0.730   0.346  -1.112  1.00  0.00     0.035 C 
BRANCH   2   3
HETATM    3  C10 UNL     1      -1.918   0.770  -0.319  1.00  0.00    -0.030 C 
HETATM    4  C9  UNL     1      -2.980   0.001  -0.287  1.00  0.00    -0.022 C 
BRANCH   4   5
HETATM    5  C8  UNL     1      -4.206   0.377   0.496  1.00  0.00     0.056 C 
HETATM    6  C6  UNL     1      -4.425  -0.516   1.659  1.00  0.00     0.062 C 
HETATM    7  C5  UNL     1      -5.822  -0.888   1.989  1.00  0.00     0.038 C 
HETATM    8  C7  UNL     1      -3.762   0.141   2.883  1.00  0.00     0.046 C 
HETATM    9  C4  UNL     1      -6.903  -0.014   1.486  1.00  0.00     0.008 C 
HETATM   10  C3  UNL     1      -6.606   0.823   0.292  1.00  0.00    -0.001 C 
HETATM   11  C31 UNL     1      -5.370   0.486  -0.467  1.00  0.00     0.100 C 
BRANCH   6  12
HETATM   12  O1  UNL     1      -3.716  -1.740   1.530  1.00  0.00    -0.390 OA
ATOM     13  H1  UNL     1      -2.821  -1.502   1.319  1.00  0.00     0.210 HD
ENDBRANCH   6  12
BRANCH  10  14
HETATM   14  C2  UNL     1      -7.802   1.084  -0.583  1.00  0.00     0.001 C 
HETATM   15  C1  UNL     1      -8.468  -0.111  -1.156  1.00  0.00     0.005 C 
ENDBRANCH  10  14
BRANCH  11  16
HETATM   16  C32 UNL     1      -5.446  -0.615  -1.418  1.00  0.00     0.263 C 
HETATM   17  O5  UNL     1      -5.248  -0.393  -2.669  1.00  0.00    -0.265 OA
BRANCH  16  18
HETATM   18  O6  UNL     1      -5.720  -1.931  -1.097  1.00  0.00    -0.326 OA
HETATM   19  C33 UNL     1      -5.761  -2.893  -2.129  1.00  0.00     0.213 C 
ENDBRANCH  16  18
ENDBRANCH  11  16
ENDBRANCH   4   5
ENDBRANCH   2   3
ENDBRANCH   1   2
BRANCH   1  20
HETATM   20  C13 UNL     1       0.861   1.472   0.360  1.00  0.00    -0.008 C 
HETATM   21  C14 UNL     1       1.148   2.606  -0.583  1.00  0.00     0.011 C 
BRANCH  20  22
HETATM   22  C15 UNL     1       1.899   1.460   1.447  1.00  0.00     0.031 C 
BRANCH  22  23
HETATM   23  C16 UNL     1       2.115   2.854   1.983  1.00  0.00    -0.030 C 
HETATM   24  C17 UNL     1       3.229   3.518   1.977  1.00  0.00    -0.027 C 
BRANCH  24  25
HETATM   25  C18 UNL     1       4.546   3.111   1.465  1.00  0.00    -0.001 C 
HETATM   26  C19 UNL     1       5.000   4.200   0.482  1.00  0.00     0.013 C 
HETATM   27  C20 UNL     1       5.595   3.111   2.563  1.00  0.00     0.013 C 
ENDBRANCH  24  25
ENDBRANCH  22  23
ENDBRANCH  20  22
ENDBRANCH   1  20
BRANCH   1  28
HETATM   28  C21 UNL     1       1.552  -0.636  -0.919  1.00  0.00     0.196 C 
HETATM   29  O2  UNL     1       2.721  -0.827  -0.182  1.00  0.00    -0.370 OA
HETATM   30  C22 UNL     1       3.482  -1.728  -0.928  1.00  0.00     0.155 C 
HETATM   31  C28 UNL     1       4.278  -0.899  -1.904  1.00  0.00     0.154 C 
HETATM   32  C29 UNL     1       3.289  -0.182  -2.800  1.00  0.00     0.115 C 
HETATM   33  C30 UNL     1       1.887  -0.322  -2.323  1.00  0.00     0.158 C 
HETATM   34  O4  UNL     1       0.998  -0.170  -3.134  1.00  0.00    -0.295 OA
BRANCH  30  35
HETATM   35  C23 UNL     1       4.346  -2.599  -0.047  1.00  0.00     0.061 C 
BRANCH  35  36
HETATM   36  C24 UNL     1       5.111  -3.528  -0.918  1.00  0.00    -0.022 C 
HETATM   37  C25 UNL     1       6.437  -3.547  -0.920  1.00  0.00    -0.091 C 
HETATM   38  C26 UNL     1       7.171  -4.494  -1.810  1.00  0.00     0.042 C 
HETATM   39  C27 UNL     1       7.241  -2.647  -0.054  1.00  0.00     0.042 C 
ENDBRANCH  35  36
ENDBRANCH  30  35
BRANCH  31  40
HETATM   40  O3  UNL     1       5.079   0.040  -1.214  1.00  0.00    -0.393 OA
ATOM     41  H3  UNL     1       5.581   0.562  -1.829  1.00  0.00     0.210 HD
ENDBRANCH  31  40
ENDBRANCH   1  28
TORSDOF 15
