REMARK  13 active torsions:
REMARK  status: ('A' for Active; 'I' for Inactive)
REMARK    1  A    between atoms: C2_2  and  C3_6 
REMARK    2  A    between atoms: C3_6  and  C4_7 
REMARK    3  A    between atoms: C4_7  and  C5_8 
REMARK    4  A    between atoms: C5_8  and  O2_10 
REMARK    5  A    between atoms: O2_10  and  C6_11 
REMARK    6  A    between atoms: C18_24  and  C19_25 
REMARK    7  A    between atoms: C19_25  and  C21_27 
REMARK    8  A    between atoms: C21_27  and  C22_28 
REMARK    9  A    between atoms: C22_28  and  C23_29 
REMARK   10  A    between atoms: C23_29  and  C24_30 
REMARK   11  A    between atoms: C24_30  and  C26_32 
REMARK   12  A    between atoms: C26_32  and  O4_33 
REMARK   13  A    between atoms: O4_33  and  C27_34 
ROOT
HETATM    1  C6  UNL     1       4.746   1.009   1.490  1.00  0.00     0.206 C 
HETATM    2  C7  UNL     1       4.137   0.906   2.819  1.00  0.00     0.156 C 
HETATM    3  O3  UNL     1       4.529   1.634   3.703  1.00  0.00    -0.295 OA
HETATM    4  C8  UNL     1       3.055  -0.089   3.049  1.00  0.00     0.082 C 
HETATM    5  C9  UNL     1       3.198  -1.157   2.005  1.00  0.00     0.017 C 
HETATM    6  C10 UNL     1       3.038  -0.644   0.599  1.00  0.00    -0.033 C 
HETATM    7  C11 UNL     1       3.452  -1.797  -0.312  1.00  0.00     0.016 C 
HETATM    8  C12 UNL     1       3.859   0.565   0.356  1.00  0.00     0.031 C 
HETATM    9  C13 UNL     1       3.034   1.771  -0.072  1.00  0.00     0.009 C 
HETATM   10  C14 UNL     1       2.315   1.417  -1.331  1.00  0.00     0.006 C 
HETATM   11  C15 UNL     1       1.339   0.314  -0.976  1.00  0.00    -0.005 C 
HETATM   12  C16 UNL     1      -0.045   0.822  -1.139  1.00  0.00    -0.001 C 
HETATM   13  C17 UNL     1      -0.731   1.466  -0.011  1.00  0.00     0.011 C 
HETATM   14  C18 UNL     1      -1.923   0.507  -0.190  1.00  0.00    -0.002 C 
HETATM   15  C29 UNL     1      -1.016  -0.323  -1.042  1.00  0.00    -0.036 C 
HETATM   16  C30 UNL     1      -1.556  -0.634  -2.435  1.00  0.00     0.016 C 
HETATM   17  C31 UNL     1      -0.422  -1.551  -0.454  1.00  0.00     0.010 C 
HETATM   18  C32 UNL     1       0.613  -1.367   0.600  1.00  0.00     0.006 C 
HETATM   19  C33 UNL     1       1.585  -0.262   0.385  1.00  0.00    -0.001 C 
ENDROOT
BRANCH  14  20
HETATM   20  C19 UNL     1      -3.036   1.265  -0.806  1.00  0.00    -0.014 C 
HETATM   21  C20 UNL     1      -3.368   2.417   0.158  1.00  0.00     0.010 C 
BRANCH  20  22
HETATM   22  C21 UNL     1      -4.332   0.495  -0.954  1.00  0.00     0.005 C 
BRANCH  22  23
HETATM   23  C22 UNL     1      -5.396   1.370  -1.591  1.00  0.00     0.001 C 
BRANCH  23  24
HETATM   24  C23 UNL     1      -6.701   0.680  -1.754  1.00  0.00     0.006 C 
BRANCH  24  25
HETATM   25  C24 UNL     1      -7.321   0.212  -0.460  1.00  0.00     0.006 C 
HETATM   26  C25 UNL     1      -7.595   1.324   0.514  1.00  0.00     0.012 C 
BRANCH  25  27
HETATM   27  C26 UNL     1      -8.656  -0.451  -0.817  1.00  0.00     0.183 C 
BRANCH  27  28
HETATM   28  O4  UNL     1      -9.323  -0.924   0.334  1.00  0.00    -0.321 OA
BRANCH  28  29
HETATM   29  C27 UNL     1     -10.555  -1.548   0.115  1.00  0.00     0.254 C 
HETATM   30  C28 UNL     1     -11.362  -2.089   1.232  1.00  0.00     0.126 C 
HETATM   31  O5  UNL     1     -11.005  -1.659  -1.052  1.00  0.00    -0.266 OA
ENDBRANCH  28  29
ENDBRANCH  27  28
ENDBRANCH  25  27
ENDBRANCH  24  25
ENDBRANCH  23  24
ENDBRANCH  22  23
ENDBRANCH  20  22
ENDBRANCH  14  20
BRANCH   1  32
HETATM   32  O2  UNL     1       6.041   0.424   1.408  1.00  0.00    -0.308 OA
BRANCH  32  33
HETATM   33  C5  UNL     1       7.158   1.177   1.085  1.00  0.00     0.259 C 
HETATM   34  O1  UNL     1       6.981   2.421   0.853  1.00  0.00    -0.265 OA
BRANCH  33  35
HETATM   35  C4  UNL     1       8.527   0.657   0.986  1.00  0.00     0.117 C 
BRANCH  35  36
HETATM   36  C3  UNL     1       8.709  -0.125  -0.313  1.00  0.00     0.061 C 
BRANCH  36  37
HETATM   37  C2  UNL     1      10.121  -0.585  -0.323  1.00  0.00    -0.024 C 
HETATM   38  C1  UNL     1      10.640  -1.415   0.827  1.00  0.00     0.062 C 
HETATM   39  N1  UNL     1      10.859  -0.255  -1.325  1.00  0.00    -0.406 N 
ATOM     40  H12 UNL     1      11.829  -0.571  -1.332  1.00  0.00     0.155 HD
ATOM     41  H11 UNL     1      10.508   0.306  -2.102  1.00  0.00     0.155 HD
ENDBRANCH  36  37
ENDBRANCH  35  36
ENDBRANCH  33  35
ENDBRANCH  32  33
ENDBRANCH   1  32
TORSDOF 13
