REMARK  6 active torsions:
REMARK  status: ('A' for Active; 'I' for Inactive)
REMARK    1  A    between atoms: N1_1  and  C1_5 
REMARK    2  A    between atoms: C1_5  and  N2_6 
REMARK    3  A    between atoms: C1_5  and  C2_10 
REMARK       I    between atoms: C2_10  and  N3_12 
REMARK    4  A    between atoms: N3_12  and  C3_14 
REMARK    5  A    between atoms: C4_19  and  S1_20 
REMARK    6  A    between atoms: S1_20  and  N6_21 
ROOT
HETATM    1  C3  UNL     1       0.000   0.600  -0.667  1.00  0.00     0.701 A 
HETATM    2  N4  UNL     1       0.606   0.814  -1.846  1.00  0.00    -0.130 N 
ATOM      3  H4  UNL     1       0.173   1.238  -2.666  1.00  0.00     0.205 HD
HETATM    4  N5  UNL     1       1.875   0.379  -1.770  1.00  0.00    -0.260 N 
ATOM      5  H5  UNL     1       2.563   0.418  -2.522  1.00  0.00     0.190 HD
HETATM    6  C4  UNL     1       2.088  -0.115  -0.541  1.00  0.00     0.253 A 
HETATM    7  N7  UNL     1       0.922   0.031   0.121  1.00  0.00    -0.162 N 
ATOM      8  H7  UNL     1       0.764  -0.253   1.088  1.00  0.00     0.186 HD
ENDROOT
BRANCH   1   9
HETATM    9  N3  UNL     1      -1.217   0.897  -0.392  1.00  0.00    -0.155 N 
HETATM   10  C2  UNL     1      -1.862   0.684   0.822  1.00  0.00     0.294 C 
HETATM   11  O1  UNL     1      -1.294   0.819   1.948  1.00  0.00    -0.268 OA
ATOM     12  H3  UNL     1      -1.765   1.331  -1.135  1.00  0.00     0.187 HD
BRANCH  10  13
HETATM   13  C1  UNL     1      -3.286   0.276   0.847  1.00  0.00     0.469 C 
BRANCH  13  14
HETATM   14  N1  UNL     1      -3.767   0.171  -0.493  1.00  0.00    -0.042 N 
ATOM     15  H13 UNL     1      -3.308  -0.576  -1.015  1.00  0.00     0.277 HD
ATOM     16  H12 UNL     1      -4.720  -0.190  -0.538  1.00  0.00     0.277 HD
ATOM     17  H11 UNL     1      -3.672   1.080  -0.947  1.00  0.00     0.277 HD
ENDBRANCH  13  14
BRANCH  13  18
HETATM   18  N2  UNL     1      -3.422  -1.028   1.498  1.00  0.00    -0.042 N 
ATOM     19  H23 UNL     1      -4.375  -1.389   1.453  1.00  0.00     0.277 HD
ATOM     20  H22 UNL     1      -2.963  -1.775   0.976  1.00  0.00     0.277 HD
ATOM     21  H21 UNL     1      -3.078  -0.953   2.455  1.00  0.00     0.277 HD
ENDBRANCH  13  18
ENDBRANCH  10  13
ENDBRANCH   1   9
BRANCH   6  22
HETATM   22  S1  UNL     1       3.571  -0.807   0.081  1.00  0.00     0.290 S 
HETATM   23  O2  UNL     1       3.361  -1.168   1.521  1.00  0.00    -0.198 OA
HETATM   24  O3  UNL     1       3.928  -2.066  -0.647  1.00  0.00    -0.198 OA
BRANCH  22  25
HETATM   25  N6  UNL     1       4.862   0.342   0.028  1.00  0.00    -0.322 N 
ATOM     26  H62 UNL     1       4.757   1.294  -0.323  1.00  0.00     0.169 HD
ATOM     27  H61 UNL     1       5.726  -0.061   0.390  1.00  0.00     0.169 HD
ENDBRANCH  22  25
ENDBRANCH   6  22
TORSDOF 6
