REMARK  3 active torsions:
REMARK  status: ('A' for Active; 'I' for Inactive)
REMARK    1  A    between atoms: C2_3  and  N2_4 
REMARK    2  A    between atoms: N2_4  and  N3_6 
REMARK       I    between atoms: N5_13  and  C5_14 
REMARK    3  A    between atoms: C6_17  and  C7_18 
ROOT
HETATM    1  C1  UNL     1      -1.647   0.004   2.102  1.00  0.00     0.171 C 
HETATM    2  N1  UNL     1      -0.972  -0.058   0.799  1.00  0.00    -0.191 N 
HETATM    3  C2  UNL     1      -1.603  -0.801  -0.230  1.00  0.00     0.692 C 
HETATM    4  N4  UNL     1      -1.061  -1.221  -1.316  1.00  0.00    -0.223 N 
ATOM      5  H4  UNL     1      -1.705  -1.736  -1.916  1.00  0.00     0.177 HD
HETATM    6  C3  UNL     1       0.255  -1.117  -1.859  1.00  0.00     0.158 C 
HETATM    7  C4  UNL     1       1.355  -1.200  -0.843  1.00  0.00     0.150 C 
HETATM    8  N5  UNL     1       1.336  -0.178   0.149  1.00  0.00    -0.305 N 
HETATM    9  C5  UNL     1       2.589   0.095   0.721  1.00  0.00     0.333 C 
HETATM   10  N6  UNL     1       3.729  -0.623   0.299  1.00  0.00    -0.040 NA
HETATM   11  O1  UNL     1       2.715   0.967   1.602  1.00  0.00    -0.251 OA
HETATM   12  C6  UNL     1       0.281   0.654   0.704  1.00  0.00     0.297 C 
ENDROOT
BRANCH   3  13
HETATM   13  N2  UNL     1      -2.973  -1.079   0.019  1.00  0.00    -0.139 N 
ATOM     14  H2  UNL     1      -3.229  -1.805   0.688  1.00  0.00     0.205 HD
BRANCH  13  15
HETATM   15  N3  UNL     1      -3.976  -0.363  -0.648  1.00  0.00    -0.331 N 
ATOM     16  H32 UNL     1      -3.703   0.360  -1.314  1.00  0.00     0.177 HD
ATOM     17  H31 UNL     1      -4.960  -0.563  -0.469  1.00  0.00     0.177 HD
ENDBRANCH  13  15
ENDBRANCH   3  13
BRANCH  12  18
HETATM   18  C7  UNL     1       0.076   1.793  -0.234  1.00  0.00     0.274 C 
HETATM   19  N7  UNL     1       1.112   2.711  -0.562  1.00  0.00    -0.059 NA
HETATM   20  O2  UNL     1      -1.047   2.009  -0.798  1.00  0.00    -0.273 OA
ENDBRANCH  12  18
TORSDOF 3
