REMARK  10 active torsions:
REMARK  status: ('A' for Active; 'I' for Inactive)
REMARK    1  A    between atoms: O1_2  and  C2_3 
REMARK    2  A    between atoms: C5_6  and  C6_7 
REMARK    3  A    between atoms: C6_7  and  C7_8 
REMARK    4  A    between atoms: C9_13  and  C10_14 
REMARK    5  A    between atoms: C10_14  and  N2_15 
REMARK    6  A    between atoms: N2_15  and  C13_18 
REMARK    7  A    between atoms: C13_18  and  C14_19 
REMARK    8  A    between atoms: C14_19  and  C15_20 
REMARK    9  A    between atoms: C19_24  and  C20_25 
REMARK   10  A    between atoms: C20_25  and  N3_26 
ROOT
HETATM    1  N2  UNL     1      -0.057  -0.674   0.122  1.00  0.00    -0.052 N 
HETATM    2  C11 UNL     1       0.813  -1.529  -0.678  1.00  0.00     0.278 C 
HETATM    3  C12 UNL     1      -1.266  -1.501   0.256  1.00  0.00     0.278 C 
ENDROOT
BRANCH   1   4
HETATM    4  C10 UNL     1      -0.206   0.535  -0.541  1.00  0.00     0.236 C 
BRANCH   4   5
HETATM    5  C9  UNL     1      -1.474   1.273  -0.662  1.00  0.00     0.127 C 
HETATM    6  C8  UNL     1      -2.593   0.629  -1.340  1.00  0.00     0.270 C 
HETATM    7  N1  UNL     1      -3.814   0.393  -0.664  1.00  0.00    -0.342 N 
HETATM    8  O2  UNL     1      -2.489   0.275  -2.537  1.00  0.00    -0.266 OA
HETATM    9  C7  UNL     1      -4.305   1.275   0.363  1.00  0.00     0.181 C 
ATOM     10  H1  UNL     1      -4.364  -0.429  -0.913  1.00  0.00     0.163 HD
HETATM   11  C26 UNL     1      -3.097   1.724   1.133  1.00  0.00     0.245 C 
HETATM   12  N7  UNL     1      -1.863   2.002   0.516  1.00  0.00    -0.320 N 
HETATM   13  O3  UNL     1      -3.228   1.849   2.386  1.00  0.00    -0.271 OA
ATOM     14  H7  UNL     1      -1.247   2.717   0.902  1.00  0.00     0.169 HD
BRANCH   9  15
HETATM   15  C6  UNL     1      -5.310   0.684   1.279  1.00  0.00     0.073 C 
BRANCH  15  16
HETATM   16  C5  UNL     1      -6.542   0.212   0.619  1.00  0.00    -0.056 A 
HETATM   17  C4  UNL     1      -7.628   1.055   0.391  1.00  0.00     0.010 A 
HETATM   18  C3  UNL     1      -8.779   0.592  -0.211  1.00  0.00     0.037 A 
HETATM   19  C2  UNL     1      -8.905  -0.710  -0.609  1.00  0.00     0.068 A 
HETATM   20  C28 UNL     1      -7.843  -1.569  -0.394  1.00  0.00     0.037 A 
HETATM   21  C27 UNL     1      -6.684  -1.095   0.214  1.00  0.00     0.010 A 
BRANCH  19  22
HETATM   22  O1  UNL     1     -10.080  -1.172  -1.220  1.00  0.00    -0.356 OA
HETATM   23  C1  UNL     1     -11.141  -0.255  -1.417  1.00  0.00     0.210 C 
ENDBRANCH  19  22
ENDBRANCH  15  16
ENDBRANCH   9  15
ENDBRANCH   4   5
ENDBRANCH   1   4
BRANCH   1  24
HETATM   24  C13 UNL     1       0.490  -0.647   1.440  1.00  0.00     0.248 C 
BRANCH  24  25
HETATM   25  C14 UNL     1       1.659   0.193   1.747  1.00  0.00     0.085 C 
BRANCH  25  26
HETATM   26  C15 UNL     1       2.928  -0.073   1.081  1.00  0.00     0.013 A 
HETATM   27  C16 UNL     1       3.901  -0.964   1.549  1.00  0.00     0.040 A 
HETATM   28  C17 UNL     1       4.955  -0.914   0.678  1.00  0.00     0.012 A 
HETATM   29  C18 UNL     1       6.219  -1.370   0.335  1.00  0.00     0.042 A 
HETATM   30  C25 UNL     1       4.619  -0.002  -0.304  1.00  0.00     0.116 A 
HETATM   31  C19 UNL     1       6.624  -0.745  -0.820  1.00  0.00     0.030 A 
HETATM   32  N5  UNL     1       5.646   0.080  -1.196  1.00  0.00    -0.344 N 
ATOM     33  H5  UNL     1       5.664   0.679  -2.022  1.00  0.00     0.167 HD
HETATM   34  N6  UNL     1       3.403   0.490  -0.045  1.00  0.00    -0.345 N 
ATOM     35  H6  UNL     1       2.913   1.182  -0.611  1.00  0.00     0.167 HD
BRANCH  31  36
HETATM   36  C20 UNL     1       7.926  -0.939  -1.553  1.00  0.00     0.184 C 
BRANCH  36  37
HETATM   37  N3  UNL     1       8.853   0.002  -0.937  1.00  0.00    -0.358 N 
HETATM   38  C21 UNL     1       8.973   1.243  -1.416  1.00  0.00     0.107 A 
HETATM   39  C22 UNL     1       9.864   2.131  -0.815  1.00  0.00     0.104 A 
HETATM   40  N4  UNL     1      10.577   1.702   0.235  1.00  0.00    -0.373 N 
HETATM   41  C23 UNL     1      10.456   0.445   0.721  1.00  0.00     0.104 A 
ATOM     42  H4  UNL     1      11.232   2.343   0.682  1.00  0.00     0.164 HD
HETATM   43  C24 UNL     1       9.573  -0.413   0.115  1.00  0.00     0.107 A 
ENDBRANCH  36  37
ENDBRANCH  31  36
ENDBRANCH  25  26
ENDBRANCH  24  25
ENDBRANCH   1  24
TORSDOF 10
