REMARK  10 active torsions:
REMARK  status: ('A' for Active; 'I' for Inactive)
REMARK    1  A    between atoms: C2_2  and  C3_3 
REMARK    2  A    between atoms: C3_3  and  N1_4 
REMARK       I    between atoms: N1_4  and  C4_6 
REMARK    3  A    between atoms: C4_6  and  C5_8 
REMARK    4  A    between atoms: C5_8  and  N2_10 
REMARK       I    between atoms: N2_10  and  C7_12 
REMARK    5  A    between atoms: C7_12  and  C8_14 
REMARK    6  A    between atoms: C8_14  and  C9_15 
REMARK    7  A    between atoms: C8_14  and  C14_27 
REMARK       I    between atoms: C9_15  and  N3_17 
REMARK    8  A    between atoms: C10_19  and  C11_20 
REMARK       I    between atoms: C11_20  and  N4_22 
REMARK    9  A    between atoms: C16_29  and  C17_30 
REMARK       I    between atoms: C17_30  and  N6_32 
REMARK   10  A    between atoms: N6_32  and  C18_34 
ROOT
HETATM    1  C8  UNL     1       0.487   0.570   0.147  1.00  0.00     0.174 C 
ENDROOT
BRANCH   1   2
HETATM    2  C7  UNL     1       1.278  -0.521   0.799  1.00  0.00     0.232 C 
HETATM    3  N2  UNL     1       1.725  -1.598   0.008  1.00  0.00    -0.347 N 
ATOM      4  H2  UNL     1       1.507  -1.623  -0.988  1.00  0.00     0.163 HD
HETATM    5  O2  UNL     1       1.513  -0.439   2.011  1.00  0.00    -0.273 OA
BRANCH   3   6
HETATM    6  C5  UNL     1       2.505  -2.685   0.617  1.00  0.00     0.172 C 
HETATM    7  C6  UNL     1       1.738  -3.991   0.523  1.00  0.00     0.042 C 
BRANCH   6   8
HETATM    8  C4  UNL     1       3.790  -2.805  -0.072  1.00  0.00     0.240 C 
HETATM    9  N1  UNL     1       4.752  -3.775   0.314  1.00  0.00    -0.356 N 
ATOM     10  H1  UNL     1       4.539  -4.401   1.090  1.00  0.00     0.162 HD
HETATM   11  O1  UNL     1       4.076  -2.046  -1.030  1.00  0.00    -0.271 OA
BRANCH   9  12
HETATM   12  C3  UNL     1       6.026  -3.902  -0.361  1.00  0.00     0.149 C 
BRANCH  12  13
HETATM   13  C2  UNL     1       6.799  -2.643  -0.265  1.00  0.00    -0.018 C 
HETATM   14  C1  UNL     1       7.166  -1.984  -1.348  1.00  0.00     0.008 C 
ENDBRANCH  12  13
ENDBRANCH   9  12
ENDBRANCH   6   8
ENDBRANCH   3   6
ENDBRANCH   1   2
BRANCH   1  15
HETATM   15  C9  UNL     1       0.172   1.618   1.117  1.00  0.00     0.235 C 
HETATM   16  O3  UNL     1      -0.992   1.808   1.508  1.00  0.00    -0.272 OA
HETATM   17  N3  UNL     1       1.211   2.433   1.626  1.00  0.00    -0.331 N 
HETATM   18  C10 UNL     1       1.328   3.637   1.187  1.00  0.00     0.165 C 
ATOM     19  H3  UNL     1       1.856   2.072   2.329  1.00  0.00     0.168 HD
BRANCH  18  20
HETATM   20  C11 UNL     1       2.342   4.559   1.626  1.00  0.00     0.261 C 
HETATM   21  O4  UNL     1       3.190   4.230   2.485  1.00  0.00    -0.267 OA
HETATM   22  N4  UNL     1       2.397   5.865   1.089  1.00  0.00    -0.315 N 
HETATM   23  C12 UNL     1       3.413   6.628   1.078  1.00  0.00     0.091 C 
ATOM     24  H4  UNL     1       1.541   6.229   0.671  1.00  0.00     0.170 HD
HETATM   25  C13 UNL     1       4.738   6.217   1.660  1.00  0.00     0.085 C 
HETATM   26  N5  UNL     1       3.266   7.906   0.490  1.00  0.00    -0.088 NA
ENDBRANCH  18  20
ENDBRANCH   1  15
BRANCH   1  27
HETATM   27  C14 UNL     1      -0.651  -0.051  -0.569  1.00  0.00     0.018 C 
HETATM   28  C15 UNL     1      -1.654  -0.828   0.213  1.00  0.00     0.027 C 
HETATM   29  C16 UNL     1      -2.727  -0.254  -0.691  1.00  0.00     0.059 C 
HETATM   30  C21 UNL     1      -1.753   0.790  -1.116  1.00  0.00     0.032 C 
HETATM   31  C24 UNL     1      -2.992  -0.982  -1.947  1.00  0.00    -0.013 C 
HETATM   32  C22 UNL     1      -1.706   0.780  -2.592  1.00  0.00    -0.024 C 
HETATM   33  C23 UNL     1      -2.402  -0.215  -3.049  1.00  0.00    -0.020 C 
HETATM   34  C25 UNL     1      -2.554  -2.426  -1.928  1.00  0.00     0.020 C 
HETATM   35  C26 UNL     1      -4.510  -0.938  -2.204  1.00  0.00     0.020 C 
BRANCH  29  36
HETATM   36  C17 UNL     1      -3.933   0.214   0.017  1.00  0.00     0.228 C 
HETATM   37  O5  UNL     1      -4.275   1.403  -0.069  1.00  0.00    -0.273 OA
HETATM   38  N6  UNL     1      -4.691  -0.682   0.787  1.00  0.00    -0.356 N 
ATOM     39  H6  UNL     1      -4.374  -1.650   0.832  1.00  0.00     0.162 HD
BRANCH  38  40
HETATM   40  C18 UNL     1      -5.887  -0.335   1.521  1.00  0.00     0.076 C 
HETATM   41  C19 UNL     1      -5.738  -0.544   3.013  1.00  0.00     0.032 C 
HETATM   42  C20 UNL     1      -7.114  -1.030   1.001  1.00  0.00     0.032 C 
ENDBRANCH  38  40
ENDBRANCH  29  36
ENDBRANCH   1  27
TORSDOF 10
