REMARK  6 active torsions:
REMARK  status: ('A' for Active; 'I' for Inactive)
REMARK    1  A    between atoms: N4_12  and  C7_13 
REMARK    2  A    between atoms: C7_13  and  C9_15 
REMARK    3  A    between atoms: C10_19  and  N5_20 
REMARK    4  A    between atoms: N5_20  and  C11_22 
REMARK    5  A    between atoms: C11_22  and  C13_24 
REMARK    6  A    between atoms: C13_24  and  C16_27 
ROOT
HETATM    1  C1  UNL     1       3.173  -3.730  -0.100  1.00  0.00     0.089 C 
HETATM    2  C2  UNL     1       2.697  -2.302  -0.079  1.00  0.00     0.080 A 
HETATM    3  N1  UNL     1       3.599  -1.296  -0.014  1.00  0.00    -0.330 N 
ATOM      4  H1  UNL     1       4.596  -1.508   0.021  1.00  0.00     0.168 HD
HETATM    5  C3  UNL     1       3.184  -0.018   0.005  1.00  0.00     0.142 A 
HETATM    6  C4  UNL     1       1.845   0.228  -0.041  1.00  0.00     0.123 A 
HETATM    7  N2  UNL     1       1.717   1.583  -0.007  1.00  0.00    -0.327 N 
ATOM      8  H2  UNL     1       0.836   2.097  -0.027  1.00  0.00     0.168 HD
HETATM    9  C5  UNL     1       2.942   2.132   0.057  1.00  0.00     0.193 A 
HETATM   10  C6  UNL     1       3.246   3.530   0.109  1.00  0.00     0.137 C 
HETATM   11  N3  UNL     1       3.474   4.678   0.147  1.00  0.00    -0.188 NA
HETATM   12  N4  UNL     1       3.863   1.160   0.066  1.00  0.00    -0.295 N 
HETATM   13  C10 UNL     1       0.909  -0.795  -0.107  1.00  0.00     0.134 A 
HETATM   14  N6  UNL     1       1.378  -2.054  -0.124  1.00  0.00    -0.331 N 
ATOM     15  H6  UNL     1       0.722  -2.834  -0.172  1.00  0.00     0.168 HD
ENDROOT
BRANCH  12  16
HETATM   16  C7  UNL     1       5.286   1.276   0.126  1.00  0.00     0.197 C 
HETATM   17  C8  UNL     1       5.869   2.415  -0.642  1.00  0.00     0.042 C 
BRANCH  16  18
HETATM   18  C9  UNL     1       5.792   1.336   1.569  1.00  0.00     0.407 C 
HETATM   19  F1  UNL     1       5.418   0.170   2.237  1.00  0.00    -0.169 F 
HETATM   20  F2  UNL     1       5.249   2.397   2.257  1.00  0.00    -0.169 F 
HETATM   21  F3  UNL     1       7.167   1.372   1.524  1.00  0.00    -0.169 F 
ENDBRANCH  16  18
ENDBRANCH  12  16
BRANCH  13  22
HETATM   22  N5  UNL     1      -0.332  -0.525  -0.149  1.00  0.00    -0.369 N 
ATOM     23  H5  UNL     1      -0.589   0.462  -0.132  1.00  0.00     0.161 HD
BRANCH  22  24
HETATM   24  C11 UNL     1      -1.413  -1.479  -0.219  1.00  0.00     0.087 C 
HETATM   25  C12 UNL     1      -1.556  -2.053  -1.579  1.00  0.00     0.033 C 
BRANCH  24  26
HETATM   26  C13 UNL     1      -2.680  -0.946   0.399  1.00  0.00    -0.022 C 
HETATM   27  C14 UNL     1      -3.786  -1.961   0.299  1.00  0.00     0.017 C 
HETATM   28  C15 UNL     1      -2.349  -0.835   1.902  1.00  0.00     0.017 C 
BRANCH  26  29
HETATM   29  C16 UNL     1      -3.079   0.422  -0.019  1.00  0.00     0.019 C 
HETATM   30  C17 UNL     1      -4.381   0.731   0.740  1.00  0.00     0.009 C 
HETATM   31  C18 UNL     1      -5.002   2.014   0.348  1.00  0.00     0.027 C 
HETATM   32  C19 UNL     1      -4.864   2.369  -1.104  1.00  0.00     0.167 C 
HETATM   33  O1  UNL     1      -3.651   1.977  -1.649  1.00  0.00    -0.391 OA
HETATM   34  C20 UNL     1      -3.424   0.588  -1.474  1.00  0.00     0.172 C 
ENDBRANCH  26  29
ENDBRANCH  24  26
ENDBRANCH  22  24
ENDBRANCH  13  22
TORSDOF 6
