REMARK  9 active torsions:
REMARK  status: ('A' for Active; 'I' for Inactive)
REMARK    1  A    between atoms: C4_4  and  C6_6 
REMARK       I    between atoms: C6_6  and  N1_8 
REMARK    2  A    between atoms: N1_8  and  C7_10 
REMARK    3  A    between atoms: C7_10  and  C8_11 
REMARK    4  A    between atoms: C7_10  and  C14_20 
REMARK    5  A    between atoms: C8_11  and  O2_12 
REMARK    6  A    between atoms: O2_12  and  C9_13 
REMARK    7  A    between atoms: C9_13  and  O4_15 
REMARK    8  A    between atoms: O4_15  and  C10_16 
REMARK    9  A    between atoms: C18_26  and  C19_27 
ROOT
HETATM    1  C6  UNL     1      -1.011  -0.099   0.264  1.00  0.00     0.246 C 
HETATM    2  O1  UNL     1      -0.590  -0.756   1.242  1.00  0.00    -0.271 OA
HETATM    3  N1  UNL     1      -0.292  -0.116  -0.931  1.00  0.00    -0.351 N 
ATOM      4  H1  UNL     1      -0.662   0.430  -1.709  1.00  0.00     0.163 HD
ENDROOT
BRANCH   3   5
HETATM    5  C7  UNL     1       0.937  -0.846  -1.157  1.00  0.00     0.116 C 
BRANCH   5   6
HETATM    6  C8  UNL     1       2.076   0.026  -1.543  1.00  0.00     0.207 C 
BRANCH   6   7
HETATM    7  O2  UNL     1       2.452   1.020  -0.635  1.00  0.00    -0.296 OA
BRANCH   7   8
HETATM    8  C9  UNL     1       2.915   0.765   0.631  1.00  0.00     0.407 C 
HETATM    9  O3  UNL     1       3.011  -0.423   0.993  1.00  0.00    -0.229 OA
BRANCH   8  10
HETATM   10  O4  UNL     1       3.286   1.750   1.538  1.00  0.00    -0.288 OA
BRANCH  10  11
HETATM   11  C10 UNL     1       3.751   1.349   2.814  1.00  0.00     0.062 C 
HETATM   12  C11 UNL     1       4.985   0.486   2.562  1.00  0.00     0.046 C 
HETATM   13  C12 UNL     1       4.193   2.527   3.647  1.00  0.00     0.046 C 
HETATM   14  C13 UNL     1       2.765   0.512   3.569  1.00  0.00     0.046 C 
ENDBRANCH  10  11
ENDBRANCH   8  10
ENDBRANCH   7   8
ENDBRANCH   6   7
ENDBRANCH   5   6
BRANCH   5  15
HETATM   15  C14 UNL     1       0.777  -1.915  -2.212  1.00  0.00    -0.029 C 
HETATM   16  C15 UNL     1      -0.281  -2.934  -1.828  1.00  0.00     0.016 C 
HETATM   17  C16 UNL     1       2.074  -2.689  -2.326  1.00  0.00     0.016 C 
HETATM   18  C17 UNL     1       0.428  -1.379  -3.556  1.00  0.00     0.016 C 
ENDBRANCH   5  15
ENDBRANCH   3   5
BRANCH   1  19
HETATM   19  C4  UNL     1      -2.265   0.665   0.442  1.00  0.00     0.111 C 
HETATM   20  C3  UNL     1      -3.331  -0.249   0.966  1.00  0.00     0.072 C 
HETATM   21  C2  UNL     1      -4.694  -0.038   0.411  1.00  0.00     0.129 C 
HETATM   22  C1  UNL     1      -5.132  -1.175  -0.500  1.00  0.00     0.040 C 
HETATM   23  O5  UNL     1      -4.833   1.217  -0.257  1.00  0.00    -0.327 OA
HETATM   24  C18 UNL     1      -3.823   1.634  -1.106  1.00  0.00     0.225 C 
HETATM   25  N2  UNL     1      -2.629   1.370  -0.769  1.00  0.00    -0.349 N 
ATOM     26  H2  UNL     1      -1.879   1.673  -1.390  1.00  0.00     0.162 HD
HETATM   27  C5  UNL     1      -2.091   1.763   1.500  1.00  0.00     0.049 C 
BRANCH  24  28
HETATM   28  C19 UNL     1      -4.171   2.368  -2.370  1.00  0.00     0.455 C 
HETATM   29  F1  UNL     1      -2.996   2.693  -3.060  1.00  0.00    -0.163 F 
HETATM   30  F2  UNL     1      -4.753   3.563  -2.001  1.00  0.00    -0.163 F 
HETATM   31  F3  UNL     1      -4.970   1.627  -3.182  1.00  0.00    -0.163 F 
ENDBRANCH  24  28
ENDBRANCH   1  19
TORSDOF 9
