REMARK  5 active torsions:
REMARK  status: ('A' for Active; 'I' for Inactive)
REMARK    1  A    between atoms: C2_2  and  C4_4 
REMARK    2  A    between atoms: C7_7  and  O1_8 
REMARK    3  A    between atoms: O1_8  and  C8_9 
REMARK    4  A    between atoms: C10_15  and  N3_16 
REMARK    5  A    between atoms: C18_25  and  C19_26 
ROOT
HETATM    1  C8  UNL     1      -0.346   0.278   0.667  1.00  0.00     0.162 A 
HETATM    2  N1  UNL     1      -0.548   0.672   1.917  1.00  0.00    -0.332 N 
ATOM      3  H1  UNL     1       0.270   0.884   2.488  1.00  0.00     0.168 HD
HETATM    4  C9  UNL     1      -1.747   0.809   2.476  1.00  0.00     0.184 A 
HETATM    5  N2  UNL     1      -2.821   0.547   1.776  1.00  0.00    -0.338 N 
ATOM      6  H2  UNL     1      -3.737   0.655   2.212  1.00  0.00     0.168 HD
HETATM    7  C10 UNL     1      -2.747   0.122   0.445  1.00  0.00     0.124 A 
HETATM    8  C18 UNL     1      -1.515  -0.009  -0.093  1.00  0.00     0.142 A 
ENDROOT
BRANCH   1   9
HETATM    9  O1  UNL     1       0.854   0.123   0.051  1.00  0.00    -0.328 OA
BRANCH   9  10
HETATM   10  C7  UNL     1       2.118   0.333   0.564  1.00  0.00     0.148 C 
HETATM   11  C6  UNL     1       2.903   1.415  -0.134  1.00  0.00     0.036 C 
HETATM   12  C5  UNL     1       4.023   0.714  -0.898  1.00  0.00     0.028 C 
HETATM   13  C4  UNL     1       4.972   0.173   0.165  1.00  0.00     0.080 C 
HETATM   14  N4  UNL     1       4.271  -0.759   0.985  1.00  0.00    -0.414 N 
HETATM   15  C20 UNL     1       2.897  -0.962   0.631  1.00  0.00     0.146 C 
ATOM     16  H4  UNL     1       4.714  -1.245   1.765  1.00  0.00     0.153 HD
BRANCH  13  17
HETATM   17  C2  UNL     1       6.149  -0.423  -0.571  1.00  0.00    -0.000 C 
HETATM   18  C1  UNL     1       6.786   0.675  -1.379  1.00  0.00     0.011 C 
HETATM   19  C3  UNL     1       7.161  -1.049   0.332  1.00  0.00     0.011 C 
ENDBRANCH  13  17
ENDBRANCH   9  10
ENDBRANCH   1   9
BRANCH   8  20
HETATM   20  C19 UNL     1      -1.276  -0.457  -1.464  1.00  0.00     0.425 C 
HETATM   21  F1  UNL     1      -0.633   0.556  -2.208  1.00  0.00    -0.166 F 
HETATM   22  F2  UNL     1      -2.316  -0.903  -2.168  1.00  0.00    -0.166 F 
HETATM   23  F3  UNL     1      -0.356  -1.548  -1.433  1.00  0.00    -0.166 F 
ENDBRANCH   8  20
BRANCH   7  24
HETATM   24  N3  UNL     1      -4.023  -0.065  -0.151  1.00  0.00    -0.356 N 
HETATM   25  C11 UNL     1      -4.789   0.637  -1.134  1.00  0.00     0.093 C 
HETATM   26  C12 UNL     1      -5.679  -0.388  -1.784  1.00  0.00     0.028 C 
HETATM   27  C17 UNL     1      -5.746   1.608  -0.352  1.00  0.00     0.103 C 
HETATM   28  C13 UNL     1      -5.644  -1.585  -0.875  1.00  0.00     0.028 C 
HETATM   29  C14 UNL     1      -4.894  -1.148   0.339  1.00  0.00     0.093 C 
HETATM   30  C15 UNL     1      -5.920  -0.476   1.256  1.00  0.00     0.103 C 
HETATM   31  C16 UNL     1      -6.084   0.946   0.948  1.00  0.00     0.130 C 
HETATM   32  O2  UNL     1      -6.535   1.677   1.815  1.00  0.00    -0.298 OA
ENDBRANCH   7  24
TORSDOF 5
