REMARK  5 active torsions:
REMARK  status: ('A' for Active; 'I' for Inactive)
REMARK    1  A    between atoms: C4_4  and  N1_5 
REMARK    2  A    between atoms: C7_8  and  C8_9 
REMARK    3  A    between atoms: C12_19  and  N4_20 
REMARK    4  A    between atoms: N4_20  and  C13_22 
REMARK    5  A    between atoms: C13_22  and  C15_24 
ROOT
HETATM    1  C1  UNL     1       2.068   3.115  -1.071  1.00  0.00     0.069 C 
HETATM    2  C2  UNL     1       1.844   1.716  -0.586  1.00  0.00     0.026 A 
HETATM    3  C3  UNL     1       0.560   1.261  -0.423  1.00  0.00     0.076 A 
HETATM    4  C4  UNL     1       0.298  -0.051  -0.002  1.00  0.00     0.144 A 
HETATM    5  N3  UNL     1       1.377  -0.806   0.224  1.00  0.00    -0.175 N 
ATOM      6  H3  UNL     1       1.227  -1.767   0.531  1.00  0.00     0.186 HD
HETATM    7  C12 UNL     1       2.667  -0.383   0.074  1.00  0.00     0.680 A 
HETATM    8  N5  UNL     1       2.849   0.878  -0.329  1.00  0.00    -0.196 N 
ATOM      9  H5  UNL     1       3.804   1.216  -0.446  1.00  0.00     0.184 HD
ENDROOT
BRANCH   4  10
HETATM   10  N1  UNL     1      -1.022  -0.501   0.206  1.00  0.00    -0.241 N 
HETATM   11  C5  UNL     1      -1.994   0.386   0.807  1.00  0.00     0.159 C 
HETATM   12  C6  UNL     1      -3.111  -0.411   1.471  1.00  0.00     0.036 C 
HETATM   13  C7  UNL     1      -3.719  -1.294   0.423  1.00  0.00     0.071 C 
HETATM   14  C11 UNL     1      -2.745  -1.649  -0.691  1.00  0.00     0.212 C 
HETATM   15  O1  UNL     1      -1.450  -1.726  -0.145  1.00  0.00    -0.276 OA
BRANCH  13  16
HETATM   16  C8  UNL     1      -4.952  -0.649  -0.147  1.00  0.00     0.057 A 
HETATM   17  N2  UNL     1      -5.595   0.389   0.375  1.00  0.00    -0.363 N 
HETATM   18  C9  UNL     1      -6.645   0.852  -0.220  1.00  0.00     0.095 A 
ATOM     19  H2  UNL     1      -5.263   0.818   1.239  1.00  0.00     0.165 HD
HETATM   20  C10 UNL     1      -7.052   0.241  -1.375  1.00  0.00     0.068 A 
HETATM   21  S1  UNL     1      -5.867  -0.991  -1.535  1.00  0.00    -0.087 SA
ENDBRANCH  13  16
ENDBRANCH   4  10
BRANCH   7  22
HETATM   22  N4  UNL     1       3.620  -1.203   0.332  1.00  0.00    -0.217 N 
ATOM     23  H4  UNL     1       3.288  -2.119   0.633  1.00  0.00     0.178 HD
BRANCH  22  24
HETATM   24  C13 UNL     1       5.006  -1.113   0.290  1.00  0.00     0.149 C 
HETATM   25  C14 UNL     1       5.588   0.104   0.985  1.00  0.00     0.037 C 
BRANCH  24  26
HETATM   26  C15 UNL     1       5.681  -1.262  -1.035  1.00  0.00     0.208 C 
HETATM   27 CL1  UNL     1       5.272  -2.871  -1.707  1.00  0.00    -0.082 Cl
HETATM   28 CL2  UNL     1       5.278   0.042  -2.133  1.00  0.00    -0.082 Cl
HETATM   29 CL3  UNL     1       7.451  -1.251  -0.765  1.00  0.00    -0.082 Cl
ENDBRANCH  24  26
ENDBRANCH  22  24
ENDBRANCH   7  22
TORSDOF 5
