REMARK  5 active torsions:
REMARK  status: ('A' for Active; 'I' for Inactive)
REMARK    1  A    between atoms: O1_2  and  C2_3 
REMARK    2  A    between atoms: C4_5  and  C5_6 
REMARK    3  A    between atoms: C7_9  and  C8_10 
REMARK    4  A    between atoms: C18_25  and  O5_26 
REMARK    5  A    between atoms: C19_28  and  O6_29 
ROOT
HETATM    1  C5  UNL     1       0.206  -1.088  -1.119  1.00  0.00     0.074 C 
HETATM    2  C6  UNL     1      -0.704  -0.633  -2.162  1.00  0.00     0.180 C 
HETATM    3  O2  UNL     1      -2.071  -0.529  -1.945  1.00  0.00    -0.378 OA
HETATM    4  C7  UNL     1      -2.604  -0.838  -0.751  1.00  0.00     0.192 C 
HETATM    5  C14 UNL     1      -1.577  -0.236   0.222  1.00  0.00     0.187 C 
HETATM    6  O3  UNL     1      -2.006  -0.321   1.503  1.00  0.00    -0.356 OA
HETATM    7  C15 UNL     1      -0.937  -0.760   2.252  1.00  0.00     0.339 C 
HETATM    8  O4  UNL     1       0.106  -1.059   1.343  1.00  0.00    -0.358 OA
HETATM    9  C16 UNL     1      -0.528  -1.369   0.206  1.00  0.00     0.166 C 
ENDROOT
BRANCH   1  10
HETATM   10  C4  UNL     1       1.404  -0.282  -0.786  1.00  0.00    -0.044 A 
HETATM   11  C3  UNL     1       2.323  -0.854   0.098  1.00  0.00     0.047 A 
HETATM   12  C2  UNL     1       3.443  -0.183   0.500  1.00  0.00     0.104 A 
HETATM   13  C19 UNL     1       3.692   1.088   0.031  1.00  0.00     0.134 A 
HETATM   14  C18 UNL     1       2.759   1.677  -0.868  1.00  0.00     0.102 A 
HETATM   15  C17 UNL     1       1.640   0.975  -1.251  1.00  0.00     0.047 A 
BRANCH  12  16
HETATM   16  O1  UNL     1       4.379  -0.701   1.369  1.00  0.00    -0.353 OA
HETATM   17  C1  UNL     1       4.280  -2.002   1.932  1.00  0.00     0.210 C 
ENDBRANCH  12  16
BRANCH  13  18
HETATM   18  O6  UNL     1       4.763   1.806   0.395  1.00  0.00    -0.351 OA
HETATM   19  C20 UNL     1       6.035   2.012  -0.043  1.00  0.00     0.210 C 
ENDBRANCH  13  18
BRANCH  14  20
HETATM   20  O5  UNL     1       2.984   2.941  -1.353  1.00  0.00    -0.358 OA
ATOM     21  H5  UNL     1       3.757   3.426  -1.088  1.00  0.00     0.217 HD
ENDBRANCH  14  20
ENDBRANCH   1  10
BRANCH   4  22
HETATM   22  C8  UNL     1      -3.836  -0.134  -0.428  1.00  0.00     0.051 A 
HETATM   23  C9  UNL     1      -5.037  -0.858  -0.353  1.00  0.00     0.131 A 
HETATM   24  F1  UNL     1      -5.050  -2.189  -0.593  1.00  0.00    -0.205 F 
HETATM   25  C10 UNL     1      -6.237  -0.226  -0.019  1.00  0.00     0.085 A 
HETATM   26  C11 UNL     1      -6.271   1.129   0.240  1.00  0.00     0.122 A 
HETATM   27  F2  UNL     1      -7.450   1.721   0.572  1.00  0.00    -0.206 F 
HETATM   28  C12 UNL     1      -5.117   1.841   0.163  1.00  0.00     0.085 A 
HETATM   29  C13 UNL     1      -3.903   1.208  -0.170  1.00  0.00     0.131 A 
HETATM   30  F3  UNL     1      -2.847   2.027  -0.276  1.00  0.00    -0.205 F 
ENDBRANCH   4  22
TORSDOF 5
