REMARK  4 active torsions:
REMARK  status: ('A' for Active; 'I' for Inactive)
REMARK    1  A    between atoms: C1_2  and  N2_4 
REMARK    2  A    between atoms: N2_4  and  C2_6 
REMARK    3  A    between atoms: C2_6  and  C3_7 
REMARK    4  A    between atoms: C3_7  and  N3_8 
ROOT
HETATM    1  N3  UNL     1      -0.697  -0.041   0.618  1.00  0.00     0.093 N 
HETATM    2  C4  UNL     1      -1.965  -0.775   0.810  1.00  0.00     0.300 C 
HETATM    3  C5  UNL     1      -3.017  -0.512  -0.195  1.00  0.00     0.262 C 
HETATM    4  N4  UNL     1      -3.466   0.872  -0.115  1.00  0.00    -0.072 N 
ATOM      5  H41 UNL     1      -4.168   1.030   0.608  1.00  0.00     0.277 HD
ATOM      6  H42 UNL     1      -4.038   1.159  -0.909  1.00  0.00     0.277 HD
HETATM    7  C6  UNL     1      -2.281   1.670   0.054  1.00  0.00     0.262 C 
HETATM    8  C7  UNL     1      -1.032   0.927  -0.428  1.00  0.00     0.300 C 
ENDROOT
BRANCH   1   9
HETATM    9  C3  UNL     1       0.304  -0.972   0.163  1.00  0.00     0.292 C 
BRANCH   9  10
HETATM   10  C2  UNL     1       1.728  -0.686   0.309  1.00  0.00     0.152 C 
BRANCH  10  11
HETATM   11  N2  UNL     1       2.309   0.492  -0.261  1.00  0.00    -0.368 N 
ATOM     12  H2  UNL     1       1.727   1.264  -0.587  1.00  0.00     0.161 HD
BRANCH  11  13
HETATM   13  C1  UNL     1       3.761   0.549  -0.359  1.00  0.00     0.181 C 
HETATM   14  N1  UNL     1       4.555  -0.550   0.070  1.00  0.00    -0.070 NA
HETATM   15  S1  UNL     1       4.512   1.869  -0.970  1.00  0.00    -0.044 SA
ENDBRANCH  11  13
ENDBRANCH  10  11
ENDBRANCH   9  10
ENDBRANCH   1   9
TORSDOF 4
