REMARK  3 active torsions:
REMARK  status: ('A' for Active; 'I' for Inactive)
REMARK    1  A    between atoms: N2_6  and  C5_7 
REMARK    2  A    between atoms: C5_7  and  C6_8 
REMARK    3  A    between atoms: C6_8  and  N3_9 
REMARK       I    between atoms: N3_9  and  C7_11 
ROOT
HETATM    1  C1  UNL     1      -4.128   2.483   0.434  1.00  0.00     0.037 C 
HETATM    2  C2  UNL     1      -3.457   1.506   0.176  1.00  0.00    -0.002 C 
HETATM    3  N1  UNL     1      -2.681   0.397  -0.136  1.00  0.00    -0.314 N 
HETATM    4  C3  UNL     1      -2.712  -0.917   0.472  1.00  0.00     0.165 C 
HETATM    5  C4  UNL     1      -1.452  -1.618   0.005  1.00  0.00     0.295 C 
HETATM    6  N2  UNL     1      -0.704  -0.638  -0.685  1.00  0.00     0.109 N 
HETATM    7  C8  UNL     1      -1.645   0.353  -1.176  1.00  0.00     0.405 C 
ENDROOT
BRANCH   6   8
HETATM    8  C5  UNL     1       0.416  -0.055  -0.027  1.00  0.00     0.294 C 
BRANCH   8   9
HETATM    9  C6  UNL     1       1.502  -1.099   0.113  1.00  0.00     0.152 C 
BRANCH   9  10
HETATM   10  N3  UNL     1       2.695  -0.579   0.741  1.00  0.00    -0.363 N 
HETATM   11  C7  UNL     1       3.482   0.353   0.024  1.00  0.00     0.181 C 
HETATM   12  N4  UNL     1       4.488  -0.081  -0.683  1.00  0.00    -0.374 N 
HETATM   13  N5  UNL     1       3.220   1.742   0.042  1.00  0.00    -0.064 NA
ATOM     14  H42 UNL     1       4.677  -1.083  -0.696  1.00  0.00     0.158 HD
ATOM     15  H41 UNL     1       5.055   0.591  -1.200  1.00  0.00     0.158 HD
ATOM     16  H3  UNL     1       2.963  -0.877   1.679  1.00  0.00     0.162 HD
ENDBRANCH   9  10
ENDBRANCH   8   9
ENDBRANCH   6   8
TORSDOF 3
