REMARK  4 active torsions:
REMARK  status: ('A' for Active; 'I' for Inactive)
REMARK       I    between atoms: C1_4  and  N2_5 
REMARK       I    between atoms: C1_4  and  N4_14 
REMARK    1  A    between atoms: N2_5  and  C2_7 
REMARK    2  A    between atoms: C2_7  and  C3_8 
REMARK    3  A    between atoms: C3_8  and  C4_9 
REMARK    4  A    between atoms: C4_9  and  N3_10 
ROOT
HETATM    1  N1  UNL     1       0.204  -1.072  -1.576  1.00  0.00    -0.235 N 
ATOM      2  H11 UNL     1       0.947  -0.895  -2.252  1.00  0.00     0.174 HD
ATOM      3  H12 UNL     1      -0.628  -1.602  -1.836  1.00  0.00     0.174 HD
HETATM    4  C1  UNL     1       0.362  -0.599  -0.388  1.00  0.00     0.669 C 
HETATM    5  N2  UNL     1      -0.669  -0.845   0.550  1.00  0.00    -0.227 N 
ATOM      6  H2  UNL     1      -0.594  -1.639   1.186  1.00  0.00     0.177 HD
HETATM    7  N4  UNL     1       1.519   0.138  -0.027  1.00  0.00    -0.214 N 
HETATM    8  C5  UNL     1       2.098   0.024   1.283  1.00  0.00     0.167 C 
HETATM    9  C6  UNL     1       3.552  -0.396   1.065  1.00  0.00     0.188 C 
HETATM   10  O1  UNL     1       3.877  -0.532  -0.256  1.00  0.00    -0.388 OA
HETATM   11  C7  UNL     1       3.605   0.543  -1.062  1.00  0.00     0.188 C 
HETATM   12  C8  UNL     1       2.165   1.030  -0.949  1.00  0.00     0.167 C 
ENDROOT
BRANCH   5  13
HETATM   13  C2  UNL     1      -1.816   0.009   0.616  1.00  0.00     0.139 C 
BRANCH  13  14
HETATM   14  C3  UNL     1      -2.695  -0.109  -0.616  1.00  0.00     0.047 C 
BRANCH  14  15
HETATM   15  C4  UNL     1      -3.887   0.816  -0.486  1.00  0.00     0.231 C 
BRANCH  15  16
HETATM   16  N3  UNL     1      -4.687   0.478   0.689  1.00  0.00    -0.079 N 
ATOM     17  H33 UNL     1      -4.970  -0.502   0.682  1.00  0.00     0.274 HD
ATOM     18  H32 UNL     1      -4.123   0.470   1.539  1.00  0.00     0.274 HD
ATOM     19  H31 UNL     1      -5.490   1.101   0.777  1.00  0.00     0.274 HD
ENDBRANCH  15  16
ENDBRANCH  14  15
ENDBRANCH  13  14
ENDBRANCH   5  13
TORSDOF 4
