REMARK  3 active torsions:
REMARK  status: ('A' for Active; 'I' for Inactive)
REMARK       I    between atoms: C2_5  and  N4_7 
REMARK    1  A    between atoms: N4_7  and  C3_9 
REMARK    2  A    between atoms: C3_9  and  C4_10 
REMARK    3  A    between atoms: C4_10  and  N5_11 
ROOT
HETATM    1  N1  UNL     1       6.328  -0.951   0.509  1.00  0.00    -0.172 NA
HETATM    2  C1  UNL     1       5.392  -0.417   0.071  1.00  0.00     0.184 C 
HETATM    3  N2  UNL     1       4.277   0.242  -0.483  1.00  0.00    -0.268 N 
ATOM      4  H2  UNL     1       4.374   0.679  -1.399  1.00  0.00     0.180 HD
HETATM    5  C2  UNL     1       3.150   0.316   0.112  1.00  0.00     0.197 C 
HETATM    6  N3  UNL     1       2.939  -0.258   1.368  1.00  0.00    -0.063 NA
HETATM    7  N4  UNL     1       2.121   1.010  -0.568  1.00  0.00    -0.362 N 
ATOM      8  H4  UNL     1       2.366   1.668  -1.308  1.00  0.00     0.162 HD
ENDROOT
BRANCH   7   9
HETATM    9  C3  UNL     1       0.722   0.803  -0.233  1.00  0.00     0.152 C 
BRANCH   9  10
HETATM   10  C4  UNL     1       0.367  -0.614  -0.612  1.00  0.00     0.292 C 
BRANCH  10  11
HETATM   11  N5  UNL     1      -1.045  -0.870  -0.408  1.00  0.00     0.093 N 
HETATM   12  C5  UNL     1      -1.846  -0.165  -1.399  1.00  0.00     0.300 C 
HETATM   13  C6  UNL     1      -2.787   0.837  -0.876  1.00  0.00     0.262 C 
HETATM   14  N6  UNL     1      -3.528   0.455   0.296  1.00  0.00    -0.072 N 
HETATM   15  C7  UNL     1      -3.027  -0.758   0.905  1.00  0.00     0.262 C 
ATOM     16  H62 UNL     1      -3.560   1.217   0.973  1.00  0.00     0.277 HD
ATOM     17  H61 UNL     1      -4.524   0.376   0.089  1.00  0.00     0.277 HD
HETATM   18  C8  UNL     1      -1.498  -0.627   0.929  1.00  0.00     0.300 C 
ENDBRANCH  10  11
ENDBRANCH   9  10
ENDBRANCH   7   9
TORSDOF 3
