REMARK  4 active torsions:
REMARK  status: ('A' for Active; 'I' for Inactive)
REMARK    1  A    between atoms: C2_2  and  C10_19 
REMARK    2  A    between atoms: N1_3  and  N2_5 
REMARK    3  A    between atoms: C12_22  and  N5_23 
REMARK    4  A    between atoms: N5_23  and  C13_25 
ROOT
HETATM    1  C1  UNL     1      -0.190  -3.337  -0.647  1.00  0.00     0.072 C 
HETATM    2  C2  UNL     1       0.168  -1.951  -0.116  1.00  0.00     0.049 C 
HETATM    3  N1  UNL     1       1.376  -1.765   0.027  1.00  0.00    -0.303 N 
ATOM      4  H1  UNL     1       1.946  -2.570  -0.234  1.00  0.00     0.186 HD
ENDROOT
BRANCH   3   5
HETATM    5  N2  UNL     1       2.094  -0.718   0.457  1.00  0.00    -0.302 N 
HETATM    6  C3  UNL     1       3.383  -0.707   0.425  1.00  0.00     0.065 C 
HETATM    7  C4  UNL     1       4.110  -1.890  -0.104  1.00  0.00     0.081 C 
HETATM    8  C9  UNL     1       4.194   0.418   0.885  1.00  0.00     0.151 A 
HETATM    9  C5  UNL     1       5.211  -1.440  -1.023  1.00  0.00     0.126 C 
HETATM   10  N3  UNL     1       5.999  -0.360  -0.490  1.00  0.00    -0.386 N 
HETATM   11  C6  UNL     1       5.485   0.589   0.433  1.00  0.00     0.090 A 
ATOM     12  H3  UNL     1       6.970  -0.272  -0.789  1.00  0.00     0.159 HD
HETATM   13  C7  UNL     1       5.944   1.726   1.058  1.00  0.00     0.058 A 
HETATM   14  C8  UNL     1       7.288   2.306   0.881  1.00  0.00     0.072 C 
HETATM   15  N4  UNL     1       4.937   2.157   1.822  1.00  0.00    -0.263 N 
HETATM   16  O1  UNL     1       3.895   1.385   1.724  1.00  0.00    -0.233 OA
ATOM     17  H4  UNL     1       4.980   2.989   2.410  1.00  0.00     0.194 HD
ATOM     18  H2  UNL     1       1.604   0.098   0.822  1.00  0.00     0.186 HD
ENDBRANCH   3   5
BRANCH   2  19
HETATM   19  C10 UNL     1      -0.934  -0.979   0.169  1.00  0.00     0.064 A 
HETATM   20  C11 UNL     1      -0.649   0.274   0.633  1.00  0.00     0.084 A 
HETATM   21  S1  UNL     1      -2.226   0.963   0.794  1.00  0.00    -0.064 SA
HETATM   22  C12 UNL     1      -3.119  -0.379   0.265  1.00  0.00     0.145 A 
HETATM   23  N6  UNL     1      -2.189  -1.288  -0.009  1.00  0.00    -0.335 N 
ATOM     24  H6  UNL     1      -2.452  -2.212  -0.353  1.00  0.00     0.168 HD
BRANCH  22  25
HETATM   25  N5  UNL     1      -4.424  -0.529   0.138  1.00  0.00    -0.366 N 
ATOM     26  H5  UNL     1      -4.806  -1.413  -0.198  1.00  0.00     0.162 HD
BRANCH  25  27
HETATM   27  C13 UNL     1      -5.310   0.561   0.475  1.00  0.00     0.083 C 
HETATM   28  C14 UNL     1      -4.899   1.850  -0.137  1.00  0.00     0.025 C 
HETATM   29  C15 UNL     1      -6.182   2.459  -0.645  1.00  0.00     0.002 C 
HETATM   30  C16 UNL     1      -7.011   1.254  -1.011  1.00  0.00     0.002 C 
HETATM   31  C17 UNL     1      -6.728   0.248   0.096  1.00  0.00     0.025 C 
ENDBRANCH  25  27
ENDBRANCH  22  25
ENDBRANCH   2  19
TORSDOF 4
