REMARK  3 active torsions:
REMARK  status: ('A' for Active; 'I' for Inactive)
REMARK    1  A    between atoms: C2_2  and  C3_3 
REMARK    2  A    between atoms: C4_8  and  C5_9 
REMARK    3  A    between atoms: C10_15  and  C11_16 
ROOT
HETATM    1  C5  UNL     1       0.417  -0.076  -0.522  1.00  0.00     0.107 C 
HETATM    2  C6  UNL     1      -0.383  -0.533   0.658  1.00  0.00    -0.053 C 
HETATM    3  C7  UNL     1       0.374  -0.684   1.914  1.00  0.00     0.045 C 
HETATM    4  C8  UNL     1      -1.668  -0.791   0.638  1.00  0.00     0.037 C 
HETATM    5  C9  UNL     1      -2.207  -1.217   1.910  1.00  0.00     0.096 C 
HETATM    6  N3  UNL     1      -2.671  -1.569   2.936  1.00  0.00    -0.192 NA
HETATM    7  C10 UNL     1      -2.683  -0.723  -0.453  1.00  0.00     0.110 C 
HETATM    8  C15 UNL     1      -2.179  -0.878  -1.827  1.00  0.00     0.154 C 
HETATM    9  C16 UNL     1      -2.213   0.378  -2.605  1.00  0.00     0.071 C 
HETATM   10  N4  UNL     1      -2.229   1.357  -3.241  1.00  0.00    -0.196 NA
HETATM   11  C17 UNL     1      -0.881  -1.529  -1.985  1.00  0.00     0.018 C 
HETATM   12  N5  UNL     1      -0.874  -2.555  -2.740  1.00  0.00    -0.403 N 
ATOM     13  H51 UNL     1       0.032  -3.010  -2.850  1.00  0.00     0.155 HD
ATOM     14  H52 UNL     1      -1.810  -2.735  -3.104  1.00  0.00     0.155 HD
HETATM   15  C18 UNL     1       0.490  -1.265  -1.451  1.00  0.00     0.154 C 
HETATM   16  C19 UNL     1       1.481  -1.132  -2.485  1.00  0.00     0.071 C 
HETATM   17  N6  UNL     1       2.276  -1.017  -3.299  1.00  0.00    -0.196 NA
ENDROOT
BRANCH   7  18
HETATM   18  C11 UNL     1      -3.492   0.505  -0.315  1.00  0.00     0.063 A 
HETATM   19  C12 UNL     1      -3.035   1.808  -0.208  1.00  0.00     0.035 A 
HETATM   20  C13 UNL     1      -4.152   2.611  -0.100  1.00  0.00     0.027 A 
HETATM   21  C14 UNL     1      -5.254   1.762  -0.144  1.00  0.00     0.142 A 
HETATM   22  O1  UNL     1      -4.799   0.541  -0.271  1.00  0.00    -0.326 OA
ENDBRANCH   7  18
BRANCH   1  23
HETATM   23  C4  UNL     1       1.737   0.427  -0.132  1.00  0.00     0.107 A 
HETATM   24  N2  UNL     1       2.138   1.696  -0.202  1.00  0.00    -0.287 N 
HETATM   25  N1  UNL     1       3.384   1.734   0.234  1.00  0.00    -0.288 N 
ATOM     26  H2  UNL     1       1.586   2.489  -0.530  1.00  0.00     0.188 HD
HETATM   27  C3  UNL     1       3.773   0.503   0.579  1.00  0.00     0.096 A 
ATOM     28  H1  UNL     1       3.960   2.573   0.298  1.00  0.00     0.188 HD
HETATM   29  N7  UNL     1       2.738  -0.307   0.348  1.00  0.00    -0.333 N 
ATOM     30  H7  UNL     1       2.718  -1.314   0.511  1.00  0.00     0.168 HD
BRANCH  27  31
HETATM   31  C2  UNL     1       5.075   0.034   1.121  1.00  0.00     0.073 C 
HETATM   32  C1  UNL     1       5.083   0.084   2.642  1.00  0.00     0.013 C 
ENDBRANCH  27  31
ENDBRANCH   1  23
TORSDOF 3
