REMARK  6 active torsions:
REMARK  status: ('A' for Active; 'I' for Inactive)
REMARK    1  A    between atoms: C3_3  and  N1_4 
REMARK    2  A    between atoms: N1_4  and  N2_5 
REMARK    3  A    between atoms: C4_6  and  S1_7 
REMARK    4  A    between atoms: C6_13  and  C7_14 
REMARK       I    between atoms: C7_14  and  N5_16 
REMARK    5  A    between atoms: N5_16  and  C8_18 
REMARK    6  A    between atoms: C17_27  and  O2_28 
ROOT
HETATM    1  N2  UNL     1       0.684   1.358   1.490  1.00  0.00    -0.143 N 
HETATM    2  C4  UNL     1       0.896   2.228   2.525  1.00  0.00     0.194 A 
HETATM    3  N3  UNL     1       2.196   2.381   2.748  1.00  0.00    -0.276 N 
ATOM      4  H3  UNL     1       2.616   2.975   3.463  1.00  0.00     0.189 HD
HETATM    5  N4  UNL     1       2.838   1.641   1.895  1.00  0.00    -0.277 N 
ATOM      6  H4  UNL     1       3.852   1.557   1.830  1.00  0.00     0.189 HD
HETATM    7  C6  UNL     1       1.947   1.001   1.109  1.00  0.00     0.225 A 
ENDROOT
BRANCH   1   8
HETATM    8  N1  UNL     1      -0.449   0.979   1.005  1.00  0.00    -0.319 NA
BRANCH   8   9
HETATM    9  C3  UNL     1      -1.467   0.482   0.662  1.00  0.00     0.118 C 
HETATM   10  C2  UNL     1      -2.390   1.131  -0.303  1.00  0.00    -0.000 C 
HETATM   11  C1  UNL     1      -1.922   1.927  -1.254  1.00  0.00     0.024 C 
HETATM   12  C17 UNL     1      -3.836   0.843  -0.141  1.00  0.00     0.154 C 
HETATM   13  C16 UNL     1      -4.152  -0.596   0.122  1.00  0.00     0.045 C 
HETATM   14  C13 UNL     1      -2.900  -1.462   0.221  1.00  0.00    -0.039 C 
HETATM   15  C12 UNL     1      -1.909  -0.864   1.187  1.00  0.00     0.084 C 
HETATM   16  C14 UNL     1      -3.365  -2.808   0.750  1.00  0.00     0.015 C 
HETATM   17  C15 UNL     1      -2.360  -1.675  -1.158  1.00  0.00     0.015 C 
BRANCH  12  18
HETATM   18  O2  UNL     1      -4.406   1.616   0.870  1.00  0.00    -0.391 OA
ATOM     19  H2  UNL     1      -5.332   1.432   0.974  1.00  0.00     0.210 HD
ENDBRANCH  12  18
ENDBRANCH   8   9
ENDBRANCH   1   8
BRANCH   2  20
HETATM   20  S1  UNL     1      -0.403   3.025   3.424  1.00  0.00    -0.094 SA
HETATM   21  C5  UNL     1      -0.810   4.587   2.620  1.00  0.00     0.099 C 
ENDBRANCH   2  20
BRANCH   7  22
HETATM   22  C7  UNL     1       2.250   0.079   0.033  1.00  0.00     0.290 C 
HETATM   23  O1  UNL     1       1.303  -0.444  -0.592  1.00  0.00    -0.264 OA
HETATM   24  N5  UNL     1       3.603  -0.199  -0.276  1.00  0.00    -0.346 N 
ATOM     25  H5  UNL     1       4.335   0.258   0.268  1.00  0.00     0.163 HD
BRANCH  24  26
HETATM   26  C8  UNL     1       3.988  -1.111  -1.339  1.00  0.00     0.022 C 
HETATM   27  C9  UNL     1       3.476  -0.675  -2.685  1.00  0.00     0.037 C 
HETATM   28  C10 UNL     1       5.497  -1.163  -1.435  1.00  0.00     0.037 C 
HETATM   29  C11 UNL     1       3.520  -2.523  -1.042  1.00  0.00     0.037 C 
ENDBRANCH  24  26
ENDBRANCH   7  22
TORSDOF 6
