REMARK  5 active torsions:
REMARK  status: ('A' for Active; 'I' for Inactive)
REMARK    1  A    between atoms: C4_4  and  C5_5 
REMARK    2  A    between atoms: C5_5  and  C7_8 
REMARK    3  A    between atoms: C7_8  and  O2_10 
REMARK    4  A    between atoms: O2_10  and  C8_11 
REMARK    5  A    between atoms: C10_13  and  O3_14 
ROOT
HETATM    1  C5  UNL     1       2.880  -1.529   0.656  1.00  0.00     0.215 C 
HETATM    2  C6  UNL     1       3.429  -2.694   0.057  1.00  0.00     0.078 C 
HETATM    3  N1  UNL     1       3.847  -3.670  -0.432  1.00  0.00    -0.196 NA
ENDROOT
BRANCH   1   4
HETATM    4  C4  UNL     1       3.792  -0.420   0.950  1.00  0.00     0.004 C 
HETATM    5  C2  UNL     1       5.055  -0.252   0.667  1.00  0.00    -0.090 C 
HETATM    6  C1  UNL     1       5.702   1.043   1.133  1.00  0.00     0.042 C 
HETATM    7  C3  UNL     1       5.953  -1.160  -0.062  1.00  0.00     0.042 C 
ENDBRANCH   1   4
BRANCH   1   8
HETATM    8  C7  UNL     1       1.741  -1.007  -0.197  1.00  0.00     0.281 C 
HETATM    9  O1  UNL     1       1.575  -1.499  -1.322  1.00  0.00    -0.263 OA
BRANCH   8  10
HETATM   10  O2  UNL     1       0.917  -0.031   0.239  1.00  0.00    -0.306 OA
BRANCH  10  11
HETATM   11  C8  UNL     1      -0.170   0.524  -0.451  1.00  0.00     0.102 C 
HETATM   12  C9  UNL     1       0.188   1.120  -1.777  1.00  0.00     0.050 C 
HETATM   13  C10 UNL     1      -0.377   1.815   0.417  1.00  0.00     0.153 C 
HETATM   14  C11 UNL     1      -1.594   2.543  -0.039  1.00  0.00     0.035 C 
HETATM   15  C12 UNL     1      -2.722   1.686   0.477  1.00  0.00     0.011 C 
HETATM   16  C13 UNL     1      -2.712   0.401  -0.287  1.00  0.00     0.036 C 
HETATM   17  C14 UNL     1      -3.778  -0.436   0.449  1.00  0.00     0.093 C 
HETATM   18  C18 UNL     1      -1.408  -0.312  -0.418  1.00  0.00     0.021 C 
HETATM   19  C15 UNL     1      -4.435  -1.454  -0.418  1.00  0.00     0.049 C 
HETATM   20  C16 UNL     1      -4.902   0.505   0.907  1.00  0.00     0.049 C 
HETATM   21  O4  UNL     1      -3.202  -1.044   1.538  1.00  0.00    -0.230 OA
HETATM   22  O5  UNL     1      -2.422  -1.977   1.043  1.00  0.00    -0.239 OA
HETATM   23  C17 UNL     1      -1.228  -1.366   0.675  1.00  0.00     0.222 C 
HETATM   24  C19 UNL     1      -1.469  -1.105  -1.708  1.00  0.00     0.021 C 
BRANCH  13  25
HETATM   25  O3  UNL     1       0.724   2.635   0.314  1.00  0.00    -0.393 OA
ATOM     26  H3  UNL     1       0.599   3.416   0.839  1.00  0.00     0.210 HD
ENDBRANCH  13  25
ENDBRANCH  10  11
ENDBRANCH   8  10
ENDBRANCH   1   8
TORSDOF 5
