REMARK  3 active torsions:
REMARK  status: ('A' for Active; 'I' for Inactive)
REMARK    1  A    between atoms: C3_4  and  C4_5 
REMARK    2  A    between atoms: N4_14  and  C7_16 
REMARK    3  A    between atoms: C7_16  and  C8_17 
ROOT
HETATM    1  N1  UNL     1       4.365  -0.228   3.060  1.00  0.00    -0.191 NA
HETATM    2  C1  UNL     1       4.066  -0.089   1.958  1.00  0.00     0.105 C 
HETATM    3  C2  UNL     1       3.672   0.104   0.594  1.00  0.00     0.119 A 
HETATM    4  C3  UNL     1       4.232  -0.471  -0.522  1.00  0.00     0.090 A 
HETATM    5  N2  UNL     1       3.512   0.023  -1.573  1.00  0.00    -0.296 N 
ATOM      6  H2  UNL     1       3.673  -0.207  -2.554  1.00  0.00     0.187 HD
HETATM    7  N3  UNL     1       2.569   0.849  -1.126  1.00  0.00    -0.284 N 
ATOM      8  H3  UNL     1       1.902   1.344  -1.718  1.00  0.00     0.188 HD
HETATM    9  C6  UNL     1       2.618   0.938   0.198  1.00  0.00     0.139 A 
HETATM   10  N4  UNL     1       1.878   1.630   0.988  1.00  0.00    -0.368 N 
ATOM     11  H4  UNL     1       2.046   1.591   1.993  1.00  0.00     0.161 HD
ENDROOT
BRANCH   4  12
HETATM   12  C4  UNL     1       5.367  -1.420  -0.606  1.00  0.00     0.048 A 
HETATM   13  C5  UNL     1       6.184  -2.007   0.302  1.00  0.00     0.079 A 
HETATM   14  S1  UNL     1       7.267  -2.988  -0.537  1.00  0.00    -0.063 SA
HETATM   15  S2  UNL     1       6.106  -2.162  -1.914  1.00  0.00    -0.050 SA
ENDBRANCH   4  12
BRANCH  10  16
HETATM   16  C7  UNL     1       0.820   2.457   0.483  1.00  0.00     0.179 C 
BRANCH  16  17
HETATM   17  C8  UNL     1      -0.379   1.587   0.305  1.00  0.00     0.045 A 
HETATM   18  C9  UNL     1      -1.586   2.062  -0.167  1.00  0.00     0.055 A 
HETATM   19  C10 UNL     1      -2.421   0.979  -0.188  1.00  0.00     0.030 A 
HETATM   20  N5  UNL     1      -1.743  -0.085   0.250  1.00  0.00    -0.296 N 
HETATM   21  C15 UNL     1      -3.828   1.031  -0.629  1.00  0.00     0.059 C 
HETATM   22  N6  UNL     1      -0.520   0.275   0.546  1.00  0.00    -0.301 N 
HETATM   23  C11 UNL     1      -2.164  -1.479   0.423  1.00  0.00     0.148 C 
ATOM     24  H6  UNL     1       0.209  -0.343   0.903  1.00  0.00     0.187 HD
HETATM   25  C12 UNL     1      -3.458  -1.729  -0.316  1.00  0.00     0.022 C 
HETATM   26  C13 UNL     1      -4.644  -1.134   0.365  1.00  0.00     0.002 C 
HETATM   27  C14 UNL     1      -4.663   0.353   0.428  1.00  0.00     0.006 C 
ENDBRANCH  16  17
ENDBRANCH  10  16
TORSDOF 3
