REMARK  3 active torsions:
REMARK  status: ('A' for Active; 'I' for Inactive)
REMARK    1  A    between atoms: C3_6  and  C4_7 
REMARK    2  A    between atoms: N5_18  and  C8_19 
REMARK    3  A    between atoms: C13_24  and  C14_25 
ROOT
HETATM    1  C4  UNL     1       3.140   0.159  -1.437  1.00  0.00     0.163 A 
HETATM    2  N2  UNL     1       3.257  -0.364  -2.666  1.00  0.00    -0.325 N 
ATOM      3  H2  UNL     1       4.126  -0.263  -3.190  1.00  0.00     0.169 HD
HETATM    4  C5  UNL     1       2.205  -1.029  -3.203  1.00  0.00     0.116 A 
HETATM    5  N3  UNL     1       2.322  -1.537  -4.400  1.00  0.00    -0.385 N 
ATOM      6  H31 UNL     1       1.530  -2.037  -4.804  1.00  0.00     0.157 HD
ATOM      7  H32 UNL     1       3.199  -1.426  -4.909  1.00  0.00     0.157 HD
HETATM    8  C6  UNL     1       1.023  -1.178  -2.517  1.00  0.00     0.070 A 
HETATM    9  C7  UNL     1      -0.189  -1.775  -2.771  1.00  0.00     0.126 A 
HETATM   10  N4  UNL     1      -0.978  -1.583  -1.682  1.00  0.00    -0.307 N 
ATOM     11  H4  UNL     1      -1.936  -1.920  -1.590  1.00  0.00     0.186 HD
HETATM   12  N5  UNL     1      -0.326  -0.898  -0.760  1.00  0.00    -0.271 N 
HETATM   13  C18 UNL     1       0.918  -0.635  -1.253  1.00  0.00     0.139 A 
HETATM   14  N6  UNL     1       1.987   0.013  -0.767  1.00  0.00    -0.323 N 
ATOM     15  H6  UNL     1       1.919   0.418   0.167  1.00  0.00     0.169 HD
ENDROOT
BRANCH  12  16
HETATM   16  C8  UNL     1      -0.807  -0.487   0.541  1.00  0.00     0.114 C 
HETATM   17  C9  UNL     1      -0.369  -1.584   1.515  1.00  0.00     0.028 C 
HETATM   18  C10 UNL     1      -1.274  -2.777   1.438  1.00  0.00     0.002 C 
HETATM   19  C11 UNL     1      -2.616  -2.377   2.004  1.00  0.00     0.001 C 
HETATM   20  C12 UNL     1      -2.810  -0.880   1.879  1.00  0.00     0.007 C 
HETATM   21  C13 UNL     1      -2.285  -0.438   0.529  1.00  0.00     0.018 C 
BRANCH  21  22
HETATM   22  C14 UNL     1      -2.887   0.867   0.123  1.00  0.00    -0.046 C 
HETATM   23  C15 UNL     1      -2.539   1.338  -1.234  1.00  0.00     0.015 C 
HETATM   24  C16 UNL     1      -2.462   1.942   1.131  1.00  0.00     0.015 C 
HETATM   25  C17 UNL     1      -4.399   0.779   0.215  1.00  0.00     0.015 C 
ENDBRANCH  21  22
ENDBRANCH  12  16
BRANCH   1  26
HETATM   26  C3  UNL     1       4.280   0.886  -0.840  1.00  0.00     0.216 A 
HETATM   27  O1  UNL     1       5.428   1.081  -1.399  1.00  0.00    -0.214 OA
HETATM   28  N1  UNL     1       6.213   1.763  -0.596  1.00  0.00    -0.247 N 
HETATM   29  C2  UNL     1       5.539   2.016   0.527  1.00  0.00     0.100 A 
ATOM     30  H1  UNL     1       7.171   2.049  -0.796  1.00  0.00     0.196 HD
HETATM   31  C1  UNL     1       6.082   2.763   1.676  1.00  0.00     0.091 C 
HETATM   32  N7  UNL     1       4.321   1.458   0.361  1.00  0.00    -0.321 N 
ATOM     33  H7  UNL     1       3.561   1.472   1.041  1.00  0.00     0.169 HD
ENDBRANCH   1  26
TORSDOF 3
