REMARK  6 active torsions:
REMARK  status: ('A' for Active; 'I' for Inactive)
REMARK    1  A    between atoms: C4_8  and  C5_9 
REMARK       I    between atoms: N3_12  and  C8_13 
REMARK       I    between atoms: C8_13  and  N4_15 
REMARK    2  A    between atoms: N4_15  and  C9_17 
REMARK    3  A    between atoms: C9_17  and  C10_18 
REMARK    4  A    between atoms: C9_17  and  C11_21 
REMARK    5  A    between atoms: C10_18  and  O2_19 
REMARK    6  A    between atoms: C11_21  and  O3_24 
ROOT
HETATM    1  C5  UNL     1       2.859   0.359  -0.346  1.00  0.00     0.045 C 
HETATM    2  C6  UNL     1       2.578   1.392   0.747  1.00  0.00     0.056 C 
HETATM    3  C7  UNL     1       1.176   1.844   0.759  1.00  0.00     0.069 C 
HETATM    4  N3  UNL     1       0.222   0.909   0.328  1.00  0.00    -0.314 N 
HETATM    5  C8  UNL     1      -1.156   1.304   0.026  1.00  0.00     0.322 C 
HETATM    6  O1  UNL     1      -1.305   2.568   0.021  1.00  0.00    -0.247 OA
HETATM    7  N4  UNL     1      -2.139   0.390  -0.207  1.00  0.00    -0.333 N 
ATOM      8  H4  UNL     1      -1.848  -0.585  -0.137  1.00  0.00     0.164 HD
HETATM    9  C14 UNL     1       0.552  -0.460   0.105  1.00  0.00     0.133 C 
HETATM   10  C15 UNL     1       1.976  -0.839   0.001  1.00  0.00     0.031 C 
ENDROOT
BRANCH   7  11
HETATM   11  C9  UNL     1      -3.513   0.589  -0.534  1.00  0.00     0.143 C 
BRANCH  11  12
HETATM   12  C10 UNL     1      -4.311   1.108   0.701  1.00  0.00     0.192 C 
BRANCH  12  13
HETATM   13  O2  UNL     1      -3.844   2.356   1.083  1.00  0.00    -0.399 OA
ATOM     14  H2  UNL     1      -4.330   2.672   1.835  1.00  0.00     0.209 HD
ENDBRANCH  12  13
ENDBRANCH  11  12
BRANCH  11  15
HETATM   15  C11 UNL     1      -4.164  -0.680  -0.960  1.00  0.00     0.073 C 
HETATM   16  C12 UNL     1      -4.248  -1.539   0.352  1.00  0.00     0.047 C 
HETATM   17  C13 UNL     1      -3.473  -1.481  -2.010  1.00  0.00     0.047 C 
BRANCH  15  18
HETATM   18  O3  UNL     1      -5.488  -0.426  -1.358  1.00  0.00    -0.388 OA
ATOM     19  H3  UNL     1      -5.903  -1.236  -1.630  1.00  0.00     0.210 HD
ENDBRANCH  15  18
ENDBRANCH  11  15
ENDBRANCH   7  11
BRANCH   1  20
HETATM   20  C4  UNL     1       4.291   0.067  -0.361  1.00  0.00     0.051 A 
HETATM   21  N1  UNL     1       5.087  -0.699   0.390  1.00  0.00    -0.299 N 
HETATM   22  C1  UNL     1       4.745  -1.553   1.497  1.00  0.00     0.177 C 
HETATM   23  N2  UNL     1       6.337  -0.714  -0.132  1.00  0.00    -0.309 N 
HETATM   24  C2  UNL     1       6.363   0.043  -1.233  1.00  0.00     0.128 A 
ATOM     25  H2  UNL     1       7.132  -1.223   0.254  1.00  0.00     0.186 HD
HETATM   26  C3  UNL     1       5.116   0.548  -1.416  1.00  0.00     0.052 A 
HETATM   27 BR1  UNL     1       4.545   1.763  -2.821  1.00  0.00    -0.047 Br
ENDBRANCH   1  20
TORSDOF 6
