REMARK  7 active torsions:
REMARK  status: ('A' for Active; 'I' for Inactive)
REMARK    1  A    between atoms: C5_5  and  O1_6 
REMARK    2  A    between atoms: C6_8  and  O2_9 
REMARK    3  A    between atoms: C6_8  and  C7_11 
REMARK    4  A    between atoms: C8_12  and  C9_13 
REMARK    5  A    between atoms: N1_15  and  C11_16 
REMARK    6  A    between atoms: C14_19  and  N2_20 
REMARK    7  A    between atoms: N2_20  and  C15_22 
ROOT
HETATM    1  C9  UNL     1      -0.970  -1.389  -0.343  1.00  0.00     0.073 A 
HETATM    2  C10 UNL     1       0.257  -0.788  -0.233  1.00  0.00     0.114 A 
HETATM    3  N1  UNL     1       1.264  -1.696  -0.259  1.00  0.00    -0.357 N 
HETATM    4  C20 UNL     1       0.703  -2.907  -0.386  1.00  0.00     0.134 A 
HETATM    5  C21 UNL     1      -0.687  -2.746  -0.440  1.00  0.00     0.151 A 
HETATM    6  F1  UNL     1      -1.610  -3.729  -0.565  1.00  0.00    -0.203 F 
ENDROOT
BRANCH   1   7
HETATM    7  C8  UNL     1      -2.255  -0.730  -0.354  1.00  0.00    -0.059 C 
HETATM    8  C7  UNL     1      -3.321  -0.175  -0.388  1.00  0.00    -0.060 C 
BRANCH   8   9
HETATM    9  C6  UNL     1      -4.592   0.488  -0.464  1.00  0.00     0.147 C 
HETATM   10  C5  UNL     1      -5.767  -0.482  -0.452  1.00  0.00     0.165 C 
HETATM   11  C4  UNL     1      -6.921   0.485  -0.295  1.00  0.00     0.044 C 
HETATM   12  C2  UNL     1      -6.367   1.631   0.531  1.00  0.00    -0.042 C 
HETATM   13  C1  UNL     1      -6.414   2.904  -0.288  1.00  0.00     0.015 C 
HETATM   14  C3  UNL     1      -7.110   1.807   1.815  1.00  0.00     0.015 C 
HETATM   15  C22 UNL     1      -4.890   1.277   0.794  1.00  0.00     0.063 C 
BRANCH  10  16
HETATM   16  O1  UNL     1      -5.838  -1.276  -1.565  1.00  0.00    -0.392 OA
ATOM     17  H1  UNL     1      -5.114  -1.883  -1.664  1.00  0.00     0.210 HD
ENDBRANCH  10  16
BRANCH   9  18
HETATM   18  O2  UNL     1      -4.683   1.365  -1.549  1.00  0.00    -0.375 OA
ATOM     19  H2  UNL     1      -3.950   1.970  -1.556  1.00  0.00     0.212 HD
ENDBRANCH   9  18
ENDBRANCH   8   9
ENDBRANCH   1   7
BRANCH   3  20
HETATM   20  C11 UNL     1       2.663  -1.362  -0.154  1.00  0.00     0.089 C 
HETATM   21  C12 UNL     1       3.097  -1.220   1.291  1.00  0.00     0.028 C 
HETATM   22  C13 UNL     1       4.351  -0.359   1.285  1.00  0.00     0.027 C 
HETATM   23  C14 UNL     1       5.190  -0.622   0.070  1.00  0.00     0.077 C 
HETATM   24  C18 UNL     1       4.978  -2.070  -0.365  1.00  0.00     0.027 C 
HETATM   25  C19 UNL     1       3.561  -2.324  -0.848  1.00  0.00     0.028 C 
BRANCH  23  26
HETATM   26  N2  UNL     1       6.565  -0.386   0.198  1.00  0.00    -0.409 N 
ATOM     27  H2  UNL     1       7.190  -1.192   0.188  1.00  0.00     0.154 HD
BRANCH  26  28
HETATM   28  C15 UNL     1       7.129   0.870   0.337  1.00  0.00     0.124 C 
HETATM   29  C16 UNL     1       6.972   1.711  -0.966  1.00  0.00     0.194 C 
HETATM   30  O3  UNL     1       7.167   2.818  -0.096  1.00  0.00    -0.387 OA
HETATM   31  C17 UNL     1       6.332   2.054   0.816  1.00  0.00     0.194 C 
ENDBRANCH  26  28
ENDBRANCH  23  26
ENDBRANCH   3  20
TORSDOF 7
