REMARK  5 active torsions:
REMARK  status: ('A' for Active; 'I' for Inactive)
REMARK    1  A    between atoms: O1_2  and  C2_3 
REMARK       I    between atoms: C2_3  and  N1_5 
REMARK    2  A    between atoms: N1_5  and  C3_7 
REMARK    3  A    between atoms: C5_9  and  C6_10 
REMARK    4  A    between atoms: C19_25  and  O4_26 
REMARK    5  A    between atoms: C20_28  and  O5_29 
ROOT
HETATM    1  C3  UNL     1       1.970  -0.391   0.303  1.00  0.00     0.094 C 
HETATM    2  C4  UNL     1       1.565   0.967  -0.287  1.00  0.00     0.031 C 
HETATM    3  C5  UNL     1       0.475   0.586  -1.304  1.00  0.00    -0.002 C 
HETATM    4  C9  UNL     1      -0.748   0.321  -0.519  1.00  0.00     0.033 C 
HETATM    5  C10 UNL     1      -1.586  -0.866  -0.845  1.00  0.00     0.094 C 
HETATM    6 CL1  UNL     1      -1.205  -1.742  -2.316  1.00  0.00    -0.111 Cl
HETATM    7  C11 UNL     1      -3.036  -0.550  -0.729  1.00  0.00     0.013 C 
HETATM    8  C12 UNL     1      -3.807  -0.040   0.243  1.00  0.00    -0.018 C 
HETATM    9  C13 UNL     1      -5.241   0.088  -0.133  1.00  0.00     0.052 C 
HETATM   10  C14 UNL     1      -3.479   0.404   1.592  1.00  0.00     0.155 C 
HETATM   11  O3  UNL     1      -4.459   0.995   2.102  1.00  0.00    -0.293 OA
HETATM   12  C15 UNL     1      -2.333   0.357   2.519  1.00  0.00     0.084 C 
HETATM   13  C16 UNL     1      -1.020   0.639   1.865  1.00  0.00     0.021 C 
HETATM   14  C17 UNL     1      -0.508  -0.253   0.849  1.00  0.00     0.010 C 
HETATM   15  C18 UNL     1       0.800  -0.927   1.032  1.00  0.00     0.052 C 
HETATM   16  C19 UNL     1       0.252  -2.162   0.338  1.00  0.00     0.162 C 
HETATM   17  C20 UNL     1      -1.105  -1.503   0.428  1.00  0.00     0.117 C 
ENDROOT
BRANCH   1  18
HETATM   18  N1  UNL     1       3.169  -0.297   1.073  1.00  0.00    -0.332 N 
HETATM   19  C2  UNL     1       4.396  -0.895   0.689  1.00  0.00     0.360 C 
HETATM   20  O2  UNL     1       4.421  -1.539  -0.387  1.00  0.00    -0.239 OA
ATOM     21  H1  UNL     1       3.141   0.229   1.947  1.00  0.00     0.165 HD
BRANCH  19  22
HETATM   22  O1  UNL     1       5.565  -0.815   1.421  1.00  0.00    -0.309 OA
HETATM   23  C1  UNL     1       6.723  -1.445   0.946  1.00  0.00     0.215 C 
ENDBRANCH  19  22
ENDBRANCH   1  18
BRANCH   3  24
HETATM   24  C6  UNL     1       0.344   1.807  -2.213  1.00  0.00    -0.018 C 
HETATM   25  C7  UNL     1      -0.050   3.039  -1.462  1.00  0.00     0.010 C 
HETATM   26  C8  UNL     1      -0.559   1.526  -3.382  1.00  0.00     0.010 C 
ENDBRANCH   3  24
BRANCH  16  27
HETATM   27  O4  UNL     1       0.389  -3.327   1.085  1.00  0.00    -0.392 OA
ATOM     28  H4  UNL     1       0.046  -4.099   0.651  1.00  0.00     0.210 HD
ENDBRANCH  16  27
BRANCH  17  29
HETATM   29  O5  UNL     1      -1.951  -2.240   1.165  1.00  0.00    -0.384 OA
ATOM     30  H5  UNL     1      -1.647  -2.643   1.970  1.00  0.00     0.210 HD
ENDBRANCH  17  29
TORSDOF 5
