REMARK  9 active torsions:
REMARK  status: ('A' for Active; 'I' for Inactive)
REMARK    1  A    between atoms: C2_2  and  C4_4 
REMARK    2  A    between atoms: C4_4  and  C5_5 
REMARK    3  A    between atoms: C9_14  and  O1_15 
REMARK    4  A    between atoms: O1_15  and  C10_16 
REMARK    5  A    between atoms: C10_16  and  N4_24 
REMARK    6  A    between atoms: N3_17  and  C11_19 
REMARK    7  A    between atoms: C12_20  and  C13_21 
REMARK    8  A    between atoms: C13_21  and  C14_22 
REMARK    9  A    between atoms: C17_27  and  N5_28 
ROOT
HETATM    1  C5  UNL     1       3.341   0.425   0.782  1.00  0.00     0.123 C 
HETATM    2  C6  UNL     1       3.164  -1.035   1.098  1.00  0.00     0.087 C 
HETATM    3  N1  UNL     1       2.414  -1.832   0.496  1.00  0.00    -0.358 N 
ATOM      4  H1  UNL     1       2.465  -2.769   0.896  1.00  0.00     0.166 HD
HETATM    5  C7  UNL     1       1.537  -1.781  -0.564  1.00  0.00     0.076 C 
HETATM    6  N2  UNL     1       1.818  -2.153  -1.800  1.00  0.00    -0.389 N 
ATOM      7  H21 UNL     1       1.168  -2.115  -2.585  1.00  0.00     0.157 HD
ATOM      8  H22 UNL     1       2.774  -2.483  -1.929  1.00  0.00     0.157 HD
HETATM    9  C8  UNL     1       0.148  -1.301  -0.377  1.00  0.00     0.111 C 
HETATM   10  C9  UNL     1      -0.043  -0.151   0.528  1.00  0.00     0.178 C 
HETATM   11  C17 UNL     1       0.133   1.208  -0.076  1.00  0.00     0.304 C 
HETATM   12  C18 UNL     1       1.470   1.499  -0.620  1.00  0.00     0.251 C 
HETATM   13  O2  UNL     1       1.493   2.553  -1.367  1.00  0.00    -0.271 OA
HETATM   14  N6  UNL     1       2.674   0.801  -0.436  1.00  0.00    -0.350 N 
ATOM     15  H6  UNL     1       3.147   0.518  -1.294  1.00  0.00     0.163 HD
ENDROOT
BRANCH  10  16
HETATM   16  O1  UNL     1      -1.233  -0.209   1.330  1.00  0.00    -0.313 OA
BRANCH  16  17
HETATM   17  C10 UNL     1      -2.493  -0.260   0.799  1.00  0.00     0.229 C 
HETATM   18  N3  UNL     1      -2.651  -0.902  -0.287  1.00  0.00    -0.281 N 
ATOM     19  H3  UNL     1      -1.835  -1.347  -0.708  1.00  0.00     0.179 HD
BRANCH  18  20
HETATM   20  C11 UNL     1      -3.891  -1.032  -0.940  1.00  0.00     0.013 C 
HETATM   21  C12 UNL     1      -4.959  -1.127  -1.490  1.00  0.00    -0.082 C 
BRANCH  21  22
HETATM   22  C13 UNL     1      -6.264  -1.228  -2.138  1.00  0.00     0.110 C 
BRANCH  22  23
HETATM   23  C14 UNL     1      -7.072   0.009  -1.779  1.00  0.00     0.126 C 
HETATM   24 CL1  UNL     1      -8.671  -0.027  -2.521  1.00  0.00    -0.130 Cl
ENDBRANCH  22  23
ENDBRANCH  21  22
ENDBRANCH  18  20
BRANCH  17  25
HETATM   25  N4  UNL     1      -3.631   0.355   1.378  1.00  0.00    -0.355 N 
HETATM   26  C15 UNL     1      -3.934   1.734   1.100  1.00  0.00     0.152 C 
HETATM   27  C16 UNL     1      -4.500  -0.392   2.252  1.00  0.00     0.152 C 
ENDBRANCH  17  25
ENDBRANCH  16  17
ENDBRANCH  10  16
BRANCH  11  28
HETATM   28  N5  UNL     1      -0.842   1.520  -1.083  1.00  0.00    -0.064 N 
ATOM     29  H53 UNL     1      -0.854   0.802  -1.808  1.00  0.00     0.275 HD
ATOM     30  H52 UNL     1      -1.787   1.408  -0.717  1.00  0.00     0.275 HD
ATOM     31  H51 UNL     1      -0.722   2.446  -1.494  1.00  0.00     0.275 HD
ENDBRANCH  11  28
BRANCH   1  32
HETATM   32  C4  UNL     1       4.731   0.885   0.945  1.00  0.00     0.034 C 
BRANCH  32  33
HETATM   33  C2  UNL     1       5.842   0.326   0.200  1.00  0.00    -0.020 C 
HETATM   34  C1  UNL     1       5.806   0.429  -1.307  1.00  0.00     0.009 C 
HETATM   35  C3  UNL     1       6.239  -1.089   0.523  1.00  0.00     0.009 C 
ENDBRANCH  32  33
ENDBRANCH   1  32
TORSDOF 9
