REMARK  13 active torsions:
REMARK  status: ('A' for Active; 'I' for Inactive)
REMARK    1  A    between atoms: O1_2  and  C2_3 
REMARK    2  A    between atoms: C2_3  and  C3_5 
REMARK    3  A    between atoms: C4_8  and  N2_9 
REMARK    4  A    between atoms: N2_9  and  C5_11 
REMARK    5  A    between atoms: C6_14  and  N4_15 
REMARK    6  A    between atoms: C7_20  and  O3_21 
REMARK    7  A    between atoms: C8_23  and  C9_24 
REMARK    8  A    between atoms: C9_24  and  C10_25 
REMARK    9  A    between atoms: C10_25  and  C11_30 
REMARK   10  A    between atoms: N6_26  and  O4_28 
REMARK   11  A    between atoms: C14_35  and  N7_36 
REMARK   12  A    between atoms: C15_40  and  N8_41 
REMARK   13  A    between atoms: N8_41  and  N9_42 
ROOT
HETATM    1  N2  UNL     1      -0.648  -0.729  -0.621  1.00  0.00    -0.348 N 
ATOM      2  H2  UNL     1      -0.622  -0.002   0.094  1.00  0.00     0.163 HD
ENDROOT
BRANCH   1   3
HETATM    3  C4  UNL     1       0.408  -0.726  -1.581  1.00  0.00     0.258 C 
HETATM    4  N1  UNL     1       0.915   0.609  -1.703  1.00  0.00    -0.344 N 
HETATM    5  C3  UNL     1       2.036   1.132  -1.400  1.00  0.00     0.177 C 
ATOM      6  H1  UNL     1       0.250   1.267  -2.111  1.00  0.00     0.163 HD
HETATM    7  N10 UNL     1       3.158   0.485  -0.823  1.00  0.00    -0.349 N 
HETATM    8  C15 UNL     1       3.393  -0.637   0.022  1.00  0.00     0.235 C 
ATOM      9  H10 UNL     1       4.030   0.947  -1.082  1.00  0.00     0.163 HD
HETATM   10  C14 UNL     1       2.378  -1.731  -0.040  1.00  0.00     0.296 C 
HETATM   11  C13 UNL     1       1.517  -1.638  -1.251  1.00  0.00     0.202 C 
HETATM   12  O6  UNL     1       1.783  -2.460  -2.107  1.00  0.00    -0.291 OA
BRANCH   5  13
HETATM   13  C2  UNL     1       2.186   2.579  -1.684  1.00  0.00     0.326 C 
HETATM   14  O2  UNL     1       1.207   3.166  -2.196  1.00  0.00    -0.256 OA
BRANCH  13  15
HETATM   15  O1  UNL     1       3.328   3.278  -1.414  1.00  0.00    -0.320 OA
HETATM   16  C1  UNL     1       3.510   4.658  -1.669  1.00  0.00     0.213 C 
ENDBRANCH  13  15
ENDBRANCH   5  13
BRANCH   8  17
HETATM   17  N8  UNL     1       3.638  -0.254   1.410  1.00  0.00    -0.120 NA
BRANCH  17  18
HETATM   18  N9  UNL     1       4.603   0.764   1.484  1.00  0.00    -0.346 N 
ATOM     19  H92 UNL     1       5.062   1.171   0.669  1.00  0.00     0.172 HD
ATOM     20  H91 UNL     1       4.774   1.031   2.453  1.00  0.00     0.172 HD
ENDBRANCH  17  18
ENDBRANCH   8  17
BRANCH  10  21
HETATM   21  N7  UNL     1       1.485  -1.782   1.101  1.00  0.00    -0.065 N 
ATOM     22  H73 UNL     1       0.827  -1.003   1.133  1.00  0.00     0.275 HD
ATOM     23  H72 UNL     1       0.794  -2.530   1.039  1.00  0.00     0.275 HD
ATOM     24  H71 UNL     1       2.075  -1.846   1.931  1.00  0.00     0.275 HD
ENDBRANCH  10  21
ENDBRANCH   1   3
BRANCH   1  25
HETATM   25  C5  UNL     1      -1.631  -1.560  -0.568  1.00  0.00     0.129 A 
HETATM   26  N3  UNL     1      -1.778  -2.561  -1.453  1.00  0.00    -0.176 N 
HETATM   27  C6  UNL     1      -2.807  -3.431  -1.392  1.00  0.00     0.679 A 
ATOM     28  H3  UNL     1      -1.088  -2.666  -2.196  1.00  0.00     0.186 HD
HETATM   29  N5  UNL     1      -3.742  -3.330  -0.431  1.00  0.00    -0.170 N 
HETATM   30  C7  UNL     1      -3.663  -2.344   0.499  1.00  0.00     0.165 A 
ATOM     31  H5  UNL     1      -4.513  -3.997  -0.401  1.00  0.00     0.186 HD
HETATM   32  C8  UNL     1      -2.608  -1.471   0.418  1.00  0.00     0.043 A 
BRANCH  27  33
HETATM   33  N4  UNL     1      -2.942  -4.391  -2.244  1.00  0.00    -0.234 N 
ATOM     34  H42 UNL     1      -2.233  -4.468  -2.973  1.00  0.00     0.174 HD
ATOM     35  H41 UNL     1      -3.720  -5.049  -2.198  1.00  0.00     0.174 HD
ENDBRANCH  27  33
BRANCH  30  36
HETATM   36  O3  UNL     1      -4.592  -2.190   1.508  1.00  0.00    -0.345 OA
ATOM     37  H3  UNL     1      -4.537  -1.500   2.159  1.00  0.00     0.219 HD
ENDBRANCH  30  36
BRANCH  32  38
HETATM   38  C9  UNL     1      -2.450  -0.366   1.394  1.00  0.00     0.110 C 
BRANCH  38  39
HETATM   39  C10 UNL     1      -2.840   0.944   0.831  1.00  0.00     0.081 C 
HETATM   40  N6  UNL     1      -3.259   1.042  -0.365  1.00  0.00    -0.270 N 
ATOM     41  H6  UNL     1      -3.328   0.206  -0.945  1.00  0.00     0.194 HD
BRANCH  40  42
HETATM   42  O4  UNL     1      -3.619   2.258  -0.883  1.00  0.00    -0.290 OA
ATOM     43  H4  UNL     1      -3.932   2.331  -1.777  1.00  0.00     0.244 HD
ENDBRANCH  40  42
BRANCH  39  44
HETATM   44  C11 UNL     1      -2.735   2.110   1.665  1.00  0.00     0.170 C 
HETATM   45  C12 UNL     1      -2.243   2.026   3.084  1.00  0.00     0.098 C 
HETATM   46  O5  UNL     1      -3.065   3.227   1.195  1.00  0.00    -0.291 OA
ENDBRANCH  39  44
ENDBRANCH  38  39
ENDBRANCH  32  38
ENDBRANCH   1  25
TORSDOF 13
