REMARK  10 active torsions:
REMARK  status: ('A' for Active; 'I' for Inactive)
REMARK    1  A    between atoms: N1_1  and  C1_4 
REMARK    2  A    between atoms: N6_16  and  C4_17 
REMARK    3  A    between atoms: C4_17  and  C5_18 
REMARK    4  A    between atoms: N7_20  and  C7_21 
REMARK    5  A    between atoms: C7_21  and  O1_22 
REMARK    6  A    between atoms: C7_21  and  C8_24 
REMARK    7  A    between atoms: C8_24  and  O2_25 
REMARK    8  A    between atoms: C8_24  and  C9_27 
REMARK    9  A    between atoms: C9_27  and  N8_28 
REMARK   10  A    between atoms: C12_33  and  N10_34 
ROOT
HETATM    1  C5  UNL     1      -2.057   0.486  -1.674  1.00  0.00     0.064 A 
HETATM    2  C6  UNL     1      -1.593  -0.572  -0.926  1.00  0.00     0.143 A 
HETATM    3  N7  UNL     1      -0.326  -0.297  -0.570  1.00  0.00    -0.255 N 
HETATM    4  N13 UNL     1      -0.045   0.876  -1.084  1.00  0.00    -0.238 N 
ATOM      5  H13 UNL     1       0.854   1.346  -0.978  1.00  0.00     0.208 HD
HETATM    6  N14 UNL     1      -1.054   1.370  -1.747  1.00  0.00    -0.287 N 
ATOM      7  H14 UNL     1      -1.075   2.267  -2.233  1.00  0.00     0.188 HD
ENDROOT
BRANCH   3   8
HETATM    8  C7  UNL     1       0.582  -1.094   0.215  1.00  0.00     0.272 C 
BRANCH   8   9
HETATM    9  O1  UNL     1       0.475  -0.708   1.564  1.00  0.00    -0.372 OA
ATOM     10  H1  UNL     1       1.074  -1.234   2.082  1.00  0.00     0.212 HD
ENDBRANCH   8   9
BRANCH   8  11
HETATM   11  C8  UNL     1       1.991  -0.870  -0.290  1.00  0.00     0.186 C 
BRANCH  11  12
HETATM   12  O2  UNL     1       2.261   0.502  -0.154  1.00  0.00    -0.389 OA
ATOM     13  H2  UNL     1       3.145   0.643  -0.471  1.00  0.00     0.210 HD
ENDBRANCH  11  12
BRANCH  11  14
HETATM   14  C9  UNL     1       3.000  -1.606   0.567  1.00  0.00     0.167 C 
BRANCH  14  15
HETATM   15  N8  UNL     1       4.353  -1.381   0.069  1.00  0.00    -0.325 N 
HETATM   16  C10 UNL     1       5.015  -2.117  -0.841  1.00  0.00     0.185 A 
HETATM   17  N9  UNL     1       6.223  -1.605  -1.042  1.00  0.00    -0.346 N 
HETATM   18  C11 UNL     1       6.393  -0.517  -0.270  1.00  0.00     0.122 A 
ATOM     19  H9  UNL     1       6.919  -1.981  -1.686  1.00  0.00     0.167 HD
HETATM   20  C12 UNL     1       7.411   0.385  -0.069  1.00  0.00     0.131 A 
HETATM   21  C14 UNL     1       5.193  -0.391   0.429  1.00  0.00     0.140 A 
HETATM   22  N11 UNL     1       7.226   1.379   0.806  1.00  0.00    -0.337 N 
HETATM   23  C13 UNL     1       6.068   1.500   1.479  1.00  0.00     0.183 A 
ATOM     24  H11 UNL     1       7.973   2.055   0.965  1.00  0.00     0.168 HD
HETATM   25  N12 UNL     1       5.068   0.629   1.293  1.00  0.00    -0.336 N 
ATOM     26  H12 UNL     1       4.199   0.742   1.815  1.00  0.00     0.168 HD
BRANCH  20  27
HETATM   27  N10 UNL     1       8.530   0.300  -0.696  1.00  0.00    -0.383 N 
ATOM     28 2H10 UNL     1       8.671  -0.458  -1.363  1.00  0.00     0.157 HD
ATOM     29 1H10 UNL     1       9.285   0.969  -0.547  1.00  0.00     0.157 HD
ENDBRANCH  20  27
ENDBRANCH  14  15
ENDBRANCH  11  14
ENDBRANCH   8  11
ENDBRANCH   3   8
BRANCH   1  30
HETATM   30  C4  UNL     1      -3.379   0.686  -2.304  1.00  0.00     0.212 C 
BRANCH  30  31
HETATM   31  N6  UNL     1      -4.312   1.356  -1.419  1.00  0.00    -0.254 N 
HETATM   32  N5  UNL     1      -4.513   2.650  -1.299  1.00  0.00    -0.238 N 
HETATM   33  N4  UNL     1      -5.448   2.904  -0.387  1.00  0.00    -0.279 N 
ATOM     34  H5  UNL     1      -4.018   3.364  -1.834  1.00  0.00     0.208 HD
HETATM   35  C3  UNL     1      -5.891   1.739   0.123  1.00  0.00     0.140 A 
ATOM     36  H4  UNL     1      -5.776   3.831  -0.118  1.00  0.00     0.189 HD
HETATM   37  C2  UNL     1      -6.832   1.412   1.077  1.00  0.00     0.147 A 
HETATM   38  C15 UNL     1      -5.155   0.765  -0.547  1.00  0.00     0.171 A 
HETATM   39  N2  UNL     1      -7.021   0.107   1.344  1.00  0.00    -0.175 N 
HETATM   40  N3  UNL     1      -7.508   2.308   1.692  1.00  0.00    -0.383 N 
HETATM   41  C1  UNL     1      -6.308  -0.845   0.694  1.00  0.00     0.679 A 
ATOM     42  H2  UNL     1      -7.709  -0.169   2.044  1.00  0.00     0.186 HD
HETATM   43  N15 UNL     1      -5.389  -0.526  -0.236  1.00  0.00    -0.173 N 
ATOM     44  H15 UNL     1      -4.867  -1.264  -0.708  1.00  0.00     0.186 HD
ATOM     45  H32 UNL     1      -8.204   2.066   2.397  1.00  0.00     0.157 HD
ATOM     46  H31 UNL     1      -7.365   3.297   1.490  1.00  0.00     0.157 HD
BRANCH  41  47
HETATM   47  N1  UNL     1      -6.530  -2.094   0.991  1.00  0.00    -0.234 N 
ATOM     48  H12 UNL     1      -7.227  -2.336   1.696  1.00  0.00     0.174 HD
ATOM     49  H11 UNL     1      -5.993  -2.810   0.502  1.00  0.00     0.174 HD
ENDBRANCH  41  47
ENDBRANCH  30  31
ENDBRANCH   1  30
TORSDOF 10
