REMARK  12 active torsions:
REMARK  status: ('A' for Active; 'I' for Inactive)
REMARK    1  A    between atoms: N5_11  and  C5_12 
REMARK    2  A    between atoms: C8_15  and  O1_16 
REMARK    3  A    between atoms: N6_20  and  C10_21 
REMARK    4  A    between atoms: C10_21  and  C11_22 
REMARK    5  A    between atoms: C10_21  and  C12_25 
REMARK    6  A    between atoms: C11_22  and  O3_23 
REMARK    7  A    between atoms: C12_25  and  N7_26 
REMARK    8  A    between atoms: C12_25  and  C13_30 
REMARK    9  A    between atoms: C13_30  and  O4_31 
REMARK   10  A    between atoms: C13_30  and  N8_33 
REMARK   11  A    between atoms: N8_33  and  C14_35 
REMARK   12  A    between atoms: C16_43  and  N12_44 
ROOT
HETATM    1  C10 UNL     1      -0.265  -0.546  -0.810  1.00  0.00     0.153 C 
ENDROOT
BRANCH   1   2
HETATM    2  N6  UNL     1      -0.864  -1.358   0.229  1.00  0.00    -0.289 N 
HETATM    3  C5  UNL     1      -1.938  -0.904   0.895  1.00  0.00     0.117 A 
HETATM    4  C6  UNL     1      -2.454  -1.689   1.951  1.00  0.00     0.052 A 
HETATM    5  C7  UNL     1      -1.875  -2.883   2.286  1.00  0.00     0.046 A 
HETATM    6  C8  UNL     1      -0.777  -3.308   1.571  1.00  0.00     0.134 A 
HETATM    7  C9  UNL     1      -0.268  -2.533   0.530  1.00  0.00     0.282 A 
HETATM    8  O2  UNL     1       0.739  -2.990  -0.082  1.00  0.00    -0.265 OA
BRANCH   3   9
HETATM    9  N5  UNL     1      -2.624   0.300   0.580  1.00  0.00    -0.285 N 
HETATM   10  C2  UNL     1      -2.322   1.623   0.976  1.00  0.00     0.191 C 
HETATM   11  C1  UNL     1      -2.600   1.861   2.463  1.00  0.00     0.056 C 
HETATM   12  N1  UNL     1      -3.097   2.625   0.283  1.00  0.00    -0.343 N 
HETATM   13  C3  UNL     1      -4.088   2.423  -0.494  1.00  0.00     0.192 C 
ATOM     14  H1  UNL     1      -2.823   3.596   0.430  1.00  0.00     0.164 HD
HETATM   15  N2  UNL     1      -4.768   3.528  -1.111  1.00  0.00    -0.063 NA
HETATM   16  N3  UNL     1      -4.453   1.080  -0.759  1.00  0.00    -0.304 N 
HETATM   17  C4  UNL     1      -3.799   0.104  -0.243  1.00  0.00     0.200 C 
ATOM     18  H3  UNL     1      -5.247   0.886  -1.369  1.00  0.00     0.171 HD
HETATM   19  N4  UNL     1      -4.246  -1.239  -0.555  1.00  0.00    -0.063 NA
ENDBRANCH   3   9
BRANCH   6  20
HETATM   20  O1  UNL     1      -0.157  -4.518   1.877  1.00  0.00    -0.356 OA
ATOM     21  H1  UNL     1       0.600  -4.811   1.384  1.00  0.00     0.218 HD
ENDBRANCH   6  20
ENDBRANCH   1   2
BRANCH   1  22
HETATM   22  C11 UNL     1      -0.309  -1.196  -2.184  1.00  0.00     0.192 C 
BRANCH  22  23
HETATM   23  O3  UNL     1      -1.581  -1.485  -2.638  1.00  0.00    -0.399 OA
ATOM     24  H3  UNL     1      -1.608  -1.891  -3.496  1.00  0.00     0.209 HD
ENDBRANCH  22  23
ENDBRANCH   1  22
BRANCH   1  25
HETATM   25  C12 UNL     1       1.203  -0.245  -0.457  1.00  0.00     0.256 C 
BRANCH  25  26
HETATM   26  N7  UNL     1       1.221   0.417   0.835  1.00  0.00    -0.069 N 
ATOM     27  H73 UNL     1       0.629   1.247   0.863  1.00  0.00     0.275 HD
ATOM     28  H72 UNL     1       0.741  -0.116   1.560  1.00  0.00     0.275 HD
ATOM     29  H71 UNL     1       2.194   0.616   1.069  1.00  0.00     0.275 HD
ENDBRANCH  25  26
BRANCH  25  30
HETATM   30  C13 UNL     1       1.762   0.721  -1.514  1.00  0.00     0.252 C 
BRANCH  30  31
HETATM   31  O4  UNL     1       0.905   1.806  -1.516  1.00  0.00    -0.375 OA
ATOM     32  H4  UNL     1       1.250   2.403  -2.169  1.00  0.00     0.212 HD
ENDBRANCH  30  31
BRANCH  30  33
HETATM   33  N8  UNL     1       3.070   1.218  -1.132  1.00  0.00    -0.344 N 
ATOM     34  H8  UNL     1       3.156   2.215  -0.937  1.00  0.00     0.163 HD
BRANCH  33  35
HETATM   35  C14 UNL     1       4.238   0.425  -1.009  1.00  0.00     0.162 A 
HETATM   36  N9  UNL     1       4.250  -0.895  -1.260  1.00  0.00    -0.282 N 
HETATM   37  N10 UNL     1       5.357  -1.646  -1.153  1.00  0.00    -0.294 N 
ATOM     38  H9  UNL     1       3.380  -1.346  -1.544  1.00  0.00     0.188 HD
HETATM   39  C15 UNL     1       6.517  -1.085  -0.782  1.00  0.00     0.199 A 
ATOM     40  H10 UNL     1       5.316  -2.645  -1.354  1.00  0.00     0.187 HD
HETATM   41  N11 UNL     1       6.566   0.232  -0.517  1.00  0.00    -0.335 N 
HETATM   42  C16 UNL     1       5.450   0.972  -0.629  1.00  0.00     0.145 A 
ATOM     43  H11 UNL     1       7.444   0.666  -0.233  1.00  0.00     0.168 HD
BRANCH  42  44
HETATM   44  N12 UNL     1       5.514   2.232  -0.372  1.00  0.00    -0.382 N 
ATOM     45 2H12 UNL     1       4.667   2.794  -0.457  1.00  0.00     0.157 HD
ATOM     46 1H12 UNL     1       6.408   2.635  -0.092  1.00  0.00     0.157 HD
ENDBRANCH  42  44
ENDBRANCH  33  35
ENDBRANCH  30  33
ENDBRANCH  25  30
ENDBRANCH   1  25
TORSDOF 12
