REMARK  4 active torsions:
REMARK  status: ('A' for Active; 'I' for Inactive)
REMARK    1  A    between atoms: C2_2  and  N1_3 
REMARK       I    between atoms: N1_3  and  C3_5 
REMARK       I    between atoms: C3_5  and  N2_7 
REMARK    2  A    between atoms: N2_7  and  C4_9 
REMARK    3  A    between atoms: C4_9  and  C5_10 
REMARK    4  A    between atoms: C5_10  and  N3_11 
ROOT
HETATM    1  C5  UNL     1      -0.376  -0.766  -0.003  1.00  0.00     0.178 C 
HETATM    2  C11 UNL     1      -0.803  -1.567  -1.224  1.00  0.00     0.044 C 
HETATM    3  C12 UNL     1      -1.182  -2.979  -0.988  1.00  0.00     0.003 C 
HETATM    4  C13 UNL     1      -0.197  -3.765  -0.163  1.00  0.00     0.001 C 
HETATM    5  C14 UNL     1       0.505  -2.970   0.863  1.00  0.00     0.007 C 
HETATM    6  C15 UNL     1      -0.176  -1.675   1.199  1.00  0.00     0.022 C 
HETATM    7  C16 UNL     1      -1.405  -1.862   2.035  1.00  0.00     0.012 C 
ENDROOT
BRANCH   1   8
HETATM    8  C4  UNL     1       0.981  -0.221  -0.351  1.00  0.00     0.166 C 
BRANCH   8   9
HETATM    9  N2  UNL     1       1.724   0.427   0.660  1.00  0.00    -0.341 N 
HETATM   10  C3  UNL     1       3.001   0.941   0.280  1.00  0.00     0.316 C 
HETATM   11  N1  UNL     1       3.862   1.608   1.192  1.00  0.00    -0.344 N 
HETATM   12  O1  UNL     1       3.447   0.829  -0.913  1.00  0.00    -0.247 OA
ATOM     13  H1  UNL     1       3.550   1.719   2.157  1.00  0.00     0.164 HD
ATOM     14  H2  UNL     1       1.368   0.523   1.611  1.00  0.00     0.164 HD
BRANCH  11  15
HETATM   15  C2  UNL     1       5.144   2.133   0.830  1.00  0.00     0.120 C 
HETATM   16  C1  UNL     1       6.090   1.098   0.314  1.00  0.00     0.026 C 
ENDBRANCH  11  15
ENDBRANCH   8   9
ENDBRANCH   1   8
BRANCH   1  17
HETATM   17  N3  UNL     1      -1.268   0.245   0.411  1.00  0.00     0.103 N 
HETATM   18  C6  UNL     1      -2.649   0.043   0.048  1.00  0.00     0.303 C 
HETATM   19  C7  UNL     1      -3.168   1.033  -0.970  1.00  0.00     0.302 C 
HETATM   20  N4  UNL     1      -3.118   2.392  -0.462  1.00  0.00     0.087 N 
HETATM   21  C8  UNL     1      -4.407   2.926  -0.148  1.00  0.00     0.310 C 
HETATM   22  C9  UNL     1      -2.177   2.444   0.621  1.00  0.00     0.302 C 
HETATM   23  C10 UNL     1      -0.960   1.604   0.178  1.00  0.00     0.303 C 
ENDBRANCH   1  17
TORSDOF 4
