REMARK  7 active torsions:
REMARK  status: ('A' for Active; 'I' for Inactive)
REMARK    1  A    between atoms: C2_2  and  N1_3 
REMARK    2  A    between atoms: N3_11  and  C7_12 
REMARK    3  A    between atoms: C7_12  and  C8_13 
REMARK    4  A    between atoms: C8_13  and  C9_14 
REMARK    5  A    between atoms: C9_14  and  C10_15 
REMARK    6  A    between atoms: C11_16  and  C12_17 
REMARK    7  A    between atoms: C12_17  and  N4_18 
ROOT
HETATM    1  C8  UNL     1       0.925   0.024  -0.994  1.00  0.00     0.032 C 
ENDROOT
BRANCH   1   2
HETATM    2  C7  UNL     1       2.304  -0.505  -1.120  1.00  0.00     0.127 C 
BRANCH   2   3
HETATM    3  N3  UNL     1       3.153  -0.446   0.013  1.00  0.00    -0.353 N 
HETATM    4  C3  UNL     1       4.228   0.501   0.084  1.00  0.00     0.177 C 
HETATM    5  N1  UNL     1       5.078   0.741  -0.781  1.00  0.00    -0.342 N 
HETATM    6  N2  UNL     1       4.235   1.226   1.361  1.00  0.00    -0.362 N 
ATOM      7  H1  UNL     1       5.707   1.471  -0.445  1.00  0.00     0.167 HD
HETATM    8  C4  UNL     1       3.095   0.933   2.208  1.00  0.00     0.124 C 
ATOM      9  H2  UNL     1       4.974   1.876   1.628  1.00  0.00     0.162 HD
HETATM   10  C5  UNL     1       3.129  -0.571   2.476  1.00  0.00     0.039 C 
HETATM   11  C6  UNL     1       2.978  -1.304   1.179  1.00  0.00     0.127 C 
BRANCH   5  12
HETATM   12  C2  UNL     1       5.462   0.352  -2.051  1.00  0.00     0.059 C 
HETATM   13  C1  UNL     1       5.799  -1.132  -2.081  1.00  0.00     0.055 C 
ENDBRANCH   5  12
ENDBRANCH   2   3
ENDBRANCH   1   2
BRANCH   1  14
HETATM   14  C9  UNL     1       0.032  -0.592   0.037  1.00  0.00     0.095 C 
BRANCH  14  15
HETATM   15  C10 UNL     1      -1.276   0.118  -0.111  1.00  0.00    -0.105 C 
HETATM   16  C11 UNL     1      -2.331   0.682  -0.244  1.00  0.00    -0.076 C 
BRANCH  16  17
HETATM   17  C12 UNL     1      -3.629   1.353  -0.420  1.00  0.00     0.371 C 
BRANCH  17  18
HETATM   18  N4  UNL     1      -4.470   0.421  -1.154  1.00  0.00     0.158 N 
HETATM   19  C13 UNL     1      -5.782   0.939  -1.401  1.00  0.00     0.507 C 
HETATM   20  N5  UNL     1      -6.362   1.345  -0.145  1.00  0.00    -0.048 N 
HETATM   21  C14 UNL     1      -6.425   0.290   0.825  1.00  0.00     0.239 C 
ATOM     22  H52 UNL     1      -5.871   2.155   0.234  1.00  0.00     0.279 HD
ATOM     23  H51 UNL     1      -7.284   1.757  -0.290  1.00  0.00     0.279 HD
HETATM   24  C15 UNL     1      -5.230  -0.590   0.874  1.00  0.00     0.097 C 
HETATM   25  C16 UNL     1      -4.592  -0.838  -0.471  1.00  0.00     0.409 C 
HETATM   26  F1  UNL     1      -5.414  -1.658  -1.220  1.00  0.00    -0.216 F 
ENDBRANCH  17  18
ENDBRANCH  16  17
ENDBRANCH  14  15
ENDBRANCH   1  14
TORSDOF 7
