REMARK  11 active torsions:
REMARK  status: ('A' for Active; 'I' for Inactive)
REMARK    1  A    between atoms: C2_2  and  O1_3 
REMARK    2  A    between atoms: O1_3  and  C3_4 
REMARK    3  A    between atoms: C3_4  and  C4_5 
REMARK    4  A    between atoms: C4_5  and  C5_6 
REMARK    5  A    between atoms: C5_6  and  N1_7 
REMARK    6  A    between atoms: N1_7  and  C6_9 
REMARK    7  A    between atoms: C9_16  and  N4_17 
REMARK    8  A    between atoms: N4_17  and  C10_19 
REMARK    9  A    between atoms: C10_19  and  C11_20 
REMARK   10  A    between atoms: C11_20  and  C12_21 
REMARK   11  A    between atoms: C12_21  and  N5_22 
ROOT
HETATM    1  C6  UNL     1       2.309  -1.170  -1.283  1.00  0.00     0.078 A 
HETATM    2  C7  UNL     1       3.436  -1.429  -2.062  1.00  0.00     0.052 A 
HETATM    3  C8  UNL     1       3.492  -0.966  -3.337  1.00  0.00     0.109 A 
HETATM    4  N2  UNL     1       2.475  -0.265  -3.848  1.00  0.00    -0.310 N 
ATOM      5  H2  UNL     1       2.527   0.078  -4.807  1.00  0.00     0.186 HD
HETATM    6  N3  UNL     1       1.408  -0.015  -3.121  1.00  0.00    -0.284 N 
ATOM      7  H3  UNL     1       0.652   0.524  -3.543  1.00  0.00     0.188 HD
HETATM    8  C9  UNL     1       1.257  -0.440  -1.827  1.00  0.00     0.143 A 
ENDROOT
BRANCH   8   9
HETATM    9  N4  UNL     1       0.190  -0.158  -1.215  1.00  0.00    -0.373 N 
ATOM     10  H4  UNL     1      -0.493   0.384  -1.744  1.00  0.00     0.161 HD
BRANCH   9  11
HETATM   11  C10 UNL     1      -0.184  -0.493   0.106  1.00  0.00     0.123 C 
BRANCH  11  12
HETATM   12  C11 UNL     1      -1.629   0.066   0.274  1.00  0.00     0.039 C 
BRANCH  12  13
HETATM   13  C12 UNL     1      -2.428  -0.635  -0.791  1.00  0.00     0.118 C 
BRANCH  13  14
HETATM   14  N5  UNL     1      -3.816  -0.288  -0.816  1.00  0.00    -0.412 N 
HETATM   15  C13 UNL     1      -4.073   1.051  -1.218  1.00  0.00     0.117 C 
HETATM   16  C14 UNL     1      -5.002   1.704  -0.218  1.00  0.00     0.019 C 
HETATM   17  C15 UNL     1      -6.309   0.925  -0.252  1.00  0.00     0.003 C 
HETATM   18  C16 UNL     1      -6.008  -0.469   0.233  1.00  0.00     0.019 C 
HETATM   19  C17 UNL     1      -4.550  -0.779   0.312  1.00  0.00     0.117 C 
ENDBRANCH  13  14
ENDBRANCH  12  13
ENDBRANCH  11  12
ENDBRANCH   9  11
ENDBRANCH   8   9
BRANCH   1  20
HETATM   20  N1  UNL     1       2.184  -1.557  -0.096  1.00  0.00    -0.366 N 
ATOM     21  H1  UNL     1       1.297  -1.291   0.332  1.00  0.00     0.165 HD
BRANCH  20  22
HETATM   22  C5  UNL     1       3.025  -2.282   0.752  1.00  0.00     0.063 C 
BRANCH  22  23
HETATM   23  C4  UNL     1       4.208  -1.504   1.227  1.00  0.00     0.071 C 
BRANCH  23  24
HETATM   24  C3  UNL     1       3.719  -0.285   2.006  1.00  0.00     0.172 C 
BRANCH  24  25
HETATM   25  O1  UNL     1       4.851   0.405   2.422  1.00  0.00    -0.391 OA
BRANCH  25  26
HETATM   26  C2  UNL     1       4.580   1.532   3.158  1.00  0.00     0.163 C 
HETATM   27  C1  UNL     1       3.772   2.513   2.351  1.00  0.00     0.033 C 
ENDBRANCH  25  26
ENDBRANCH  24  25
ENDBRANCH  23  24
ENDBRANCH  22  23
ENDBRANCH  20  22
ENDBRANCH   1  20
TORSDOF 11
