REMARK  9 active torsions:
REMARK  status: ('A' for Active; 'I' for Inactive)
REMARK    1  A    between atoms: C2_3  and  C3_4 
REMARK    2  A    between atoms: C4_5  and  C5_6 
REMARK    3  A    between atoms: C5_6  and  C6_7 
REMARK    4  A    between atoms: C6_7  and  C7_8 
REMARK    5  A    between atoms: C7_8  and  N2_9 
REMARK    6  A    between atoms: C12_17  and  O1_18 
REMARK    7  A    between atoms: O1_18  and  C13_19 
REMARK    8  A    between atoms: C13_19  and  C14_20 
REMARK    9  A    between atoms: C14_20  and  N5_21 
ROOT
HETATM    1  N1  UNL     1       0.910   0.364   3.994  1.00  0.00    -0.197 NA
HETATM    2  C1  UNL     1       0.791   0.573   2.879  1.00  0.00     0.063 C 
HETATM    3  C2  UNL     1       0.660   0.829   1.433  1.00  0.00     0.165 C 
ENDROOT
BRANCH   3   4
HETATM    4  C3  UNL     1       0.502  -0.402   0.662  1.00  0.00    -0.005 A 
HETATM    5  C4  UNL     1       1.581  -1.208   0.413  1.00  0.00    -0.048 A 
HETATM    6  C9  UNL     1       1.381  -2.408  -0.284  1.00  0.00     0.008 A 
HETATM    7  C10 UNL     1       0.119  -2.760  -0.707  1.00  0.00     0.003 A 
HETATM    8  C11 UNL     1      -0.956  -1.908  -0.433  1.00  0.00     0.037 A 
HETATM    9  C12 UNL     1      -0.787  -0.732   0.245  1.00  0.00     0.076 A 
BRANCH   5  10
HETATM   10  C5  UNL     1       2.966  -0.869   0.817  1.00  0.00     0.041 C 
BRANCH  10  11
HETATM   11  C6  UNL     1       3.660   0.100  -0.079  1.00  0.00     0.024 C 
BRANCH  11  12
HETATM   12  C7  UNL     1       5.057   0.342   0.516  1.00  0.00     0.122 C 
BRANCH  12  13
HETATM   13  N2  UNL     1       5.798   1.282  -0.251  1.00  0.00    -0.367 N 
HETATM   14  C8  UNL     1       6.908   0.973  -0.823  1.00  0.00     0.196 C 
HETATM   15  N3  UNL     1       7.541   2.011  -1.556  1.00  0.00    -0.067 NA
HETATM   16  N4  UNL     1       7.468  -0.326  -0.735  1.00  0.00    -0.067 NA
ATOM     17  H2  UNL     1       5.438   2.231  -0.351  1.00  0.00     0.161 HD
ENDBRANCH  12  13
ENDBRANCH  11  12
ENDBRANCH  10  11
ENDBRANCH   5  10
BRANCH   9  18
HETATM   18  O1  UNL     1      -1.794   0.102   0.517  1.00  0.00    -0.349 OA
BRANCH  18  19
HETATM   19  C13 UNL     1      -3.134   0.169   0.301  1.00  0.00     0.206 C 
BRANCH  19  20
HETATM   20  C14 UNL     1      -3.593   0.179  -1.116  1.00  0.00     0.299 C 
BRANCH  20  21
HETATM   21  N5  UNL     1      -5.040   0.291  -1.181  1.00  0.00     0.090 N 
HETATM   22  C15 UNL     1      -5.486   1.602  -0.748  1.00  0.00     0.272 C 
HETATM   23  C16 UNL     1      -6.366   1.443   0.443  1.00  0.00     0.032 C 
HETATM   24  C17 UNL     1      -6.304   0.000   0.813  1.00  0.00     0.032 C 
HETATM   25  C18 UNL     1      -5.743  -0.676  -0.396  1.00  0.00     0.272 C 
ENDBRANCH  20  21
ENDBRANCH  19  20
ENDBRANCH  18  19
ENDBRANCH   9  18
ENDBRANCH   3   4
TORSDOF 9
