REMARK  11 active torsions:
REMARK  status: ('A' for Active; 'I' for Inactive)
REMARK    1  A    between atoms: O1_2  and  C2_3 
REMARK    2  A    between atoms: C2_3  and  C3_4 
REMARK    3  A    between atoms: C3_4  and  C4_5 
REMARK    4  A    between atoms: C4_5  and  C5_6 
REMARK    5  A    between atoms: C5_6  and  N1_7 
REMARK    6  A    between atoms: N1_7  and  C6_9 
REMARK    7  A    between atoms: C9_14  and  N3_15 
REMARK    8  A    between atoms: N3_15  and  C10_17 
REMARK    9  A    between atoms: C10_17  and  C11_18 
REMARK   10  A    between atoms: C11_18  and  C12_19 
REMARK   11  A    between atoms: C12_19  and  N4_20 
ROOT
HETATM    1  C6  UNL     1       1.912  -1.000   0.073  1.00  0.00     0.683 A 
HETATM    2  N2  UNL     1       1.969  -2.098  -0.705  1.00  0.00    -0.202 N 
ATOM      3  H2  UNL     1       2.877  -2.495  -0.948  1.00  0.00     0.183 HD
HETATM    4  C7  UNL     1       0.838  -2.684  -1.170  1.00  0.00     0.110 A 
HETATM    5  C8  UNL     1      -0.388  -2.164  -0.855  1.00  0.00     0.066 A 
HETATM    6  C9  UNL     1      -0.443  -1.020  -0.045  1.00  0.00     0.118 A 
HETATM    7  N5  UNL     1       0.671  -0.472   0.393  1.00  0.00    -0.177 N 
ATOM      8  H5  UNL     1       0.620   0.360   0.981  1.00  0.00     0.186 HD
ENDROOT
BRANCH   6   9
HETATM    9  N3  UNL     1      -1.583  -0.535   0.250  1.00  0.00    -0.376 N 
ATOM     10  H3  UNL     1      -2.394  -1.023  -0.131  1.00  0.00     0.161 HD
BRANCH   9  11
HETATM   11  C10 UNL     1      -1.858   0.621   1.059  1.00  0.00     0.126 C 
BRANCH  11  12
HETATM   12  C11 UNL     1      -2.248   1.784   0.129  1.00  0.00     0.064 C 
BRANCH  12  13
HETATM   13  C12 UNL     1      -3.472   1.372  -0.635  1.00  0.00     0.065 C 
BRANCH  13  14
HETATM   14  N4  UNL     1      -4.602   1.066   0.090  1.00  0.00    -0.369 N 
HETATM   15  C13 UNL     1      -5.341   2.011   0.807  1.00  0.00     0.063 C 
HETATM   16  C14 UNL     1      -6.778   1.581   0.562  1.00  0.00     0.046 C 
HETATM   17  C15 UNL     1      -6.639   0.073   0.590  1.00  0.00     0.030 C 
HETATM   18  C16 UNL     1      -5.232  -0.185   0.024  1.00  0.00     0.084 C 
HETATM   19  C17 UNL     1      -5.435  -0.585  -1.422  1.00  0.00     0.033 C 
ENDBRANCH  13  14
ENDBRANCH  12  13
ENDBRANCH  11  12
ENDBRANCH   9  11
ENDBRANCH   6   9
BRANCH   1  20
HETATM   20  N1  UNL     1       2.899  -0.421   0.532  1.00  0.00    -0.202 N 
ATOM     21  H1  UNL     1       2.535   0.365   1.071  1.00  0.00     0.183 HD
BRANCH  20  22
HETATM   22  C5  UNL     1       4.274  -0.353   0.648  1.00  0.00     0.106 C 
BRANCH  22  23
HETATM   23  C4  UNL     1       5.116  -1.439   0.120  1.00  0.00     0.019 C 
BRANCH  23  24
HETATM   24  C3  UNL     1       6.571  -1.464   0.299  1.00  0.00     0.025 C 
BRANCH  24  25
HETATM   25  C2  UNL     1       7.492  -0.429  -0.197  1.00  0.00     0.134 C 
BRANCH  25  26
HETATM   26  O1  UNL     1       7.612   0.782   0.172  1.00  0.00    -0.368 OA
HETATM   27  C1  UNL     1       7.075   1.932   0.304  1.00  0.00     0.208 C 
ENDBRANCH  25  26
ENDBRANCH  24  25
ENDBRANCH  23  24
ENDBRANCH  22  23
ENDBRANCH  20  22
ENDBRANCH   1  20
TORSDOF 11
