REMARK  11 active torsions:
REMARK  status: ('A' for Active; 'I' for Inactive)
REMARK    1  A    between atoms: S1_2  and  C2_3 
REMARK    2  A    between atoms: C2_3  and  C3_4 
REMARK    3  A    between atoms: C3_4  and  C4_5 
REMARK    4  A    between atoms: C7_11  and  C8_12 
REMARK    5  A    between atoms: C8_12  and  N3_13 
REMARK    6  A    between atoms: C8_12  and  C28_42 
REMARK       I    between atoms: N3_13  and  C9_15 
REMARK    7  A    between atoms: C9_15  and  C10_17 
REMARK    8  A    between atoms: C10_17  and  C11_19 
REMARK       I    between atoms: C11_19  and  N4_21 
REMARK    9  A    between atoms: C15_25  and  C16_26 
REMARK       I    between atoms: C16_26  and  N5_28 
REMARK   10  A    between atoms: N5_28  and  C17_30 
REMARK   11  A    between atoms: N6_33  and  C20_34 
ROOT
HETATM    1  C10 UNL     1       1.054   2.187  -0.557  1.00  0.00     0.306 C 
HETATM    2  O2  UNL     1       1.307   2.533   0.612  1.00  0.00    -0.276 OA
ENDROOT
BRANCH   1   3
HETATM    3  C9  UNL     1       1.952   1.216  -1.203  1.00  0.00     0.301 C 
HETATM    4  N3  UNL     1       3.068   0.658  -0.548  1.00  0.00    -0.321 N 
ATOM      5  H3  UNL     1       3.246   0.948   0.413  1.00  0.00     0.169 HD
HETATM    6  O1  UNL     1       1.701   0.887  -2.374  1.00  0.00    -0.264 OA
BRANCH   4   7
HETATM    7  C8  UNL     1       3.985  -0.302  -1.143  1.00  0.00     0.040 C 
BRANCH   7   8
HETATM    8  C7  UNL     1       5.341   0.235  -1.281  1.00  0.00     0.049 C 
HETATM    9  C4  UNL     1       6.127   0.668  -0.118  1.00  0.00     0.054 C 
HETATM   10  C5  UNL     1       7.544   0.716  -0.683  1.00  0.00     0.124 C 
HETATM   11  N1  UNL     1       7.511   0.003  -1.932  1.00  0.00    -0.235 NA
HETATM   12  C6  UNL     1       7.941   0.861  -3.021  1.00  0.00     0.136 C 
HETATM   13  N2  UNL     1       6.230  -0.502  -2.108  1.00  0.00    -0.321 N 
ATOM     14  H2  UNL     1       5.971  -1.271  -2.726  1.00  0.00     0.180 HD
BRANCH   9  15
HETATM   15  C3  UNL     1       6.039  -0.056   1.157  1.00  0.00     0.022 C 
BRANCH  15  16
HETATM   16  C2  UNL     1       6.935   0.649   2.188  1.00  0.00     0.074 C 
BRANCH  16  17
HETATM   17  S1  UNL     1       6.827  -0.246   3.786  1.00  0.00    -0.173 SA
HETATM   18  C1  UNL     1       7.542  -1.904   3.649  1.00  0.00     0.089 C 
ENDBRANCH  16  17
ENDBRANCH  15  16
ENDBRANCH   9  15
ENDBRANCH   7   8
BRANCH   7  19
HETATM   19  C28 UNL     1       3.782  -1.686  -0.630  1.00  0.00     0.038 C 
HETATM   20  C29 UNL     1       2.254  -1.985  -0.546  1.00  0.00     0.011 C 
HETATM   21  C30 UNL     1       2.081  -3.306   0.148  1.00  0.00     0.001 C 
HETATM   22  C31 UNL     1       3.372  -3.936   0.563  1.00  0.00     0.000 C 
HETATM   23  C32 UNL     1       4.354  -4.042  -0.581  1.00  0.00     0.001 C 
HETATM   24  C33 UNL     1       4.255  -2.810  -1.513  1.00  0.00     0.011 C 
ENDBRANCH   7  19
ENDBRANCH   4   7
ENDBRANCH   1   3
BRANCH   1  25
HETATM   25  C11 UNL     1      -0.094   2.728  -1.256  1.00  0.00     0.300 C 
HETATM   26  O3  UNL     1      -0.326   2.302  -2.451  1.00  0.00    -0.264 OA
HETATM   27  N4  UNL     1      -0.965   3.687  -0.710  1.00  0.00    -0.332 N 
HETATM   28  C12 UNL     1      -0.951   4.361   0.552  1.00  0.00     0.127 C 
HETATM   29  C15 UNL     1      -2.167   4.191  -1.411  1.00  0.00     0.179 C 
HETATM   30  C13 UNL     1      -1.407   5.763   0.207  1.00  0.00     0.022 C 
HETATM   31  C14 UNL     1      -2.375   5.576  -0.916  1.00  0.00     0.037 C 
BRANCH  29  32
HETATM   32  C16 UNL     1      -3.337   3.328  -1.142  1.00  0.00     0.241 C 
HETATM   33  O4  UNL     1      -4.433   3.673  -1.674  1.00  0.00    -0.271 OA
HETATM   34  N5  UNL     1      -3.267   2.180  -0.342  1.00  0.00    -0.355 N 
ATOM     35  H5  UNL     1      -2.372   1.921   0.074  1.00  0.00     0.162 HD
BRANCH  34  36
HETATM   36  C17 UNL     1      -4.442   1.338  -0.084  1.00  0.00     0.087 C 
HETATM   37  C18 UNL     1      -4.586   1.197   1.415  1.00  0.00     0.044 C 
HETATM   38  C19 UNL     1      -5.118  -0.227   1.657  1.00  0.00     0.119 C 
HETATM   39  N6  UNL     1      -6.064  -0.489   0.648  1.00  0.00    -0.408 N 
HETATM   40  C26 UNL     1      -5.507  -0.799  -0.606  1.00  0.00     0.119 C 
HETATM   41  C27 UNL     1      -4.191  -0.016  -0.726  1.00  0.00     0.044 C 
BRANCH  39  42
HETATM   42  C20 UNL     1      -7.322  -0.964   1.011  1.00  0.00     0.079 C 
HETATM   43  C21 UNL     1      -8.240  -1.166  -0.174  1.00  0.00     0.025 C 
HETATM   44  C22 UNL     1      -9.617  -1.487   0.425  1.00  0.00     0.002 C 
HETATM   45  C23 UNL     1      -9.545  -2.961   0.804  1.00  0.00     0.000 C 
HETATM   46  C24 UNL     1      -8.133  -3.342   1.101  1.00  0.00     0.002 C 
HETATM   47  C25 UNL     1      -7.364  -2.230   1.821  1.00  0.00     0.025 C 
ENDBRANCH  39  42
ENDBRANCH  34  36
ENDBRANCH  29  32
ENDBRANCH   1  25
TORSDOF 11
