REMARK  12 active torsions:
REMARK  status: ('A' for Active; 'I' for Inactive)
REMARK    1  A    between atoms: C2_2  and  C3_3 
REMARK       I    between atoms: C3_3  and  N1_5 
REMARK    2  A    between atoms: C6_8  and  C7_9 
REMARK    3  A    between atoms: C6_8  and  C33_45 
REMARK    4  A    between atoms: C7_9  and  N2_10 
REMARK       I    between atoms: N2_10  and  C8_12 
REMARK    5  A    between atoms: C8_12  and  C9_14 
REMARK    6  A    between atoms: C15_20  and  C16_21 
REMARK       I    between atoms: C16_21  and  N3_23 
REMARK    7  A    between atoms: N3_23  and  C17_25 
REMARK    8  A    between atoms: C17_25  and  C18_26 
REMARK    9  A    between atoms: C17_25  and  C25_33 
REMARK   10  A    between atoms: C18_26  and  C19_27 
REMARK   11  A    between atoms: C25_33  and  C26_35 
REMARK   12  A    between atoms: C27_38  and  C28_39 
ROOT
HETATM    1  C9  UNL     1       2.144   1.270   0.127  1.00  0.00     0.005 C 
HETATM    2  C10 UNL     1       2.712   1.692  -1.202  1.00  0.00     0.021 C 
HETATM    3  C11 UNL     1       1.817   2.370  -2.155  1.00  0.00     0.014 C 
HETATM    4  C12 UNL     1       1.845   3.552  -1.222  1.00  0.00    -0.012 C 
HETATM    5  C13 UNL     1       3.262   3.116  -0.917  1.00  0.00     0.014 C 
HETATM    6  C14 UNL     1       1.004   3.423  -0.016  1.00  0.00     0.023 C 
HETATM    7  C15 UNL     1       1.093   2.085   0.709  1.00  0.00     0.113 C 
ENDROOT
BRANCH   7   8
HETATM    8  C16 UNL     1      -0.255   1.614   0.951  1.00  0.00     0.226 C 
HETATM    9  O3  UNL     1      -0.719   1.457   2.144  1.00  0.00    -0.273 OA
HETATM   10  N3  UNL     1      -1.160   1.305  -0.081  1.00  0.00    -0.349 N 
ATOM     11  H3  UNL     1      -0.874   1.370  -1.058  1.00  0.00     0.163 HD
BRANCH  10  12
HETATM   12  C17 UNL     1      -2.516   0.890   0.270  1.00  0.00     0.162 C 
BRANCH  12  13
HETATM   13  C18 UNL     1      -3.521   1.745  -0.479  1.00  0.00     0.038 C 
BRANCH  13  14
HETATM   14  C19 UNL     1      -3.446   3.205  -0.219  1.00  0.00    -0.012 C 
HETATM   15  C20 UNL     1      -3.678   3.626   1.205  1.00  0.00     0.005 C 
HETATM   16  C21 UNL     1      -3.692   5.153   1.273  1.00  0.00     0.000 C 
HETATM   17  C22 UNL     1      -4.891   5.688   0.529  1.00  0.00     0.000 C 
HETATM   18  C23 UNL     1      -5.566   4.548  -0.188  1.00  0.00     0.000 C 
HETATM   19  C24 UNL     1      -4.541   3.856  -1.069  1.00  0.00     0.005 C 
ENDBRANCH  13  14
ENDBRANCH  12  13
BRANCH  12  20
HETATM   20  C25 UNL     1      -2.727  -0.501  -0.119  1.00  0.00     0.205 C 
HETATM   21  O4  UNL     1      -1.911  -1.142  -0.804  1.00  0.00    -0.288 OA
BRANCH  20  22
HETATM   22  C26 UNL     1      -3.943  -1.250   0.284  1.00  0.00     0.122 A 
HETATM   23  N4  UNL     1      -4.285  -2.496   0.016  1.00  0.00    -0.350 N 
HETATM   24  C27 UNL     1      -5.391  -2.978   0.470  1.00  0.00     0.024 A 
ATOM     25  H4  UNL     1      -3.672  -3.080  -0.553  1.00  0.00     0.166 HD
HETATM   26  C32 UNL     1      -6.185  -2.151   1.233  1.00  0.00     0.077 A 
HETATM   27  S1  UNL     1      -5.269  -0.715   1.243  1.00  0.00    -0.079 SA
BRANCH  24  28
HETATM   28  C28 UNL     1      -5.838  -4.407   0.195  1.00  0.00    -0.008 C 
HETATM   29  C29 UNL     1      -5.116  -5.011  -0.964  1.00  0.00     0.021 C 
HETATM   30  C30 UNL     1      -7.321  -4.416  -0.050  1.00  0.00     0.021 C 
HETATM   31  C31 UNL     1      -5.537  -5.230   1.421  1.00  0.00     0.021 C 
ENDBRANCH  24  28
ENDBRANCH  20  22
ENDBRANCH  12  20
ENDBRANCH  10  12
ENDBRANCH   7   8
BRANCH   1  32
HETATM   32  C8  UNL     1       2.083  -0.195   0.291  1.00  0.00     0.244 C 
HETATM   33  N2  UNL     1       3.259  -0.944   0.134  1.00  0.00    -0.356 N 
ATOM     34  H2  UNL     1       4.110  -0.428  -0.088  1.00  0.00     0.162 HD
HETATM   35  O2  UNL     1       1.027  -0.759   0.560  1.00  0.00    -0.268 OA
BRANCH  33  36
HETATM   36  C7  UNL     1       3.375  -2.377   0.258  1.00  0.00     0.143 C 
BRANCH  36  37
HETATM   37  C6  UNL     1       4.848  -2.785   0.015  1.00  0.00     0.072 C 
HETATM   38  C5  UNL     1       5.277  -2.379  -1.354  1.00  0.00     0.042 C 
HETATM   39  C4  UNL     1       6.408  -1.433  -1.217  1.00  0.00     0.127 C 
HETATM   40  N1  UNL     1       6.772  -1.429   0.162  1.00  0.00    -0.347 N 
HETATM   41  C3  UNL     1       7.989  -0.846   0.636  1.00  0.00     0.242 C 
HETATM   42  C34 UNL     1       5.754  -2.068   0.941  1.00  0.00     0.146 C 
HETATM   43  O1  UNL     1       8.242  -0.871   1.852  1.00  0.00    -0.268 OA
BRANCH  41  44
HETATM   44  C2  UNL     1       8.908  -0.237  -0.295  1.00  0.00     0.064 C 
HETATM   45  C1  UNL     1      10.048   0.323   0.102  1.00  0.00     0.017 C 
ENDBRANCH  41  44
BRANCH  37  46
HETATM   46  C33 UNL     1       5.011  -4.237   0.199  1.00  0.00     0.243 C 
HETATM   47  N5  UNL     1       4.669  -4.956   1.364  1.00  0.00    -0.061 NA
HETATM   48  O5  UNL     1       5.500  -4.937  -0.753  1.00  0.00    -0.276 OA
ENDBRANCH  37  46
ENDBRANCH  36  37
ENDBRANCH  33  36
ENDBRANCH   1  32
TORSDOF 12
