REMARK  14 active torsions:
REMARK  status: ('A' for Active; 'I' for Inactive)
REMARK    1  A    between atoms: C3_3  and  C4_4 
REMARK    2  A    between atoms: C3_3  and  N2_15 
REMARK    3  A    between atoms: C4_4  and  C5_5 
REMARK    4  A    between atoms: C5_5  and  C6_6 
REMARK    5  A    between atoms: C6_6  and  C7_7 
REMARK    6  A    between atoms: C7_7  and  C8_8 
REMARK    7  A    between atoms: C8_8  and  O1_9 
REMARK    8  A    between atoms: N1_11  and  O2_13 
REMARK       I    between atoms: N2_15  and  C9_17 
REMARK    9  A    between atoms: C9_17  and  C10_19 
REMARK       I    between atoms: N3_28  and  C19_29 
REMARK   10  A    between atoms: C19_29  and  C20_31 
REMARK   11  A    between atoms: C20_31  and  C21_32 
REMARK   12  A    between atoms: C21_32  and  C22_33 
REMARK   13  A    between atoms: C22_33  and  O6_35 
REMARK   14  A    between atoms: O6_35  and  C23_36 
ROOT
HETATM    1  C1  UNL     1       3.833   0.217  -3.126  1.00  0.00     0.099 C 
HETATM    2  C2  UNL     1       3.346   0.220  -1.994  1.00  0.00    -0.162 C 
HETATM    3  C3  UNL     1       2.741   0.177  -0.686  1.00  0.00     0.151 C 
ENDROOT
BRANCH   3   4
HETATM    4  C4  UNL     1       3.744   0.269   0.408  1.00  0.00     0.037 C 
BRANCH   4   5
HETATM    5  C5  UNL     1       4.567   1.468   0.555  1.00  0.00     0.003 C 
BRANCH   5   6
HETATM    6  C6  UNL     1       5.481   1.900  -0.524  1.00  0.00     0.008 C 
BRANCH   6   7
HETATM    7  C7  UNL     1       6.289   3.151  -0.064  1.00  0.00     0.086 C 
BRANCH   7   8
HETATM    8  C8  UNL     1       7.205   3.547  -1.161  1.00  0.00     0.135 C 
HETATM    9  N1  UNL     1       8.483   3.570  -0.931  1.00  0.00    -0.251 N 
ATOM     10  H1  UNL     1       9.127   3.840  -1.674  1.00  0.00     0.196 HD
BRANCH   8  11
HETATM   11  O1  UNL     1       6.750   3.892  -2.420  1.00  0.00    -0.348 OA
ATOM     12  H1  UNL     1       7.337   4.146  -3.123  1.00  0.00     0.219 HD
ENDBRANCH   8  11
BRANCH   9  13
HETATM   13  O2  UNL     1       8.975   3.231   0.315  1.00  0.00    -0.288 OA
ATOM     14  H2  UNL     1       9.910   3.248   0.483  1.00  0.00     0.244 HD
ENDBRANCH   9  13
ENDBRANCH   7   8
ENDBRANCH   6   7
ENDBRANCH   5   6
ENDBRANCH   4   5
ENDBRANCH   3   4
BRANCH   3  15
HETATM   15  N2  UNL     1       1.908  -1.020  -0.527  1.00  0.00    -0.345 N 
HETATM   16  C9  UNL     1       0.537  -0.960  -0.175  1.00  0.00     0.241 C 
HETATM   17  O3  UNL     1       0.027   0.171   0.008  1.00  0.00    -0.271 OA
ATOM     18  H2  UNL     1       2.334  -1.935  -0.676  1.00  0.00     0.163 HD
BRANCH  16  19
HETATM   19  C10 UNL     1      -0.214  -2.237  -0.041  1.00  0.00     0.179 C 
HETATM   20  C11 UNL     1       0.547  -3.275   0.677  1.00  0.00     0.040 C 
HETATM   21  C12 UNL     1      -0.208  -4.221   1.530  1.00  0.00    -0.006 C 
HETATM   22  C13 UNL     1       0.699  -4.871   2.560  1.00  0.00     0.005 C 
HETATM   23  C17 UNL     1      -1.402  -3.685   2.238  1.00  0.00     0.008 C 
HETATM   24  C14 UNL     1      -0.123  -5.835   3.399  1.00  0.00     0.000 C 
HETATM   25  C15 UNL     1      -0.909  -4.953   4.366  1.00  0.00     0.000 C 
HETATM   26  C16 UNL     1      -1.199  -3.628   3.749  1.00  0.00     0.006 C 
HETATM   27  C18 UNL     1      -1.806  -2.299   1.836  1.00  0.00     0.131 C 
HETATM   28  N3  UNL     1      -1.540  -1.979   0.474  1.00  0.00    -0.338 N 
HETATM   29  C19 UNL     1      -2.577  -1.405  -0.348  1.00  0.00     0.221 C 
HETATM   30  O4  UNL     1      -2.258  -1.148  -1.534  1.00  0.00    -0.273 OA
BRANCH  29  31
HETATM   31  C20 UNL     1      -3.921  -1.147   0.194  1.00  0.00     0.112 C 
BRANCH  31  32
HETATM   32  C21 UNL     1      -4.808  -0.324  -0.688  1.00  0.00     0.120 C 
BRANCH  32  33
HETATM   33  C22 UNL     1      -4.243   1.024  -0.942  1.00  0.00     0.260 C 
HETATM   34  O5  UNL     1      -3.127   1.337  -0.435  1.00  0.00    -0.265 OA
BRANCH  33  35
HETATM   35  O6  UNL     1      -4.851   1.989  -1.705  1.00  0.00    -0.308 OA
BRANCH  35  36
HETATM   36  C23 UNL     1      -4.257   3.278  -1.920  1.00  0.00     0.205 C 
HETATM   37  C24 UNL     1      -5.242   4.287  -1.313  1.00  0.00     0.066 C 
HETATM   38  C25 UNL     1      -5.515   5.397  -2.311  1.00  0.00     0.171 C 
HETATM   39  O7  UNL     1      -6.214   4.927  -3.418  1.00  0.00    -0.384 OA
HETATM   40  C26 UNL     1      -5.594   3.818  -3.991  1.00  0.00     0.248 C 
HETATM   41  C27 UNL     1      -4.234   3.585  -3.374  1.00  0.00     0.179 C 
HETATM   42  O8  UNL     1      -3.214   3.649  -4.026  1.00  0.00    -0.293 OA
ENDBRANCH  35  36
ENDBRANCH  33  35
ENDBRANCH  32  33
ENDBRANCH  31  32
ENDBRANCH  29  31
ENDBRANCH  16  19
ENDBRANCH   3  15
TORSDOF 14
