REMARK  13 active torsions:
REMARK  status: ('A' for Active; 'I' for Inactive)
REMARK    1  A    between atoms: C10_12  and  C11_13 
REMARK    2  A    between atoms: C11_13  and  O3_14 
REMARK    3  A    between atoms: C12_16  and  C13_17 
REMARK    4  A    between atoms: C13_17  and  O4_18 
REMARK    5  A    between atoms: O4_18  and  C14_19 
REMARK    6  A    between atoms: C14_19  and  C15_20 
REMARK    7  A    between atoms: C15_20  and  N1_21 
REMARK    8  A    between atoms: N1_21  and  C16_23 
REMARK    9  A    between atoms: C20_27  and  O5_28 
REMARK   10  A    between atoms: O5_28  and  C21_29 
REMARK   11  A    between atoms: C23_32  and  C24_33 
REMARK   12  A    between atoms: C24_33  and  C25_34 
REMARK   13  A    between atoms: C27_36  and  C29_38 
ROOT
HETATM    1  C1  UNL     1      -4.190  -2.320  -0.490  1.00  0.00     0.017 C 
HETATM    2  C2  UNL     1      -3.038  -2.011   0.202  1.00  0.00    -0.056 C 
HETATM    3  C3  UNL     1      -3.218  -2.199   1.616  1.00  0.00     0.018 C 
HETATM    4  C4  UNL     1      -4.092  -1.191   2.341  1.00  0.00     0.021 C 
HETATM    5  C5  UNL     1      -2.854  -0.605   2.921  1.00  0.00     0.059 C 
HETATM    6  C6  UNL     1      -2.213  -1.955   2.638  1.00  0.00     0.021 C 
HETATM    7  C7  UNL     1      -2.258   0.587   2.484  1.00  0.00     0.160 C 
HETATM    8  O1  UNL     1      -1.805   1.305   3.447  1.00  0.00    -0.295 OA
HETATM    9  C8  UNL     1      -1.950   1.349   1.272  1.00  0.00     0.200 C 
HETATM   10  O2  UNL     1      -0.560   1.709   1.310  1.00  0.00    -0.371 OA
HETATM   11  C9  UNL     1       0.131   0.512   1.460  1.00  0.00     0.134 C 
HETATM   12  C10 UNL     1       1.648   0.579   1.120  1.00  0.00     0.045 C 
HETATM   13  C12 UNL     1       1.344   0.091  -0.254  1.00  0.00     0.025 C 
HETATM   14  C18 UNL     1       0.005  -0.365   0.289  1.00  0.00     0.029 C 
HETATM   15  C19 UNL     1      -1.247  -0.282  -0.496  1.00  0.00     0.037 C 
HETATM   16  C20 UNL     1      -1.926  -1.619  -0.652  1.00  0.00     0.166 C 
HETATM   17  C23 UNL     1      -2.207   0.833  -0.053  1.00  0.00     0.059 C 
ENDROOT
BRANCH  13  18
HETATM   18  C13 UNL     1       2.117  -1.082  -0.772  1.00  0.00     0.173 C 
BRANCH  18  19
HETATM   19  O4  UNL     1       3.421  -1.132  -0.900  1.00  0.00    -0.389 OA
BRANCH  19  20
HETATM   20  C14 UNL     1       4.316  -1.190   0.098  1.00  0.00     0.186 C 
BRANCH  20  21
HETATM   21  C15 UNL     1       5.761  -1.255  -0.449  1.00  0.00     0.140 C 
BRANCH  21  22
HETATM   22  N1  UNL     1       6.668  -1.316   0.644  1.00  0.00    -0.419 N 
ATOM     23  H1  UNL     1       7.216  -2.153   0.843  1.00  0.00     0.153 HD
BRANCH  22  24
HETATM   24  C16 UNL     1       6.770  -0.136   1.450  1.00  0.00     0.109 C 
HETATM   25  C17 UNL     1       7.405   1.019   0.708  1.00  0.00     0.026 C 
ENDBRANCH  22  24
ENDBRANCH  21  22
ENDBRANCH  20  21
ENDBRANCH  19  20
ENDBRANCH  18  19
ENDBRANCH  13  18
BRANCH  12  26
HETATM   26  C11 UNL     1       2.126   2.009   1.290  1.00  0.00     0.171 C 
BRANCH  26  27
HETATM   27  O3  UNL     1       3.452   2.185   1.012  1.00  0.00    -0.400 OA
ATOM     28  H3  UNL     1       3.751   3.080   1.118  1.00  0.00     0.209 HD
ENDBRANCH  26  27
ENDBRANCH  12  26
BRANCH  16  29
HETATM   29  O5  UNL     1      -0.981  -2.704  -0.703  1.00  0.00    -0.311 OA
BRANCH  29  30
HETATM   30  C21 UNL     1      -0.751  -3.469  -1.834  1.00  0.00     0.255 C 
HETATM   31  C22 UNL     1       0.218  -4.583  -1.884  1.00  0.00     0.126 C 
HETATM   32  O6  UNL     1      -1.415  -3.187  -2.871  1.00  0.00    -0.266 OA
ENDBRANCH  29  30
ENDBRANCH  16  29
BRANCH  17  33
HETATM   33  C24 UNL     1      -2.459   1.858  -1.104  1.00  0.00    -0.060 C 
HETATM   34  C27 UNL     1      -3.666   2.201  -1.597  1.00  0.00     0.017 C 
HETATM   35  C28 UNL     1      -3.718   3.274  -2.681  1.00  0.00     0.056 C 
BRANCH  33  36
HETATM   36  C25 UNL     1      -1.368   2.600  -1.784  1.00  0.00     0.031 C 
HETATM   37  C26 UNL     1      -0.948   3.769  -0.933  1.00  0.00     0.010 C 
ENDBRANCH  33  36
BRANCH  34  38
HETATM   38  C29 UNL     1      -4.956   1.746  -1.176  1.00  0.00     0.205 C 
HETATM   39  O7  UNL     1      -5.311   0.987  -0.288  1.00  0.00    -0.644 OA
HETATM   40  O8  UNL     1      -6.071   2.268  -1.929  1.00  0.00    -0.644 OA
ENDBRANCH  34  38
ENDBRANCH  17  33
TORSDOF 13
