REMARK  14 active torsions:
REMARK  status: ('A' for Active; 'I' for Inactive)
REMARK    1  A    between atoms: N1_2  and  C3_4 
REMARK    2  A    between atoms: C3_4  and  C4_5 
REMARK    3  A    between atoms: C4_5  and  C5_6 
REMARK    4  A    between atoms: C5_6  and  C6_7 
REMARK    5  A    between atoms: C6_7  and  O1_8 
REMARK    6  A    between atoms: O1_8  and  C7_9 
REMARK       I    between atoms: C7_9  and  N2_11 
REMARK    7  A    between atoms: C12_16  and  C13_17 
REMARK       I    between atoms: C13_17  and  N3_19 
REMARK    8  A    between atoms: N3_19  and  C14_21 
REMARK    9  A    between atoms: C14_21  and  C15_22 
REMARK   10  A    between atoms: C14_21  and  C22_30 
REMARK   11  A    between atoms: C16_23  and  C17_24 
REMARK   12  A    between atoms: C17_24  and  C18_26 
REMARK   13  A    between atoms: C22_30  and  C23_31 
REMARK   14  A    between atoms: C22_30  and  C24_34 
ROOT
HETATM    1  C14 UNL     1      -2.893  -0.348   0.971  1.00  0.00     0.129 C 
ENDROOT
BRANCH   1   2
HETATM    2  N3  UNL     1      -1.865  -0.731   0.055  1.00  0.00    -0.350 N 
HETATM    3  C13 UNL     1      -0.541  -0.934   0.523  1.00  0.00     0.241 C 
HETATM    4  O3  UNL     1      -0.296  -0.773   1.741  1.00  0.00    -0.271 OA
ATOM      5  H3  UNL     1      -2.083  -0.858  -0.933  1.00  0.00     0.163 HD
BRANCH   3   6
HETATM    6  C12 UNL     1       0.573  -1.332  -0.376  1.00  0.00     0.181 C 
HETATM    7  N2  UNL     1       1.788  -1.468   0.364  1.00  0.00    -0.315 N 
HETATM    8  C7  UNL     1       2.818  -0.499   0.219  1.00  0.00     0.363 C 
HETATM    9  C8  UNL     1       1.992  -2.571   1.257  1.00  0.00     0.129 C 
HETATM   10  O2  UNL     1       2.625   0.463  -0.569  1.00  0.00    -0.238 OA
HETATM   11  C9  UNL     1       1.729  -3.853   0.504  1.00  0.00     0.020 C 
HETATM   12  C10 UNL     1       0.465  -3.831  -0.291  1.00  0.00     0.004 C 
HETATM   13  C11 UNL     1       0.296  -2.601  -1.129  1.00  0.00     0.035 C 
BRANCH   8  14
HETATM   14  O1  UNL     1       3.997  -0.580   0.900  1.00  0.00    -0.304 OA
BRANCH  14  15
HETATM   15  C6  UNL     1       5.050   0.323   0.807  1.00  0.00     0.180 C 
BRANCH  15  16
HETATM   16  C5  UNL     1       5.613   0.379  -0.572  1.00  0.00     0.028 C 
BRANCH  16  17
HETATM   17  C4  UNL     1       6.754   1.361  -0.662  1.00  0.00     0.032 C 
BRANCH  17  18
HETATM   18  C3  UNL     1       7.900   1.028   0.242  1.00  0.00     0.271 C 
BRANCH  18  19
HETATM   19  N1  UNL     1       8.957   2.015   0.089  1.00  0.00     0.080 N 
HETATM   20  C1  UNL     1       9.591   1.943  -1.209  1.00  0.00     0.309 C 
HETATM   21  C2  UNL     1       8.473   3.353   0.303  1.00  0.00     0.309 C 
ENDBRANCH  18  19
ENDBRANCH  17  18
ENDBRANCH  16  17
ENDBRANCH  15  16
ENDBRANCH  14  15
ENDBRANCH   8  14
ENDBRANCH   3   6
ENDBRANCH   1   2
BRANCH   1  22
HETATM   22  C15 UNL     1      -3.430   0.948   0.513  1.00  0.00     0.003 C 
HETATM   23  C16 UNL     1      -4.586   1.186  -0.048  1.00  0.00     0.049 C 
BRANCH  23  24
HETATM   24  C17 UNL     1      -4.973   2.534  -0.447  1.00  0.00     0.156 C 
HETATM   25  O4  UNL     1      -6.144   2.623  -0.978  1.00  0.00    -0.292 OA
BRANCH  24  26
HETATM   26  C18 UNL     1      -4.187   3.753  -0.309  1.00  0.00     0.013 C 
HETATM   27  C19 UNL     1      -2.926   3.680  -1.112  1.00  0.00     0.023 C 
HETATM   28  C20 UNL     1      -3.927   4.136   1.135  1.00  0.00     0.023 C 
HETATM   29  C21 UNL     1      -5.000   4.926  -0.879  1.00  0.00     0.023 C 
ENDBRANCH  24  26
ENDBRANCH  23  24
ENDBRANCH   1  22
BRANCH   1  30
HETATM   30  C22 UNL     1      -3.862  -1.386   1.374  1.00  0.00     0.180 C 
BRANCH  30  31
HETATM   31  C23 UNL     1      -4.860  -0.833   2.328  1.00  0.00     0.186 C 
HETATM   32  O5  UNL     1      -6.105  -0.889   2.181  1.00  0.00    -0.647 OA
HETATM   33  O6  UNL     1      -4.424  -0.191   3.499  1.00  0.00    -0.647 OA
ENDBRANCH  30  31
BRANCH  30  34
HETATM   34  C24 UNL     1      -4.442  -2.258   0.367  1.00  0.00     0.089 C 
HETATM   35  N4  UNL     1      -4.055  -2.267  -0.837  1.00  0.00    -0.379 N 
HETATM   36  C25 UNL     1      -4.535  -3.067  -1.915  1.00  0.00     0.122 C 
ATOM     37  H4  UNL     1      -3.302  -1.618  -1.066  1.00  0.00     0.160 HD
HETATM   38  C26 UNL     1      -5.388  -4.232  -1.437  1.00  0.00     0.039 C 
HETATM   39  C27 UNL     1      -6.327  -3.651  -0.380  1.00  0.00     0.122 C 
HETATM   40  N5  UNL     1      -5.506  -3.189   0.715  1.00  0.00    -0.379 N 
ATOM     41  H5  UNL     1      -5.662  -3.497   1.675  1.00  0.00     0.160 HD
ENDBRANCH  30  34
ENDBRANCH   1  30
TORSDOF 14
