REMARK  14 active torsions:
REMARK  status: ('A' for Active; 'I' for Inactive)
REMARK    1  A    between atoms: C2_2  and  O1_3 
REMARK    2  A    between atoms: C2_2  and  N1_5 
REMARK    3  A    between atoms: N2_9  and  C6_10 
REMARK    4  A    between atoms: C6_10  and  C7_11 
REMARK    5  A    between atoms: C7_11  and  C8_12 
REMARK    6  A    between atoms: C8_12  and  C9_13 
REMARK    7  A    between atoms: C9_13  and  C10_14 
REMARK    8  A    between atoms: C10_14  and  C11_15 
REMARK    9  A    between atoms: C11_15  and  C12_16 
REMARK   10  A    between atoms: C12_16  and  C13_17 
REMARK   11  A    between atoms: C13_17  and  N3_18 
REMARK       I    between atoms: N3_18  and  C14_20 
REMARK   12  A    between atoms: C14_20  and  C15_22 
REMARK   13  A    between atoms: C15_22  and  C16_24 
REMARK   14  A    between atoms: C22_32  and  O6_33 
ROOT
HETATM    1  N3  UNL     1       2.050   1.618   0.105  1.00  0.00    -0.354 N 
ATOM      2  H3  UNL     1       1.925   1.969   1.055  1.00  0.00     0.162 HD
HETATM    3  C14 UNL     1       3.169   0.799  -0.178  1.00  0.00     0.290 C 
HETATM    4  O2  UNL     1       3.332   0.372  -1.339  1.00  0.00    -0.264 OA
ENDROOT
BRANCH   1   5
HETATM    5  C13 UNL     1       1.092   1.970  -0.890  1.00  0.00     0.123 C 
BRANCH   5   6
HETATM    6  C12 UNL     1       0.406   0.756  -1.456  1.00  0.00     0.020 C 
BRANCH   6   7
HETATM    7  C11 UNL     1      -0.271   0.015  -0.331  1.00  0.00     0.002 C 
BRANCH   7   8
HETATM    8  C10 UNL     1      -1.289   0.917   0.323  1.00  0.00     0.000 C 
BRANCH   8   9
HETATM    9  C9  UNL     1      -1.933   0.100   1.446  1.00  0.00     0.000 C 
BRANCH   9  10
HETATM   10  C8  UNL     1      -2.964   0.925   2.162  1.00  0.00     0.002 C 
BRANCH  10  11
HETATM   11  C7  UNL     1      -4.075   1.391   1.261  1.00  0.00     0.030 C 
BRANCH  11  12
HETATM   12  C6  UNL     1      -4.791   0.195   0.629  1.00  0.00     0.273 C 
BRANCH  12  13
HETATM   13  N2  UNL     1      -5.846   0.727  -0.212  1.00  0.00     0.093 N 
HETATM   14  C5  UNL     1      -6.527  -0.329  -0.920  1.00  0.00     0.278 C 
HETATM   15  C4  UNL     1      -7.093  -1.370  -0.019  1.00  0.00     0.075 C 
HETATM   16  C3  UNL     1      -8.103  -0.793   0.949  1.00  0.00     0.067 C 
HETATM   17  N1  UNL     1      -8.849   0.289   0.441  1.00  0.00    -0.346 N 
HETATM   18  C26 UNL     1      -8.188   1.479   0.083  1.00  0.00     0.095 C 
HETATM   19  C25 UNL     1      -6.757   1.565   0.537  1.00  0.00     0.317 C 
BRANCH  17  20
HETATM   20  C2  UNL     1     -10.139   0.041  -0.074  1.00  0.00     0.219 C 
HETATM   21  C1  UNL     1     -10.175  -0.881  -1.282  1.00  0.00     0.063 C 
BRANCH  20  22
HETATM   22  O1  UNL     1     -10.856   1.184  -0.397  1.00  0.00    -0.377 OA
ATOM     23  H1  UNL     1     -10.834   1.760   0.358  1.00  0.00     0.212 HD
ENDBRANCH  20  22
ENDBRANCH  17  20
ENDBRANCH  12  13
ENDBRANCH  11  12
ENDBRANCH  10  11
ENDBRANCH   9  10
ENDBRANCH   8   9
ENDBRANCH   7   8
ENDBRANCH   6   7
ENDBRANCH   5   6
ENDBRANCH   1   5
BRANCH   3  24
HETATM   24  C15 UNL     1       4.146   0.432   0.839  1.00  0.00     0.254 C 
HETATM   25  O3  UNL     1       3.978   0.869   2.008  1.00  0.00    -0.283 OA
BRANCH  24  26
HETATM   26  C16 UNL     1       5.324  -0.428   0.570  1.00  0.00     0.262 C 
HETATM   27  O4  UNL     1       5.319  -0.775  -0.740  1.00  0.00    -0.367 OA
HETATM   28  C17 UNL     1       5.979  -1.892  -1.115  1.00  0.00     0.172 C 
HETATM   29  C18 UNL     1       7.039  -2.425  -0.227  1.00  0.00     0.058 C 
HETATM   30  C19 UNL     1       8.308  -1.674  -0.137  1.00  0.00     0.130 C 
HETATM   31  O5  UNL     1       8.632  -1.257   1.177  1.00  0.00    -0.385 OA
HETATM   32  C23 UNL     1       8.455  -0.483  -1.038  1.00  0.00     0.053 C 
HETATM   33  C20 UNL     1       9.990  -1.072   1.251  1.00  0.00     0.170 C 
HETATM   34  C21 UNL     1      10.552  -0.081   0.268  1.00  0.00     0.058 C 
HETATM   35  C22 UNL     1       9.968  -0.214  -1.115  1.00  0.00     0.127 C 
HETATM   36  C24 UNL     1       7.791   0.752  -0.562  1.00  0.00     0.086 C 
HETATM   37  S1  UNL     1       6.802   0.568   0.921  1.00  0.00    -0.129 SA
BRANCH  35  38
HETATM   38  O6  UNL     1      10.151   0.957  -1.819  1.00  0.00    -0.395 OA
ATOM     39  H6  UNL     1       9.783   0.873  -2.691  1.00  0.00     0.210 HD
ENDBRANCH  35  38
ENDBRANCH  24  26
ENDBRANCH   3  24
TORSDOF 14
