REMARK  3 active torsions:
REMARK  status: ('A' for Active; 'I' for Inactive)
REMARK       I    between atoms: C2_5  and  N3_6 
REMARK       I    between atoms: C2_5  and  N8_17 
REMARK       I    between atoms: C3_8  and  N5_10 
REMARK    1  A    between atoms: N5_10  and  N6_12 
REMARK       I    between atoms: N6_12  and  C4_14 
REMARK    2  A    between atoms: N8_17  and  C5_19 
REMARK    3  A    between atoms: C5_19  and  C6_20 
ROOT
HETATM    1  N1  UNL     1      -0.659  -0.378   3.972  1.00  0.00    -0.171 NA
HETATM    2  C1  UNL     1       0.193  -0.080   3.226  1.00  0.00     0.196 C 
HETATM    3  N2  UNL     1       1.189   0.265   2.324  1.00  0.00    -0.126 N 
ATOM      4  H2  UNL     1       2.171   0.178   2.585  1.00  0.00     0.197 HD
HETATM    5  C2  UNL     1       0.865   0.695   1.158  1.00  0.00     0.689 C 
HETATM    6  N3  UNL     1       1.879   1.043   0.243  1.00  0.00    -0.162 N 
ATOM      7  H3  UNL     1       1.894   1.973  -0.176  1.00  0.00     0.187 HD
HETATM    8  C3  UNL     1       2.784   0.184  -0.061  1.00  0.00     0.221 C 
HETATM    9  N4  UNL     1       2.707  -1.106   0.561  1.00  0.00    -0.061 NA
HETATM   10  N5  UNL     1       3.836   0.446  -0.958  1.00  0.00    -0.269 N 
ATOM     11  H5  UNL     1       3.689   1.091  -1.734  1.00  0.00     0.189 HD
HETATM   12  N8  UNL     1      -0.494   0.819   0.794  1.00  0.00    -0.225 N 
ATOM     13  H8  UNL     1      -1.152   1.171   1.489  1.00  0.00     0.177 HD
ENDROOT
BRANCH  12  14
HETATM   14  C5  UNL     1      -0.996   0.472  -0.514  1.00  0.00     0.142 C 
BRANCH  14  15
HETATM   15  C6  UNL     1      -2.502   0.617  -0.526  1.00  0.00     0.007 C 
HETATM   16  C7  UNL     1      -3.073   0.295  -1.887  1.00  0.00     0.025 C 
HETATM   17  C8  UNL     1      -4.429  -0.253  -1.945  1.00  0.00     0.114 C 
HETATM   18  N9  UNL     1      -5.000  -0.753  -0.748  1.00  0.00    -0.421 N 
HETATM   19  C9  UNL     1      -4.571  -0.145   0.459  1.00  0.00     0.114 C 
ATOM     20  H9  UNL     1      -5.683  -1.510  -0.754  1.00  0.00     0.153 HD
HETATM   21  C10 UNL     1      -3.048  -0.334   0.524  1.00  0.00     0.025 C 
ENDBRANCH  14  15
ENDBRANCH  12  14
BRANCH  10  22
HETATM   22  N6  UNL     1       5.077  -0.167  -0.796  1.00  0.00    -0.252 N 
HETATM   23  C4  UNL     1       5.806   0.027   0.411  1.00  0.00     0.347 C 
HETATM   24  N7  UNL     1       7.073  -0.582   0.617  1.00  0.00    -0.038 NA
HETATM   25  O1  UNL     1       5.312   0.755   1.313  1.00  0.00    -0.249 OA
ATOM     26  H6  UNL     1       5.461  -0.752  -1.538  1.00  0.00     0.191 HD
ENDBRANCH  10  22
TORSDOF 3
