REMARK  2 active torsions:
REMARK  status: ('A' for Active; 'I' for Inactive)
REMARK    1  A    between atoms: N2_4  and  N3_6 
REMARK       I    between atoms: N3_6  and  C3_8 
REMARK       I    between atoms: C3_8  and  N5_12 
REMARK    2  A    between atoms: N5_12  and  N6_14 
REMARK       I    between atoms: N6_14  and  C4_16 
REMARK       I    between atoms: C4_16  and  N7_18 
ROOT
HETATM    1  N6  UNL     1       0.531  -0.157   0.395  1.00  0.00    -0.237 N 
ATOM      2  H6  UNL     1       0.376  -1.077   0.808  1.00  0.00     0.192 HD
HETATM    3  C4  UNL     1      -0.570   0.529  -0.143  1.00  0.00     0.337 C 
HETATM    4  O1  UNL     1      -0.349   1.677  -0.655  1.00  0.00    -0.245 OA
HETATM    5  N7  UNL     1      -1.895   0.019  -0.144  1.00  0.00    -0.324 N 
HETATM    6  C5  UNL     1      -2.845   0.913  -0.750  1.00  0.00     0.128 C 
HETATM    7  C6  UNL     1      -3.628   1.687   0.282  1.00  0.00     0.022 C 
HETATM    8  C7  UNL     1      -4.864   1.001   0.736  1.00  0.00     0.021 C 
HETATM    9  C8  UNL     1      -5.337  -0.118  -0.119  1.00  0.00     0.122 C 
HETATM   10  N8  UNL     1      -4.629  -1.365   0.085  1.00  0.00    -0.360 N 
ATOM     11  H8  UNL     1      -5.217  -2.164  -0.151  1.00  0.00     0.162 HD
HETATM   12  C9  UNL     1      -3.340  -1.787   0.523  1.00  0.00     0.235 C 
HETATM   13  O2  UNL     1      -3.396  -2.914   1.129  1.00  0.00    -0.272 OA
HETATM   14  C10 UNL     1      -1.965  -1.273   0.464  1.00  0.00     0.230 C 
ENDROOT
BRANCH   1  15
HETATM   15  N5  UNL     1       1.818   0.356   0.391  1.00  0.00    -0.127 N 
HETATM   16  C3  UNL     1       2.675   0.138  -0.756  1.00  0.00     0.705 C 
HETATM   17  N3  UNL     1       4.033   0.636  -0.661  1.00  0.00    -0.130 N 
HETATM   18  N4  UNL     1       2.285  -0.420  -1.730  1.00  0.00    -0.232 N 
ATOM     19  H3  UNL     1       4.211   1.628  -0.504  1.00  0.00     0.205 HD
ATOM     20  H42 UNL     1       2.889  -0.574  -2.538  1.00  0.00     0.174 HD
ATOM     21  H41 UNL     1       1.329  -0.770  -1.797  1.00  0.00     0.174 HD
ATOM     22  H5  UNL     1       2.161   0.885   1.193  1.00  0.00     0.206 HD
BRANCH  17  23
HETATM   23  N2  UNL     1       5.092  -0.263  -0.788  1.00  0.00    -0.277 N 
HETATM   24  C2  UNL     1       5.942  -0.399   0.193  1.00  0.00     0.104 C 
HETATM   25  C1  UNL     1       5.714   0.435   1.409  1.00  0.00     0.086 C 
HETATM   26  N1  UNL     1       7.019  -1.309   0.069  1.00  0.00    -0.087 NA
ATOM     27  H2  UNL     1       5.201  -0.810  -1.642  1.00  0.00     0.188 HD
ENDBRANCH  17  23
ENDBRANCH   1  15
TORSDOF 2
