REMARK  2 active torsions:
REMARK  status: ('A' for Active; 'I' for Inactive)
REMARK       I    between atoms: N1_2  and  C2_4 
REMARK    1  A    between atoms: C2_4  and  C3_6 
REMARK    2  A    between atoms: C3_6  and  N2_7 
ROOT
HETATM    1  N2  UNL     1       1.633   0.147   0.303  1.00  0.00    -0.297 N 
HETATM    2  C4  UNL     1       0.419   0.692   0.830  1.00  0.00     0.175 C 
HETATM    3  C5  UNL     1      -0.247   1.637  -0.153  1.00  0.00     0.254 C 
HETATM    4  N3  UNL     1      -1.257   2.433   0.446  1.00  0.00    -0.073 N 
ATOM      5  H31 UNL     1      -0.898   3.365   0.653  1.00  0.00     0.277 HD
ATOM      6  H32 UNL     1      -1.452   2.106   1.392  1.00  0.00     0.277 HD
HETATM    7  C6  UNL     1      -2.473   2.524  -0.311  1.00  0.00     0.234 C 
HETATM    8  C7  UNL     1      -3.673   1.984   0.397  1.00  0.00     0.055 C 
HETATM    9  C8  UNL     1      -3.654   0.509   0.617  1.00  0.00     0.234 C 
HETATM   10  N4  UNL     1      -3.268  -0.201  -0.571  1.00  0.00    -0.073 N 
ATOM     11  H41 UNL     1      -2.291  -0.036  -0.811  1.00  0.00     0.277 HD
ATOM     12  H42 UNL     1      -3.698   0.195  -1.407  1.00  0.00     0.277 HD
HETATM   13  C9  UNL     1      -3.559  -1.618  -0.432  1.00  0.00     0.259 C 
HETATM   14  C10 UNL     1      -2.416  -2.358   0.223  1.00  0.00     0.260 C 
HETATM   15  N5  UNL     1      -1.340  -2.616  -0.717  1.00  0.00    -0.069 N 
ATOM     16  H51 UNL     1      -1.268  -1.892  -1.432  1.00  0.00     0.277 HD
ATOM     17  H52 UNL     1      -1.543  -3.405  -1.331  1.00  0.00     0.277 HD
HETATM   18  C11 UNL     1      -0.097  -2.792   0.017  1.00  0.00     0.278 C 
HETATM   19  C12 UNL     1       1.033  -1.971  -0.583  1.00  0.00     0.107 C 
HETATM   20  N6  UNL     1       1.752  -1.197   0.338  1.00  0.00    -0.312 N 
ATOM     21  H6  UNL     1       2.358  -1.644   1.026  1.00  0.00     0.185 HD
ENDROOT
BRANCH   1  22
HETATM   22  C3  UNL     1       2.761   0.971   0.376  1.00  0.00     0.184 C 
BRANCH  22  23
HETATM   23  C2  UNL     1       3.965   0.334  -0.234  1.00  0.00     0.258 C 
HETATM   24  N1  UNL     1       5.216   1.019  -0.254  1.00  0.00    -0.361 N 
HETATM   25  C1  UNL     1       6.352   0.369  -0.852  1.00  0.00     0.149 C 
ATOM     26  H1  UNL     1       5.304   1.952   0.148  1.00  0.00     0.162 HD
HETATM   27  O1  UNL     1       3.899  -0.797  -0.731  1.00  0.00    -0.267 OA
ENDBRANCH  22  23
ENDBRANCH   1  22
TORSDOF 2
