REMARK  3 active torsions:
REMARK  status: ('A' for Active; 'I' for Inactive)
REMARK       I    between atoms: N2_5  and  C4_6 
REMARK       I    between atoms: C4_6  and  N4_10 
REMARK       I    between atoms: N4_10  and  C5_12 
REMARK       I    between atoms: C5_12  and  N8_19 
REMARK    1  A    between atoms: N5_13  and  N6_15 
REMARK    2  A    between atoms: N8_19  and  C7_21 
REMARK    3  A    between atoms: C9_23  and  N9_24 
ROOT
HETATM    1  C1  UNL     1       5.076   0.807   0.424  1.00  0.00     0.310 C 
HETATM    2  N1  UNL     1       4.327  -0.019   1.348  1.00  0.00     0.087 N 
HETATM    3  C2  UNL     1       4.097  -1.337   0.884  1.00  0.00     0.292 C 
HETATM    4  C3  UNL     1       2.695  -1.668   0.520  1.00  0.00     0.171 C 
HETATM    5  N2  UNL     1       1.846  -0.546   0.278  1.00  0.00    -0.214 N 
HETATM    6  C4  UNL     1       0.642  -0.789  -0.440  1.00  0.00     0.688 C 
HETATM    7  N3  UNL     1       0.735  -0.981  -1.705  1.00  0.00    -0.234 N 
ATOM      8  H31 UNL     1      -0.128  -1.155  -2.220  1.00  0.00     0.174 HD
ATOM      9  H32 UNL     1       1.660  -0.951  -2.135  1.00  0.00     0.174 HD
HETATM   10  N4  UNL     1      -0.643  -0.831   0.157  1.00  0.00    -0.022 N 
ATOM     11  H4  UNL     1      -0.910  -1.577   0.799  1.00  0.00     0.203 HD
HETATM   12  C5  UNL     1      -1.552   0.229  -0.186  1.00  0.00     0.707 C 
HETATM   13  N5  UNL     1      -1.880   1.026   0.775  1.00  0.00    -0.131 N 
ATOM     14  H5  UNL     1      -1.509   0.899   1.716  1.00  0.00     0.205 HD
HETATM   15  N8  UNL     1      -2.052   0.379  -1.508  1.00  0.00    -0.218 N 
ATOM     16  H8  UNL     1      -1.526   0.903  -2.208  1.00  0.00     0.178 HD
HETATM   17  C10 UNL     1       2.169   0.792   0.730  1.00  0.00     0.171 C 
HETATM   18  C11 UNL     1       3.161   0.662   1.853  1.00  0.00     0.292 C 
ENDROOT
BRANCH  13  19
HETATM   19  N6  UNL     1      -2.758   2.064   0.481  1.00  0.00    -0.284 N 
HETATM   20  C6  UNL     1      -3.118   2.868   1.416  1.00  0.00     0.207 C 
HETATM   21  N7  UNL     1      -2.598   2.661   2.724  1.00  0.00    -0.095 NA
ATOM     22  H6  UNL     1      -3.113   2.186  -0.468  1.00  0.00     0.187 HD
ENDBRANCH  13  19
BRANCH  15  23
HETATM   23  C7  UNL     1      -3.308  -0.220  -1.835  1.00  0.00     0.132 A 
HETATM   24  C8  UNL     1      -3.400  -1.730  -1.677  1.00  0.00     0.062 A 
HETATM   25  C9  UNL     1      -3.489  -1.092  -3.008  1.00  0.00     0.208 A 
BRANCH  25  26
HETATM   26  N9  UNL     1      -4.772  -1.105  -3.688  1.00  0.00    -0.073 N 
ATOM     27  H93 UNL     1      -5.502  -1.316  -3.007  1.00  0.00     0.274 HD
ATOM     28  H92 UNL     1      -5.014  -0.149  -3.950  1.00  0.00     0.274 HD
ATOM     29  H91 UNL     1      -4.897  -1.709  -4.500  1.00  0.00     0.274 HD
ENDBRANCH  25  26
ENDBRANCH  15  23
TORSDOF 3
