REMARK  5 active torsions:
REMARK  status: ('A' for Active; 'I' for Inactive)
REMARK    1  A    between atoms: C2_2  and  N1_3 
REMARK    2  A    between atoms: C2_2  and  C10_25 
REMARK       I    between atoms: N1_3  and  C3_5 
REMARK       I    between atoms: C3_5  and  N2_7 
REMARK    3  A    between atoms: C6_10  and  C7_11 
REMARK       I    between atoms: C7_11  and  N3_13 
REMARK    4  A    between atoms: N3_13  and  N4_15 
REMARK    5  A    between atoms: N5_20  and  N6_22 
ROOT
HETATM    1  N1  UNL     1      -2.322   0.198  -0.182  1.00  0.00    -0.332 N 
ATOM      2  H1  UNL     1      -2.094   1.191  -0.140  1.00  0.00     0.165 HD
HETATM    3  C3  UNL     1      -1.260  -0.758  -0.046  1.00  0.00     0.324 C 
HETATM    4  O1  UNL     1      -1.591  -1.967  -0.101  1.00  0.00    -0.247 OA
HETATM    5  N2  UNL     1       0.085  -0.350   0.142  1.00  0.00    -0.288 N 
HETATM    6  C4  UNL     1       0.374   1.089   0.103  1.00  0.00     0.136 C 
HETATM    7  C5  UNL     1       1.798   1.431  -0.100  1.00  0.00     0.035 C 
HETATM    8  C6  UNL     1       2.809   0.371   0.082  1.00  0.00     0.088 C 
HETATM    9  C8  UNL     1       2.412  -1.013  -0.354  1.00  0.00     0.092 C 
HETATM   10  C9  UNL     1       1.117  -1.281   0.386  1.00  0.00     0.102 C 
HETATM   11  N5  UNL     1       1.007  -2.231   1.190  1.00  0.00    -0.295 N 
ATOM     12  H5  UNL     1       1.862  -2.787   1.217  1.00  0.00     0.187 HD
ENDROOT
BRANCH   1  13
HETATM   13  C2  UNL     1      -3.697  -0.189  -0.375  1.00  0.00     0.146 C 
HETATM   14  C1  UNL     1      -4.572   0.315   0.765  1.00  0.00     0.040 C 
BRANCH  13  15
HETATM   15  C10 UNL     1      -4.261   0.336  -1.651  1.00  0.00     0.109 C 
HETATM   16  N7  UNL     1      -4.670  -0.411  -2.598  1.00  0.00    -0.389 N 
ATOM     17  H72 UNL     1      -4.604  -1.420  -2.465  1.00  0.00     0.157 HD
ATOM     18  H71 UNL     1      -5.056  -0.052  -3.471  1.00  0.00     0.157 HD
HETATM   19  N8  UNL     1      -4.354   1.749  -1.837  1.00  0.00    -0.086 NA
ENDBRANCH  13  15
ENDBRANCH   1  13
BRANCH  11  20
HETATM   20  N6  UNL     1       0.085  -2.728   2.027  1.00  0.00    -0.344 N 
ATOM     21  H62 UNL     1      -0.759  -2.157   1.982  1.00  0.00     0.176 HD
ATOM     22  H61 UNL     1      -0.005  -3.504   2.683  1.00  0.00     0.176 HD
ENDBRANCH  11  20
BRANCH   8  23
HETATM   23  C7  UNL     1       4.124   0.712  -0.518  1.00  0.00     0.240 C 
HETATM   24  O2  UNL     1       4.284   1.811  -1.106  1.00  0.00    -0.271 OA
HETATM   25  N3  UNL     1       5.233  -0.169  -0.455  1.00  0.00    -0.276 N 
ATOM     26  H3  UNL     1       5.125  -1.066   0.018  1.00  0.00     0.189 HD
BRANCH  25  27
HETATM   27  N4  UNL     1       6.467   0.152  -1.019  1.00  0.00    -0.343 N 
ATOM     28  H42 UNL     1       6.558   1.053  -1.488  1.00  0.00     0.176 HD
ATOM     29  H41 UNL     1       7.265  -0.482  -0.974  1.00  0.00     0.176 HD
ENDBRANCH  25  27
ENDBRANCH   8  23
TORSDOF 5
