REMARK  3 active torsions:
REMARK  status: ('A' for Active; 'I' for Inactive)
REMARK       I    between atoms: N1_5  and  C5_6 
REMARK       I    between atoms: C5_6  and  N2_8 
REMARK    1  A    between atoms: N2_8  and  N3_10 
REMARK       I    between atoms: N3_10  and  C6_12 
REMARK    2  A    between atoms: N6_18  and  N7_20 
REMARK    3  A    between atoms: C8_23  and  C9_24 
ROOT
HETATM    1  C1  UNL     1      -2.434   1.601  -0.645  1.00  0.00     0.018 C 
HETATM    2  C2  UNL     1      -2.046   0.164  -0.570  1.00  0.00    -0.011 C 
HETATM    3  C3  UNL     1      -3.060  -0.599  -1.411  1.00  0.00     0.018 C 
HETATM    4  C4  UNL     1      -0.714   0.024  -1.259  1.00  0.00     0.145 C 
HETATM    5  N1  UNL     1       0.234  -0.370  -0.239  1.00  0.00    -0.285 N 
HETATM    6  C5  UNL     1       1.625  -0.136  -0.321  1.00  0.00     0.342 C 
HETATM    7  O1  UNL     1       2.356  -0.488   0.601  1.00  0.00    -0.245 OA
HETATM    8  N2  UNL     1       2.147   0.498  -1.474  1.00  0.00    -0.249 N 
ATOM      9  H2  UNL     1       1.505   0.772  -2.218  1.00  0.00     0.192 HD
HETATM   10  C7  UNL     1      -0.494  -1.032   0.818  1.00  0.00     0.117 C 
HETATM   11  N6  UNL     1       0.037  -1.924   1.538  1.00  0.00    -0.294 N 
ATOM     12  H6  UNL     1       1.009  -2.178   1.363  1.00  0.00     0.187 HD
HETATM   13  C8  UNL     1      -1.840  -0.427   0.768  1.00  0.00     0.165 C 
ENDROOT
BRANCH   8  14
HETATM   14  N3  UNL     1       3.497   0.759  -1.628  1.00  0.00    -0.270 N 
HETATM   15  C6  UNL     1       4.387   0.609  -0.541  1.00  0.00     0.200 C 
HETATM   16  N4  UNL     1       5.097  -0.483  -0.497  1.00  0.00    -0.372 N 
HETATM   17  N5  UNL     1       4.526   1.592   0.472  1.00  0.00    -0.062 NA
ATOM     18  H42 UNL     1       4.997  -1.190  -1.225  1.00  0.00     0.158 HD
ATOM     19  H41 UNL     1       5.740  -0.591   0.288  1.00  0.00     0.158 HD
ATOM     20  H3  UNL     1       3.853   1.062  -2.534  1.00  0.00     0.189 HD
ENDBRANCH   8  14
BRANCH  11  21
HETATM   21  N7  UNL     1      -0.642  -2.569   2.552  1.00  0.00    -0.344 N 
ATOM     22  H72 UNL     1      -1.613  -2.302   2.714  1.00  0.00     0.176 HD
ATOM     23  H71 UNL     1      -0.213  -3.289   3.133  1.00  0.00     0.176 HD
ENDBRANCH  11  21
BRANCH  13  24
HETATM   24  C9  UNL     1      -2.047   0.452   1.902  1.00  0.00     0.185 C 
HETATM   25  O2  UNL     1      -2.218   1.699   1.902  1.00  0.00    -0.647 OA
HETATM   26  O3  UNL     1      -2.067  -0.111   3.186  1.00  0.00    -0.647 OA
ENDBRANCH  13  24
TORSDOF 3
