REMARK  15 active torsions:
REMARK  status: ('A' for Active; 'I' for Inactive)
REMARK    1  A    between atoms: C2_2  and  O1_4 
REMARK    2  A    between atoms: O1_4  and  C4_5 
REMARK    3  A    between atoms: C4_5  and  O3_7 
REMARK    4  A    between atoms: O3_7  and  C5_8 
REMARK    5  A    between atoms: C5_8  and  C6_9 
REMARK    6  A    between atoms: C6_9  and  C7_10 
REMARK    7  A    between atoms: C7_10  and  O4_11 
REMARK    8  A    between atoms: C7_10  and  C8_13 
REMARK    9  A    between atoms: C8_13  and  N1_14 
REMARK   10  A    between atoms: N1_14  and  C9_16 
REMARK   11  A    between atoms: C9_16  and  C10_18 
REMARK   12  A    between atoms: C18_29  and  C19_30 
REMARK       I    between atoms: C19_30  and  N3_32 
REMARK   13  A    between atoms: C20_34  and  C21_35 
REMARK   14  A    between atoms: C21_35  and  C22_36 
REMARK   15  A    between atoms: C22_36  and  N4_37 
ROOT
HETATM    1  C10 UNL     1      -0.564  -1.905   0.333  1.00  0.00     0.259 C 
HETATM    2  N2  UNL     1       0.324  -2.311   1.377  1.00  0.00    -0.064 N 
ATOM      3  H21 UNL     1       1.217  -1.824   1.303  1.00  0.00     0.278 HD
ATOM      4  H22 UNL     1       0.642  -3.269   1.230  1.00  0.00     0.278 HD
HETATM    5  C11 UNL     1      -0.232  -2.156   2.683  1.00  0.00     0.238 C 
HETATM    6  C12 UNL     1      -1.435  -3.104   2.819  1.00  0.00     0.016 C 
HETATM    7  C13 UNL     1      -0.824  -4.478   2.890  1.00  0.00     0.007 C 
HETATM    8  C14 UNL     1      -1.943  -5.493   2.847  1.00  0.00     0.000 C 
HETATM    9  C15 UNL     1      -2.441  -5.399   1.398  1.00  0.00     0.000 C 
HETATM   10  C16 UNL     1      -3.171  -4.110   1.278  1.00  0.00     0.006 C 
HETATM   11  C17 UNL     1      -2.434  -2.898   1.758  1.00  0.00     0.007 C 
HETATM   12  C18 UNL     1      -2.015  -2.039   0.593  1.00  0.00     0.120 C 
ENDROOT
BRANCH   1  13
HETATM   13  C9  UNL     1      -0.128  -2.433  -0.971  1.00  0.00     0.105 C 
HETATM   14  S1  UNL     1      -1.036  -3.509  -1.764  1.00  0.00    -0.063 SA
BRANCH  13  15
HETATM   15  N1  UNL     1       1.086  -2.004  -1.541  1.00  0.00    -0.380 N 
ATOM     16  H1  UNL     1       1.375  -2.378  -2.445  1.00  0.00     0.160 HD
BRANCH  15  17
HETATM   17  C8  UNL     1       1.931  -1.042  -0.868  1.00  0.00     0.152 C 
BRANCH  17  18
HETATM   18  C7  UNL     1       3.131  -0.755  -1.753  1.00  0.00     0.138 C 
BRANCH  18  19
HETATM   19  C6  UNL     1       4.034   0.310  -1.166  1.00  0.00     0.060 C 
BRANCH  19  20
HETATM   20  C5  UNL     1       4.648  -0.127   0.137  1.00  0.00     0.183 C 
BRANCH  20  21
HETATM   21  O3  UNL     1       5.468   0.905   0.623  1.00  0.00    -0.298 OA
BRANCH  21  22
HETATM   22  C4  UNL     1       6.573   1.432   0.029  1.00  0.00     0.406 C 
HETATM   23  O2  UNL     1       6.953   0.992  -1.065  1.00  0.00    -0.229 OA
BRANCH  22  24
HETATM   24  O1  UNL     1       7.339   2.461   0.569  1.00  0.00    -0.293 OA
BRANCH  24  25
HETATM   25  C2  UNL     1       8.481   2.982  -0.080  1.00  0.00     0.126 C 
HETATM   26  C1  UNL     1       9.670   2.710   0.837  1.00  0.00     0.040 C 
HETATM   27  C3  UNL     1       8.391   4.447  -0.352  1.00  0.00     0.040 C 
ENDBRANCH  24  25
ENDBRANCH  22  24
ENDBRANCH  21  22
ENDBRANCH  20  21
ENDBRANCH  19  20
ENDBRANCH  18  19
BRANCH  18  28
HETATM   28  O4  UNL     1       2.623  -0.241  -2.950  1.00  0.00    -0.394 OA
ATOM     29  H4  UNL     1       2.057  -0.909  -3.318  1.00  0.00     0.210 HD
ENDBRANCH  18  28
ENDBRANCH  17  18
ENDBRANCH  15  17
ENDBRANCH  13  15
ENDBRANCH   1  13
BRANCH  12  30
HETATM   30  C19 UNL     1      -2.731  -0.711   0.611  1.00  0.00     0.228 C 
HETATM   31  O5  UNL     1      -2.045   0.311   0.425  1.00  0.00    -0.273 OA
HETATM   32  N3  UNL     1      -4.108  -0.605   0.828  1.00  0.00    -0.340 N 
HETATM   33  C20 UNL     1      -4.970   0.060   0.187  1.00  0.00     0.065 C 
ATOM     34  H3  UNL     1      -4.468  -1.142   1.617  1.00  0.00     0.167 HD
BRANCH  33  35
HETATM   35  C21 UNL     1      -4.744   0.924  -0.989  1.00  0.00     0.074 C 
BRANCH  35  36
HETATM   36  C22 UNL     1      -5.787   2.028  -1.002  1.00  0.00     0.277 C 
BRANCH  36  37
HETATM   37  N4  UNL     1      -5.597   2.886  -2.129  1.00  0.00     0.088 N 
HETATM   38  C23 UNL     1      -4.390   3.644  -1.987  1.00  0.00     0.272 C 
HETATM   39  C24 UNL     1      -4.752   5.081  -1.754  1.00  0.00     0.032 C 
HETATM   40  C25 UNL     1      -6.277   5.066  -1.649  1.00  0.00     0.032 C 
HETATM   41  C26 UNL     1      -6.669   3.789  -2.368  1.00  0.00     0.272 C 
ENDBRANCH  36  37
ENDBRANCH  35  36
ENDBRANCH  33  35
ENDBRANCH  12  30
TORSDOF 15
