REMARK  12 active torsions:
REMARK  status: ('A' for Active; 'I' for Inactive)
REMARK    1  A    between atoms: C2_2  and  C3_3 
REMARK    2  A    between atoms: C3_3  and  N1_4 
REMARK    3  A    between atoms: C4_5  and  S1_6 
REMARK    4  A    between atoms: S1_6  and  C5_7 
REMARK    5  A    between atoms: C5_7  and  C6_8 
REMARK       I    between atoms: C6_8  and  N2_10 
REMARK    6  A    between atoms: N2_10  and  C7_12 
REMARK    7  A    between atoms: C11_16  and  C12_17 
REMARK       I    between atoms: C12_17  and  N3_19 
REMARK    8  A    between atoms: N3_19  and  C13_21 
REMARK    9  A    between atoms: C13_21  and  C15_23 
REMARK       I    between atoms: C15_23  and  N4_25 
REMARK   10  A    between atoms: N4_25  and  C16_27 
REMARK   11  A    between atoms: C19_30  and  C20_31 
REMARK   12  A    between atoms: C22_38  and  C23_39 
ROOT
HETATM    1  C7  UNL     1       0.993   0.334   0.665  1.00  0.00     0.122 C 
HETATM    2  C8  UNL     1       1.063   1.876   0.636  1.00  0.00     0.030 C 
HETATM    3  C9  UNL     1       2.540   2.283   0.748  1.00  0.00     0.007 C 
HETATM    4  C10 UNL     1       3.302   1.072   1.282  1.00  0.00     0.045 C 
HETATM    5  C11 UNL     1       3.285   0.127   0.095  1.00  0.00     0.021 C 
HETATM    6  C19 UNL     1       2.022  -0.251  -0.225  1.00  0.00     0.022 C 
ENDROOT
BRANCH   1   7
HETATM    7  N2  UNL     1      -0.357  -0.072   0.460  1.00  0.00    -0.352 N 
HETATM    8  C6  UNL     1      -1.462   0.784   0.536  1.00  0.00     0.227 C 
HETATM    9  O1  UNL     1      -1.464   1.974   0.785  1.00  0.00    -0.273 OA
ATOM     10  H2  UNL     1      -0.530  -1.053   0.243  1.00  0.00     0.163 HD
BRANCH   8  11
HETATM   11  C5  UNL     1      -2.827   0.181   0.277  1.00  0.00     0.185 C 
BRANCH  11  12
HETATM   12  S1  UNL     1      -3.865   0.206   1.733  1.00  0.00    -0.083 SA
BRANCH  12  13
HETATM   13  C4  UNL     1      -5.459  -0.490   1.363  1.00  0.00     0.163 A 
HETATM   14  N1  UNL     1      -6.557   0.167   0.943  1.00  0.00    -0.311 N 
HETATM   15  C22 UNL     1      -7.538  -0.771   0.839  1.00  0.00     0.108 A 
HETATM   16  N6  UNL     1      -6.978  -1.970   1.204  1.00  0.00    -0.286 N 
HETATM   17  N5  UNL     1      -5.720  -1.802   1.521  1.00  0.00    -0.278 N 
ATOM     18  H6  UNL     1      -7.471  -2.863   1.225  1.00  0.00     0.188 HD
ATOM     19  H5  UNL     1      -5.066  -2.522   1.827  1.00  0.00     0.189 HD
BRANCH  14  20
HETATM   20  C3  UNL     1      -6.650   1.558   0.681  1.00  0.00     0.159 C 
BRANCH  20  21
HETATM   21  C2  UNL     1      -6.349   2.023  -0.686  1.00  0.00    -0.017 C 
HETATM   22  C1  UNL     1      -5.994   1.296  -1.720  1.00  0.00     0.008 C 
ENDBRANCH  20  21
ENDBRANCH  14  20
BRANCH  15  23
HETATM   23  C23 UNL     1      -8.946  -0.689   0.487  1.00  0.00     0.009 C 
HETATM   24  C24 UNL     1      -9.803  -0.647   1.761  1.00  0.00     0.023 C 
HETATM   25  C25 UNL     1      -9.389   0.313  -0.502  1.00  0.00     0.023 C 
HETATM   26  C26 UNL     1      -9.345  -2.049  -0.130  1.00  0.00     0.023 C 
ENDBRANCH  15  23
ENDBRANCH  12  13
ENDBRANCH  11  12
ENDBRANCH   8  11
ENDBRANCH   1   7
BRANCH   6  27
HETATM   27  C20 UNL     1       1.794  -1.056  -1.385  1.00  0.00     0.154 C 
HETATM   28  C21 UNL     1       0.452  -1.492  -1.869  1.00  0.00     0.096 C 
HETATM   29  O4  UNL     1       2.726  -1.472  -2.124  1.00  0.00    -0.293 OA
ENDBRANCH   6  27
BRANCH   5  30
HETATM   30  C12 UNL     1       4.486  -0.286  -0.509  1.00  0.00     0.249 C 
HETATM   31  O2  UNL     1       4.702  -1.110  -1.424  1.00  0.00    -0.268 OA
HETATM   32  N3  UNL     1       5.734   0.305  -0.060  1.00  0.00    -0.344 N 
ATOM     33  H3  UNL     1       5.733   0.992   0.694  1.00  0.00     0.163 HD
BRANCH  32  34
HETATM   34  C13 UNL     1       7.002  -0.091  -0.696  1.00  0.00     0.172 C 
HETATM   35  C14 UNL     1       7.458   1.084  -1.561  1.00  0.00     0.042 C 
BRANCH  34  36
HETATM   36  C15 UNL     1       8.023  -0.404   0.318  1.00  0.00     0.240 C 
HETATM   37  O3  UNL     1       7.723  -0.302   1.537  1.00  0.00    -0.271 OA
HETATM   38  N4  UNL     1       9.324  -0.814  -0.084  1.00  0.00    -0.355 N 
ATOM     39  H4  UNL     1       9.544  -0.895  -1.077  1.00  0.00     0.162 HD
BRANCH  38  40
HETATM   40  C16 UNL     1      10.330  -1.115   0.895  1.00  0.00     0.084 A 
HETATM   41  C17 UNL     1      11.732  -0.714   0.595  1.00  0.00     0.027 A 
HETATM   42  C18 UNL     1      11.334  -2.185   0.671  1.00  0.00     0.027 A 
ENDBRANCH  38  40
ENDBRANCH  34  36
ENDBRANCH  32  34
ENDBRANCH   5  30
TORSDOF 12
