REMARK  17 active torsions:
REMARK  status: ('A' for Active; 'I' for Inactive)
REMARK    1  A    between atoms: O1_2  and  C2_3 
REMARK    2  A    between atoms: C2_3  and  C3_5 
REMARK    3  A    between atoms: C3_5  and  C4_6 
REMARK    4  A    between atoms: C4_6  and  C5_7 
REMARK    5  A    between atoms: C5_7  and  C6_8 
REMARK    6  A    between atoms: C6_8  and  C7_9 
REMARK    7  A    between atoms: C7_9  and  C8_10 
REMARK    8  A    between atoms: C9_13  and  O3_14 
REMARK    9  A    between atoms: C10_16  and  C11_17 
REMARK   10  A    between atoms: C14_21  and  O5_22 
REMARK   11  A    between atoms: C15_24  and  C16_25 
REMARK   12  A    between atoms: C16_25  and  C17_26 
REMARK   13  A    between atoms: C20_31  and  O6_32 
REMARK   14  A    between atoms: C21_34  and  C22_35 
REMARK   15  A    between atoms: C22_35  and  C23_36 
REMARK   16  A    between atoms: C24_38  and  C25_39 
REMARK   17  A    between atoms: C27_42  and  O8_43 
ROOT
HETATM    1  C25 UNL     1      -0.237  -3.753  -1.476  1.00  0.00     0.161 C 
HETATM    2  C26 UNL     1       0.165  -4.920  -0.726  1.00  0.00     0.063 C 
HETATM    3  N3  UNL     1       0.488  -5.869  -0.147  1.00  0.00    -0.197 NA
ENDROOT
BRANCH   1   4
HETATM    4  C24 UNL     1      -1.077  -2.808  -0.629  1.00  0.00    -0.022 C 
HETATM    5  C21 UNL     1      -2.325  -2.490  -0.921  1.00  0.00     0.024 C 
HETATM    6  C20 UNL     1      -3.294  -1.634  -0.279  1.00  0.00     0.151 C 
HETATM    7  N2  UNL     1      -3.404  -0.726   0.769  1.00  0.00    -0.336 N 
HETATM    8  C15 UNL     1      -3.092   0.596   1.147  1.00  0.00     0.070 C 
ATOM      9  H2  UNL     1      -3.884  -1.182   1.545  1.00  0.00     0.168 HD
HETATM   10  C14 UNL     1      -1.763   1.183   0.994  1.00  0.00     0.202 C 
HETATM   11  O4  UNL     1      -1.263   1.555  -0.205  1.00  0.00    -0.315 OA
HETATM   12  C10 UNL     1      -0.557   0.912  -1.220  1.00  0.00     0.208 C 
HETATM   13  C9  UNL     1       0.809   0.458  -0.851  1.00  0.00     0.142 C 
HETATM   14  N1  UNL     1       1.328  -0.829  -0.694  1.00  0.00    -0.365 N 
HETATM   15  C8  UNL     1       1.132  -1.894   0.207  1.00  0.00     0.116 C 
ATOM     16  H1  UNL     1       2.020  -1.053  -1.409  1.00  0.00     0.161 HD
HETATM   17  C27 UNL     1      -0.274  -2.347   0.499  1.00  0.00     0.171 C 
BRANCH   5  18
HETATM   18  C22 UNL     1      -2.718  -3.216  -2.197  1.00  0.00     0.057 C 
BRANCH  18  19
HETATM   19  C23 UNL     1      -2.858  -2.567  -3.308  1.00  0.00     0.259 C 
HETATM   20  O7  UNL     1      -2.617  -2.273  -4.490  1.00  0.00    -0.302 OA
ENDBRANCH  18  19
ENDBRANCH   5  18
BRANCH   6  21
HETATM   21  O6  UNL     1      -4.466  -1.776  -0.906  1.00  0.00    -0.345 OA
ATOM     22  H6  UNL     1      -4.391  -2.396  -1.622  1.00  0.00     0.219 HD
ENDBRANCH   6  21
BRANCH   8  23
HETATM   23  C16 UNL     1      -4.118   1.665   0.708  1.00  0.00     0.066 C 
BRANCH  23  24
HETATM   24  C17 UNL     1      -5.533   1.199   0.858  1.00  0.00    -0.017 C 
HETATM   25  C18 UNL     1      -5.869   0.834   2.299  1.00  0.00     0.010 C 
HETATM   26  C19 UNL     1      -6.440   2.393   0.536  1.00  0.00     0.010 C 
ENDBRANCH  23  24
ENDBRANCH   8  23
BRANCH  10  27
HETATM   27  O5  UNL     1      -1.088   1.327   2.105  1.00  0.00    -0.339 OA
ATOM     28  H5  UNL     1      -1.440   1.065   2.948  1.00  0.00     0.220 HD
ENDBRANCH  10  27
BRANCH  12  29
HETATM   29  C11 UNL     1      -0.447   1.953  -2.373  1.00  0.00     0.015 C 
HETATM   30  C12 UNL     1       0.213   1.347  -3.563  1.00  0.00     0.012 C 
HETATM   31  C13 UNL     1       0.203   3.214  -1.974  1.00  0.00     0.012 C 
ENDBRANCH  12  29
BRANCH  13  32
HETATM   32  O3  UNL     1       1.568   1.498  -0.667  1.00  0.00    -0.348 OA
ATOM     33  H3  UNL     1       1.215   2.373  -0.774  1.00  0.00     0.219 HD
ENDBRANCH  13  32
BRANCH  15  34
HETATM   34  C7  UNL     1       1.861  -1.732   1.510  1.00  0.00     0.028 C 
BRANCH  34  35
HETATM   35  C6  UNL     1       3.316  -1.639   1.556  1.00  0.00     0.002 C 
BRANCH  35  36
HETATM   36  C5  UNL     1       4.015  -0.488   0.931  1.00  0.00     0.001 C 
BRANCH  36  37
HETATM   37  C4  UNL     1       5.514  -0.702   1.176  1.00  0.00     0.010 C 
BRANCH  37  38
HETATM   38  C3  UNL     1       6.375   0.370   0.624  1.00  0.00     0.111 C 
BRANCH  38  39
HETATM   39  C2  UNL     1       6.100   1.667   1.270  1.00  0.00     0.258 C 
HETATM   40  O2  UNL     1       5.319   1.824   2.227  1.00  0.00    -0.265 OA
BRANCH  39  41
HETATM   41  O1  UNL     1       6.755   2.810   0.785  1.00  0.00    -0.326 OA
HETATM   42  C1  UNL     1       6.492   4.040   1.401  1.00  0.00     0.213 C 
ENDBRANCH  39  41
ENDBRANCH  38  39
ENDBRANCH  37  38
ENDBRANCH  36  37
ENDBRANCH  35  36
ENDBRANCH  34  35
ENDBRANCH  15  34
BRANCH  17  43
HETATM   43  O8  UNL     1      -0.242  -3.448   1.409  1.00  0.00    -0.389 OA
ATOM     44  H8  UNL     1      -1.129  -3.734   1.593  1.00  0.00     0.210 HD
ENDBRANCH  17  43
ENDBRANCH   1   4
TORSDOF 17
