REMARK  14 active torsions:
REMARK  status: ('A' for Active; 'I' for Inactive)
REMARK    1  A    between atoms: O1_2  and  C2_3 
REMARK    2  A    between atoms: C2_3  and  C3_5 
REMARK    3  A    between atoms: C3_5  and  C4_6 
REMARK    4  A    between atoms: C4_6  and  C5_7 
REMARK    5  A    between atoms: C5_7  and  C6_8 
REMARK    6  A    between atoms: C6_8  and  C7_9 
REMARK    7  A    between atoms: C7_9  and  C8_10 
REMARK    8  A    between atoms: C10_12  and  S1_13 
REMARK    9  A    between atoms: S1_13  and  C11_14 
REMARK   10  A    between atoms: C12_15  and  C13_16 
REMARK   11  A    between atoms: C15_22  and  C16_23 
REMARK   12  A    between atoms: C16_23  and  O6_25 
REMARK   13  A    between atoms: C22_31  and  C23_32 
REMARK       I    between atoms: C23_32  and  N2_34 
REMARK   14  A    between atoms: N2_34  and  C24_36 
ROOT
HETATM    1  C8  UNL     1       1.317  -1.746  -0.092  1.00  0.00    -0.000 C 
HETATM    2  C9  UNL     1       0.100  -0.864  -0.123  1.00  0.00     0.021 C 
HETATM    3  C10 UNL     1      -1.046  -1.721   0.434  1.00  0.00     0.053 C 
HETATM    4  C21 UNL     1      -0.600  -3.135  -0.092  1.00  0.00     0.030 C 
HETATM    5  C22 UNL     1       0.833  -3.086   0.307  1.00  0.00     0.083 C 
ENDROOT
BRANCH   3   6
HETATM    6  S1  UNL     1      -2.560  -1.259  -0.239  1.00  0.00    -0.126 SA
BRANCH   6   7
HETATM    7  C11 UNL     1      -3.346   0.251  -0.025  1.00  0.00     0.018 C 
HETATM    8  C12 UNL     1      -3.321   1.200   0.888  1.00  0.00     0.128 C 
HETATM    9  N1  UNL     1      -4.204   2.294   0.518  1.00  0.00    -0.304 N 
HETATM   10  C14 UNL     1      -5.014   3.459   0.502  1.00  0.00     0.233 C 
HETATM   11  C18 UNL     1      -4.560   2.114  -0.872  1.00  0.00     0.117 C 
HETATM   12  O5  UNL     1      -4.972   4.540   1.115  1.00  0.00    -0.272 OA
HETATM   13  C15 UNL     1      -5.856   2.757  -0.541  1.00  0.00     0.130 C 
HETATM   14  C19 UNL     1      -4.460   0.660  -1.046  1.00  0.00     0.048 C 
HETATM   15  C20 UNL     1      -3.838   0.347  -2.398  1.00  0.00     0.018 C 
BRANCH   8  16
HETATM   16  C13 UNL     1      -2.560   1.289   2.128  1.00  0.00     0.228 C 
HETATM   17  O3  UNL     1      -1.787   0.430   2.554  1.00  0.00    -0.643 OA
HETATM   18  O4  UNL     1      -2.692   2.450   2.945  1.00  0.00    -0.643 OA
ENDBRANCH   8  16
BRANCH  13  19
HETATM   19  C16 UNL     1      -6.944   1.945   0.074  1.00  0.00     0.129 C 
HETATM   20  C17 UNL     1      -7.835   2.904   0.875  1.00  0.00     0.040 C 
BRANCH  19  21
HETATM   21  O6  UNL     1      -6.474   1.029   1.015  1.00  0.00    -0.395 OA
ATOM     22  H6  UNL     1      -7.168   0.511   1.407  1.00  0.00     0.210 HD
ENDBRANCH  19  21
ENDBRANCH  13  19
ENDBRANCH   6   7
ENDBRANCH   3   6
BRANCH   1  23
HETATM   23  C7  UNL     1       2.377  -1.198   0.853  1.00  0.00     0.005 C 
BRANCH  23  24
HETATM   24  C6  UNL     1       2.821   0.175   0.436  1.00  0.00     0.000 C 
BRANCH  24  25
HETATM   25  C5  UNL     1       3.859   0.701   1.388  1.00  0.00     0.001 C 
BRANCH  25  26
HETATM   26  C4  UNL     1       4.268   2.102   0.921  1.00  0.00     0.010 C 
BRANCH  26  27
HETATM   27  C3  UNL     1       5.306   2.684   1.842  1.00  0.00     0.111 C 
BRANCH  27  28
HETATM   28  C2  UNL     1       5.705   4.040   1.403  1.00  0.00     0.258 C 
HETATM   29  O2  UNL     1       5.164   4.506   0.368  1.00  0.00    -0.265 OA
BRANCH  28  30
HETATM   30  O1  UNL     1       6.639   4.774   2.103  1.00  0.00    -0.326 OA
HETATM   31  C1  UNL     1       7.040   6.082   1.702  1.00  0.00     0.213 C 
ENDBRANCH  28  30
ENDBRANCH  27  28
ENDBRANCH  26  27
ENDBRANCH  25  26
ENDBRANCH  24  25
ENDBRANCH  23  24
ENDBRANCH   1  23
BRANCH   5  32
HETATM   32  C23 UNL     1       1.632  -4.201  -0.265  1.00  0.00     0.222 C 
HETATM   33  O7  UNL     1       2.152  -5.017   0.546  1.00  0.00    -0.273 OA
HETATM   34  N2  UNL     1       1.828  -4.380  -1.646  1.00  0.00    -0.357 N 
ATOM     35  H2  UNL     1       1.410  -3.722  -2.304  1.00  0.00     0.162 HD
BRANCH  34  36
HETATM   36  C24 UNL     1       2.613  -5.484  -2.144  1.00  0.00     0.076 C 
HETATM   37  C25 UNL     1       1.855  -6.317  -3.134  1.00  0.00     0.032 C 
HETATM   38  C26 UNL     1       3.880  -4.994  -2.836  1.00  0.00     0.032 C 
ENDBRANCH  34  36
ENDBRANCH   5  32
TORSDOF 14
