REMARK  13 active torsions:
REMARK  status: ('A' for Active; 'I' for Inactive)
REMARK    1  A    between atoms: C4_4  and  C5_5 
REMARK    2  A    between atoms: C5_5  and  O1_6 
REMARK    3  A    between atoms: O1_6  and  C6_7 
REMARK    4  A    between atoms: C7_8  and  C8_9 
REMARK    5  A    between atoms: C8_9  and  C9_10 
REMARK    6  A    between atoms: C10_11  and  O2_12 
REMARK    7  A    between atoms: C11_14  and  O3_15 
REMARK    8  A    between atoms: C12_17  and  N1_18 
REMARK    9  A    between atoms: N1_18  and  C14_20 
REMARK   10  A    between atoms: C14_20  and  C15_21 
REMARK   11  A    between atoms: C15_21  and  C16_22 
REMARK   12  A    between atoms: C16_22  and  C17_23 
REMARK   13  A    between atoms: C17_23  and  N2_24 
ROOT
HETATM    1  C9  UNL     1      -2.137   0.384  -0.492  1.00  0.00     0.116 C 
HETATM    2  C10 UNL     1      -1.305   0.766   0.734  1.00  0.00     0.171 C 
HETATM    3  C11 UNL     1       0.126   1.042   0.485  1.00  0.00     0.173 C 
HETATM    4  C12 UNL     1       0.836  -0.010  -0.296  1.00  0.00     0.132 C 
HETATM    5  C22 UNL     1      -0.122  -0.814  -1.149  1.00  0.00     0.104 C 
HETATM    6  C23 UNL     1       0.624  -1.187  -2.433  1.00  0.00     0.027 C 
HETATM    7  C24 UNL     1       0.510  -0.050  -3.443  1.00  0.00     0.004 C 
HETATM    8  C25 UNL     1      -0.891   0.015  -3.954  1.00  0.00     0.019 C 
HETATM    9  C26 UNL     1      -1.816  -0.364  -2.778  1.00  0.00     0.118 C 
HETATM   10  N3  UNL     1      -1.267  -0.045  -1.513  1.00  0.00    -0.399 N 
ENDROOT
BRANCH   1  11
HETATM   11  C8  UNL     1      -3.147  -0.571   0.050  1.00  0.00     0.087 C 
BRANCH  11  12
HETATM   12  C7  UNL     1      -4.176  -1.112  -0.816  1.00  0.00     0.049 A 
HETATM   13  C6  UNL     1      -5.218  -0.335  -1.266  1.00  0.00     0.141 A 
HETATM   14  C29 UNL     1      -6.172  -0.947  -2.095  1.00  0.00     0.208 A 
HETATM   15  C28 UNL     1      -6.073  -2.260  -2.438  1.00  0.00     0.075 A 
HETATM   16  O5  UNL     1      -7.169  -0.292  -2.558  1.00  0.00    -0.285 OA
HETATM   17  C27 UNL     1      -5.009  -2.986  -1.957  1.00  0.00     0.092 A 
HETATM   18  N4  UNL     1      -4.111  -2.388  -1.172  1.00  0.00    -0.367 N 
ATOM     19  H4  UNL     1      -3.329  -2.944  -0.826  1.00  0.00     0.165 HD
BRANCH  13  20
HETATM   20  O1  UNL     1      -5.413   0.969  -0.972  1.00  0.00    -0.342 OA
BRANCH  20  21
HETATM   21  C5  UNL     1      -6.127   1.709  -0.092  1.00  0.00     0.203 C 
BRANCH  21  22
HETATM   22  C4  UNL     1      -5.856   1.498   1.319  1.00  0.00     0.002 C 
HETATM   23  C2  UNL     1      -6.758   1.103   2.185  1.00  0.00    -0.089 C 
HETATM   24  C1  UNL     1      -8.164   0.820   1.854  1.00  0.00     0.042 C 
HETATM   25  C3  UNL     1      -6.385   0.889   3.634  1.00  0.00     0.042 C 
ENDBRANCH  21  22
ENDBRANCH  20  21
ENDBRANCH  13  20
ENDBRANCH  11  12
ENDBRANCH   1  11
BRANCH   2  26
HETATM   26  O2  UNL     1      -1.846   1.948   1.294  1.00  0.00    -0.391 OA
ATOM     27  H2  UNL     1      -1.329   2.185   2.055  1.00  0.00     0.210 HD
ENDBRANCH   2  26
BRANCH   3  28
HETATM   28  O3  UNL     1       0.709   1.352   1.723  1.00  0.00    -0.391 OA
ATOM     29  H3  UNL     1       1.628   1.529   1.563  1.00  0.00     0.210 HD
ENDBRANCH   3  28
BRANCH   4  30
HETATM   30  N1  UNL     1       1.720  -0.783   0.434  1.00  0.00    -0.408 N 
HETATM   31  C13 UNL     1       1.717  -2.168   0.480  1.00  0.00     0.143 C 
BRANCH  30  32
HETATM   32  C14 UNL     1       2.982  -0.171   0.654  1.00  0.00     0.117 C 
BRANCH  32  33
HETATM   33  C15 UNL     1       4.085  -1.128   0.965  1.00  0.00     0.021 C 
BRANCH  33  34
HETATM   34  C16 UNL     1       5.375  -0.385   1.168  1.00  0.00     0.032 C 
BRANCH  34  35
HETATM   35  C17 UNL     1       5.723   0.497  -0.007  1.00  0.00     0.272 C 
BRANCH  35  36
HETATM   36  N2  UNL     1       7.025   1.101   0.071  1.00  0.00     0.092 N 
HETATM   37  C18 UNL     1       8.073   0.108  -0.107  1.00  0.00     0.298 C 
HETATM   38  C19 UNL     1       9.142   0.243   0.930  1.00  0.00     0.198 C 
HETATM   39  O4  UNL     1       8.612   0.345   2.208  1.00  0.00    -0.388 OA
HETATM   40  C20 UNL     1       7.838   1.479   2.377  1.00  0.00     0.198 C 
HETATM   41  C21 UNL     1       7.247   2.025   1.124  1.00  0.00     0.298 C 
ENDBRANCH  35  36
ENDBRANCH  34  35
ENDBRANCH  33  34
ENDBRANCH  32  33
ENDBRANCH  30  32
ENDBRANCH   4  30
TORSDOF 13
