REMARK  9 active torsions:
REMARK  status: ('A' for Active; 'I' for Inactive)
REMARK    1  A    between atoms: C2_2  and  N1_3 
REMARK    2  A    between atoms: C6_7  and  O1_8 
REMARK    3  A    between atoms: C13_17  and  O3_18 
REMARK    4  A    between atoms: C13_17  and  C14_20 
REMARK    5  A    between atoms: C14_20  and  O4_21 
REMARK    6  A    between atoms: C14_20  and  C15_23 
REMARK    7  A    between atoms: C15_23  and  C17_25 
REMARK    8  A    between atoms: C18_26  and  C19_27 
REMARK    9  A    between atoms: C19_27  and  C20_28 
ROOT
HETATM    1  N1  UNL     1      -4.844  -0.110  -0.400  1.00  0.00     0.093 N 
HETATM    2  C3  UNL     1      -5.563  -0.725   0.680  1.00  0.00     0.274 C 
HETATM    3  C4  UNL     1      -4.615  -0.601   1.880  1.00  0.00     0.045 C 
HETATM    4  C5  UNL     1      -3.350  -0.009   1.326  1.00  0.00     0.029 C 
HETATM    5  C6  UNL     1      -3.419   1.473   1.490  1.00  0.00     0.129 C 
HETATM    6  C7  UNL     1      -2.541   2.481   0.992  1.00  0.00     0.033 C 
HETATM    7  C8  UNL     1      -1.183   2.185   0.306  1.00  0.00     0.016 C 
HETATM    8  C9  UNL     1      -1.260   0.757   0.258  1.00  0.00     0.003 C 
HETATM    9  C10 UNL     1      -1.210   0.489   1.734  1.00  0.00     0.026 C 
HETATM   10  C11 UNL     1      -2.115  -0.719   1.701  1.00  0.00     0.073 C 
HETATM   11  C12 UNL     1      -1.275  -1.388   0.659  1.00  0.00     0.169 C 
HETATM   12  O2  UNL     1      -1.225  -2.593   0.404  1.00  0.00    -0.294 OA
HETATM   13  C13 UNL     1      -0.433  -0.350  -0.103  1.00  0.00     0.152 C 
HETATM   14  C25 UNL     1      -2.452   0.543  -0.603  1.00  0.00     0.050 C 
HETATM   15  C26 UNL     1      -3.505  -0.408  -0.154  1.00  0.00     0.235 C 
ENDROOT
BRANCH  13  16
HETATM   16  O3  UNL     1      -0.563  -0.815  -1.447  1.00  0.00    -0.379 OA
ATOM     17  H3  UNL     1      -0.013  -1.551  -1.687  1.00  0.00     0.211 HD
ENDBRANCH  13  16
BRANCH  13  18
HETATM   18  C14 UNL     1       0.998  -0.426   0.165  1.00  0.00     0.168 C 
BRANCH  18  19
HETATM   19  O4  UNL     1       1.558  -1.704   0.074  1.00  0.00    -0.391 OA
ATOM     20  H4  UNL     1       2.490  -1.754   0.249  1.00  0.00     0.210 HD
ENDBRANCH  18  19
BRANCH  18  21
HETATM   21  C15 UNL     1       1.879   0.371  -0.786  1.00  0.00     0.036 C 
HETATM   22  C16 UNL     1       1.764  -0.096  -2.192  1.00  0.00     0.017 C 
BRANCH  21  23
HETATM   23  C17 UNL     1       3.311   0.277  -0.350  1.00  0.00    -0.023 C 
HETATM   24  C18 UNL     1       3.977   1.347   0.040  1.00  0.00    -0.026 C 
BRANCH  24  25
HETATM   25  C19 UNL     1       5.357   1.468   0.495  1.00  0.00     0.060 C 
BRANCH  25  26
HETATM   26  C20 UNL     1       6.147   0.229   0.518  1.00  0.00    -0.080 C 
HETATM   27  C21 UNL     1       6.699  -0.329   1.617  1.00  0.00    -0.024 C 
HETATM   28  C22 UNL     1       7.431  -1.580   1.254  1.00  0.00     0.027 C 
HETATM   29  C23 UNL     1       7.852  -1.214  -0.187  1.00  0.00     0.008 C 
HETATM   30  C24 UNL     1       6.512  -0.618  -0.642  1.00  0.00     0.034 C 
ENDBRANCH  25  26
ENDBRANCH  24  25
ENDBRANCH  21  23
ENDBRANCH  18  21
ENDBRANCH  13  18
BRANCH   5  31
HETATM   31  O1  UNL     1      -4.758   1.812   1.125  1.00  0.00    -0.395 OA
ATOM     32  H1  UNL     1      -4.802   2.755   1.229  1.00  0.00     0.210 HD
ENDBRANCH   5  31
BRANCH   1  33
HETATM   33  C2  UNL     1      -5.390  -0.205  -1.682  1.00  0.00     0.268 C 
HETATM   34  C1  UNL     1      -5.435  -1.545  -2.327  1.00  0.00     0.037 C 
ENDBRANCH   1  33
TORSDOF 9
