REMARK  6 active torsions:
REMARK  status: ('A' for Active; 'I' for Inactive)
REMARK    1  A    between atoms: C1_2  and  N1_3 
REMARK    2  A    between atoms: C4_6  and  C5_7 
REMARK    3  A    between atoms: C4_6  and  N3_16 
REMARK    4  A    between atoms: C5_7  and  N2_8 
REMARK    5  A    between atoms: N2_8  and  C6_11 
REMARK       I    between atoms: N3_16  and  C10_18 
REMARK    6  A    between atoms: C10_18  and  C11_20 
ROOT
HETATM    1  N1  UNL     1      -3.748   3.589  -0.336  1.00  0.00    -0.359 N 
HETATM    2  C2  UNL     1      -2.679   3.825   0.599  1.00  0.00     0.127 C 
HETATM    3  C3  UNL     1      -2.443   2.593   1.453  1.00  0.00     0.052 C 
HETATM    4  C4  UNL     1      -2.176   1.345   0.584  1.00  0.00     0.059 C 
HETATM    5  C21 UNL     1      -2.465   1.664  -0.847  1.00  0.00     0.052 C 
HETATM    6  C22 UNL     1      -3.813   2.309  -0.992  1.00  0.00     0.127 C 
ENDROOT
BRANCH   4   7
HETATM    7  C5  UNL     1      -3.155   0.278   1.044  1.00  0.00     0.263 C 
BRANCH   7   8
HETATM    8  N2  UNL     1      -3.034  -0.954   0.345  1.00  0.00    -0.068 N 
ATOM      9  H22 UNL     1      -2.868  -0.806  -0.650  1.00  0.00     0.277 HD
ATOM     10  H21 UNL     1      -2.165  -1.434   0.578  1.00  0.00     0.277 HD
BRANCH   8  11
HETATM   11  C6  UNL     1      -4.212  -1.818   0.578  1.00  0.00     0.196 C 
HETATM   12  C7  UNL     1      -4.129  -2.885  -0.487  1.00  0.00     0.044 C 
HETATM   13  C8  UNL     1      -5.310  -3.802  -0.271  1.00  0.00     0.076 C 
HETATM   14  S1  UNL     1      -5.244  -3.959   1.553  1.00  0.00    -0.167 SA
HETATM   15  C9  UNL     1      -4.159  -2.513   1.912  1.00  0.00     0.106 C 
ENDBRANCH   8  11
ENDBRANCH   7   8
ENDBRANCH   4   7
BRANCH   4  16
HETATM   16  N3  UNL     1      -0.831   0.903   0.843  1.00  0.00    -0.348 N 
HETATM   17  C10 UNL     1      -0.068   0.007   0.075  1.00  0.00     0.241 C 
HETATM   18  O2  UNL     1      -0.450  -0.528  -0.951  1.00  0.00    -0.271 OA
ATOM     19  H3  UNL     1      -0.382   1.282   1.677  1.00  0.00     0.163 HD
BRANCH  17  20
HETATM   20  C11 UNL     1       1.330  -0.317   0.567  1.00  0.00     0.173 C 
HETATM   21  C12 UNL     1       2.117   0.927   0.201  1.00  0.00     0.036 C 
HETATM   22  C13 UNL     1       3.581   0.767   0.130  1.00  0.00     0.017 C 
HETATM   23  C14 UNL     1       4.104  -0.553  -0.316  1.00  0.00    -0.009 C 
HETATM   24  C15 UNL     1       5.168  -0.973   0.717  1.00  0.00     0.015 C 
HETATM   25  C19 UNL     1       4.901  -0.456  -1.634  1.00  0.00     0.015 C 
HETATM   26  C20 UNL     1       3.099  -1.625  -0.533  1.00  0.00     0.066 C 
HETATM   27  C16 UNL     1       6.472  -0.239   0.398  1.00  0.00     0.001 C 
HETATM   28  C17 UNL     1       7.142  -1.049  -0.697  1.00  0.00     0.000 C 
HETATM   29  C18 UNL     1       6.024  -1.503  -1.632  1.00  0.00     0.001 C 
HETATM   30  N4  UNL     1       1.825  -1.501   0.007  1.00  0.00    -0.389 N 
ATOM     31  H4  UNL     1       1.216  -2.319  -0.005  1.00  0.00     0.159 HD
ENDBRANCH  17  20
ENDBRANCH   4  16
BRANCH   1  32
HETATM   32  C1  UNL     1      -4.691   4.608  -0.583  1.00  0.00     0.350 C 
HETATM   33  O1  UNL     1      -5.663   4.451  -1.400  1.00  0.00    -0.284 OA
ENDBRANCH   1  32
TORSDOF 6
