REMARK  15 active torsions:
REMARK  status: ('A' for Active; 'I' for Inactive)
REMARK    1  A    between atoms: C2_2  and  O2_4 
REMARK    2  A    between atoms: O2_4  and  C3_5 
REMARK    3  A    between atoms: C3_5  and  C5_7 
REMARK    4  A    between atoms: C5_7  and  C6_8 
REMARK    5  A    between atoms: C6_8  and  C7_9 
REMARK       I    between atoms: N1_15  and  C12_17 
REMARK    6  A    between atoms: C12_17  and  C13_19 
REMARK    7  A    between atoms: C14_20  and  C15_21 
REMARK       I    between atoms: C15_21  and  N2_23 
REMARK    8  A    between atoms: N2_23  and  C16_25 
REMARK    9  A    between atoms: C16_25  and  C17_26 
REMARK   10  A    between atoms: C16_25  and  C21_30 
REMARK   11  A    between atoms: C17_26  and  C18_27 
REMARK       I    between atoms: C21_30  and  N3_32 
REMARK   12  A    between atoms: N3_32  and  C22_34 
REMARK   13  A    between atoms: C26_38  and  C27_39 
REMARK   14  A    between atoms: C32_46  and  C33_47 
REMARK   15  A    between atoms: C33_47  and  O9_50 
ROOT
HETATM    1  C13 UNL     1      -1.486  -2.608   1.291  1.00  0.00     0.133 C 
HETATM    2  C14 UNL     1      -0.057  -2.374   1.775  1.00  0.00     0.237 C 
HETATM    3  O7  UNL     1       0.451  -3.671   2.032  1.00  0.00    -0.305 OA
HETATM    4  C31 UNL     1      -0.509  -4.631   1.990  1.00  0.00     0.267 C 
HETATM    5  O8  UNL     1      -0.397  -5.871   2.145  1.00  0.00    -0.265 OA
HETATM    6  C32 UNL     1      -1.840  -3.986   1.714  1.00  0.00     0.135 C 
ENDROOT
BRANCH   2   7
HETATM    7  C15 UNL     1       0.775  -1.637   0.812  1.00  0.00     0.252 C 
HETATM    8  O5  UNL     1       0.475  -0.456   0.552  1.00  0.00    -0.270 OA
HETATM    9  N2  UNL     1       1.909  -2.214   0.168  1.00  0.00    -0.324 N 
ATOM     10  H2  UNL     1       2.156  -3.184   0.366  1.00  0.00     0.169 HD
BRANCH   9  11
HETATM   11  C16 UNL     1       2.700  -1.467  -0.742  1.00  0.00     0.080 C 
BRANCH  11  12
HETATM   12  C17 UNL     1       2.108  -1.009  -2.007  1.00  0.00     0.067 C 
BRANCH  12  13
HETATM   13  C18 UNL     1       1.668  -2.109  -2.919  1.00  0.00    -0.017 C 
HETATM   14  C19 UNL     1       1.101  -1.524  -4.227  1.00  0.00     0.010 C 
HETATM   15  C20 UNL     1       0.623  -3.041  -2.377  1.00  0.00     0.010 C 
ENDBRANCH  12  13
ENDBRANCH  11  12
BRANCH  11  16
HETATM   16  C21 UNL     1       3.670  -0.566  -0.073  1.00  0.00     0.264 C 
HETATM   17  O6  UNL     1       3.772  -0.659   1.189  1.00  0.00    -0.266 OA
HETATM   18  N3  UNL     1       4.493   0.384  -0.705  1.00  0.00    -0.351 N 
ATOM     19  H3  UNL     1       4.412   0.486  -1.717  1.00  0.00     0.163 HD
BRANCH  18  20
HETATM   20  C22 UNL     1       5.438   1.218  -0.023  1.00  0.00     0.089 C 
HETATM   21  C23 UNL     1       6.678   1.506  -0.816  1.00  0.00     0.026 C 
HETATM   22  C24 UNL     1       7.224   2.813  -0.282  1.00  0.00     0.002 C 
HETATM   23  C25 UNL     1       6.229   3.288   0.737  1.00  0.00     0.007 C 
HETATM   24  C26 UNL     1       4.954   2.512   0.511  1.00  0.00     0.016 C 
BRANCH  24  25
HETATM   25  C27 UNL     1       3.983   3.310  -0.232  1.00  0.00    -0.046 C 
HETATM   26  C28 UNL     1       4.345   3.763  -1.591  1.00  0.00     0.015 C 
HETATM   27  C29 UNL     1       3.774   4.606   0.594  1.00  0.00     0.015 C 
HETATM   28  C30 UNL     1       2.575   2.713  -0.266  1.00  0.00     0.015 C 
ENDBRANCH  24  25
ENDBRANCH  18  20
ENDBRANCH  11  16
ENDBRANCH   9  11
ENDBRANCH   2   7
BRANCH   1  29
HETATM   29  C12 UNL     1      -2.341  -1.631   2.026  1.00  0.00     0.230 C 
HETATM   30  N1  UNL     1      -2.390  -0.254   1.860  1.00  0.00    -0.331 N 
HETATM   31  C5  UNL     1      -3.344   0.409   1.315  1.00  0.00     0.019 C 
ATOM     32  H1  UNL     1      -1.593   0.281   2.204  1.00  0.00     0.168 HD
HETATM   33  O4  UNL     1      -3.116  -2.156   2.923  1.00  0.00    -0.273 OA
BRANCH  31  34
HETATM   34  C3  UNL     1      -4.533  -0.318   0.786  1.00  0.00     0.173 C 
HETATM   35  C4  UNL     1      -4.593  -0.436  -0.704  1.00  0.00     0.046 C 
BRANCH  34  36
HETATM   36  O2  UNL     1      -5.726   0.309   1.282  1.00  0.00    -0.311 OA
BRANCH  36  37
HETATM   37  C2  UNL     1      -6.626  -0.309   2.116  1.00  0.00     0.255 C 
HETATM   38  C1  UNL     1      -7.846   0.429   2.582  1.00  0.00     0.126 C 
HETATM   39  O1  UNL     1      -6.392  -1.486   2.463  1.00  0.00    -0.266 OA
ENDBRANCH  36  37
ENDBRANCH  34  36
ENDBRANCH  31  34
BRANCH  31  40
HETATM   40  C6  UNL     1      -3.237   1.884   1.292  1.00  0.00     0.062 C 
BRANCH  40  41
HETATM   41  C7  UNL     1      -3.358   2.484  -0.042  1.00  0.00     0.022 C 
HETATM   42  C8  UNL     1      -3.268   4.040   0.040  1.00  0.00     0.010 C 
HETATM   43  C9  UNL     1      -2.030   4.398  -0.772  1.00  0.00     0.035 C 
HETATM   44  C10 UNL     1      -1.259   3.142  -0.508  1.00  0.00     0.151 A 
HETATM   45  O3  UNL     1      -1.073   2.022  -1.142  1.00  0.00    -0.375 OA
HETATM   46  C11 UNL     1      -2.360   2.228  -1.066  1.00  0.00     0.155 A 
ENDBRANCH  40  41
ENDBRANCH  31  40
ENDBRANCH   1  29
BRANCH   6  47
HETATM   47  C33 UNL     1      -2.659  -4.832   0.845  1.00  0.00     0.064 C 
HETATM   48  C34 UNL     1      -4.037  -4.314   0.518  1.00  0.00     0.046 C 
HETATM   49  C35 UNL     1      -2.025  -5.221  -0.469  1.00  0.00     0.046 C 
BRANCH  47  50
HETATM   50  O9  UNL     1      -2.884  -6.050   1.537  1.00  0.00    -0.390 OA
ATOM     51  H9  UNL     1      -3.416  -6.599   0.973  1.00  0.00     0.210 HD
ENDBRANCH  47  50
ENDBRANCH   6  47
TORSDOF 15
