REMARK  14 active torsions:
REMARK  status: ('A' for Active; 'I' for Inactive)
REMARK    1  A    between atoms: O1_2  and  C2_3 
REMARK    2  A    between atoms: C2_3  and  C3_5 
REMARK    3  A    between atoms: C3_5  and  N1_6 
REMARK       I    between atoms: N1_6  and  C4_8 
REMARK    4  A    between atoms: C4_8  and  C5_10 
REMARK    5  A    between atoms: C5_10  and  C6_11 
REMARK    6  A    between atoms: C5_10  and  C12_17 
REMARK    7  A    between atoms: C6_11  and  C7_12 
REMARK       I    between atoms: C12_17  and  N2_19 
REMARK    8  A    between atoms: N2_19  and  C13_21 
REMARK    9  A    between atoms: C13_21  and  C14_22 
REMARK   10  A    between atoms: C13_21  and  C20_28 
REMARK   11  A    between atoms: C14_22  and  C15_23 
REMARK   12  A    between atoms: C20_28  and  C21_30 
REMARK       I    between atoms: C21_30  and  N3_32 
REMARK   13  A    between atoms: C26_38  and  C27_39 
REMARK       I    between atoms: C27_39  and  N4_41 
REMARK   14  A    between atoms: N4_41  and  C28_43 
ROOT
HETATM    1  C13 UNL     1       0.882  -1.118   0.800  1.00  0.00     0.164 C 
ENDROOT
BRANCH   1   2
HETATM    2  N2  UNL     1      -0.559  -1.074   0.892  1.00  0.00    -0.348 N 
HETATM    3  C12 UNL     1      -1.445  -1.458  -0.145  1.00  0.00     0.231 C 
HETATM    4  O4  UNL     1      -0.948  -1.868  -1.221  1.00  0.00    -0.273 OA
ATOM      5  H2  UNL     1      -0.968  -0.743   1.766  1.00  0.00     0.163 HD
BRANCH   3   6
HETATM    6  C5  UNL     1      -2.923  -1.382   0.028  1.00  0.00     0.170 C 
BRANCH   6   7
HETATM    7  C4  UNL     1      -3.342   0.011   0.270  1.00  0.00     0.232 C 
HETATM    8  N1  UNL     1      -3.302   1.058  -0.689  1.00  0.00    -0.341 N 
ATOM      9  H1  UNL     1      -2.971   0.848  -1.630  1.00  0.00     0.163 HD
HETATM   10  O3  UNL     1      -3.769   0.313   1.426  1.00  0.00    -0.273 OA
BRANCH   8  11
HETATM   11  C3  UNL     1      -3.718   2.428  -0.379  1.00  0.00     0.124 A 
HETATM   12  C32 UNL     1      -3.125   3.532  -1.301  1.00  0.00     0.049 A 
HETATM   13  C33 UNL     1      -2.685   3.369   0.132  1.00  0.00     0.023 A 
HETATM   14  C34 UNL     1      -3.085   4.492   1.049  1.00  0.00     0.013 C 
BRANCH  11  15
HETATM   15  C2  UNL     1      -5.106   2.679   0.051  1.00  0.00     0.287 C 
HETATM   16  O2  UNL     1      -5.523   3.836   0.335  1.00  0.00    -0.262 OA
BRANCH  15  17
HETATM   17  O1  UNL     1      -5.978   1.605   0.146  1.00  0.00    -0.325 OA
HETATM   18  C1  UNL     1      -7.317   1.847   0.564  1.00  0.00     0.213 C 
ENDBRANCH  15  17
ENDBRANCH  11  15
ENDBRANCH   8  11
ENDBRANCH   6   7
BRANCH   6  19
HETATM   19  C6  UNL     1      -3.577  -1.980  -1.178  1.00  0.00     0.028 C 
BRANCH  19  20
HETATM   20  C7  UNL     1      -5.085  -2.008  -1.043  1.00  0.00    -0.013 C 
HETATM   21  C8  UNL     1      -5.473  -2.843   0.190  1.00  0.00     0.005 C 
HETATM   22  C9  UNL     1      -6.900  -3.200  -0.101  1.00  0.00     0.000 C 
HETATM   23  C10 UNL     1      -7.001  -3.331  -1.607  1.00  0.00     0.000 C 
HETATM   24  C11 UNL     1      -5.736  -2.750  -2.171  1.00  0.00     0.005 C 
ENDBRANCH  19  20
ENDBRANCH   6  19
ENDBRANCH   3   6
ENDBRANCH   1   2
BRANCH   1  25
HETATM   25  C14 UNL     1       1.561  -1.833   1.880  1.00  0.00     0.038 C 
BRANCH  25  26
HETATM   26  C15 UNL     1       1.151  -3.307   1.991  1.00  0.00    -0.012 C 
HETATM   27  C16 UNL     1       1.993  -3.943   3.105  1.00  0.00     0.005 C 
HETATM   28  C17 UNL     1       1.199  -5.230   3.408  1.00  0.00     0.000 C 
HETATM   29  C18 UNL     1      -0.228  -4.714   3.459  1.00  0.00     0.000 C 
HETATM   30  C19 UNL     1      -0.223  -3.475   2.550  1.00  0.00     0.005 C 
ENDBRANCH  25  26
ENDBRANCH   1  25
BRANCH   1  31
HETATM   31  C20 UNL     1       1.406   0.224   0.442  1.00  0.00     0.239 C 
HETATM   32  O5  UNL     1       0.497   1.095   0.137  1.00  0.00    -0.285 OA
BRANCH  31  33
HETATM   33  C21 UNL     1       2.747   0.697   0.385  1.00  0.00     0.293 C 
HETATM   34  O6  UNL     1       3.673  -0.096   0.766  1.00  0.00    -0.264 OA
HETATM   35  N3  UNL     1       3.096   2.026  -0.075  1.00  0.00    -0.322 N 
HETATM   36  C22 UNL     1       2.113   2.912  -0.631  1.00  0.00     0.202 C 
HETATM   37  C26 UNL     1       4.410   2.525   0.058  1.00  0.00     0.198 C 
HETATM   38  S1  UNL     1       3.150   4.255  -1.374  1.00  0.00    -0.137 SA
HETATM   39  C23 UNL     1       4.526   3.974  -0.179  1.00  0.00     0.032 C 
HETATM   40  C24 UNL     1       5.753   4.451  -0.861  1.00  0.00     0.029 C 
HETATM   41  C25 UNL     1       4.233   4.726   1.105  1.00  0.00     0.029 C 
BRANCH  37  42
HETATM   42  C27 UNL     1       5.382   1.795  -0.755  1.00  0.00     0.242 C 
HETATM   43  O7  UNL     1       6.626   2.012  -0.551  1.00  0.00    -0.271 OA
HETATM   44  N4  UNL     1       5.083   0.852  -1.767  1.00  0.00    -0.351 N 
ATOM     45  H4  UNL     1       4.102   0.657  -1.968  1.00  0.00     0.163 HD
BRANCH  44  46
HETATM   46  C28 UNL     1       6.083   0.153  -2.528  1.00  0.00     0.022 C 
HETATM   47  C29 UNL     1       6.981  -0.686  -1.615  1.00  0.00     0.037 C 
HETATM   48  C30 UNL     1       5.385  -0.780  -3.495  1.00  0.00     0.037 C 
HETATM   49  C31 UNL     1       6.981   1.040  -3.342  1.00  0.00     0.037 C 
ENDBRANCH  44  46
ENDBRANCH  37  42
ENDBRANCH  31  33
ENDBRANCH   1  31
TORSDOF 14
