REMARK  17 active torsions:
REMARK  status: ('A' for Active; 'I' for Inactive)
REMARK    1  A    between atoms: C2_2  and  O1_3 
REMARK    2  A    between atoms: O1_3  and  C3_4 
REMARK    3  A    between atoms: C3_4  and  C4_6 
REMARK    4  A    between atoms: C4_6  and  C5_7 
REMARK    5  A    between atoms: C5_7  and  C6_8 
REMARK    6  A    between atoms: C6_8  and  N1_9 
REMARK    7  A    between atoms: C6_8  and  C12_18 
REMARK       I    between atoms: N1_9  and  C7_11 
REMARK    8  A    between atoms: C7_11  and  O4_13 
REMARK    9  A    between atoms: O4_13  and  C8_14 
REMARK       I    between atoms: C12_18  and  N2_20 
REMARK   10  A    between atoms: N2_20  and  C13_22 
REMARK   11  A    between atoms: C13_22  and  C14_23 
REMARK   12  A    between atoms: C13_22  and  C30_47 
REMARK       I    between atoms: C14_23  and  N3_25 
REMARK   13  A    between atoms: N3_25  and  C15_27 
REMARK   14  A    between atoms: C15_27  and  C16_28 
REMARK   15  A    between atoms: C15_27  and  C27_44 
REMARK       I    between atoms: C16_28  and  N4_30 
REMARK       I    between atoms: N5_34  and  C20_35 
REMARK   16  A    between atoms: C20_35  and  O9_37 
REMARK   17  A    between atoms: O9_37  and  C21_38 
ROOT
HETATM    1  C13 UNL     1      -1.369  -0.006   0.729  1.00  0.00     0.184 C 
ENDROOT
BRANCH   1   2
HETATM    2  N2  UNL     1      -2.566   0.471   0.063  1.00  0.00    -0.342 N 
HETATM    3  C12 UNL     1      -3.710  -0.321  -0.186  1.00  0.00     0.264 C 
HETATM    4  O5  UNL     1      -3.687  -1.511   0.211  1.00  0.00    -0.266 OA
ATOM      5  H2  UNL     1      -2.583   1.443  -0.246  1.00  0.00     0.163 HD
BRANCH   3   6
HETATM    6  C6  UNL     1      -4.916   0.193  -0.888  1.00  0.00     0.082 C 
BRANCH   6   7
HETATM    7  C5  UNL     1      -4.896   1.627  -1.226  1.00  0.00     0.073 C 
BRANCH   7   8
HETATM    8  C4  UNL     1      -5.216   2.627  -0.188  1.00  0.00     0.117 C 
BRANCH   8   9
HETATM    9  C3  UNL     1      -6.601   2.579   0.346  1.00  0.00     0.259 C 
HETATM   10  O2  UNL     1      -6.863   2.792   1.564  1.00  0.00    -0.265 OA
BRANCH   9  11
HETATM   11  O1  UNL     1      -7.690   2.293  -0.482  1.00  0.00    -0.322 OA
BRANCH  11  12
HETATM   12  C2  UNL     1      -9.030   2.231  -0.061  1.00  0.00     0.174 C 
HETATM   13  C1  UNL     1      -9.410   3.602   0.483  1.00  0.00     0.034 C 
ENDBRANCH  11  12
ENDBRANCH   9  11
ENDBRANCH   8   9
ENDBRANCH   7   8
ENDBRANCH   6   7
BRANCH   6  14
HETATM   14  N1  UNL     1      -6.147  -0.323  -0.402  1.00  0.00    -0.301 N 
HETATM   15  C7  UNL     1      -7.019  -1.219  -1.089  1.00  0.00     0.365 C 
HETATM   16  O3  UNL     1      -6.751  -1.649  -2.238  1.00  0.00    -0.238 OA
ATOM     17  H1  UNL     1      -6.436  -0.024   0.529  1.00  0.00     0.171 HD
BRANCH  15  18
HETATM   18  O4  UNL     1      -8.201  -1.666  -0.542  1.00  0.00    -0.294 OA
BRANCH  18  19
HETATM   19  C8  UNL     1      -9.135  -2.524  -1.077  1.00  0.00     0.061 C 
HETATM   20  C9  UNL     1     -10.267  -2.679  -0.047  1.00  0.00     0.046 C 
HETATM   21  C10 UNL     1      -8.643  -3.908  -1.391  1.00  0.00     0.046 C 
HETATM   22  C11 UNL     1      -9.766  -1.948  -2.322  1.00  0.00     0.046 C 
ENDBRANCH  18  19
ENDBRANCH  15  18
ENDBRANCH   6  14
ENDBRANCH   3   6
ENDBRANCH   1   2
BRANCH   1  23
HETATM   23  C14 UNL     1      -0.144   0.499   0.083  1.00  0.00     0.241 C 
HETATM   24  O6  UNL     1      -0.185   1.651  -0.471  1.00  0.00    -0.271 OA
HETATM   25  N3  UNL     1       1.043  -0.266   0.076  1.00  0.00    -0.346 N 
ATOM     26  H3  UNL     1       1.048  -1.190   0.508  1.00  0.00     0.163 HD
BRANCH  25  27
HETATM   27  C15 UNL     1       2.274   0.251  -0.546  1.00  0.00     0.180 C 
BRANCH  27  28
HETATM   28  C16 UNL     1       3.456  -0.239   0.193  1.00  0.00     0.243 C 
HETATM   29  O7  UNL     1       3.264  -1.313   0.867  1.00  0.00    -0.271 OA
HETATM   30  N4  UNL     1       4.726   0.325   0.234  1.00  0.00    -0.346 N 
HETATM   31  C17 UNL     1       4.991   1.588  -0.424  1.00  0.00     0.128 C 
HETATM   32  C26 UNL     1       5.757  -0.411   0.938  1.00  0.00     0.170 C 
HETATM   33  C18 UNL     1       6.005   2.387   0.392  1.00  0.00     0.040 C 
HETATM   34  C19 UNL     1       7.422   2.116   0.039  1.00  0.00     0.135 C 
HETATM   35  N5  UNL     1       7.773   0.733   0.051  1.00  0.00    -0.306 N 
HETATM   36  C20 UNL     1       9.202   0.535  -0.028  1.00  0.00     0.367 C 
HETATM   37  C25 UNL     1       7.032  -0.463   0.122  1.00  0.00     0.089 C 
HETATM   38  O8  UNL     1      10.019   1.470  -0.079  1.00  0.00    -0.238 OA
BRANCH  36  39
HETATM   39  O9  UNL     1       9.714  -0.761  -0.051  1.00  0.00    -0.294 OA
BRANCH  39  40
HETATM   40  C21 UNL     1      11.052  -1.119  -0.126  1.00  0.00     0.061 C 
HETATM   41  C22 UNL     1      11.086  -2.657  -0.138  1.00  0.00     0.046 C 
HETATM   42  C23 UNL     1      11.892  -0.710   1.057  1.00  0.00     0.046 C 
HETATM   43  C24 UNL     1      11.696  -0.602  -1.383  1.00  0.00     0.046 C 
ENDBRANCH  39  40
ENDBRANCH  36  39
ENDBRANCH  27  28
BRANCH  27  44
HETATM   44  C27 UNL     1       2.382  -0.398  -1.956  1.00  0.00     0.009 C 
HETATM   45  C28 UNL     1       1.199  -0.057  -2.810  1.00  0.00     0.012 C 
HETATM   46  C29 UNL     1       2.466  -1.886  -1.845  1.00  0.00     0.012 C 
ENDBRANCH  27  44
ENDBRANCH  25  27
ENDBRANCH   1  23
BRANCH   1  47
HETATM   47  C30 UNL     1      -1.400   0.431   2.203  1.00  0.00    -0.022 C 
HETATM   48  C31 UNL     1      -1.465   1.917   2.347  1.00  0.00     0.017 C 
HETATM   49  C32 UNL     1      -0.128  -0.033   2.884  1.00  0.00     0.017 C 
HETATM   50  C33 UNL     1      -2.569  -0.177   2.938  1.00  0.00     0.017 C 
ENDBRANCH   1  47
TORSDOF 17
