REMARK  17 active torsions:
REMARK  status: ('A' for Active; 'I' for Inactive)
REMARK    1  A    between atoms: C2_2  and  C4_4 
REMARK    2  A    between atoms: C4_4  and  C5_5 
REMARK    3  A    between atoms: C5_5  and  N1_6 
REMARK    4  A    between atoms: C5_5  and  C11_15 
REMARK       I    between atoms: N1_6  and  C6_8 
REMARK    5  A    between atoms: C6_8  and  O2_10 
REMARK    6  A    between atoms: O2_10  and  C7_11 
REMARK    7  A    between atoms: C11_15  and  C12_17 
REMARK    8  A    between atoms: C12_17  and  O4_18 
REMARK    9  A    between atoms: C12_17  and  N2_20 
REMARK   10  A    between atoms: N2_20  and  C13_22 
REMARK   11  A    between atoms: C13_22  and  C14_23 
REMARK   12  A    between atoms: C13_22  and  C21_30 
REMARK   13  A    between atoms: C14_23  and  C15_24 
REMARK   14  A    between atoms: C21_30  and  N3_32 
REMARK       I    between atoms: N4_38  and  C28_39 
REMARK   15  A    between atoms: C28_39  and  C29_41 
REMARK   16  A    between atoms: C29_41  and  O6_42 
REMARK   17  A    between atoms: O6_42  and  C30_43 
REMARK       I    between atoms: C30_43  and  N5_45 
ROOT
HETATM    1  C13 UNL     1       0.111  -0.956  -0.094  1.00  0.00     0.102 C 
ENDROOT
BRANCH   1   2
HETATM    2  N2  UNL     1      -0.974  -0.221  -0.512  1.00  0.00    -0.385 N 
ATOM      3  H2  UNL     1      -0.786   0.762  -0.708  1.00  0.00     0.156 HD
BRANCH   2   4
HETATM    4  C12 UNL     1      -2.280  -0.622  -0.704  1.00  0.00     0.287 C 
BRANCH   4   5
HETATM    5  C11 UNL     1      -3.159   0.636  -0.765  1.00  0.00     0.197 C 
HETATM    6  O3  UNL     1      -2.762   1.463  -1.569  1.00  0.00    -0.291 OA
BRANCH   5   7
HETATM    7  C5  UNL     1      -4.346   0.769   0.084  1.00  0.00     0.161 C 
BRANCH   7   8
HETATM    8  C4  UNL     1      -4.043   0.830   1.564  1.00  0.00     0.037 C 
BRANCH   8   9
HETATM    9  C2  UNL     1      -5.332   0.912   2.361  1.00  0.00    -0.020 C 
HETATM   10  C1  UNL     1      -4.943   0.972   3.838  1.00  0.00     0.009 C 
HETATM   11  C3  UNL     1      -6.200  -0.286   2.168  1.00  0.00     0.009 C 
ENDBRANCH   8   9
ENDBRANCH   7   8
BRANCH   7  12
HETATM   12  N1  UNL     1      -5.066   2.006  -0.193  1.00  0.00    -0.325 N 
HETATM   13  C6  UNL     1      -6.317   2.094  -0.789  1.00  0.00     0.361 C 
HETATM   14  O1  UNL     1      -6.929   1.065  -1.143  1.00  0.00    -0.238 OA
ATOM     15  H1  UNL     1      -4.613   2.880   0.073  1.00  0.00     0.165 HD
BRANCH  13  16
HETATM   16  O2  UNL     1      -6.906   3.322  -1.001  1.00  0.00    -0.294 OA
BRANCH  16  17
HETATM   17  C7  UNL     1      -8.158   3.525  -1.594  1.00  0.00     0.061 C 
HETATM   18  C8  UNL     1      -8.384   5.041  -1.609  1.00  0.00     0.046 C 
HETATM   19  C9  UNL     1      -8.189   3.089  -3.044  1.00  0.00     0.046 C 
HETATM   20  C10 UNL     1      -9.305   2.887  -0.852  1.00  0.00     0.046 C 
ENDBRANCH  16  17
ENDBRANCH  13  16
ENDBRANCH   7  12
ENDBRANCH   5   7
ENDBRANCH   4   5
BRANCH   4  21
HETATM   21  O4  UNL     1      -2.865  -1.480   0.189  1.00  0.00    -0.370 OA
ATOM     22  H4  UNL     1      -2.321  -2.258   0.227  1.00  0.00     0.212 HD
ENDBRANCH   4  21
ENDBRANCH   2   4
ENDBRANCH   1   2
BRANCH   1  23
HETATM   23  C14 UNL     1       0.560  -2.052  -0.972  1.00  0.00     0.031 C 
BRANCH  23  24
HETATM   24  C15 UNL     1      -0.314  -3.203  -1.256  1.00  0.00    -0.013 C 
HETATM   25  C16 UNL     1       0.470  -4.140  -2.229  1.00  0.00     0.005 C 
HETATM   26  C17 UNL     1      -0.552  -5.130  -2.728  1.00  0.00     0.000 C 
HETATM   27  C18 UNL     1      -1.601  -5.415  -1.695  1.00  0.00     0.000 C 
HETATM   28  C19 UNL     1      -1.080  -5.382  -0.280  1.00  0.00     0.000 C 
HETATM   29  C20 UNL     1      -0.412  -4.059   0.008  1.00  0.00     0.005 C 
ENDBRANCH  23  24
ENDBRANCH   1  23
BRANCH   1  30
HETATM   30  C21 UNL     1       1.312   0.041  -0.018  1.00  0.00     0.105 C 
HETATM   31  C22 UNL     1       0.956   1.120   0.967  1.00  0.00     0.034 C 
BRANCH  30  32
HETATM   32  N3  UNL     1       2.535  -0.644   0.293  1.00  0.00    -0.344 N 
HETATM   33  C23 UNL     1       2.734  -1.259   1.569  1.00  0.00     0.136 C 
HETATM   34  C24 UNL     1       3.985  -0.832   2.285  1.00  0.00    -0.015 C 
HETATM   35  C25 UNL     1       4.175   0.664   2.290  1.00  0.00     0.018 C 
HETATM   36  C26 UNL     1       3.861  -1.268   3.734  1.00  0.00     0.018 C 
HETATM   37  C27 UNL     1       5.236  -1.458   1.712  1.00  0.00     0.136 C 
HETATM   38  N4  UNL     1       5.560  -1.021   0.390  1.00  0.00    -0.341 N 
HETATM   39  C28 UNL     1       6.701  -0.219   0.153  1.00  0.00     0.244 C 
HETATM   40  C33 UNL     1       4.795  -1.324  -0.816  1.00  0.00     0.228 C 
HETATM   41  O5  UNL     1       7.413   0.096   1.142  1.00  0.00    -0.271 OA
HETATM   42  C34 UNL     1       3.487  -0.622  -0.790  1.00  0.00     0.238 C 
HETATM   43  O8  UNL     1       3.168   0.063  -1.809  1.00  0.00    -0.272 OA
BRANCH  39  44
HETATM   44  C29 UNL     1       7.046   0.236  -1.204  1.00  0.00     0.283 C 
BRANCH  44  45
HETATM   45  O6  UNL     1       8.172   1.073  -1.227  1.00  0.00    -0.295 OA
BRANCH  45  46
HETATM   46  C30 UNL     1       8.293   2.285  -0.606  1.00  0.00     0.362 C 
HETATM   47  O7  UNL     1       7.317   2.732   0.066  1.00  0.00    -0.238 OA
HETATM   48  N5  UNL     1       9.483   3.055  -0.692  1.00  0.00    -0.337 N 
HETATM   49  C31 UNL     1      10.585   2.535  -1.463  1.00  0.00     0.154 C 
HETATM   50  C32 UNL     1       9.589   4.347  -0.016  1.00  0.00     0.154 C 
ENDBRANCH  45  46
ENDBRANCH  44  45
ENDBRANCH  39  44
ENDBRANCH  30  32
ENDBRANCH   1  30
TORSDOF 17
