REMARK  12 active torsions:
REMARK  status: ('A' for Active; 'I' for Inactive)
REMARK    1  A    between atoms: O1_2  and  C2_3 
REMARK    2  A    between atoms: C3_4  and  C4_5 
REMARK       I    between atoms: C4_5  and  N1_7 
REMARK    3  A    between atoms: N1_7  and  C5_9 
REMARK    4  A    between atoms: C12_17  and  C13_18 
REMARK    5  A    between atoms: C13_18  and  N2_19 
REMARK    6  A    between atoms: N2_19  and  O4_20 
REMARK    7  A    between atoms: N2_19  and  C14_22 
REMARK    8  A    between atoms: C18_27  and  C19_28 
REMARK       I    between atoms: C19_28  and  N3_30 
REMARK    9  A    between atoms: C20_32  and  C22_34 
REMARK   10  A    between atoms: C22_34  and  C23_36 
REMARK   11  A    between atoms: C23_36  and  N4_38 
REMARK       I    between atoms: N4_38  and  C25_40 
REMARK   12  A    between atoms: C25_40  and  C26_42 
ROOT
HETATM    1  C2  UNL     1      -3.681   0.659  -2.366  1.00  0.00     0.190 C 
HETATM    2  C3  UNL     1      -5.104   0.554  -1.976  1.00  0.00     0.245 C 
HETATM    3  O3  UNL     1      -5.292  -0.356  -0.989  1.00  0.00    -0.362 OA
HETATM    4  C10 UNL     1      -4.075  -0.965  -0.648  1.00  0.00     0.177 C 
HETATM    5  C11 UNL     1      -4.251  -2.418  -0.440  1.00  0.00     0.012 C 
HETATM    6  C12 UNL     1      -3.476  -3.315   0.082  1.00  0.00    -0.057 C 
HETATM    7  C15 UNL     1      -2.097  -3.168   0.629  1.00  0.00     0.013 C 
HETATM    8  C16 UNL     1      -1.956  -2.226   1.771  1.00  0.00     0.015 C 
HETATM    9  C17 UNL     1      -1.081  -3.006  -0.475  1.00  0.00     0.025 C 
HETATM   10  C18 UNL     1      -0.227  -1.792  -0.416  1.00  0.00     0.102 C 
HETATM   11  C34 UNL     1      -0.746  -0.830  -1.464  1.00  0.00     0.182 C 
HETATM   12  O9  UNL     1      -1.844  -0.133  -1.055  1.00  0.00    -0.379 OA
HETATM   13  C35 UNL     1      -3.055  -0.551  -1.641  1.00  0.00     0.186 C 
ENDROOT
BRANCH  10  14
HETATM   14  C19 UNL     1       1.220  -2.127  -0.727  1.00  0.00     0.228 C 
HETATM   15  O6  UNL     1       1.647  -1.726  -1.832  1.00  0.00    -0.273 OA
HETATM   16  N3  UNL     1       2.020  -2.833   0.149  1.00  0.00    -0.327 N 
HETATM   17  C20 UNL     1       3.189  -2.712   0.582  1.00  0.00     0.056 C 
ATOM     18  H3  UNL     1       1.545  -3.649   0.536  1.00  0.00     0.168 HD
HETATM   19  C21 UNL     1       3.678  -3.763   1.573  1.00  0.00     0.072 C 
BRANCH  17  20
HETATM   20  C22 UNL     1       4.166  -1.690   0.271  1.00  0.00     0.193 C 
HETATM   21  O7  UNL     1       3.876  -0.773  -0.522  1.00  0.00    -0.289 OA
BRANCH  20  22
HETATM   22  C23 UNL     1       5.540  -1.660   0.851  1.00  0.00     0.156 C 
HETATM   23  C24 UNL     1       6.317  -2.914   0.615  1.00  0.00     0.041 C 
BRANCH  22  24
HETATM   24  N4  UNL     1       6.250  -0.556   0.302  1.00  0.00    -0.349 N 
HETATM   25  C25 UNL     1       6.658   0.533   1.106  1.00  0.00     0.227 C 
HETATM   26  O8  UNL     1       6.387   0.526   2.329  1.00  0.00    -0.273 OA
ATOM     27  H4  UNL     1       6.470  -0.550  -0.694  1.00  0.00     0.163 HD
BRANCH  25  28
HETATM   28  C26 UNL     1       7.403   1.679   0.503  1.00  0.00     0.044 C 
HETATM   29  C27 UNL     1       6.590   2.322  -0.603  1.00  0.00     0.020 C 
HETATM   30  C28 UNL     1       6.084   3.636  -0.084  1.00  0.00     0.002 C 
HETATM   31  C29 UNL     1       6.393   3.627   1.396  1.00  0.00     0.006 C 
HETATM   32  C30 UNL     1       7.601   2.722   1.555  1.00  0.00     0.003 C 
HETATM   33  C31 UNL     1       8.798   3.504   1.050  1.00  0.00     0.006 C 
HETATM   34  C32 UNL     1       9.657   2.470   0.349  1.00  0.00     0.002 C 
HETATM   35  C33 UNL     1       8.775   1.295   0.060  1.00  0.00     0.020 C 
ENDBRANCH  25  28
ENDBRANCH  22  24
ENDBRANCH  20  22
ENDBRANCH  17  20
ENDBRANCH  10  14
BRANCH   6  36
HETATM   36  C13 UNL     1      -4.034  -4.735   0.117  1.00  0.00     0.193 C 
BRANCH  36  37
HETATM   37  N2  UNL     1      -4.161  -5.229   1.462  1.00  0.00    -0.232 N 
BRANCH  37  38
HETATM   38  O4  UNL     1      -3.163  -5.902   2.060  1.00  0.00    -0.285 OA
ATOM     39  H4  UNL     1      -3.247  -6.228   2.948  1.00  0.00     0.245 HD
ENDBRANCH  37  38
BRANCH  37  40
HETATM   40  C14 UNL     1      -5.369  -5.010   2.167  1.00  0.00     0.376 C 
HETATM   41  O5  UNL     1      -5.552  -5.412   3.339  1.00  0.00    -0.281 OA
ENDBRANCH  37  40
ENDBRANCH  36  37
ENDBRANCH   6  36
BRANCH   1  42
HETATM   42  O1  UNL     1      -3.563   0.519  -3.736  1.00  0.00    -0.385 OA
HETATM   43  C1  UNL     1      -2.814   1.539  -4.316  1.00  0.00     0.202 C 
ENDBRANCH   1  42
BRANCH   2  44
HETATM   44  C4  UNL     1      -5.679   1.898  -1.614  1.00  0.00     0.249 C 
HETATM   45  O2  UNL     1      -5.551   2.880  -2.381  1.00  0.00    -0.271 OA
HETATM   46  N1  UNL     1      -6.382   2.090  -0.397  1.00  0.00    -0.354 N 
ATOM     47  H1  UNL     1      -6.483   1.285   0.221  1.00  0.00     0.162 HD
BRANCH  46  48
HETATM   48  C5  UNL     1      -6.962   3.330   0.031  1.00  0.00     0.084 C 
HETATM   49  C6  UNL     1      -6.658   3.689   1.444  1.00  0.00     0.025 C 
HETATM   50  C7  UNL     1      -7.731   4.689   1.807  1.00  0.00     0.002 C 
HETATM   51  C8  UNL     1      -8.794   4.593   0.718  1.00  0.00     0.002 C 
HETATM   52  C9  UNL     1      -8.494   3.245   0.048  1.00  0.00     0.025 C 
ENDBRANCH  46  48
ENDBRANCH   2  44
TORSDOF 12
