REMARK  12 active torsions:
REMARK  status: ('A' for Active; 'I' for Inactive)
REMARK    1  A    between atoms: C2_2  and  C4_4 
REMARK    2  A    between atoms: C4_4  and  N1_5 
REMARK       I    between atoms: N1_5  and  C5_6 
REMARK    3  A    between atoms: N1_5  and  S3_38 
REMARK    4  A    between atoms: C5_6  and  C6_8 
REMARK    5  A    between atoms: C6_8  and  N2_9 
REMARK    6  A    between atoms: C6_8  and  C23_35 
REMARK       I    between atoms: N2_9  and  C7_11 
REMARK    7  A    between atoms: C7_11  and  C8_13 
REMARK    8  A    between atoms: C14_20  and  C15_21 
REMARK       I    between atoms: C15_21  and  N3_23 
REMARK    9  A    between atoms: N3_23  and  C16_25 
REMARK   10  A    between atoms: C16_25  and  C18_27 
REMARK   11  A    between atoms: S3_38  and  N5_41 
REMARK   12  A    between atoms: N5_41  and  C26_43 
ROOT
HETATM    1  N2  UNL     1      -0.628  -1.012   0.050  1.00  0.00    -0.347 N 
ATOM      2  H2  UNL     1      -0.160  -0.885  -0.847  1.00  0.00     0.163 HD
HETATM    3  C7  UNL     1       0.003  -0.567   1.256  1.00  0.00     0.223 C 
HETATM    4  O2  UNL     1      -0.618  -0.748   2.329  1.00  0.00    -0.273 OA
ENDROOT
BRANCH   3   5
HETATM    5  C8  UNL     1       1.333   0.085   1.288  1.00  0.00     0.092 C 
HETATM    6  C9  UNL     1       1.604   0.518   2.687  1.00  0.00     0.089 C 
HETATM    7  S1  UNL     1       2.916  -0.571   3.284  1.00  0.00    -0.158 SA
HETATM    8  C10 UNL     1       3.184  -1.496   1.745  1.00  0.00     0.009 C 
HETATM    9  C11 UNL     1       2.750  -2.952   1.909  1.00  0.00     0.027 C 
HETATM   10  C12 UNL     1       4.660  -1.512   1.430  1.00  0.00     0.021 C 
HETATM   11  C22 UNL     1       2.346  -0.823   0.759  1.00  0.00     0.018 C 
HETATM   12  C13 UNL     1       5.190  -0.100   1.281  1.00  0.00     0.015 C 
HETATM   13  C14 UNL     1       4.339   0.680   0.326  1.00  0.00     0.078 C 
HETATM   14  C21 UNL     1       3.196  -0.084  -0.250  1.00  0.00     0.021 C 
BRANCH  13  15
HETATM   15  C15 UNL     1       5.193   1.153  -0.793  1.00  0.00     0.222 C 
HETATM   16  O3  UNL     1       4.925   0.810  -1.982  1.00  0.00    -0.273 OA
HETATM   17  N3  UNL     1       6.315   1.983  -0.623  1.00  0.00    -0.351 N 
ATOM     18  H3  UNL     1       6.540   2.268   0.330  1.00  0.00     0.163 HD
BRANCH  17  19
HETATM   19  C16 UNL     1       7.164   2.461  -1.658  1.00  0.00     0.137 C 
HETATM   20  C17 UNL     1       7.261   3.954  -1.715  1.00  0.00     0.039 C 
BRANCH  19  21
HETATM   21  C18 UNL     1       8.545   1.874  -1.502  1.00  0.00     0.073 A 
HETATM   22  N4  UNL     1       8.917   0.632  -1.253  1.00  0.00    -0.361 N 
HETATM   23  C19 UNL     1      10.174   0.341  -1.156  1.00  0.00     0.096 A 
ATOM     24  H4  UNL     1       8.214  -0.098  -1.137  1.00  0.00     0.165 HD
HETATM   25  C20 UNL     1      11.078   1.366  -1.320  1.00  0.00     0.068 A 
HETATM   26  S2  UNL     1      10.037   2.691  -1.608  1.00  0.00    -0.085 SA
ENDBRANCH  19  21
ENDBRANCH  17  19
ENDBRANCH  13  15
ENDBRANCH   3   5
BRANCH   1  27
HETATM   27  C6  UNL     1      -1.949  -1.651   0.104  1.00  0.00     0.181 C 
BRANCH  27  28
HETATM   28  C5  UNL     1      -2.875  -1.054  -0.864  1.00  0.00     0.257 C 
HETATM   29  N1  UNL     1      -4.203  -0.616  -0.634  1.00  0.00    -0.226 N 
HETATM   30  O1  UNL     1      -2.404  -0.915  -2.050  1.00  0.00    -0.270 OA
BRANCH  29  31
HETATM   31  C4  UNL     1      -4.837  -0.627   0.628  1.00  0.00     0.150 C 
BRANCH  31  32
HETATM   32  C2  UNL     1      -5.720  -1.728   1.040  1.00  0.00    -0.003 C 
HETATM   33  C1  UNL     1      -6.934  -1.991   0.209  1.00  0.00     0.011 C 
HETATM   34  C3  UNL     1      -6.189  -1.361   2.483  1.00  0.00     0.011 C 
ENDBRANCH  31  32
ENDBRANCH  29  31
BRANCH  29  35
HETATM   35  S3  UNL     1      -5.114   0.035  -1.988  1.00  0.00     0.324 S 
HETATM   36  O4  UNL     1      -5.941  -1.036  -2.617  1.00  0.00    -0.182 OA
HETATM   37  O5  UNL     1      -4.116   0.472  -3.025  1.00  0.00    -0.182 OA
BRANCH  35  38
HETATM   38  N5  UNL     1      -6.082   1.287  -1.405  1.00  0.00    -0.295 N 
ATOM     39  H5  UNL     1      -6.962   1.108  -0.921  1.00  0.00     0.174 HD
BRANCH  38  40
HETATM   40  C26 UNL     1      -5.593   2.625  -1.630  1.00  0.00     0.120 C 
HETATM   41  C27 UNL     1      -6.543   3.467  -2.430  1.00  0.00     0.054 C 
HETATM   42  C28 UNL     1      -6.885   4.550  -1.392  1.00  0.00     0.169 C 
HETATM   43  O6  UNL     1      -5.721   4.658  -0.626  1.00  0.00    -0.389 OA
HETATM   44  C29 UNL     1      -5.266   3.371  -0.392  1.00  0.00     0.193 C 
ENDBRANCH  38  40
ENDBRANCH  35  38
ENDBRANCH  29  35
ENDBRANCH  27  28
BRANCH  27  45
HETATM   45  C23 UNL     1      -1.682  -3.102  -0.313  1.00  0.00     0.009 C 
HETATM   46  C24 UNL     1      -1.084  -3.229  -1.686  1.00  0.00     0.012 C 
HETATM   47  C25 UNL     1      -2.837  -4.018  -0.116  1.00  0.00     0.012 C 
ENDBRANCH  27  45
ENDBRANCH   1  27
TORSDOF 12
