REMARK  8 active torsions:
REMARK  status: ('A' for Active; 'I' for Inactive)
REMARK    1  A    between atoms: C2_2  and  C3_3 
REMARK    2  A    between atoms: C2_2  and  C12_21 
REMARK       I    between atoms: C3_3  and  N1_5 
REMARK    3  A    between atoms: N1_5  and  C4_7 
REMARK    4  A    between atoms: C4_7  and  C5_8 
REMARK    5  A    between atoms: C8_11  and  C9_12 
REMARK    6  A    between atoms: C9_12  and  N2_13 
REMARK    7  A    between atoms: N2_13  and  N3_15 
REMARK    8  A    between atoms: N3_15  and  N4_16 
ROOT
HETATM    1  C1  UNL     1      -0.225  -0.190  -2.306  1.00  0.00     0.022 C 
HETATM    2  C2  UNL     1      -0.668  -0.359  -0.854  1.00  0.00     0.096 C 
ENDROOT
BRANCH   2   3
HETATM    3  C3  UNL     1       0.336  -1.229  -0.229  1.00  0.00     0.223 C 
HETATM    4  O1  UNL     1       0.037  -2.367   0.170  1.00  0.00    -0.273 OA
HETATM    5  N1  UNL     1       1.664  -0.763  -0.082  1.00  0.00    -0.360 N 
ATOM      6  H1  UNL     1       1.909   0.171  -0.410  1.00  0.00     0.162 HD
BRANCH   5   7
HETATM    7  C4  UNL     1       2.678  -1.595   0.527  1.00  0.00     0.127 C 
BRANCH   7   8
HETATM    8  C5  UNL     1       4.015  -0.890   0.576  1.00  0.00     0.003 C 
HETATM    9  C6  UNL     1       5.019  -1.806   1.219  1.00  0.00     0.007 C 
HETATM   10  C7  UNL     1       6.301  -0.994   1.397  1.00  0.00     0.007 C 
HETATM   11  C8  UNL     1       6.855  -0.544   0.091  1.00  0.00     0.006 C 
HETATM   12  C10 UNL     1       5.915  -0.736  -1.067  1.00  0.00     0.007 C 
HETATM   13  C11 UNL     1       4.492  -0.450  -0.760  1.00  0.00     0.007 C 
BRANCH  11  14
HETATM   14  C9  UNL     1       7.313   0.911   0.132  1.00  0.00     0.160 C 
BRANCH  14  15
HETATM   15  N2  UNL     1       6.198   1.779   0.460  1.00  0.00    -0.252 N 
ATOM     16  H2  UNL     1       5.482   1.436   1.100  1.00  0.00     0.196 HD
BRANCH  15  17
HETATM   17  N3  UNL     1       6.083   2.914  -0.005  1.00  0.00    -0.249 NA
BRANCH  17  18
HETATM   18  N4  UNL     1       6.014   3.914  -0.697  1.00  0.00    -0.261 N 
ATOM     19  H42 UNL     1       6.191   3.368  -1.540  1.00  0.00     0.193 HD
ATOM     20  H41 UNL     1       5.919   4.854  -1.082  1.00  0.00     0.193 HD
ENDBRANCH  17  18
ENDBRANCH  15  17
ENDBRANCH  14  15
ENDBRANCH  11  14
ENDBRANCH   7   8
ENDBRANCH   5   7
ENDBRANCH   2   3
BRANCH   2  21
HETATM   21  C12 UNL     1      -2.076  -0.832  -0.811  1.00  0.00     0.098 C 
HETATM   22  C13 UNL     1      -2.652  -1.023   0.538  1.00  0.00     0.026 C 
HETATM   23  C14 UNL     1      -2.714   0.304   1.266  1.00  0.00     0.009 C 
HETATM   24  C15 UNL     1      -4.076   0.531   1.823  1.00  0.00     0.094 C 
HETATM   25  C16 UNL     1      -5.138   0.848   0.804  1.00  0.00     0.251 C 
HETATM   26  N5  UNL     1      -4.660   1.444  -0.401  1.00  0.00    -0.288 N 
HETATM   27  O3  UNL     1      -6.032   1.728   1.448  1.00  0.00    -0.338 OA
HETATM   28  O4  UNL     1      -5.853  -0.331   0.579  1.00  0.00    -0.338 OA
HETATM   29  C17 UNL     1      -3.854   1.048  -1.484  1.00  0.00     0.320 C 
ATOM     30  H5  UNL     1      -4.987   2.405  -0.504  1.00  0.00     0.169 HD
HETATM   31  O2  UNL     1      -4.062   1.702  -2.516  1.00  0.00    -0.247 OA
HETATM   32  N6  UNL     1      -2.858   0.065  -1.648  1.00  0.00    -0.338 N 
ATOM     33  H6  UNL     1      -2.617  -0.050  -2.632  1.00  0.00     0.164 HD
HETATM   34  C18 UNL     1      -7.117   2.045   0.672  1.00  0.00     0.175 C 
HETATM   35  C19 UNL     1      -7.740   0.895  -0.045  1.00  0.00     0.053 C 
HETATM   36  C20 UNL     1      -6.786  -0.183  -0.441  1.00  0.00     0.175 C 
ENDBRANCH   2  21
TORSDOF 8
