REMARK  7 active torsions:
REMARK  status: ('A' for Active; 'I' for Inactive)
REMARK    1  A    between atoms: O1_2  and  C2_3 
REMARK    2  A    between atoms: C2_3  and  C3_4 
REMARK    3  A    between atoms: C3_4  and  N1_5 
REMARK    4  A    between atoms: N2_8  and  C6_10 
REMARK    5  A    between atoms: C16_20  and  O2_21 
REMARK    6  A    between atoms: C20_27  and  C21_28 
REMARK    7  A    between atoms: C21_28  and  O4_29 
ROOT
HETATM    1  N1  UNL     1       3.251   0.053  -0.356  1.00  0.00    -0.364 N 
HETATM    2  C4  UNL     1       1.852   0.186  -0.054  1.00  0.00     0.211 C 
HETATM    3  C5  UNL     1       1.063  -0.543  -1.096  1.00  0.00     0.133 C 
HETATM    4  N2  UNL     1      -0.091   0.090  -1.455  1.00  0.00    -0.364 N 
ATOM      5  H2  UNL     1      -0.111   0.432  -2.416  1.00  0.00     0.162 HD
HETATM    6  O3  UNL     1       1.014  -1.909  -0.877  1.00  0.00    -0.330 OA
HETATM    7  C20 UNL     1       1.696  -2.436   0.151  1.00  0.00     0.162 C 
HETATM    8  C22 UNL     1       3.172  -2.351   0.132  1.00  0.00     0.052 C 
HETATM    9  C23 UNL     1       3.684  -2.183   1.547  1.00  0.00     0.018 C 
HETATM   10  C24 UNL     1       3.741  -1.223  -0.678  1.00  0.00     0.070 C 
ENDROOT
BRANCH   4  11
HETATM   11  C6  UNL     1      -1.260   0.346  -0.709  1.00  0.00     0.035 C 
HETATM   12  C7  UNL     1      -1.008   1.258   0.416  1.00  0.00     0.035 C 
HETATM   13  C8  UNL     1      -2.184   1.903   1.109  1.00  0.00    -0.012 C 
HETATM   14  C9  UNL     1      -2.879   1.030   2.103  1.00  0.00     0.009 C 
HETATM   15  C13 UNL     1      -3.092   2.695   0.237  1.00  0.00     0.010 C 
HETATM   16  C10 UNL     1      -4.119   0.362   1.588  1.00  0.00    -0.011 C 
HETATM   17  C11 UNL     1      -4.934   1.172   0.645  1.00  0.00     0.010 C 
HETATM   18  C17 UNL     1      -3.868  -1.045   1.125  1.00  0.00     0.042 C 
HETATM   19  C12 UNL     1      -4.153   1.865  -0.443  1.00  0.00    -0.010 C 
HETATM   20  C14 UNL     1      -3.610   0.968  -1.493  1.00  0.00    -0.005 C 
HETATM   21  C15 UNL     1      -4.021  -0.476  -1.331  1.00  0.00     0.043 C 
HETATM   22  C19 UNL     1      -2.171   1.017  -1.764  1.00  0.00     0.036 C 
HETATM   23  C16 UNL     1      -3.271  -1.170  -0.237  1.00  0.00     0.061 C 
HETATM   24  C18 UNL     1      -1.797  -1.008  -0.302  1.00  0.00     0.068 C 
BRANCH  23  25
HETATM   25  O2  UNL     1      -3.510  -2.552  -0.542  1.00  0.00    -0.390 OA
ATOM     26  H2  UNL     1      -3.034  -2.992   0.152  1.00  0.00     0.210 HD
ENDBRANCH  23  25
ENDBRANCH   4  11
BRANCH   1  27
HETATM   27  C3  UNL     1       3.952   1.172  -0.799  1.00  0.00     0.089 C 
BRANCH  27  28
HETATM   28  C2  UNL     1       4.170   2.289   0.175  1.00  0.00     0.211 C 
BRANCH  28  29
HETATM   29  O1  UNL     1       4.877   3.357  -0.361  1.00  0.00    -0.391 OA
HETATM   30  C1  UNL     1       6.143   3.038  -0.813  1.00  0.00     0.201 C 
ENDBRANCH  28  29
ENDBRANCH  27  28
ENDBRANCH   1  27
BRANCH   7  31
HETATM   31  C21 UNL     1       1.332  -3.935   0.189  1.00  0.00     0.197 C 
BRANCH  31  32
HETATM   32  O4  UNL     1       1.986  -4.571   1.234  1.00  0.00    -0.398 OA
ATOM     33  H4  UNL     1       1.762  -5.494   1.257  1.00  0.00     0.209 HD
ENDBRANCH  31  32
ENDBRANCH   7  31
TORSDOF 7
