REMARK  7 active torsions:
REMARK  status: ('A' for Active; 'I' for Inactive)
REMARK    1  A    between atoms: C2_2  and  N1_3 
REMARK    2  A    between atoms: C5_6  and  C6_7 
REMARK    3  A    between atoms: C5_6  and  C7_10 
REMARK    4  A    between atoms: C6_7  and  O1_8 
REMARK    5  A    between atoms: C7_10  and  C8_11 
REMARK    6  A    between atoms: C8_11  and  O2_12 
REMARK    7  A    between atoms: C9_14  and  O3_15 
ROOT
HETATM    1  N1  UNL     1      -1.283  -0.248   0.220  1.00  0.00     0.008 N 
HETATM    2  C3  UNL     1      -1.733  -0.413   1.609  1.00  0.00     0.302 C 
HETATM    3  C4  UNL     1       0.049  -0.767   0.160  1.00  0.00     0.278 C 
HETATM    4  C5  UNL     1       1.168   0.210   0.212  1.00  0.00     0.035 C 
HETATM    5  C9  UNL     1       1.341   1.112  -0.930  1.00  0.00     0.135 C 
HETATM    6  C10 UNL     1       0.192   1.236  -1.876  1.00  0.00     0.079 C 
HETATM    7  C11 UNL     1      -1.099   1.615  -1.276  1.00  0.00     0.089 C 
HETATM    8  N2  UNL     1      -1.473   1.045  -0.064  1.00  0.00    -0.232 N 
ATOM      9  H2  UNL     1      -1.912   1.639   0.639  1.00  0.00     0.192 HD
ENDROOT
BRANCH   4  10
HETATM   10  C6  UNL     1       1.169   1.017   1.520  1.00  0.00     0.178 C 
BRANCH  10  11
HETATM   11  O1  UNL     1       1.297   0.178   2.611  1.00  0.00    -0.400 OA
ATOM     12  H1  UNL     1       1.298   0.677   3.420  1.00  0.00     0.209 HD
ENDBRANCH  10  11
ENDBRANCH   4  10
BRANCH   4  13
HETATM   13  C7  UNL     1       2.444  -0.611   0.334  1.00  0.00     0.042 C 
BRANCH  13  14
HETATM   14  C8  UNL     1       2.674  -1.545  -0.788  1.00  0.00     0.165 C 
BRANCH  14  15
HETATM   15  O2  UNL     1       3.876  -2.254  -0.585  1.00  0.00    -0.401 OA
ATOM     16  H2  UNL     1       4.024  -2.854  -1.306  1.00  0.00     0.209 HD
ENDBRANCH  14  15
ENDBRANCH  13  14
ENDBRANCH   4  13
BRANCH   5  17
HETATM   17  O3  UNL     1       1.657   2.389  -0.457  1.00  0.00    -0.394 OA
ATOM     18  H3  UNL     1       1.769   2.974  -1.197  1.00  0.00     0.210 HD
ENDBRANCH   5  17
BRANCH   1  19
HETATM   19  C2  UNL     1      -2.178  -1.169  -0.507  1.00  0.00     0.260 C 
HETATM   20  C1  UNL     1      -3.576  -0.675  -0.575  1.00  0.00     0.037 C 
ENDBRANCH   1  19
TORSDOF 7
