REMARK  7 active torsions:
REMARK  status: ('A' for Active; 'I' for Inactive)
REMARK    1  A    between atoms: N1_1  and  S1_4 
REMARK    2  A    between atoms: S1_4  and  N2_7 
REMARK    3  A    between atoms: N2_7  and  N3_9 
REMARK    4  A    between atoms: N3_9  and  C1_11 
REMARK    5  A    between atoms: C1_11  and  N4_13 
REMARK    6  A    between atoms: N4_13  and  C2_15 
REMARK    7  A    between atoms: C2_15  and  C3_16 
ROOT
HETATM    1  N3  UNL     1       2.073  -0.323  -0.284  1.00  0.00    -0.266 N 
ATOM      2  H3  UNL     1       2.232  -1.288  -0.574  1.00  0.00     0.190 HD
ENDROOT
BRANCH   1   3
HETATM    3  N2  UNL     1       3.104   0.598  -0.450  1.00  0.00    -0.208 N 
ATOM      4  H2  UNL     1       2.989   1.604  -0.330  1.00  0.00     0.201 HD
BRANCH   3   5
HETATM    5  S1  UNL     1       4.588  -0.148  -0.878  1.00  0.00     0.330 S 
HETATM    6  O1  UNL     1       5.467   0.744  -1.709  1.00  0.00    -0.181 OA
HETATM    7  O2  UNL     1       4.365  -1.418  -1.666  1.00  0.00    -0.181 OA
BRANCH   5   8
HETATM    8  N1  UNL     1       5.456  -0.537   0.567  1.00  0.00    -0.310 N 
ATOM      9  H12 UNL     1       6.395  -0.212   0.799  1.00  0.00     0.170 HD
ATOM     10  H11 UNL     1       4.859  -1.142   1.131  1.00  0.00     0.170 HD
ENDBRANCH   5   8
ENDBRANCH   3   5
ENDBRANCH   1   3
BRANCH   1  11
HETATM   11  C1  UNL     1       0.812   0.018   0.269  1.00  0.00     0.187 C 
HETATM   12  S2  UNL     1       0.588   1.561   0.729  1.00  0.00    -0.040 SA
BRANCH  11  13
HETATM   13  N4  UNL     1      -0.239  -0.908   0.442  1.00  0.00    -0.366 N 
ATOM     14  H4  UNL     1      -0.091  -1.877   0.159  1.00  0.00     0.161 HD
BRANCH  13  15
HETATM   15  C2  UNL     1      -1.506  -0.539   1.000  1.00  0.00     0.126 C 
BRANCH  15  16
HETATM   16  C3  UNL     1      -2.336   0.354   0.146  1.00  0.00     0.003 C 
HETATM   17  C4  UNL     1      -3.688   0.738   0.759  1.00  0.00     0.006 C 
HETATM   18  C5  UNL     1      -4.197   0.754  -0.691  1.00  0.00     0.001 C 
HETATM   19  C6  UNL     1      -3.181  -0.380  -0.909  1.00  0.00     0.006 C 
ENDBRANCH  15  16
ENDBRANCH  13  15
ENDBRANCH  11  13
ENDBRANCH   1  11
TORSDOF 7
