REMARK  7 active torsions:
REMARK  status: ('A' for Active; 'I' for Inactive)
REMARK    1  A    between atoms: C7_7  and  C8_8 
REMARK    2  A    between atoms: C8_8  and  N1_9 
REMARK    3  A    between atoms: N1_9  and  C11_12 
REMARK    4  A    between atoms: C11_12  and  C12_13 
REMARK    5  A    between atoms: C12_13  and  N4_19 
REMARK    6  A    between atoms: N2_14  and  N3_16 
REMARK    7  A    between atoms: N4_19  and  N5_21 
ROOT
HETATM    1  C1  UNL     1      -2.450   0.271  -3.221  1.00  0.00     0.012 C 
HETATM    2  C2  UNL     1      -2.552  -0.446  -2.254  1.00  0.00    -0.112 C 
HETATM    3  C3  UNL     1      -2.670  -1.301  -1.066  1.00  0.00     0.070 C 
HETATM    4  C4  UNL     1      -4.010  -1.040  -0.379  1.00  0.00     0.017 C 
HETATM    5  C5  UNL     1      -3.693  -0.348   0.929  1.00  0.00     0.002 C 
HETATM    6  C6  UNL     1      -2.335   0.284   0.593  1.00  0.00     0.007 C 
HETATM    7  C7  UNL     1      -1.618  -0.877  -0.015  1.00  0.00     0.027 C 
ENDROOT
BRANCH   7   8
HETATM    8  C8  UNL     1      -0.319  -0.577  -0.662  1.00  0.00     0.242 C 
BRANCH   8   9
HETATM    9  N1  UNL     1       0.738  -0.167   0.275  1.00  0.00    -0.068 N 
HETATM   10  C9  UNL     1       0.619   1.236   0.560  1.00  0.00     0.272 C 
HETATM   11  C10 UNL     1       0.659  -0.910   1.500  1.00  0.00     0.272 C 
BRANCH   9  12
HETATM   12  C11 UNL     1       2.005  -0.500  -0.337  1.00  0.00     0.315 C 
BRANCH  12  13
HETATM   13  C12 UNL     1       3.143   0.338   0.059  1.00  0.00     0.136 C 
HETATM   14  N2  UNL     1       3.748   1.064  -0.812  1.00  0.00    -0.293 N 
ATOM     15  H2  UNL     1       4.539   1.649  -0.543  1.00  0.00     0.187 HD
BRANCH  14  16
HETATM   16  N3  UNL     1       3.302   1.036  -2.131  1.00  0.00    -0.344 N 
ATOM     17  H32 UNL     1       2.510   0.446  -2.384  1.00  0.00     0.176 HD
ATOM     18  H31 UNL     1       3.782   1.612  -2.822  1.00  0.00     0.176 HD
ENDBRANCH  14  16
BRANCH  13  19
HETATM   19  N4  UNL     1       3.628   0.391   1.386  1.00  0.00    -0.293 N 
ATOM     20  H4  UNL     1       3.732  -0.498   1.875  1.00  0.00     0.187 HD
BRANCH  19  21
HETATM   21  N5  UNL     1       3.975   1.537   2.085  1.00  0.00    -0.344 N 
ATOM     22  H52 UNL     1       3.864   2.416   1.580  1.00  0.00     0.176 HD
ATOM     23  H51 UNL     1       4.325   1.575   3.042  1.00  0.00     0.176 HD
ENDBRANCH  19  21
ENDBRANCH  13  19
ENDBRANCH  12  13
ENDBRANCH   9  12
ENDBRANCH   8   9
ENDBRANCH   7   8
TORSDOF 7
