REMARK  7 active torsions:
REMARK  status: ('A' for Active; 'I' for Inactive)
REMARK    1  A    between atoms: N1_2  and  C2_4 
REMARK    2  A    between atoms: C2_4  and  N2_6 
REMARK    3  A    between atoms: N2_6  and  N3_8 
REMARK    4  A    between atoms: N3_8  and  C3_9 
REMARK    5  A    between atoms: C3_9  and  C4_10 
REMARK    6  A    between atoms: C4_10  and  C5_11 
REMARK    7  A    between atoms: C5_11  and  N4_12 
ROOT
HETATM    1  C3  UNL     1      -0.735   0.916  -1.435  1.00  0.00     0.136 C 
ENDROOT
BRANCH   1   2
HETATM    2  N3  UNL     1      -1.420   1.667  -0.423  1.00  0.00    -0.139 NA
BRANCH   2   3
HETATM    3  N2  UNL     1      -2.755   1.831  -0.874  1.00  0.00    -0.280 N 
ATOM      4  H2  UNL     1      -2.964   2.583  -1.531  1.00  0.00     0.184 HD
BRANCH   3   5
HETATM    5  C2  UNL     1      -3.802   0.992  -0.447  1.00  0.00     0.183 C 
HETATM    6  S1  UNL     1      -5.301   1.259  -1.020  1.00  0.00    -0.040 SA
BRANCH   5   7
HETATM    7  N1  UNL     1      -3.598  -0.081   0.464  1.00  0.00    -0.371 N 
HETATM    8  C1  UNL     1      -4.664  -0.944   0.905  1.00  0.00     0.148 C 
ATOM      9  H1  UNL     1      -2.657  -0.247   0.820  1.00  0.00     0.161 HD
ENDBRANCH   5   7
ENDBRANCH   3   5
ENDBRANCH   2   3
ENDBRANCH   1   2
BRANCH   1  10
HETATM   10  C4  UNL     1       0.697   0.646  -1.127  1.00  0.00     0.038 C 
BRANCH  10  11
HETATM   11  C5  UNL     1       0.880  -0.148   0.153  1.00  0.00     0.129 C 
BRANCH  11  12
HETATM   12  N4  UNL     1       2.290  -0.380   0.400  1.00  0.00    -0.333 N 
HETATM   13  C6  UNL     1       3.020  -1.534  -0.089  1.00  0.00     0.147 C 
HETATM   14  C7  UNL     1       4.457  -1.267   0.228  1.00  0.00     0.144 C 
HETATM   15  N5  UNL     1       4.466  -0.229   1.222  1.00  0.00    -0.341 N 
HETATM   16  C8  UNL     1       3.211   0.422   1.130  1.00  0.00     0.318 C 
ATOM     17  H5  UNL     1       5.225  -0.005   1.866  1.00  0.00     0.164 HD
HETATM   18  O1  UNL     1       2.923   1.543   1.613  1.00  0.00    -0.247 OA
ENDBRANCH  11  12
ENDBRANCH  10  11
ENDBRANCH   1  10
TORSDOF 7
