REMARK  7 active torsions:
REMARK  status: ('A' for Active; 'I' for Inactive)
REMARK    1  A    between atoms: N1_2  and  C4_5 
REMARK    2  A    between atoms: C4_5  and  C5_6 
REMARK    3  A    between atoms: C5_6  and  C6_7 
REMARK    4  A    between atoms: C7_10  and  C8_11 
REMARK    5  A    between atoms: C8_11  and  O1_12 
REMARK    6  A    between atoms: C10_15  and  O2_16 
REMARK    7  A    between atoms: C11_18  and  O3_19 
ROOT
HETATM    1  C6  UNL     1       0.681   0.504  -0.088  1.00  0.00     0.110 C 
HETATM    2  N2  UNL     1       1.319  -0.760  -0.033  1.00  0.00    -0.408 N 
ATOM      3  H2  UNL     1       0.829  -1.593   0.292  1.00  0.00     0.154 HD
HETATM    4  C7  UNL     1       2.670  -0.809  -0.452  1.00  0.00     0.103 C 
HETATM    5  C9  UNL     1       3.426   0.461  -0.428  1.00  0.00     0.061 C 
HETATM    6  C10 UNL     1       2.671   1.669  -0.863  1.00  0.00     0.150 C 
HETATM    7  C11 UNL     1       1.253   1.363  -1.197  1.00  0.00     0.169 C 
ENDROOT
BRANCH   1   8
HETATM    8  C5  UNL     1      -0.807   0.444  -0.284  1.00  0.00     0.055 C 
BRANCH   8   9
HETATM    9  C4  UNL     1      -1.521  -0.297   0.811  1.00  0.00     0.238 C 
BRANCH   9  10
HETATM   10  N1  UNL     1      -2.926  -0.317   0.565  1.00  0.00    -0.079 N 
HETATM   11  C1  UNL     1      -3.296   0.089  -0.773  1.00  0.00     0.271 C 
HETATM   12  C2  UNL     1      -3.469  -1.675   0.739  1.00  0.00     0.271 C 
HETATM   13  C3  UNL     1      -3.680   0.519   1.495  1.00  0.00     0.271 C 
ENDBRANCH   9  10
ENDBRANCH   8   9
ENDBRANCH   1   8
BRANCH   7  14
HETATM   14  O3  UNL     1       1.088   0.678  -2.392  1.00  0.00    -0.391 OA
ATOM     15  H3  UNL     1       1.447   1.217  -3.087  1.00  0.00     0.210 HD
ENDBRANCH   7  14
BRANCH   4  16
HETATM   16  C8  UNL     1       3.402  -1.804   0.459  1.00  0.00     0.189 C 
BRANCH  16  17
HETATM   17  O1  UNL     1       3.305  -1.348   1.773  1.00  0.00    -0.399 OA
ATOM     18  H1  UNL     1       3.758  -1.964   2.337  1.00  0.00     0.209 HD
ENDBRANCH  16  17
ENDBRANCH   4  16
BRANCH   6  19
HETATM   19  O2  UNL     1       2.704   2.628   0.150  1.00  0.00    -0.393 OA
ATOM     20  H2  UNL     1       2.222   3.398  -0.127  1.00  0.00     0.210 HD
ENDBRANCH   6  19
TORSDOF 7
