REMARK  4 active torsions:
REMARK  status: ('A' for Active; 'I' for Inactive)
REMARK       I    between atoms: C1_2  and  N4_12 
REMARK    1  A    between atoms: N2_3  and  C2_5 
REMARK    2  A    between atoms: N4_12  and  C6_14 
REMARK    3  A    between atoms: C6_14  and  C7_15 
REMARK    4  A    between atoms: C7_15  and  N5_16 
ROOT
HETATM    1  N1  UNL     1       0.925   1.323  -0.562  1.00  0.00    -0.064 NA
HETATM    2  C1  UNL     1       0.925   0.313   0.387  1.00  0.00     0.184 C 
HETATM    3  N2  UNL     1       2.015  -0.178   0.870  1.00  0.00    -0.358 N 
ATOM      4  H2  UNL     1       1.973  -0.919   1.569  1.00  0.00     0.162 HD
HETATM    5  N4  UNL     1      -0.277  -0.262   0.906  1.00  0.00    -0.363 N 
ATOM      6  H4  UNL     1      -0.760   0.155   1.702  1.00  0.00     0.162 HD
ENDROOT
BRANCH   5   7
HETATM    7  C6  UNL     1      -0.781  -1.443   0.271  1.00  0.00     0.142 C 
BRANCH   7   8
HETATM    8  C7  UNL     1      -1.462  -1.172  -1.016  1.00  0.00     0.141 C 
BRANCH   8   9
HETATM    9  N5  UNL     1      -2.671  -0.446  -0.965  1.00  0.00    -0.389 N 
HETATM   10  C8  UNL     1      -3.759  -1.170  -0.339  1.00  0.00     0.149 C 
HETATM   11  C9  UNL     1      -4.576  -0.198   0.501  1.00  0.00     0.252 C 
HETATM   12  N6  UNL     1      -5.101   0.801  -0.413  1.00  0.00    -0.069 N 
HETATM   13  C10 UNL     1      -4.017   1.547  -0.972  1.00  0.00     0.276 C 
ATOM     14  H62 UNL     1      -5.699   0.392  -1.131  1.00  0.00     0.277 HD
ATOM     15  H61 UNL     1      -5.796   1.402   0.029  1.00  0.00     0.277 HD
HETATM   16  C11 UNL     1      -2.659   0.928  -0.750  1.00  0.00     0.085 C 
ENDBRANCH   8   9
ENDBRANCH   7   8
ENDBRANCH   5   7
BRANCH   3  17
HETATM   17  C2  UNL     1       3.288   0.316   0.426  1.00  0.00     0.111 C 
HETATM   18  C3  UNL     1       4.035  -0.776  -0.345  1.00  0.00     0.054 C 
HETATM   19  C4  UNL     1       5.467  -0.399  -0.129  1.00  0.00     0.234 C 
HETATM   20  N3  UNL     1       5.525   0.485   0.989  1.00  0.00    -0.073 N 
HETATM   21  C5  UNL     1       4.239   0.513   1.612  1.00  0.00     0.257 C 
ATOM     22  H32 UNL     1       6.271   0.243   1.641  1.00  0.00     0.277 HD
ATOM     23  H31 UNL     1       5.858   1.415   0.736  1.00  0.00     0.277 HD
ENDBRANCH   3  17
TORSDOF 4
