REMARK  4 active torsions:
REMARK  status: ('A' for Active; 'I' for Inactive)
REMARK    1  A    between atoms: O1_2  and  C2_3 
REMARK    2  A    between atoms: C2_3  and  C3_4 
REMARK    3  A    between atoms: C7_8  and  N1_9 
REMARK       I    between atoms: N1_9  and  C8_11 
REMARK       I    between atoms: C8_11  and  N3_15 
REMARK    4  A    between atoms: N3_15  and  N4_17 
ROOT
HETATM    1  N1  UNL     1       2.088  -0.813  -0.188  1.00  0.00    -0.218 N 
ATOM      2  H1  UNL     1       1.827  -1.698   0.247  1.00  0.00     0.178 HD
HETATM    3  C8  UNL     1       3.174  -0.784  -1.083  1.00  0.00     0.687 C 
HETATM    4  N2  UNL     1       3.061  -1.286  -2.246  1.00  0.00    -0.234 N 
ATOM      5  H21 UNL     1       3.848  -1.265  -2.895  1.00  0.00     0.174 HD
ATOM      6  H22 UNL     1       2.181  -1.712  -2.536  1.00  0.00     0.174 HD
HETATM    7  N3  UNL     1       4.391  -0.195  -0.682  1.00  0.00    -0.119 N 
ATOM      8  H3  UNL     1       5.189  -0.811  -0.526  1.00  0.00     0.207 HD
ENDROOT
BRANCH   1   9
HETATM    9  C7  UNL     1       1.333   0.379   0.131  1.00  0.00     0.128 C 
HETATM   10  C6  UNL     1       0.724   0.948  -1.086  1.00  0.00     0.028 C 
HETATM   11  C5  UNL     1      -0.473   0.172  -1.589  1.00  0.00     0.005 C 
HETATM   12  C4  UNL     1      -1.647   0.616  -0.734  1.00  0.00     0.034 C 
HETATM   13  C3  UNL     1      -1.796  -0.376   0.386  1.00  0.00     0.145 C 
HETATM   14  O2  UNL     1      -0.651  -0.723   1.012  1.00  0.00    -0.377 OA
HETATM   15  C9  UNL     1       0.366   0.092   1.263  1.00  0.00     0.141 C 
HETATM   16  C10 UNL     1       0.115   1.335   2.081  1.00  0.00     0.041 C 
BRANCH  13  17
HETATM   17  C2  UNL     1      -2.867   0.057   1.365  1.00  0.00     0.199 C 
BRANCH  17  18
HETATM   18  O1  UNL     1      -4.061   0.381   0.788  1.00  0.00    -0.393 OA
HETATM   19  C1  UNL     1      -4.676  -0.671   0.141  1.00  0.00     0.201 C 
ENDBRANCH  17  18
ENDBRANCH  13  17
ENDBRANCH   1   9
BRANCH   7  20
HETATM   20  N4  UNL     1       4.576   1.169  -0.485  1.00  0.00    -0.235 N 
HETATM   21  N5  UNL     1       4.911   1.990  -1.377  1.00  0.00    -0.330 N 
ATOM     22  H52 UNL     1       5.054   1.609  -2.312  1.00  0.00     0.178 HD
ATOM     23  H51 UNL     1       5.047   2.991  -1.232  1.00  0.00     0.178 HD
ATOM     24  H4  UNL     1       4.428   1.532   0.457  1.00  0.00     0.208 HD
ENDBRANCH   7  20
TORSDOF 4
