REMARK  5 active torsions:
REMARK  status: ('A' for Active; 'I' for Inactive)
REMARK    1  A    between atoms: N2_7  and  C4_8 
REMARK    2  A    between atoms: C4_8  and  C5_9 
REMARK    3  A    between atoms: C5_9  and  C6_10 
REMARK    4  A    between atoms: C6_10  and  N3_11 
REMARK    5  A    between atoms: N3_11  and  C7_13 
ROOT
HETATM    1  N1  UNL     1      -3.911   2.390   0.501  1.00  0.00    -0.389 N 
ATOM      2  H11 UNL     1      -4.732   2.259   1.091  1.00  0.00     0.157 HD
ATOM      3  H12 UNL     1      -3.524   3.269   0.158  1.00  0.00     0.157 HD
HETATM    4  C1  UNL     1      -3.248   1.352   0.120  1.00  0.00     0.072 C 
HETATM    5  C2  UNL     1      -2.068   1.540  -0.728  1.00  0.00     0.106 C 
HETATM    6  C3  UNL     1      -0.818   0.915  -0.225  1.00  0.00     0.280 C 
HETATM    7  N2  UNL     1      -0.874  -0.473   0.030  1.00  0.00     0.090 N 
HETATM    8  C8  UNL     1      -2.041  -1.152  -0.408  1.00  0.00     0.292 C 
HETATM    9  C9  UNL     1      -3.107  -1.142   0.662  1.00  0.00     0.151 C 
HETATM   10  N5  UNL     1      -3.786   0.131   0.597  1.00  0.00    -0.378 N 
ATOM     11  H5  UNL     1      -4.751   0.153   0.928  1.00  0.00     0.160 HD
ENDROOT
BRANCH   7  12
HETATM   12  C4  UNL     1       0.301  -1.127  -0.481  1.00  0.00     0.274 C 
BRANCH  12  13
HETATM   13  C5  UNL     1       1.470  -0.663   0.371  1.00  0.00     0.050 C 
BRANCH  13  14
HETATM   14  C6  UNL     1       2.703  -1.344  -0.157  1.00  0.00     0.123 C 
BRANCH  14  15
HETATM   15  N3  UNL     1       3.906  -1.007   0.559  1.00  0.00    -0.369 N 
ATOM     16  H3  UNL     1       4.351  -1.727   1.128  1.00  0.00     0.161 HD
BRANCH  15  17
HETATM   17  C7  UNL     1       4.497   0.270   0.510  1.00  0.00     0.180 C 
HETATM   18  N4  UNL     1       3.924   1.305  -0.268  1.00  0.00    -0.070 NA
HETATM   19  S1  UNL     1       5.854   0.591   1.344  1.00  0.00    -0.044 SA
ENDBRANCH  15  17
ENDBRANCH  14  15
ENDBRANCH  13  14
ENDBRANCH  12  13
ENDBRANCH   7  12
TORSDOF 5
