REMARK  7 active torsions:
REMARK  status: ('A' for Active; 'I' for Inactive)
REMARK    1  A    between atoms: C4_7  and  C5_8 
REMARK    2  A    between atoms: C5_8  and  N2_9 
REMARK    3  A    between atoms: N2_9  and  C6_11 
REMARK    4  A    between atoms: C6_11  and  N3_13 
REMARK    5  A    between atoms: N3_13  and  C7_15 
REMARK    6  A    between atoms: C7_15  and  C8_16 
REMARK    7  A    between atoms: C8_16  and  O1_17 
ROOT
HETATM    1  C5  UNL     1      -0.251  -1.168  -0.988  1.00  0.00     0.154 C 
ENDROOT
BRANCH   1   2
HETATM    2  C4  UNL     1      -1.453  -0.490  -0.437  1.00  0.00     0.140 C 
HETATM    3  C3  UNL     1      -1.607   0.963  -0.712  1.00  0.00     0.039 C 
HETATM    4  C2  UNL     1      -2.838   1.469   0.050  1.00  0.00     0.057 C 
HETATM    5  C1  UNL     1      -3.653   0.342   0.578  1.00  0.00     0.004 C 
HETATM    6  N1  UNL     1      -4.919   0.321   0.555  1.00  0.00    -0.404 N 
HETATM    7  C9  UNL     1      -2.980  -0.845   1.182  1.00  0.00     0.220 C 
ATOM      8  H12 UNL     1      -5.379   1.132   0.142  1.00  0.00     0.155 HD
ATOM      9  H11 UNL     1      -5.478  -0.452   0.917  1.00  0.00     0.155 HD
HETATM   10  O2  UNL     1      -1.612  -0.780   0.940  1.00  0.00    -0.379 OA
ENDBRANCH   1   2
BRANCH   1  11
HETATM   11  N2  UNL     1       0.985  -0.811  -0.336  1.00  0.00    -0.365 N 
ATOM     12  H2  UNL     1       1.026  -0.054   0.346  1.00  0.00     0.161 HD
BRANCH  11  13
HETATM   13  C6  UNL     1       2.138  -1.554  -0.682  1.00  0.00     0.167 C 
HETATM   14  S1  UNL     1       1.969  -2.784  -1.803  1.00  0.00    -0.041 SA
BRANCH  13  15
HETATM   15  N3  UNL     1       3.422  -1.319  -0.139  1.00  0.00    -0.365 N 
ATOM     16  H3  UNL     1       4.201  -1.922  -0.405  1.00  0.00     0.161 HD
BRANCH  15  17
HETATM   17  C7  UNL     1       3.641  -0.240   0.783  1.00  0.00     0.148 C 
BRANCH  17  18
HETATM   18  C8  UNL     1       3.619   1.064  -0.018  1.00  0.00     0.183 C 
BRANCH  18  19
HETATM   19  O1  UNL     1       3.817   2.169   0.809  1.00  0.00    -0.399 OA
ATOM     20  H1  UNL     1       3.803   2.978   0.312  1.00  0.00     0.209 HD
ENDBRANCH  18  19
ENDBRANCH  17  18
ENDBRANCH  15  17
ENDBRANCH  13  15
ENDBRANCH  11  13
ENDBRANCH   1  11
TORSDOF 7
