REMARK  6 active torsions:
REMARK  status: ('A' for Active; 'I' for Inactive)
REMARK       I    between atoms: C2_2  and  N1_4 
REMARK    1  A    between atoms: N1_4  and  C3_6 
REMARK    2  A    between atoms: C4_7  and  C5_8 
REMARK    3  A    between atoms: C9_13  and  C10_14 
REMARK    4  A    between atoms: C10_14  and  O3_15 
REMARK    5  A    between atoms: C10_14  and  N2_17 
REMARK       I    between atoms: N2_17  and  C11_19 
REMARK    6  A    between atoms: N4_23  and  C13_24 
ROOT
HETATM    1  C3  UNL     1      -0.273  -0.706   0.212  1.00  0.00     0.128 A 
HETATM    2  C4  UNL     1      -1.507  -0.030   0.491  1.00  0.00     0.054 A 
HETATM    3  C9  UNL     1      -1.302   1.297   0.634  1.00  0.00     0.023 A 
HETATM    4  C12 UNL     1       0.091   1.449   0.445  1.00  0.00     0.112 A 
HETATM    5  N4  UNL     1       0.653   0.223   0.197  1.00  0.00    -0.299 N 
ENDROOT
BRANCH   5   6
HETATM    6  C13 UNL     1       2.075   0.139   0.013  1.00  0.00     0.151 A 
HETATM    7  C14 UNL     1       2.721   0.503  -1.148  1.00  0.00     0.155 A 
HETATM    8  N5  UNL     1       1.926   0.917  -2.236  1.00  0.00    -0.080 NA
HETATM    9  N6  UNL     1       4.065   0.474  -1.272  1.00  0.00    -0.290 N 
HETATM   10  C15 UNL     1       4.728   0.860  -2.503  1.00  0.00     0.162 C 
HETATM   11  C16 UNL     1       4.791   0.074  -0.216  1.00  0.00     0.332 A 
HETATM   12  O5  UNL     1       6.058   0.051  -0.344  1.00  0.00    -0.246 OA
HETATM   13  N7  UNL     1       4.191  -0.287   0.930  1.00  0.00    -0.269 N 
HETATM   14  C17 UNL     1       4.998  -0.715   2.056  1.00  0.00     0.164 C 
HETATM   15  C18 UNL     1       2.850  -0.267   1.079  1.00  0.00     0.282 A 
HETATM   16  O6  UNL     1       2.285  -0.608   2.164  1.00  0.00    -0.265 OA
ENDBRANCH   5   6
BRANCH   1  17
HETATM   17  N1  UNL     1      -0.225  -2.108   0.111  1.00  0.00    -0.312 N 
HETATM   18  C2  UNL     1       0.696  -3.002  -0.384  1.00  0.00     0.219 C 
HETATM   19  C1  UNL     1       0.438  -4.492  -0.176  1.00  0.00     0.117 C 
HETATM   20  O1  UNL     1       1.729  -2.764  -0.988  1.00  0.00    -0.274 OA
ATOM     21  H1  UNL     1      -1.057  -2.562   0.488  1.00  0.00     0.170 HD
ENDBRANCH   1  17
BRANCH   2  22
HETATM   22  C5  UNL     1      -2.796  -0.739   0.549  1.00  0.00     0.089 A 
HETATM   23  C6  UNL     1      -3.931  -0.463   1.260  1.00  0.00     0.040 A 
HETATM   24  C7  UNL     1      -4.873  -1.425   0.995  1.00  0.00     0.027 A 
HETATM   25  C8  UNL     1      -4.276  -2.286   0.110  1.00  0.00     0.142 A 
HETATM   26  O2  UNL     1      -3.074  -1.859  -0.127  1.00  0.00    -0.322 OA
ENDBRANCH   2  22
BRANCH   3  27
HETATM   27  C10 UNL     1      -2.180   2.473   0.796  1.00  0.00     0.258 C 
BRANCH  27  28
HETATM   28  O3  UNL     1      -1.509   3.542   0.028  1.00  0.00    -0.372 OA
ATOM     29  H3  UNL     1      -2.074   4.299   0.132  1.00  0.00     0.212 HD
ENDBRANCH  27  28
BRANCH  27  30
HETATM   30  N2  UNL     1      -3.429   2.395   0.016  1.00  0.00    -0.315 N 
HETATM   31  C11 UNL     1      -4.575   3.127   0.399  1.00  0.00     0.330 C 
HETATM   32  N3  UNL     1      -5.755   3.039  -0.357  1.00  0.00    -0.040 NA
HETATM   33  O4  UNL     1      -4.533   3.850   1.409  1.00  0.00    -0.251 OA
ATOM     34  H2  UNL     1      -3.466   1.803  -0.814  1.00  0.00     0.166 HD
ENDBRANCH  27  30
ENDBRANCH   3  27
TORSDOF 6
