REMARK  8 active torsions:
REMARK  status: ('A' for Active; 'I' for Inactive)
REMARK    1  A    between atoms: N3_10  and  C5_11 
REMARK    2  A    between atoms: C5_11  and  C6_12 
REMARK    3  A    between atoms: C6_12  and  C7_13 
REMARK    4  A    between atoms: C7_13  and  N4_15 
REMARK    5  A    between atoms: N4_15  and  C9_17 
REMARK    6  A    between atoms: C10_19  and  O3_20 
REMARK    7  A    between atoms: C12_23  and  C13_24 
REMARK       I    between atoms: C13_24  and  N5_26 
REMARK    8  A    between atoms: N5_26  and  C14_28 
ROOT
HETATM    1  N4  UNL     1      -1.061   1.472   0.272  1.00  0.00    -0.365 N 
ATOM      2  H4  UNL     1      -1.678   2.021  -0.327  1.00  0.00     0.162 HD
ENDROOT
BRANCH   1   3
HETATM    3  C7  UNL     1       0.296   1.925   0.466  1.00  0.00     0.081 C 
HETATM    4  C8  UNL     1       0.543   1.907   1.969  1.00  0.00     0.032 C 
BRANCH   3   5
HETATM    5  C6  UNL     1       1.344   1.248  -0.307  1.00  0.00     0.046 C 
BRANCH   5   6
HETATM    6  C5  UNL     1       1.624  -0.183  -0.089  1.00  0.00     0.153 C 
BRANCH   6   7
HETATM    7  N3  UNL     1       2.743  -0.649  -0.944  1.00  0.00    -0.272 N 
HETATM    8  N2  UNL     1       2.697  -1.149  -2.158  1.00  0.00    -0.261 N 
HETATM    9  C4  UNL     1       3.908  -1.457  -2.611  1.00  0.00     0.290 A 
ATOM     10  H2  UNL     1       1.836  -1.284  -2.689  1.00  0.00     0.190 HD
HETATM   11  C3  UNL     1       4.801  -1.125  -1.600  1.00  0.00     0.149 A 
HETATM   12  O1  UNL     1       4.259  -1.951  -3.716  1.00  0.00    -0.264 OA
HETATM   13  N1  UNL     1       6.138  -1.212  -1.489  1.00  0.00    -0.348 N 
HETATM   14  C16 UNL     1       4.038  -0.623  -0.573  1.00  0.00     0.158 A 
HETATM   15  C2  UNL     1       6.782  -0.812  -0.372  1.00  0.00     0.074 A 
ATOM     16  H1  UNL     1       6.679  -1.589  -2.267  1.00  0.00     0.166 HD
HETATM   17  C1  UNL     1       8.255  -0.897  -0.228  1.00  0.00     0.074 C 
HETATM   18  C17 UNL     1       6.016  -0.309   0.657  1.00  0.00     0.269 A 
HETATM   19  N9  UNL     1       4.697  -0.228   0.536  1.00  0.00    -0.305 N 
HETATM   20  O5  UNL     1       6.595   0.074   1.715  1.00  0.00    -0.266 OA
ATOM     21  H9  UNL     1       4.158   0.149   1.315  1.00  0.00     0.171 HD
ENDBRANCH   6   7
ENDBRANCH   5   6
ENDBRANCH   3   5
ENDBRANCH   1   3
BRANCH   1  22
HETATM   22  C9  UNL     1      -1.575   0.290   0.882  1.00  0.00     0.162 A 
HETATM   23  O2  UNL     1      -0.928  -0.506   1.721  1.00  0.00    -0.270 OA
HETATM   24  C10 UNL     1      -1.681  -1.507   2.101  1.00  0.00     0.186 A 
HETATM   25  C11 UNL     1      -2.901  -1.370   1.476  1.00  0.00     0.085 A 
HETATM   26  C12 UNL     1      -2.827  -0.215   0.695  1.00  0.00     0.088 A 
BRANCH  24  27
HETATM   27  O3  UNL     1      -1.378  -2.550   2.966  1.00  0.00    -0.341 OA
ATOM     28  H3  UNL     1      -1.924  -3.276   3.242  1.00  0.00     0.220 HD
ENDBRANCH  24  27
BRANCH  26  29
HETATM   29  C13 UNL     1      -3.956   0.263  -0.132  1.00  0.00     0.262 C 
HETATM   30  O4  UNL     1      -3.853   1.302  -0.822  1.00  0.00    -0.267 OA
HETATM   31  N5  UNL     1      -5.175  -0.438  -0.165  1.00  0.00    -0.293 N 
ATOM     32  H5  UNL     1      -5.271  -1.285   0.396  1.00  0.00     0.172 HD
BRANCH  31  33
HETATM   33  C14 UNL     1      -6.267  -0.013  -0.944  1.00  0.00     0.195 C 
HETATM   34  N6  UNL     1      -7.443  -0.629  -1.006  1.00  0.00    -0.346 N 
HETATM   35  C15 UNL     1      -8.273   0.131  -1.911  1.00  0.00     0.259 C 
ATOM     36  H6  UNL     1      -7.709  -1.479  -0.508  1.00  0.00     0.163 HD
HETATM   37  N7  UNL     1      -7.699   1.480  -1.780  1.00  0.00    -0.119 NA
HETATM   38  N8  UNL     1      -6.324   1.110  -1.797  1.00  0.00    -0.273 N 
ATOM     39  H8  UNL     1      -5.559   1.553  -2.306  1.00  0.00     0.185 HD
ENDBRANCH  31  33
ENDBRANCH  26  29
ENDBRANCH   1  22
TORSDOF 8
