REMARK  9 active torsions:
REMARK  status: ('A' for Active; 'I' for Inactive)
REMARK    1  A    between atoms: C2_2  and  O2_4 
REMARK    2  A    between atoms: O2_4  and  C3_5 
REMARK    3  A    between atoms: C3_5  and  C4_6 
REMARK    4  A    between atoms: C4_6  and  O3_7 
REMARK    5  A    between atoms: O3_7  and  N1_8 
REMARK    6  A    between atoms: C5_10  and  C7_12 
REMARK    7  A    between atoms: N3_18  and  N4_20 
REMARK       I    between atoms: N4_20  and  C10_22 
REMARK       I    between atoms: C10_22  and  N6_26 
REMARK    8  A    between atoms: N6_26  and  N7_28 
REMARK    9  A    between atoms: C11_31  and  C12_32 
REMARK       I    between atoms: C12_32  and  N8_34 
ROOT
HETATM    1  C12 UNL     1      -4.482   0.159   2.105  1.00  0.00     0.284 C 
HETATM    2  O4  UNL     1      -4.497   0.745   3.232  1.00  0.00    -0.265 OA
HETATM    3  N8  UNL     1      -5.514  -0.729   1.780  1.00  0.00    -0.258 N 
ATOM      4  H8  UNL     1      -5.502  -1.206   0.878  1.00  0.00     0.181 HD
HETATM    5  C13 UNL     1      -6.561  -0.971   2.675  1.00  0.00     0.184 C 
HETATM    6  N9  UNL     1      -7.444  -1.158   3.422  1.00  0.00    -0.172 NA
ENDROOT
BRANCH   1   7
HETATM    7  C11 UNL     1      -3.395   0.393   1.154  1.00  0.00     0.148 A 
HETATM    8  C9  UNL     1      -3.689   0.859  -0.095  1.00  0.00     0.154 A 
HETATM    9  N2  UNL     1      -2.611   0.949  -0.975  1.00  0.00    -0.332 N 
HETATM   10  N3  UNL     1      -4.737   1.261  -0.549  1.00  0.00    -0.269 N 
HETATM   11  C8  UNL     1      -1.377   0.594  -0.579  1.00  0.00     0.104 A 
ATOM     12  H2  UNL     1      -2.760   1.287  -1.926  1.00  0.00     0.168 HD
HETATM   13  S1  UNL     1       0.167   0.570  -1.365  1.00  0.00    -0.068 SA
HETATM   14  C14 UNL     1      -1.080   0.134   0.667  1.00  0.00     0.074 A 
HETATM   15  C7  UNL     1       1.115  -0.018  -0.088  1.00  0.00     0.039 A 
HETATM   16  C15 UNL     1       0.220  -0.186   0.925  1.00  0.00    -0.013 A 
HETATM   17  C16 UNL     1       0.718  -0.714   2.268  1.00  0.00     0.052 C 
HETATM   18  N10 UNL     1      -2.138   0.039   1.542  1.00  0.00    -0.346 N 
ATOM     19  H10 UNL     1      -1.979  -0.300   2.491  1.00  0.00     0.166 HD
ATOM     20  H3  UNL     1      -4.571   1.578  -1.504  1.00  0.00     0.189 HD
BRANCH  15  21
HETATM   21  C5  UNL     1       2.557  -0.276  -0.102  1.00  0.00     0.046 C 
HETATM   22  N1  UNL     1       3.179  -0.718   0.907  1.00  0.00    -0.270 N 
ATOM     23  H1  UNL     1       2.625  -0.891   1.746  1.00  0.00     0.194 HD
HETATM   24  C6  UNL     1       3.300  -0.005  -1.346  1.00  0.00     0.071 C 
BRANCH  22  25
HETATM   25  O3  UNL     1       4.499  -0.984   0.989  1.00  0.00    -0.278 OA
BRANCH  25  26
HETATM   26  C4  UNL     1       5.134  -2.114   0.433  1.00  0.00     0.228 C 
BRANCH  26  27
HETATM   27  C3  UNL     1       6.605  -2.140   0.685  1.00  0.00     0.207 C 
BRANCH  27  28
HETATM   28  O2  UNL     1       7.217  -0.995   0.123  1.00  0.00    -0.320 OA
BRANCH  28  29
HETATM   29  C2  UNL     1       8.580  -0.754   0.204  1.00  0.00     0.254 C 
HETATM   30  C1  UNL     1       9.105   0.479  -0.422  1.00  0.00     0.126 C 
HETATM   31  O1  UNL     1       9.296  -1.587   0.799  1.00  0.00    -0.266 OA
ENDBRANCH  28  29
ENDBRANCH  27  28
ENDBRANCH  26  27
ENDBRANCH  25  26
ENDBRANCH  22  25
ENDBRANCH  15  21
BRANCH  10  32
HETATM   32  N4  UNL     1      -6.018   1.442  -0.267  1.00  0.00    -0.130 N 
HETATM   33  C10 UNL     1      -7.111   1.102  -1.165  1.00  0.00     0.704 C 
HETATM   34  N5  UNL     1      -7.914   0.134  -0.950  1.00  0.00    -0.232 N 
HETATM   35  N6  UNL     1      -7.282   1.892  -2.333  1.00  0.00    -0.138 N 
ATOM     36  H52 UNL     1      -7.791  -0.433  -0.111  1.00  0.00     0.174 HD
ATOM     37  H51 UNL     1      -8.680  -0.104  -1.580  1.00  0.00     0.174 HD
ATOM     38  H6  UNL     1      -7.779   1.507  -3.136  1.00  0.00     0.205 HD
ATOM     39  H4  UNL     1      -6.254   1.846   0.639  1.00  0.00     0.205 HD
BRANCH  35  40
HETATM   40  N7  UNL     1      -6.780   3.177  -2.389  1.00  0.00    -0.331 N 
ATOM     41  H72 UNL     1      -6.285   3.547  -1.577  1.00  0.00     0.177 HD
ATOM     42  H71 UNL     1      -6.903   3.744  -3.228  1.00  0.00     0.177 HD
ENDBRANCH  35  40
ENDBRANCH  10  32
ENDBRANCH   1   7
TORSDOF 9
