REMARK  12 active torsions:
REMARK  status: ('A' for Active; 'I' for Inactive)
REMARK    1  A    between atoms: C2_2  and  N1_3 
REMARK    2  A    between atoms: N1_3  and  C3_4 
REMARK    3  A    between atoms: N1_3  and  C5_6 
REMARK    4  A    between atoms: C6_9  and  N3_10 
REMARK    5  A    between atoms: C9_18  and  O1_19 
REMARK    6  A    between atoms: C9_18  and  C10_21 
REMARK    7  A    between atoms: C10_21  and  O2_22 
REMARK    8  A    between atoms: C12_27  and  N7_28 
REMARK    9  A    between atoms: C16_36  and  N10_37 
REMARK   10  A    between atoms: N10_37  and  C17_39 
REMARK   11  A    between atoms: C17_39  and  C18_40 
REMARK   12  A    between atoms: C18_40  and  N11_41 
ROOT
HETATM    1  C5  UNL     1      -2.776   0.309  -0.327  1.00  0.00     0.698 A 
HETATM    2  N2  UNL     1      -2.849   1.626  -0.713  1.00  0.00    -0.022 N 
ATOM      3  H2  UNL     1      -3.764   2.027  -0.916  1.00  0.00     0.203 HD
HETATM    4  C6  UNL     1      -1.760   2.406  -0.833  1.00  0.00     0.692 A 
HETATM    5  N4  UNL     1      -0.564   1.862  -0.561  1.00  0.00    -0.175 N 
ATOM      6  H4  UNL     1       0.280   2.429  -0.643  1.00  0.00     0.186 HD
HETATM    7  C7  UNL     1      -0.469   0.575  -0.181  1.00  0.00     0.155 A 
HETATM    8  N5  UNL     1      -1.578  -0.190  -0.070  1.00  0.00    -0.163 N 
HETATM    9  C8  UNL     1      -1.483  -1.593   0.266  1.00  0.00     0.196 C 
HETATM   10  C9  UNL     1      -0.214  -2.037   0.869  1.00  0.00     0.139 C 
HETATM   11  C11 UNL     1       0.982  -1.227   0.579  1.00  0.00     0.082 A 
HETATM   12  N6  UNL     1       2.234  -1.741   0.797  1.00  0.00    -0.189 N 
ATOM     13  H6  UNL     1       2.340  -2.702   1.122  1.00  0.00     0.184 HD
HETATM   14  C12 UNL     1       3.319  -0.985   0.584  1.00  0.00     0.705 A 
HETATM   15  N9  UNL     1       3.206   0.303   0.151  1.00  0.00    -0.174 N 
ATOM     16  H9  UNL     1       4.047   0.859  -0.002  1.00  0.00     0.186 HD
HETATM   17  C16 UNL     1       1.999   0.847  -0.076  1.00  0.00     0.133 A 
HETATM   18  C19 UNL     1       0.856   0.063   0.141  1.00  0.00     0.080 A 
ENDROOT
BRANCH  17  19
HETATM   19  N10 UNL     1       1.789   2.043  -0.489  1.00  0.00    -0.373 N 
ATOM     20  H10 UNL     1       0.822   2.340  -0.622  1.00  0.00     0.161 HD
BRANCH  19  21
HETATM   21  C17 UNL     1       2.831   2.993  -0.777  1.00  0.00     0.148 C 
BRANCH  21  22
HETATM   22  C18 UNL     1       2.266   4.389  -0.511  1.00  0.00     0.249 C 
BRANCH  22  23
HETATM   23  N11 UNL     1       3.309   5.349  -0.817  1.00  0.00    -0.078 N 
ATOM     24 3H11 UNL     1       4.176   5.168  -0.311  1.00  0.00     0.274 HD
ATOM     25 2H11 UNL     1       3.681   5.244  -1.761  1.00  0.00     0.274 HD
ATOM     26 1H11 UNL     1       2.932   6.280  -0.640  1.00  0.00     0.274 HD
ENDBRANCH  22  23
ENDBRANCH  21  22
ENDBRANCH  19  21
ENDBRANCH  17  19
BRANCH  14  27
HETATM   27  N7  UNL     1       4.633  -1.501   0.788  1.00  0.00    -0.098 N 
HETATM   28  C13 UNL     1       5.071  -2.111   1.914  1.00  0.00     0.136 A 
HETATM   29  C14 UNL     1       6.387  -2.459   1.693  1.00  0.00     0.038 A 
HETATM   30  C15 UNL     1       6.685  -2.031   0.418  1.00  0.00     0.110 A 
HETATM   31  N8  UNL     1       5.614  -1.455  -0.115  1.00  0.00    -0.291 N 
ATOM     32  H8  UNL     1       5.552  -1.049  -1.049  1.00  0.00     0.187 HD
ENDBRANCH  14  27
BRANCH  10  33
HETATM   33  O1  UNL     1      -0.352  -2.046   2.283  1.00  0.00    -0.380 OA
ATOM     34  H1  UNL     1       0.466  -2.332   2.672  1.00  0.00     0.211 HD
ENDBRANCH  10  33
BRANCH  10  35
HETATM   35  C10 UNL     1       0.091  -3.462   0.387  1.00  0.00     0.210 C 
BRANCH  35  36
HETATM   36  O2  UNL     1       0.227  -3.362  -1.010  1.00  0.00    -0.397 OA
ATOM     37  H2  UNL     1       0.416  -4.244  -1.308  1.00  0.00     0.209 HD
ENDBRANCH  35  36
ENDBRANCH  10  35
BRANCH   4  38
HETATM   38  N3  UNL     1      -1.835   3.637  -1.188  1.00  0.00    -0.234 N 
ATOM     39  H32 UNL     1      -2.744   4.051  -1.395  1.00  0.00     0.174 HD
ATOM     40  H31 UNL     1      -1.009   4.229  -1.279  1.00  0.00     0.174 HD
ENDBRANCH   4  38
BRANCH   1  41
HETATM   41  N1  UNL     1      -4.018  -0.380  -0.250  1.00  0.00    -0.218 N 
BRANCH  41  42
HETATM   42  C2  UNL     1      -4.965   0.026   0.808  1.00  0.00     0.137 C 
HETATM   43  C1  UNL     1      -4.410   1.154   1.647  1.00  0.00     0.027 C 
ENDBRANCH  41  42
BRANCH  41  44
HETATM   44  C3  UNL     1      -4.453  -1.446  -1.108  1.00  0.00     0.137 C 
HETATM   45  C4  UNL     1      -5.614  -1.031  -1.997  1.00  0.00     0.027 C 
ENDBRANCH  41  44
ENDBRANCH   1  41
TORSDOF 12
