REMARK  7 active torsions:
REMARK  status: ('A' for Active; 'I' for Inactive)
REMARK    1  A    between atoms: C2_3  and  N2_4 
REMARK    2  A    between atoms: C4_8  and  C5_9 
REMARK    3  A    between atoms: N4_10  and  N5_12 
REMARK       I    between atoms: N5_12  and  C6_14 
REMARK    4  A    between atoms: C9_23  and  C10_24 
REMARK    5  A    between atoms: N9_25  and  N10_27 
REMARK       I    between atoms: N10_27  and  C11_29 
REMARK    6  A    between atoms: C11_29  and  C12_31 
REMARK    7  A    between atoms: C14_35  and  N12_36 
ROOT
HETATM    1  C1  UNL     1       0.090   0.485   1.835  1.00  0.00     0.161 C 
HETATM    2  N1  UNL     1      -0.192  -0.216   0.586  1.00  0.00    -0.301 N 
HETATM    3  C2  UNL     1      -1.399  -0.764   0.360  1.00  0.00     0.150 A 
HETATM    4  C7  UNL     1      -1.641  -1.415  -0.815  1.00  0.00     0.053 A 
HETATM    5  C8  UNL     1      -0.638  -1.494  -1.742  1.00  0.00     0.022 A 
HETATM    6  C9  UNL     1       0.629  -0.923  -1.512  1.00  0.00     0.049 A 
HETATM    7  C15 UNL     1       0.822  -0.282  -0.322  1.00  0.00     0.260 A 
HETATM    8  O2  UNL     1       1.898   0.247  -0.035  1.00  0.00    -0.267 OA
ENDROOT
BRANCH   3   9
HETATM    9  N2  UNL     1      -2.439  -0.672   1.342  1.00  0.00    -0.179 N 
HETATM   10  N3  UNL     1      -2.410  -1.185   2.561  1.00  0.00    -0.287 N 
HETATM   11  C3  UNL     1      -3.553  -0.908   3.210  1.00  0.00     0.141 A 
ATOM     12  H3  UNL     1      -1.631  -1.715   2.952  1.00  0.00     0.188 HD
HETATM   13  C4  UNL     1      -4.335  -0.179   2.338  1.00  0.00     0.083 A 
HETATM   14  N8  UNL     1      -3.607  -0.066   1.219  1.00  0.00    -0.275 N 
ATOM     15  H8  UNL     1      -3.915   0.425   0.380  1.00  0.00     0.189 HD
BRANCH  13  16
HETATM   16  C5  UNL     1      -5.666   0.339   2.620  1.00  0.00     0.139 C 
HETATM   17  N4  UNL     1      -6.323   1.011   1.742  1.00  0.00    -0.307 N 
ATOM     18  H4  UNL     1      -7.255   1.367   1.954  1.00  0.00     0.186 HD
BRANCH  17  19
HETATM   19  N5  UNL     1      -5.745   1.245   0.500  1.00  0.00    -0.274 N 
HETATM   20  C6  UNL     1      -6.168   0.522  -0.645  1.00  0.00     0.200 C 
HETATM   21  N6  UNL     1      -5.628   0.642  -1.797  1.00  0.00    -0.372 N 
HETATM   22  N7  UNL     1      -7.260  -0.403  -0.526  1.00  0.00    -0.062 NA
ATOM     23  H62 UNL     1      -4.852   1.299  -1.882  1.00  0.00     0.158 HD
ATOM     24  H61 UNL     1      -5.932   0.122  -2.620  1.00  0.00     0.158 HD
ATOM     25  H5  UNL     1      -5.008   1.945   0.411  1.00  0.00     0.189 HD
ENDBRANCH  17  19
ENDBRANCH  13  16
ENDBRANCH   3   9
BRANCH   6  26
HETATM   26  C10 UNL     1       1.672  -1.037  -2.541  1.00  0.00     0.124 C 
HETATM   27  N9  UNL     1       2.815  -0.638  -2.577  1.00  0.00    -0.308 N 
ATOM     28  H9  UNL     1       3.148  -0.953  -3.488  1.00  0.00     0.186 HD
BRANCH  27  29
HETATM   29  N10 UNL     1       3.856  -0.016  -2.069  1.00  0.00    -0.266 N 
HETATM   30  C11 UNL     1       4.998  -0.756  -1.629  1.00  0.00     0.278 C 
HETATM   31  O1  UNL     1       5.053  -1.997  -1.707  1.00  0.00    -0.265 OA
ATOM     32  H10 UNL     1       3.849   1.001  -1.988  1.00  0.00     0.190 HD
BRANCH  30  33
HETATM   33  C12 UNL     1       6.129  -0.004  -1.071  1.00  0.00     0.093 A 
HETATM   34  C13 UNL     1       6.275   1.346  -0.896  1.00  0.00     0.115 A 
HETATM   35  N11 UNL     1       7.386   1.779  -0.373  1.00  0.00    -0.345 N 
HETATM   36  C14 UNL     1       8.323   0.896  -0.035  1.00  0.00     0.142 A 
ATOM     37  H11 UNL     1       7.536   2.777  -0.225  1.00  0.00     0.167 HD
HETATM   38  S1  UNL     1       7.622  -0.595  -0.465  1.00  0.00    -0.048 SA
BRANCH  36  39
HETATM   39  N12 UNL     1       9.499   1.134   0.500  1.00  0.00    -0.380 N 
ATOM     40 2H12 UNL     1       9.919   2.027   0.758  1.00  0.00     0.158 HD
ATOM     41 1H12 UNL     1      10.217   0.457   0.759  1.00  0.00     0.158 HD
ENDBRANCH  36  39
ENDBRANCH  30  33
ENDBRANCH  27  29
ENDBRANCH   6  26
TORSDOF 7
