REMARK  7 active torsions:
REMARK  status: ('A' for Active; 'I' for Inactive)
REMARK    1  A    between atoms: C2_2  and  C3_4 
REMARK    2  A    between atoms: C3_4  and  N1_5 
REMARK    3  A    between atoms: N1_5  and  C4_7 
REMARK    4  A    between atoms: C4_7  and  O2_8 
REMARK    5  A    between atoms: C4_7  and  C5_10 
REMARK    6  A    between atoms: C8_18  and  C9_19 
REMARK    7  A    between atoms: C15_27  and  C16_28 
ROOT
HETATM    1  C9  UNL     1      -0.397   0.978   0.118  1.00  0.00     0.010 C 
HETATM    2  C10 UNL     1      -1.037   1.932  -0.648  1.00  0.00     0.042 C 
HETATM    3  C11 UNL     1      -2.402   2.023  -0.960  1.00  0.00     0.098 C 
HETATM    4  C12 UNL     1      -2.748   2.775  -2.120  1.00  0.00     0.103 C 
HETATM    5  N4  UNL     1      -3.027   3.401  -3.047  1.00  0.00    -0.191 NA
HETATM    6  C13 UNL     1      -3.466   1.481  -0.284  1.00  0.00     0.222 C 
HETATM    7  O3  UNL     1      -4.590   2.025  -0.387  1.00  0.00    -0.284 OA
HETATM    8  C14 UNL     1      -3.429   0.356   0.534  1.00  0.00     0.122 A 
HETATM    9  C15 UNL     1      -4.501  -0.429   0.859  1.00  0.00     0.057 A 
HETATM   10  C19 UNL     1      -4.008  -1.414   1.710  1.00  0.00     0.125 A 
HETATM   11  N7  UNL     1      -2.691  -1.224   1.885  1.00  0.00    -0.304 N 
ATOM     12  H7  UNL     1      -2.068  -1.793   2.458  1.00  0.00     0.186 HD
HETATM   13  N8  UNL     1      -2.352  -0.161   1.175  1.00  0.00    -0.262 N 
HETATM   14  C20 UNL     1      -1.057   0.285   1.142  1.00  0.00     0.130 C 
ENDROOT
BRANCH   1  15
HETATM   15  C8  UNL     1       0.999   0.662  -0.132  1.00  0.00     0.049 A 
HETATM   16  C7  UNL     1       1.676   1.296  -1.140  1.00  0.00     0.078 A 
HETATM   17  C6  UNL     1       3.019   1.018  -1.416  1.00  0.00     0.102 A 
HETATM   18  N2  UNL     1       3.617   0.104  -0.650  1.00  0.00    -0.329 N 
HETATM   19  N3  UNL     1       3.638   1.636  -2.381  1.00  0.00    -0.385 N 
HETATM   20  C5  UNL     1       2.981  -0.531   0.341  1.00  0.00     0.132 A 
ATOM     21  H2  UNL     1       4.596  -0.119  -0.827  1.00  0.00     0.168 HD
HETATM   22  N9  UNL     1       1.665  -0.241   0.590  1.00  0.00    -0.341 N 
ATOM     23  H9  UNL     1       1.183  -0.727   1.346  1.00  0.00     0.167 HD
ATOM     24  H32 UNL     1       4.617   1.433  -2.582  1.00  0.00     0.157 HD
ATOM     25  H31 UNL     1       3.181   2.335  -2.967  1.00  0.00     0.157 HD
BRANCH  20  26
HETATM   26  C4  UNL     1       3.702  -1.533   1.148  1.00  0.00     0.283 C 
BRANCH  26  27
HETATM   27  N1  UNL     1       4.987  -1.158   1.599  1.00  0.00    -0.384 N 
ATOM     28  H1  UNL     1       5.141  -0.866   2.564  1.00  0.00     0.156 HD
BRANCH  27  29
HETATM   29  C3  UNL     1       6.055  -1.200   0.670  1.00  0.00     0.195 C 
BRANCH  29  30
HETATM   30  C2  UNL     1       7.344  -0.799   1.349  1.00  0.00     0.140 C 
HETATM   31  C1  UNL     1       8.634  -0.746   0.642  1.00  0.00     0.092 C 
HETATM   32  O1  UNL     1       7.309  -0.509   2.531  1.00  0.00    -0.297 OA
ENDBRANCH  29  30
ENDBRANCH  27  29
ENDBRANCH  26  27
BRANCH  26  33
HETATM   33  O2  UNL     1       3.704  -2.806   0.536  1.00  0.00    -0.370 OA
ATOM     34  H2  UNL     1       2.840  -3.058   0.233  1.00  0.00     0.212 HD
ENDBRANCH  26  33
ENDBRANCH  20  26
ENDBRANCH   1  15
BRANCH   9  35
HETATM   35  C16 UNL     1      -5.866  -0.312   0.410  1.00  0.00     0.111 C 
HETATM   36  N5  UNL     1      -6.861  -0.347   1.258  1.00  0.00    -0.374 N 
HETATM   37  C17 UNL     1      -8.124  -0.212   0.594  1.00  0.00     0.141 C 
ATOM     38  H5  UNL     1      -6.752  -0.457   2.266  1.00  0.00     0.161 HD
HETATM   39  C18 UNL     1      -7.746   0.244  -0.788  1.00  0.00     0.141 C 
HETATM   40  N6  UNL     1      -6.374  -0.187  -0.909  1.00  0.00    -0.374 N 
ATOM     41  H6  UNL     1      -5.867  -0.367  -1.776  1.00  0.00     0.161 HD
ENDBRANCH   9  35
TORSDOF 7
