REMARK  11 active torsions:
REMARK  status: ('A' for Active; 'I' for Inactive)
REMARK    1  A    between atoms: N1_2  and  N2_4 
REMARK    2  A    between atoms: C2_6  and  N3_7 
REMARK    3  A    between atoms: C2_6  and  C8_22 
REMARK    4  A    between atoms: N3_7  and  C3_9 
REMARK    5  A    between atoms: C3_9  and  C5_11 
REMARK    6  A    between atoms: C5_11  and  O1_12 
REMARK    7  A    between atoms: C5_11  and  C6_14 
REMARK       I    between atoms: C6_14  and  N4_16 
REMARK    8  A    between atoms: N4_16  and  N5_18 
REMARK    9  A    between atoms: N5_18  and  O3_20 
REMARK   10  A    between atoms: N8_27  and  C9_28 
REMARK   11  A    between atoms: C16_41  and  O4_42 
ROOT
HETATM    1  C9  UNL     1      -3.958   0.747  -0.660  1.00  0.00     0.111 A 
HETATM    2  C10 UNL     1      -4.757   0.472   0.435  1.00  0.00    -0.007 A 
HETATM    3  C11 UNL     1      -4.151   0.133   1.726  1.00  0.00     0.052 C 
HETATM    4  C12 UNL     1      -6.135   0.513   0.326  1.00  0.00     0.068 A 
HETATM    5  C13 UNL     1      -6.930   0.220   1.488  1.00  0.00     0.101 C 
HETATM    6  N9  UNL     1      -7.592  -0.009   2.429  1.00  0.00    -0.191 NA
HETATM    7  C14 UNL     1      -6.741   0.832  -0.887  1.00  0.00     0.113 A 
HETATM    8  N10 UNL     1      -5.943   1.094  -1.932  1.00  0.00    -0.349 N 
ATOM      9  H10 UNL     1      -6.369   1.329  -2.829  1.00  0.00     0.167 HD
HETATM   10  C15 UNL     1      -4.597   1.059  -1.842  1.00  0.00     0.128 A 
HETATM   11  N11 UNL     1      -3.914   1.326  -2.903  1.00  0.00    -0.384 N 
ATOM     12 1H11 UNL     1      -4.387   1.557  -3.777  1.00  0.00     0.157 HD
ATOM     13 2H11 UNL     1      -2.897   1.300  -2.835  1.00  0.00     0.157 HD
ENDROOT
BRANCH   1  14
HETATM   14  N8  UNL     1      -2.551   0.700  -0.530  1.00  0.00    -0.213 N 
HETATM   15  N7  UNL     1      -1.732   1.717  -0.579  1.00  0.00    -0.233 N 
HETATM   16  N6  UNL     1      -0.484   1.348  -0.425  1.00  0.00    -0.278 N 
ATOM     17  H7  UNL     1      -2.029   2.683  -0.720  1.00  0.00     0.209 HD
HETATM   18  C8  UNL     1      -0.443  -0.009  -0.260  1.00  0.00     0.147 A 
ATOM     19  H6  UNL     1       0.324   1.971  -0.428  1.00  0.00     0.189 HD
HETATM   20  C16 UNL     1      -1.793  -0.377  -0.334  1.00  0.00     0.196 A 
BRANCH  18  21
HETATM   21  C2  UNL     1       0.723  -0.837  -0.036  1.00  0.00     0.149 C 
HETATM   22  N2  UNL     1       0.900  -1.916  -0.669  1.00  0.00    -0.288 N 
ATOM     23  H2  UNL     1       1.743  -2.428  -0.409  1.00  0.00     0.188 HD
BRANCH  22  24
HETATM   24  N1  UNL     1       0.146  -2.513  -1.648  1.00  0.00    -0.339 N 
HETATM   25  C1  UNL     1       0.081  -3.957  -1.708  1.00  0.00     0.167 C 
ATOM     26  H1  UNL     1      -0.363  -1.945  -2.326  1.00  0.00     0.179 HD
ENDBRANCH  22  24
BRANCH  21  27
HETATM   27  N3  UNL     1       1.678  -0.451   0.940  1.00  0.00    -0.366 N 
ATOM     28  H3  UNL     1       1.468  -0.735   1.897  1.00  0.00     0.161 HD
BRANCH  27  29
HETATM   29  C3  UNL     1       2.879   0.272   0.769  1.00  0.00     0.117 C 
HETATM   30  C4  UNL     1       2.720   1.666   0.184  1.00  0.00     0.035 C 
BRANCH  29  31
HETATM   31  C5  UNL     1       3.973  -0.419  -0.006  1.00  0.00     0.234 C 
BRANCH  31  32
HETATM   32  O1  UNL     1       3.504  -0.686  -1.291  1.00  0.00    -0.384 OA
ATOM     33  H1  UNL     1       4.193  -1.121  -1.779  1.00  0.00     0.210 HD
ENDBRANCH  31  32
BRANCH  31  34
HETATM   34  C6  UNL     1       5.177   0.439  -0.129  1.00  0.00     0.270 C 
HETATM   35  O2  UNL     1       5.495   0.842  -1.296  1.00  0.00    -0.269 OA
HETATM   36  N4  UNL     1       5.996   0.840   0.957  1.00  0.00    -0.244 N 
HETATM   37  C7  UNL     1       7.137   1.695   0.669  1.00  0.00     0.183 C 
BRANCH  36  38
HETATM   38  N5  UNL     1       5.804   0.477   2.284  1.00  0.00    -0.206 N 
ATOM     39  H5  UNL     1       5.201   1.070   2.854  1.00  0.00     0.216 HD
BRANCH  38  40
HETATM   40  O3  UNL     1       6.309  -0.509   2.821  1.00  0.00    -0.274 OA
ATOM     41  H3  UNL     1       6.178  -0.757   3.729  1.00  0.00     0.246 HD
ENDBRANCH  38  40
ENDBRANCH  36  38
ENDBRANCH  31  34
ENDBRANCH  29  31
ENDBRANCH  27  29
ENDBRANCH  21  27
ENDBRANCH  18  21
BRANCH  20  42
HETATM   42  O4  UNL     1      -2.308  -1.652  -0.225  1.00  0.00    -0.343 OA
ATOM     43  H4  UNL     1      -3.223  -1.901  -0.275  1.00  0.00     0.219 HD
ENDBRANCH  20  42
ENDBRANCH   1  14
TORSDOF 11
