REMARK  4 active torsions:
REMARK  status: ('A' for Active; 'I' for Inactive)
REMARK    1  A    between atoms: N1_4  and  C3_5 
REMARK    2  A    between atoms: C3_5  and  C4_6 
REMARK    3  A    between atoms: C4_6  and  C5_7 
REMARK    4  A    between atoms: C8_10  and  C9_11 
ROOT
HETATM    1  C5  UNL     1       0.497   0.100  -0.418  1.00  0.00    -0.010 C 
HETATM    2  C6  UNL     1      -0.222   1.427  -0.085  1.00  0.00     0.005 C 
HETATM    3  C7  UNL     1      -1.590   1.260  -0.695  1.00  0.00     0.008 C 
HETATM    4  C8  UNL     1      -2.135  -0.104  -0.382  1.00  0.00     0.024 C 
HETATM    5  C14 UNL     1      -1.491  -0.778   0.803  1.00  0.00     0.175 C 
HETATM    6  F1  UNL     1      -1.808  -0.199   1.992  1.00  0.00    -0.249 F 
HETATM    7  C15 UNL     1       0.013  -0.848   0.652  1.00  0.00     0.042 C 
ENDROOT
BRANCH   1   8
HETATM    8  C4  UNL     1       1.953   0.418  -0.378  1.00  0.00     0.035 C 
BRANCH   8   9
HETATM    9  C3  UNL     1       2.862  -0.696  -0.691  1.00  0.00     0.273 C 
BRANCH   9  10
HETATM   10  N1  UNL     1       4.239  -0.256  -0.654  1.00  0.00     0.098 N 
HETATM   11  C2  UNL     1       5.118  -1.310  -1.193  1.00  0.00     0.374 C 
HETATM   12  C1  UNL     1       6.401  -0.576  -1.497  1.00  0.00     0.246 C 
HETATM   13  O1  UNL     1       6.999  -0.658  -2.583  1.00  0.00    -0.272 OA
HETATM   14  N3  UNL     1       6.882   0.234  -0.422  1.00  0.00    -0.358 N 
HETATM   15  C17 UNL     1       6.071   0.613   0.687  1.00  0.00     0.152 C 
ATOM     16  H3  UNL     1       7.850   0.555  -0.450  1.00  0.00     0.162 HD
HETATM   17  C16 UNL     1       4.676   0.072   0.694  1.00  0.00     0.292 C 
ENDBRANCH   9  10
ENDBRANCH   8   9
ENDBRANCH   1   8
BRANCH   4  18
HETATM   18  C9  UNL     1      -3.610  -0.002  -0.304  1.00  0.00    -0.005 C 
HETATM   19  C10 UNL     1      -4.165   0.898   0.744  1.00  0.00     0.032 C 
HETATM   20  C11 UNL     1      -5.505   1.433   0.214  1.00  0.00     0.232 C 
HETATM   21  N2  UNL     1      -6.059   0.400  -0.667  1.00  0.00    -0.075 N 
HETATM   22  C12 UNL     1      -5.825  -0.941  -0.146  1.00  0.00     0.232 C 
ATOM     23  H22 UNL     1      -7.050   0.560  -0.848  1.00  0.00     0.277 HD
ATOM     24  H21 UNL     1      -5.705   0.495  -1.619  1.00  0.00     0.277 HD
HETATM   25  C13 UNL     1      -4.345  -1.322  -0.231  1.00  0.00     0.032 C 
ENDBRANCH   4  18
TORSDOF 4
