REMARK  8 active torsions:
REMARK  status: ('A' for Active; 'I' for Inactive)
REMARK    1  A    between atoms: C2_2  and  N1_3 
REMARK    2  A    between atoms: N1_3  and  C5_6 
REMARK    3  A    between atoms: C5_6  and  C6_7 
REMARK    4  A    between atoms: C8_12  and  N3_13 
REMARK    5  A    between atoms: N4_16  and  C9_17 
REMARK    6  A    between atoms: C9_17  and  C10_18 
REMARK    7  A    between atoms: C10_18  and  C11_19 
REMARK    8  A    between atoms: C11_19  and  C12_20 
ROOT
HETATM    1  C6  UNL     1      -1.178   0.820   0.327  1.00  0.00     0.095 A 
HETATM    2  C7  UNL     1      -1.193   2.227   0.217  1.00  0.00     0.144 A 
HETATM    3 CL1  UNL     1      -1.802   3.468   1.325  1.00  0.00    -0.062 Cl
HETATM    4  N2  UNL     1      -0.512   2.507  -0.934  1.00  0.00    -0.179 N 
ATOM      5  H2  UNL     1      -0.342   3.440  -1.308  1.00  0.00     0.185 HD
HETATM    6  C8  UNL     1      -0.095   1.338  -1.503  1.00  0.00     0.680 A 
HETATM    7  N4  UNL     1      -0.529   0.315  -0.661  1.00  0.00    -0.171 N 
ENDROOT
BRANCH   7   8
HETATM    8  C9  UNL     1       0.058  -1.014  -0.885  1.00  0.00     0.241 C 
BRANCH   8   9
HETATM    9  C10 UNL     1       1.528  -0.882  -0.644  1.00  0.00    -0.084 C 
BRANCH   9  10
HETATM   10  C11 UNL     1       2.766  -0.774  -0.506  1.00  0.00    -0.069 C 
BRANCH  10  11
HETATM   11  C12 UNL     1       4.226  -0.667  -0.418  1.00  0.00     0.302 C 
HETATM   12  C13 UNL     1       4.801   0.023  -1.666  1.00  0.00     0.079 C 
HETATM   13  C14 UNL     1       5.502   0.961  -0.766  1.00  0.00     0.276 C 
HETATM   14  N5  UNL     1       4.750   0.386   0.374  1.00  0.00     0.100 N 
HETATM   15  C15 UNL     1       5.717  -0.094   1.381  1.00  0.00     0.311 C 
ENDBRANCH  10  11
ENDBRANCH   9  10
ENDBRANCH   8   9
ENDBRANCH   7   8
BRANCH   1  16
HETATM   16  C5  UNL     1      -1.947   0.188   1.424  1.00  0.00     0.297 C 
BRANCH  16  17
HETATM   17  N1  UNL     1      -3.085  -0.563   1.029  1.00  0.00    -0.070 N 
HETATM   18  C3  UNL     1      -3.099  -1.616   0.104  1.00  0.00     0.272 C 
HETATM   19  C4  UNL     1      -3.637  -1.157   2.282  1.00  0.00     0.272 C 
BRANCH  17  20
HETATM   20  C2  UNL     1      -4.188   0.379   0.663  1.00  0.00     0.232 C 
HETATM   21  C1  UNL     1      -4.620   0.301  -0.754  1.00  0.00     0.035 C 
ENDBRANCH  17  20
ENDBRANCH  16  17
ENDBRANCH   1  16
BRANCH   6  22
HETATM   22  N3  UNL     1       0.385   1.268  -2.664  1.00  0.00    -0.234 N 
ATOM     23  H32 UNL     1       0.703   2.016  -3.280  1.00  0.00     0.174 HD
ATOM     24  H31 UNL     1       0.697   0.395  -3.089  1.00  0.00     0.174 HD
ENDBRANCH   6  22
TORSDOF 8
