REMARK  4 active torsions:
REMARK  status: ('A' for Active; 'I' for Inactive)
REMARK       I    between atoms: N1_2  and  C2_4 
REMARK    1  A    between atoms: C2_4  and  C3_6 
REMARK    2  A    between atoms: C6_9  and  C7_10 
REMARK    3  A    between atoms: C7_10  and  N2_11 
REMARK    4  A    between atoms: C10_15  and  C11_16 
ROOT
HETATM    1  C3  UNL     1       2.841  -0.733   0.242  1.00  0.00     0.104 C 
HETATM    2  C4  UNL     1       3.492  -1.290   1.514  1.00  0.00     0.048 C 
HETATM    3  C5  UNL     1       1.611   0.051   0.609  1.00  0.00     0.046 C 
HETATM    4  C6  UNL     1       0.420  -0.421  -0.212  1.00  0.00     0.018 C 
HETATM    5  C14 UNL     1       0.241  -1.893   0.131  1.00  0.00     0.025 C 
HETATM    6  C15 UNL     1       1.471  -2.667  -0.243  1.00  0.00     0.115 C 
HETATM    7  N3  UNL     1       2.523  -1.794  -0.666  1.00  0.00    -0.405 N 
ATOM      8  H3  UNL     1       3.012  -1.919  -1.552  1.00  0.00     0.154 HD
ENDROOT
BRANCH   4   9
HETATM    9  C7  UNL     1      -0.810   0.365   0.174  1.00  0.00     0.277 C 
BRANCH   9  10
HETATM   10  N2  UNL     1      -1.936  -0.097  -0.619  1.00  0.00     0.097 N 
HETATM   11  C8  UNL     1      -1.695   0.304  -2.016  1.00  0.00     0.295 C 
HETATM   12  C9  UNL     1      -3.205   0.466  -2.138  1.00  0.00     0.144 C 
HETATM   13 CL1  UNL     1      -3.958  -1.106  -2.426  1.00  0.00    -0.121 Cl
HETATM   14  C10 UNL     1      -3.062   0.812  -0.650  1.00  0.00     0.246 C 
BRANCH  14  15
HETATM   15  C11 UNL     1      -4.299   0.389   0.073  1.00  0.00     0.012 C 
HETATM   16  C12 UNL     1      -4.103   0.155   1.548  1.00  0.00     0.012 C 
HETATM   17  C13 UNL     1      -5.293   1.554  -0.041  1.00  0.00     0.012 C 
ENDBRANCH  14  15
ENDBRANCH   9  10
ENDBRANCH   4   9
BRANCH   1  18
HETATM   18  C2  UNL     1       3.873   0.132  -0.395  1.00  0.00     0.244 C 
HETATM   19  N1  UNL     1       4.406   1.275   0.245  1.00  0.00    -0.363 N 
HETATM   20  C1  UNL     1       5.400   2.091  -0.399  1.00  0.00     0.149 C 
ATOM     21  H1  UNL     1       4.080   1.525   1.179  1.00  0.00     0.162 HD
HETATM   22  O1  UNL     1       4.285  -0.159  -1.539  1.00  0.00    -0.271 OA
ENDBRANCH   1  18
TORSDOF 4
