REMARK  5 active torsions:
REMARK  status: ('A' for Active; 'I' for Inactive)
REMARK    1  A    between atoms: C1_2  and  C2_3 
REMARK       I    between atoms: C1_2  and  N2_18 
REMARK    2  A    between atoms: C2_3  and  N1_4 
REMARK    3  A    between atoms: C5_7  and  O2_8 
REMARK    4  A    between atoms: C5_7  and  C6_10 
REMARK    5  A    between atoms: N2_18  and  C12_20 
ROOT
HETATM    1  N1  UNL     1      -0.618   0.674   0.419  1.00  0.00     0.100 N 
HETATM    2  C3  UNL     1      -0.544  -0.085  -0.817  1.00  0.00     0.276 C 
HETATM    3  C4  UNL     1       0.980  -0.297  -0.938  1.00  0.00     0.070 C 
HETATM    4  C5  UNL     1       1.414   1.135  -0.663  1.00  0.00     0.090 C 
HETATM    5  C11 UNL     1       0.546   1.488   0.512  1.00  0.00     0.311 C 
ENDROOT
BRANCH   4   6
HETATM    6  O2  UNL     1       1.025   1.900  -1.748  1.00  0.00    -0.388 OA
ATOM      7  H2  UNL     1       1.296   2.794  -1.576  1.00  0.00     0.210 HD
ENDBRANCH   4   6
BRANCH   4   8
HETATM    8  C6  UNL     1       2.868   1.273  -0.418  1.00  0.00     0.030 C 
HETATM    9  C7  UNL     1       3.664   0.777  -1.606  1.00  0.00     0.016 C 
HETATM   10  C8  UNL     1       4.196  -0.334  -0.725  1.00  0.00     0.033 A 
HETATM   11  C9  UNL     1       3.542   0.309   0.499  1.00  0.00     0.039 A 
HETATM   12  C10 UNL     1       5.029   0.097   0.404  1.00  0.00     0.122 A 
HETATM   13 CL1  UNL     1       6.042   1.541   0.104  1.00  0.00    -0.101 Cl
HETATM   14 CL2  UNL     1       5.738  -1.147   1.415  1.00  0.00    -0.101 Cl
ENDBRANCH   4   8
BRANCH   1  15
HETATM   15  C2  UNL     1      -0.796  -0.202   1.543  1.00  0.00     0.374 C 
BRANCH  15  16
HETATM   16  C1  UNL     1      -2.148  -0.764   1.569  1.00  0.00     0.246 C 
HETATM   17  O1  UNL     1      -2.400  -1.613   2.509  1.00  0.00    -0.272 OA
HETATM   18  N2  UNL     1      -3.131  -0.408   0.636  1.00  0.00    -0.355 N 
ATOM     19  H2  UNL     1      -2.932   0.267  -0.102  1.00  0.00     0.162 HD
BRANCH  18  20
HETATM   20  C12 UNL     1      -4.452  -1.030   0.748  1.00  0.00     0.084 A 
HETATM   21  C13 UNL     1      -5.557   0.049   0.743  1.00  0.00     0.027 A 
HETATM   22  C14 UNL     1      -5.398  -0.935  -0.380  1.00  0.00     0.027 A 
ENDBRANCH  18  20
ENDBRANCH  15  16
ENDBRANCH   1  15
TORSDOF 5
