REMARK  7 active torsions:
REMARK  status: ('A' for Active; 'I' for Inactive)
REMARK    1  A    between atoms: C2_2  and  N1_3 
REMARK    2  A    between atoms: N1_3  and  C3_4 
REMARK    3  A    between atoms: N1_3  and  C6_13 
REMARK    4  A    between atoms: C3_4  and  N2_6 
REMARK       I    between atoms: N2_6  and  C4_8 
REMARK    5  A    between atoms: C4_8  and  C5_10 
REMARK    6  A    between atoms: C5_10  and  O2_11 
REMARK    7  A    between atoms: C9_16  and  C10_17 
ROOT
HETATM    1  N1  UNL     1       0.614   0.939  -0.728  1.00  0.00    -0.332 N 
ENDROOT
BRANCH   1   2
HETATM    2  C2  UNL     1       0.291   2.305  -1.279  1.00  0.00     0.123 C 
HETATM    3  C1  UNL     1       0.071   3.290  -0.184  1.00  0.00     0.026 C 
ENDBRANCH   1   2
BRANCH   1   4
HETATM    4  C3  UNL     1       1.933   0.523  -0.961  1.00  0.00     0.178 C 
HETATM    5  S1  UNL     1       2.949   1.557  -1.812  1.00  0.00    -0.041 SA
BRANCH   4   6
HETATM    6  N2  UNL     1       2.548  -0.683  -0.574  1.00  0.00    -0.302 N 
HETATM    7  C4  UNL     1       3.896  -0.983  -0.884  1.00  0.00     0.247 C 
HETATM    8  O1  UNL     1       4.612  -0.187  -1.519  1.00  0.00    -0.271 OA
ATOM      9  H2  UNL     1       2.001  -1.367  -0.050  1.00  0.00     0.171 HD
BRANCH   7  10
HETATM   10  C5  UNL     1       4.534  -2.269  -0.465  1.00  0.00     0.267 C 
BRANCH  10  11
HETATM   11  O2  UNL     1       3.686  -3.091   0.232  1.00  0.00    -0.392 OA
ATOM     12  H2  UNL     1       4.091  -3.908   0.498  1.00  0.00     0.210 HD
ENDBRANCH  10  11
ENDBRANCH   7  10
ENDBRANCH   4   6
ENDBRANCH   1   4
BRANCH   1  13
HETATM   13  C6  UNL     1      -0.487   0.358  -0.078  1.00  0.00     0.225 C 
HETATM   14  C7  UNL     1      -0.463  -1.017   0.433  1.00  0.00     0.054 C 
HETATM   15  C8  UNL     1      -1.870  -1.391   0.946  1.00  0.00     0.013 C 
HETATM   16  C9  UNL     1      -2.726  -0.145   1.061  1.00  0.00     0.043 C 
HETATM   17  C11 UNL     1      -2.771   0.596  -0.230  1.00  0.00     0.177 C 
HETATM   18  O3  UNL     1      -1.614   0.430  -0.956  1.00  0.00    -0.366 OA
BRANCH  16  19
HETATM   19  C10 UNL     1      -4.104  -0.624   1.499  1.00  0.00     0.184 C 
HETATM   20 CL1  UNL     1      -4.806  -1.749   0.317  1.00  0.00    -0.108 Cl
HETATM   21 CL2  UNL     1      -5.229   0.728   1.728  1.00  0.00    -0.108 Cl
ENDBRANCH  16  19
ENDBRANCH   1  13
TORSDOF 7
