REMARK  5 active torsions:
REMARK  status: ('A' for Active; 'I' for Inactive)
REMARK    1  A    between atoms: C2_2  and  C3_3 
REMARK    2  A    between atoms: C3_3  and  N1_4 
REMARK    3  A    between atoms: N1_4  and  C4_6 
REMARK    4  A    between atoms: C5_11  and  C6_12 
REMARK    5  A    between atoms: C6_12  and  N4_13 
ROOT
HETATM    1  C4  UNL     1       1.775  -1.091  -0.524  1.00  0.00     0.139 A 
HETATM    2  N2  UNL     1       0.851  -1.656  -1.322  1.00  0.00    -0.284 N 
ATOM      3  H2  UNL     1       1.053  -2.244  -2.131  1.00  0.00     0.188 HD
HETATM    4  N3  UNL     1      -0.359  -1.332  -0.897  1.00  0.00    -0.300 N 
ATOM      5  H3  UNL     1      -1.224  -1.642  -1.340  1.00  0.00     0.186 HD
HETATM    6  C5  UNL     1      -0.309  -0.544   0.191  1.00  0.00     0.075 A 
HETATM    7  C11 UNL     1       1.074  -0.397   0.421  1.00  0.00     0.082 A 
HETATM    8 BR1  UNL     1       1.726   0.651   1.881  1.00  0.00    -0.045 Br
ENDROOT
BRANCH   6   9
HETATM    9  C6  UNL     1      -1.396   0.042   1.004  1.00  0.00     0.332 C 
BRANCH   9  10
HETATM   10  N4  UNL     1      -2.675  -0.292   0.471  1.00  0.00     0.098 N 
HETATM   11  C7  UNL     1      -2.909   0.243  -0.843  1.00  0.00     0.299 C 
HETATM   12  C8  UNL     1      -3.894   1.380  -0.770  1.00  0.00     0.198 C 
HETATM   13  O1  UNL     1      -5.116   0.947  -0.317  1.00  0.00    -0.388 OA
HETATM   14  C9  UNL     1      -5.079  -0.088   0.578  1.00  0.00     0.198 C 
HETATM   15  C10 UNL     1      -3.771  -0.116   1.379  1.00  0.00     0.299 C 
ENDBRANCH   9  10
ENDBRANCH   6   9
BRANCH   1  16
HETATM   16  N1  UNL     1       3.007  -1.205  -0.658  1.00  0.00    -0.354 N 
ATOM     17  H1  UNL     1       3.257  -1.788  -1.457  1.00  0.00     0.166 HD
BRANCH  16  18
HETATM   18  C3  UNL     1       4.131  -0.728   0.021  1.00  0.00     0.062 C 
BRANCH  18  19
HETATM   19  C2  UNL     1       4.697   0.572  -0.485  1.00  0.00     0.040 C 
HETATM   20  C1  UNL     1       5.904   0.980   0.330  1.00  0.00     0.010 C 
ENDBRANCH  18  19
ENDBRANCH  16  18
ENDBRANCH   1  16
TORSDOF 5
