REMARK  4 active torsions:
REMARK  status: ('A' for Active; 'I' for Inactive)
REMARK    1  A    between atoms: C2_2  and  C3_3 
REMARK    2  A    between atoms: C3_3  and  C4_4 
REMARK    3  A    between atoms: C4_4  and  N1_5 
REMARK    4  A    between atoms: N4_14  and  C9_16 
ROOT
HETATM    1  N1  UNL     1      -2.792  -0.461  -0.247  1.00  0.00     0.093 N 
HETATM    2  C5  UNL     1      -2.933  -1.790  -0.744  1.00  0.00     0.279 C 
HETATM    3  C6  UNL     1      -1.993  -1.873  -1.960  1.00  0.00     0.089 C 
HETATM    4  C7  UNL     1      -0.635  -1.403  -1.510  1.00  0.00     0.039 A 
HETATM    5  N2  UNL     1       0.552  -1.634  -2.130  1.00  0.00    -0.303 N 
ATOM      6  H2  UNL     1       0.697  -2.158  -2.993  1.00  0.00     0.186 HD
HETATM    7  N3  UNL     1       1.485  -1.045  -1.394  1.00  0.00    -0.285 N 
ATOM      8  H3  UNL     1       2.483  -1.044  -1.605  1.00  0.00     0.188 HD
HETATM    9  C8  UNL     1       0.913  -0.441  -0.314  1.00  0.00     0.126 A 
HETATM   10  N4  UNL     1       1.499   0.225   0.620  1.00  0.00    -0.369 N 
ATOM     11  H4  UNL     1       0.966   0.637   1.386  1.00  0.00     0.161 HD
HETATM   12  C15 UNL     1      -0.442  -0.661  -0.375  1.00  0.00     0.039 A 
HETATM   13  C16 UNL     1      -1.578  -0.282   0.477  1.00  0.00     0.317 C 
ENDROOT
BRANCH  10  14
HETATM   14  C9  UNL     1       2.923   0.369   0.548  1.00  0.00     0.092 C 
HETATM   15  C10 UNL     1       3.486   1.522   1.313  1.00  0.00     0.070 C 
HETATM   16  C11 UNL     1       4.958   1.595   1.055  1.00  0.00     0.064 C 
HETATM   17  N5  UNL     1       5.541   0.520   0.364  1.00  0.00    -0.378 N 
HETATM   18  C12 UNL     1       6.016   0.783  -0.949  1.00  0.00     0.154 C 
HETATM   19  C13 UNL     1       5.085  -0.786   0.619  1.00  0.00     0.064 C 
HETATM   20  C14 UNL     1       3.633  -0.882   1.013  1.00  0.00     0.070 C 
ENDBRANCH  10  14
BRANCH   1  21
HETATM   21  C4  UNL     1      -3.952   0.061   0.406  1.00  0.00     0.272 C 
BRANCH  21  22
HETATM   22  C3  UNL     1      -5.043   0.277  -0.615  1.00  0.00     0.030 C 
BRANCH  22  23
HETATM   23  C2  UNL     1      -6.305   0.822   0.030  1.00  0.00    -0.003 C 
HETATM   24  C1  UNL     1      -6.074   2.142   0.716  1.00  0.00     0.005 C 
ENDBRANCH  22  23
ENDBRANCH  21  22
ENDBRANCH   1  21
TORSDOF 4
