REMARK  5 active torsions:
REMARK  status: ('A' for Active; 'I' for Inactive)
REMARK    1  A    between atoms: N2_8  and  C5_9 
REMARK    2  A    between atoms: C5_9  and  C6_10 
REMARK    3  A    between atoms: C6_10  and  C7_11 
REMARK    4  A    between atoms: C7_11  and  N3_12 
REMARK    5  A    between atoms: C10_15  and  O2_16 
ROOT
HETATM    1  C6  UNL     1       0.528   0.245  -0.431  1.00  0.00     0.050 C 
ENDROOT
BRANCH   1   2
HETATM    2  C5  UNL     1       1.482   0.487  -1.593  1.00  0.00     0.138 C 
BRANCH   2   3
HETATM    3  N2  UNL     1       2.854   0.249  -1.194  1.00  0.00    -0.268 N 
HETATM    4  C4  UNL     1       3.542  -1.015  -1.290  1.00  0.00     0.326 C 
HETATM    5  N1  UNL     1       4.861  -0.822  -0.795  1.00  0.00    -0.325 N 
HETATM    6  O1  UNL     1       3.051  -2.086  -1.734  1.00  0.00    -0.247 OA
HETATM    7  C2  UNL     1       4.737   0.301   0.141  1.00  0.00     0.108 C 
ATOM      8  H1  UNL     1       5.703  -1.346  -1.036  1.00  0.00     0.165 HD
HETATM    9  C1  UNL     1       3.998  -0.175   1.369  1.00  0.00     0.049 C 
HETATM   10  C3  UNL     1       6.062   0.922   0.420  1.00  0.00     0.049 C 
HETATM   11  C15 UNL     1       3.807   1.168  -0.634  1.00  0.00     0.255 C 
HETATM   12  O3  UNL     1       3.775   2.399  -0.816  1.00  0.00    -0.270 OA
ENDBRANCH   2   3
ENDBRANCH   1   2
BRANCH   1  13
HETATM   13  C7  UNL     1      -0.907   0.489  -0.845  1.00  0.00     0.274 C 
BRANCH  13  14
HETATM   14  N3  UNL     1      -1.746   0.255   0.278  1.00  0.00     0.096 N 
HETATM   15  C8  UNL     1      -1.821  -1.124   0.707  1.00  0.00     0.276 C 
HETATM   16  C9  UNL     1      -2.817  -0.973   1.869  1.00  0.00     0.073 C 
HETATM   17  C10 UNL     1      -3.880  -0.116   1.170  1.00  0.00     0.121 C 
HETATM   18  C11 UNL     1      -4.801  -1.005   0.389  1.00  0.00     0.206 C 
HETATM   19  C14 UNL     1      -3.101   0.724   0.155  1.00  0.00     0.260 C 
HETATM   20  F1  UNL     1      -5.983  -1.280   1.071  1.00  0.00    -0.246 F 
HETATM   21  C12 UNL     1      -5.052  -0.242  -0.867  1.00  0.00     0.042 C 
HETATM   22  C13 UNL     1      -3.747   0.490  -1.165  1.00  0.00     0.042 C 
BRANCH  17  23
HETATM   23  O2  UNL     1      -4.531   0.725   2.040  1.00  0.00    -0.385 OA
ATOM     24  H2  UNL     1      -5.189   1.256   1.607  1.00  0.00     0.210 HD
ENDBRANCH  17  23
ENDBRANCH  13  14
ENDBRANCH   1  13
TORSDOF 5
