REMARK  5 active torsions:
REMARK  status: ('A' for Active; 'I' for Inactive)
REMARK    1  A    between atoms: C2_2  and  N1_4 
REMARK    2  A    between atoms: N1_4  and  C4_6 
REMARK    3  A    between atoms: N3_14  and  C8_16 
REMARK    4  A    between atoms: C8_16  and  C9_17 
REMARK    5  A    between atoms: C9_17  and  N4_18 
ROOT
HETATM    1  C4  UNL     1      -2.185   0.010  -0.281  1.00  0.00     0.681 A 
HETATM    2  N2  UNL     1      -2.225  -0.421   0.987  1.00  0.00    -0.180 N 
ATOM      3  H2  UNL     1      -3.116  -0.388   1.483  1.00  0.00     0.185 HD
HETATM    4  C5  UNL     1      -1.144  -0.897   1.639  1.00  0.00     0.140 A 
HETATM    5 CL1  UNL     1      -1.275  -1.437   3.281  1.00  0.00    -0.062 Cl
HETATM    6  C6  UNL     1       0.054  -0.924   0.919  1.00  0.00     0.094 A 
HETATM    7 BR1  UNL     1       1.546  -1.602   1.882  1.00  0.00    -0.044 Br
HETATM    8  C7  UNL     1       0.138  -0.494  -0.376  1.00  0.00     0.137 A 
HETATM    9  N3  UNL     1       1.144  -0.487  -1.065  1.00  0.00    -0.373 N 
ATOM     10  H3  UNL     1       0.895  -0.111  -1.980  1.00  0.00     0.161 HD
HETATM   11  N5  UNL     1      -1.013  -0.029  -0.948  1.00  0.00    -0.176 N 
ATOM     12  H5  UNL     1      -0.985   0.300  -1.913  1.00  0.00     0.186 HD
ENDROOT
BRANCH   9  13
HETATM   13  C8  UNL     1       2.494  -0.793  -1.083  1.00  0.00     0.151 C 
BRANCH  13  14
HETATM   14  C9  UNL     1       3.259   0.483  -0.689  1.00  0.00     0.290 C 
BRANCH  14  15
HETATM   15  N4  UNL     1       4.668   0.297  -0.676  1.00  0.00     0.081 N 
HETATM   16  C10 UNL     1       5.274   1.558  -0.295  1.00  0.00     0.309 C 
HETATM   17  C11 UNL     1       5.128  -0.718   0.230  1.00  0.00     0.309 C 
ENDBRANCH  14  15
ENDBRANCH  13  14
ENDBRANCH   9  13
BRANCH   1  18
HETATM   18  N1  UNL     1      -3.226   0.461  -0.888  1.00  0.00    -0.222 N 
ATOM     19  H1  UNL     1      -3.150   0.779  -1.854  1.00  0.00     0.178 HD
BRANCH  18  20
HETATM   20  C2  UNL     1      -4.491   0.521  -0.219  1.00  0.00     0.091 C 
HETATM   21  C1  UNL     1      -5.470   1.416  -0.985  1.00  0.00     0.032 C 
HETATM   22  C3  UNL     1      -5.071  -0.899  -0.231  1.00  0.00     0.032 C 
ENDBRANCH  18  20
ENDBRANCH   1  18
TORSDOF 5
