REMARK  4 active torsions:
REMARK  status: ('A' for Active; 'I' for Inactive)
REMARK    1  A    between atoms: C2_2  and  C3_3 
REMARK    2  A    between atoms: C4_4  and  C5_5 
REMARK       I    between atoms: C5_5  and  N1_7 
REMARK    3  A    between atoms: N1_7  and  C6_9 
REMARK    4  A    between atoms: N2_12  and  C9_13 
ROOT
HETATM    1  C5  UNL     1       1.578   0.453   1.454  1.00  0.00     0.249 C 
HETATM    2  O1  UNL     1       1.697  -0.351   2.414  1.00  0.00    -0.271 OA
HETATM    3  N1  UNL     1       0.299   0.737   0.955  1.00  0.00    -0.350 N 
ATOM      4  H1  UNL     1       0.221   1.391   0.176  1.00  0.00     0.163 HD
ENDROOT
BRANCH   1   5
HETATM    5  C4  UNL     1       2.767   1.075   0.875  1.00  0.00     0.287 C 
HETATM    6  C3  UNL     1       3.021   0.610  -0.583  1.00  0.00     0.088 C 
HETATM    7  C15 UNL     1       4.372   1.244  -0.752  1.00  0.00     0.146 C 
HETATM    8  C14 UNL     1       5.052   1.059   0.580  1.00  0.00     0.276 C 
HETATM    9 CL1  UNL     1       5.353   0.641  -2.055  1.00  0.00    -0.099 Cl
HETATM   10 CL2  UNL     1       4.123   3.016  -0.958  1.00  0.00    -0.099 Cl
HETATM   11  N3  UNL     1       4.001   0.690   1.484  1.00  0.00    -0.059 N 
ATOM     12  H32 UNL     1       4.123   1.078   2.419  1.00  0.00     0.278 HD
ATOM     13  H31 UNL     1       4.027  -0.295   1.747  1.00  0.00     0.278 HD
BRANCH   6  14
HETATM   14  C2  UNL     1       2.960  -0.844  -0.564  1.00  0.00    -0.027 C 
HETATM   15  C1  UNL     1       3.924  -1.719  -0.644  1.00  0.00     0.007 C 
ENDBRANCH   6  14
ENDBRANCH   1   5
BRANCH   3  16
HETATM   16  C6  UNL     1      -0.923   0.154   1.484  1.00  0.00     0.128 C 
HETATM   17  C7  UNL     1      -1.917   1.212   1.890  1.00  0.00     0.075 C 
HETATM   18  C8  UNL     1      -2.967   1.218   0.802  1.00  0.00     0.066 C 
HETATM   19  N2  UNL     1      -2.720   0.116   0.028  1.00  0.00    -0.367 N 
HETATM   20  C13 UNL     1      -1.654  -0.674   0.444  1.00  0.00     0.089 C 
BRANCH  19  21
HETATM   21  C9  UNL     1      -3.484  -0.231  -1.079  1.00  0.00     0.088 C 
HETATM   22  C10 UNL     1      -4.921  -0.567  -0.948  1.00  0.00     0.026 C 
HETATM   23  C11 UNL     1      -4.572  -2.030  -1.034  1.00  0.00     0.004 C 
HETATM   24  C12 UNL     1      -3.270  -1.606  -1.682  1.00  0.00     0.026 C 
ENDBRANCH  19  21
ENDBRANCH   3  16
TORSDOF 4
