REMARK  6 active torsions:
REMARK  status: ('A' for Active; 'I' for Inactive)
REMARK    1  A    between atoms: C3_4  and  O1_5 
REMARK    2  A    between atoms: C3_4  and  C4_7 
REMARK    3  A    between atoms: C4_7  and  N1_9 
REMARK    4  A    between atoms: C6_10  and  C7_11 
REMARK       I    between atoms: C7_11  and  N2_13 
REMARK    5  A    between atoms: C14_24  and  C15_25 
REMARK    6  A    between atoms: C15_25  and  O3_27 
ROOT
HETATM    1  N1  UNL     1      -1.116  -0.042  -0.221  1.00  0.00    -0.258 NA
HETATM    2  C6  UNL     1       0.337  -0.012  -0.507  1.00  0.00     0.161 C 
HETATM    3  C12 UNL     1       0.505  -1.219  -1.445  1.00  0.00     0.110 C 
HETATM    4  C13 UNL     1      -0.401  -2.206  -0.694  1.00  0.00     0.264 C 
HETATM    5  F4  UNL     1       0.436  -2.900   0.133  1.00  0.00    -0.204 F 
HETATM    6  F5  UNL     1      -0.979  -2.971  -1.675  1.00  0.00    -0.204 F 
HETATM    7  C14 UNL     1      -1.393  -1.337   0.054  1.00  0.00     0.164 C 
ENDROOT
BRANCH   2   8
HETATM    8  C7  UNL     1       1.191  -0.217   0.643  1.00  0.00     0.238 C 
HETATM    9  O2  UNL     1       0.792  -0.502   1.818  1.00  0.00    -0.272 OA
HETATM   10  N2  UNL     1       2.602  -0.102   0.505  1.00  0.00    -0.345 N 
HETATM   11  C8  UNL     1       3.648  -0.272   1.498  1.00  0.00     0.132 C 
HETATM   12  C11 UNL     1       3.283   0.237  -0.720  1.00  0.00     0.204 C 
HETATM   13  C9  UNL     1       4.631   0.803   1.133  1.00  0.00     0.100 C 
HETATM   14  C10 UNL     1       4.314   1.253  -0.267  1.00  0.00     0.261 C 
HETATM   15  F2  UNL     1       5.425   1.263  -1.084  1.00  0.00    -0.204 F 
HETATM   16  F3  UNL     1       3.731   2.503  -0.186  1.00  0.00    -0.204 F 
ENDBRANCH   2   8
BRANCH   1  17
HETATM   17  C4  UNL     1      -1.691   0.850  -1.078  1.00  0.00     0.021 C 
HETATM   18  C5  UNL     1      -3.113   0.923  -1.449  1.00  0.00     0.065 C 
BRANCH  17  19
HETATM   19  C3  UNL     1      -1.239   2.252  -0.847  1.00  0.00     0.116 C 
HETATM   20  C2  UNL     1      -1.189   2.860   0.315  1.00  0.00     0.124 C 
HETATM   21  C1  UNL     1      -1.576   2.258   1.620  1.00  0.00     0.085 C 
HETATM   22  F1  UNL     1      -0.750   4.155   0.368  1.00  0.00    -0.208 F 
BRANCH  19  23
HETATM   23  O1  UNL     1      -0.815   3.063  -1.922  1.00  0.00    -0.357 OA
ATOM     24  H1  UNL     1      -0.851   2.623  -2.763  1.00  0.00     0.218 HD
ENDBRANCH  19  23
ENDBRANCH  17  19
ENDBRANCH   1  17
BRANCH   7  25
HETATM   25  C15 UNL     1      -2.747  -1.957  -0.159  1.00  0.00     0.138 C 
HETATM   26  C16 UNL     1      -2.782  -3.378   0.432  1.00  0.00     0.041 C 
BRANCH  25  27
HETATM   27  O3  UNL     1      -3.646  -1.249   0.647  1.00  0.00    -0.394 OA
ATOM     28  H3  UNL     1      -4.501  -1.641   0.512  1.00  0.00     0.210 HD
ENDBRANCH  25  27
ENDBRANCH   7  25
TORSDOF 6
