REMARK  10 active torsions:
REMARK  status: ('A' for Active; 'I' for Inactive)
REMARK    1  A    between atoms: N1_1  and  C1_5 
REMARK    2  A    between atoms: N2_8  and  C4_9 
REMARK    3  A    between atoms: C4_9  and  O1_10 
REMARK    4  A    between atoms: C4_9  and  C5_12 
REMARK    5  A    between atoms: C5_12  and  N3_13 
REMARK    6  A    between atoms: N3_13  and  C6_16 
REMARK    7  A    between atoms: C6_16  and  C7_18 
REMARK    8  A    between atoms: C6_16  and  C10_22 
REMARK    9  A    between atoms: C8_19  and  C9_20 
REMARK   10  A    between atoms: C11_24  and  C12_25 
ROOT
HETATM    1  N3  UNL     1      -0.195   0.951   0.442  1.00  0.00    -0.028 N 
ATOM      2  H31 UNL     1       0.192   0.453   1.244  1.00  0.00     0.281 HD
ATOM      3  H32 UNL     1      -0.085   0.231  -0.272  1.00  0.00     0.281 HD
ENDROOT
BRANCH   1   4
HETATM    4  C5  UNL     1       0.584   2.088   0.133  1.00  0.00     0.319 C 
BRANCH   4   5
HETATM    5  C4  UNL     1       1.975   1.776  -0.166  1.00  0.00     0.139 C 
BRANCH   5   6
HETATM    6  N2  UNL     1       2.648   0.550  -0.241  1.00  0.00    -0.364 N 
HETATM    7  C3  UNL     1       1.994  -0.703  -0.081  1.00  0.00     0.127 C 
HETATM    8  C2  UNL     1       2.775  -1.882  -0.696  1.00  0.00     0.052 C 
HETATM    9  C1  UNL     1       4.199  -1.793  -0.275  1.00  0.00     0.186 C 
HETATM   10  C16 UNL     1       4.758  -0.554  -0.964  1.00  0.00     0.052 C 
HETATM   11  C15 UNL     1       4.095   0.664  -0.467  1.00  0.00     0.127 C 
BRANCH   9  12
HETATM   12  N1  UNL     1       4.384  -1.682   1.148  1.00  0.00    -0.075 N 
ATOM     13  H13 UNL     1       3.852  -0.894   1.518  1.00  0.00     0.274 HD
ATOM     14  H12 UNL     1       3.915  -2.449   1.631  1.00  0.00     0.274 HD
ATOM     15  H11 UNL     1       5.360  -1.621   1.437  1.00  0.00     0.274 HD
ENDBRANCH   9  12
ENDBRANCH   5   6
BRANCH   5  16
HETATM   16  O1  UNL     1       2.728   2.827  -0.407  1.00  0.00    -0.348 OA
ATOM     17  H1  UNL     1       2.272   3.659  -0.356  1.00  0.00     0.219 HD
ENDBRANCH   5  16
ENDBRANCH   4   5
ENDBRANCH   1   4
BRANCH   1  18
HETATM   18  C6  UNL     1      -1.605   1.259   0.655  1.00  0.00     0.317 C 
HETATM   19 CL1  UNL     1      -1.665   2.428   2.002  1.00  0.00    -0.066 Cl
BRANCH  18  20
HETATM   20  C7  UNL     1      -2.230   1.800  -0.548  1.00  0.00    -0.041 C 
HETATM   21  C8  UNL     1      -2.732   2.252  -1.564  1.00  0.00    -0.071 C 
BRANCH  21  22
HETATM   22  C9  UNL     1      -3.317   2.807  -2.797  1.00  0.00     0.315 C 
HETATM   23  F1  UNL     1      -4.676   2.639  -2.704  1.00  0.00    -0.242 F 
ENDBRANCH  21  22
ENDBRANCH  18  20
BRANCH  18  24
HETATM   24  C10 UNL     1      -2.268  -0.017   0.995  1.00  0.00     0.157 C 
HETATM   25  F2  UNL     1      -1.810  -0.670   2.101  1.00  0.00    -0.206 F 
HETATM   26  C11 UNL     1      -3.262  -0.551   0.306  1.00  0.00     0.059 C 
BRANCH  26  27
HETATM   27  C12 UNL     1      -3.859  -1.827   0.723  1.00  0.00     0.124 A 
HETATM   28  F3  UNL     1      -2.987  -2.888   0.777  1.00  0.00    -0.238 F 
HETATM   29  C13 UNL     1      -4.921  -1.704   1.797  1.00  0.00     0.051 A 
HETATM   30  C14 UNL     1      -5.274  -2.152   0.405  1.00  0.00     0.051 A 
ENDBRANCH  26  27
ENDBRANCH  18  24
ENDBRANCH   1  18
TORSDOF 10
