REMARK  17 active torsions:
REMARK  status: ('A' for Active; 'I' for Inactive)
REMARK    1  A    between atoms: N1_1  and  C1_4 
REMARK    2  A    between atoms: C7_18  and  C8_19 
REMARK       I    between atoms: C8_19  and  N5_21 
REMARK    3  A    between atoms: N5_21  and  C9_23 
REMARK    4  A    between atoms: C9_23  and  C10_24 
REMARK    5  A    between atoms: C10_24  and  C11_25 
REMARK    6  A    between atoms: C11_25  and  C12_26 
REMARK    7  A    between atoms: C12_26  and  C13_27 
REMARK    8  A    between atoms: C13_27  and  C14_28 
REMARK    9  A    between atoms: C14_28  and  C15_29 
REMARK   10  A    between atoms: C15_29  and  C16_30 
REMARK   11  A    between atoms: C16_30  and  C17_31 
REMARK   12  A    between atoms: C17_31  and  C18_32 
REMARK   13  A    between atoms: C18_32  and  C19_33 
REMARK   14  A    between atoms: C19_33  and  C20_34 
REMARK   15  A    between atoms: C20_34  and  C21_35 
REMARK       I    between atoms: C21_35  and  N6_37 
REMARK   16  A    between atoms: N6_37  and  C22_39 
REMARK   17  A    between atoms: C22_39  and  C23_40 
REMARK       I    between atoms: C23_40  and  N7_42 
ROOT
HETATM    1  C10 UNL     1       4.893  -3.095  -1.001  1.00  0.00     0.020 C 
ENDROOT
BRANCH   1   2
HETATM    2  C9  UNL     1       4.433  -1.878  -0.289  1.00  0.00     0.122 C 
BRANCH   2   3
HETATM    3  N5  UNL     1       5.612  -1.043  -0.067  1.00  0.00    -0.359 N 
HETATM    4  C8  UNL     1       5.586   0.189   0.646  1.00  0.00     0.254 C 
HETATM    5  O2  UNL     1       4.499   0.583   1.124  1.00  0.00    -0.271 OA
ATOM      6  H5  UNL     1       6.505  -1.361  -0.445  1.00  0.00     0.162 HD
BRANCH   4   7
HETATM    7  C7  UNL     1       6.832   0.990   0.820  1.00  0.00     0.327 C 
HETATM    8  C2  UNL     1       6.962   1.911  -0.354  1.00  0.00     0.078 A 
HETATM    9  N2  UNL     1       6.281   1.812  -1.498  1.00  0.00    -0.192 N 
HETATM   10  C3  UNL     1       7.849   2.962  -0.191  1.00  0.00     0.038 A 
HETATM   11  C1  UNL     1       6.446   2.727  -2.496  1.00  0.00     0.679 A 
ATOM     12  H2  UNL     1       5.627   1.040  -1.628  1.00  0.00     0.184 HD
HETATM   13  N3  UNL     1       7.305   3.739  -2.328  1.00  0.00    -0.156 N 
HETATM   14  C4  UNL     1       8.022   3.891  -1.199  1.00  0.00     0.268 A 
ATOM     15  H3  UNL     1       7.420   4.418  -3.080  1.00  0.00     0.187 HD
HETATM   16  O1  UNL     1       8.835   4.863  -1.060  1.00  0.00    -0.267 OA
HETATM   17  C5  UNL     1       8.607   3.074   1.072  1.00  0.00     0.074 C 
HETATM   18  C6  UNL     1       7.841   2.617   2.252  1.00  0.00     0.238 C 
HETATM   19  N4  UNL     1       6.613   1.920   1.930  1.00  0.00    -0.057 N 
ATOM     20  H42 UNL     1       6.216   1.453   2.745  1.00  0.00     0.278 HD
ATOM     21  H41 UNL     1       5.848   2.567   1.739  1.00  0.00     0.278 HD
BRANCH  11  22
HETATM   22  N1  UNL     1       5.759   2.613  -3.591  1.00  0.00    -0.234 N 
ATOM     23  H12 UNL     1       5.104   1.842  -3.719  1.00  0.00     0.174 HD
ATOM     24  H11 UNL     1       5.882   3.297  -4.337  1.00  0.00     0.174 HD
ENDBRANCH  11  22
ENDBRANCH   4   7
ENDBRANCH   2   3
ENDBRANCH   1   2
BRANCH   1  25
HETATM   25  C11 UNL     1       3.921  -4.151  -1.343  1.00  0.00     0.002 C 
BRANCH  25  26
HETATM   26  C12 UNL     1       2.833  -3.915  -2.286  1.00  0.00     0.000 C 
BRANCH  26  27
HETATM   27  C13 UNL     1       1.805  -2.892  -2.073  1.00  0.00     0.000 C 
BRANCH  27  28
HETATM   28  C14 UNL     1       0.978  -2.980  -0.837  1.00  0.00     0.000 C 
BRANCH  28  29
HETATM   29  C15 UNL     1       0.198  -4.291  -0.754  1.00  0.00     0.000 C 
BRANCH  29  30
HETATM   30  C16 UNL     1      -0.614  -4.295   0.517  1.00  0.00     0.000 C 
BRANCH  30  31
HETATM   31  C17 UNL     1      -1.614  -3.161   0.567  1.00  0.00     0.000 C 
BRANCH  31  32
HETATM   32  C18 UNL     1      -2.577  -3.315  -0.571  1.00  0.00     0.000 C 
BRANCH  32  33
HETATM   33  C19 UNL     1      -3.585  -2.213  -0.592  1.00  0.00     0.009 C 
BRANCH  33  34
HETATM   34  C20 UNL     1      -4.404  -2.117   0.675  1.00  0.00     0.103 C 
BRANCH  34  35
HETATM   35  C21 UNL     1      -5.406  -1.023   0.572  1.00  0.00     0.217 C 
HETATM   36  O3  UNL     1      -5.613  -0.464  -0.516  1.00  0.00    -0.274 OA
HETATM   37  N6  UNL     1      -6.124  -0.614   1.722  1.00  0.00    -0.352 N 
ATOM     38  H6  UNL     1      -5.920  -1.102   2.594  1.00  0.00     0.162 HD
BRANCH  37  39
HETATM   39  C22 UNL     1      -7.111   0.423   1.772  1.00  0.00     0.225 C 
BRANCH  39  40
HETATM   40  C23 UNL     1      -6.633   1.752   1.377  1.00  0.00     0.237 C 
HETATM   41  O4  UNL     1      -5.445   1.908   1.020  1.00  0.00    -0.272 OA
HETATM   42  N7  UNL     1      -7.488   2.892   1.385  1.00  0.00    -0.351 N 
HETATM   43  C24 UNL     1      -8.840   2.708   1.857  1.00  0.00     0.126 C 
HETATM   44  C28 UNL     1      -6.957   4.135   0.911  1.00  0.00     0.126 C 
HETATM   45  C25 UNL     1      -9.856   3.379   0.978  1.00  0.00     0.020 C 
HETATM   46  C26 UNL     1      -9.234   4.365   0.029  1.00  0.00     0.003 C 
HETATM   47  C27 UNL     1      -8.066   5.098   0.628  1.00  0.00     0.020 C 
ENDBRANCH  39  40
ENDBRANCH  37  39
ENDBRANCH  34  35
ENDBRANCH  33  34
ENDBRANCH  32  33
ENDBRANCH  31  32
ENDBRANCH  30  31
ENDBRANCH  29  30
ENDBRANCH  28  29
ENDBRANCH  27  28
ENDBRANCH  26  27
ENDBRANCH  25  26
ENDBRANCH   1  25
TORSDOF 17
