REMARK  20 active torsions:
REMARK  status: ('A' for Active; 'I' for Inactive)
REMARK    1  A    between atoms: C2_2  and  N1_3 
REMARK       I    between atoms: C3_5  and  N3_7 
REMARK    2  A    between atoms: N3_7  and  C4_9 
REMARK    3  A    between atoms: C4_9  and  C5_10 
REMARK    4  A    between atoms: C5_10  and  C6_11 
REMARK    5  A    between atoms: C6_11  and  C7_12 
REMARK    6  A    between atoms: C7_12  and  C8_13 
REMARK    7  A    between atoms: N4_16  and  C11_17 
REMARK    8  A    between atoms: C11_17  and  O1_18 
REMARK    9  A    between atoms: C12_20  and  C13_21 
REMARK   10  A    between atoms: C12_20  and  N6_34 
REMARK   11  A    between atoms: C13_21  and  C14_22 
REMARK   12  A    between atoms: C18_26  and  C19_27 
REMARK   13  A    between atoms: C19_27  and  N5_28 
REMARK       I    between atoms: N6_34  and  C22_36 
REMARK   14  A    between atoms: C22_36  and  C23_38 
REMARK   15  A    between atoms: C23_38  and  N7_39 
REMARK   16  A    between atoms: C23_38  and  C24_43 
REMARK   17  A    between atoms: C24_43  and  C25_44 
REMARK   18  A    between atoms: C25_44  and  C26_45 
REMARK   19  A    between atoms: C26_45  and  C27_46 
REMARK   20  A    between atoms: C27_46  and  N8_47 
ROOT
HETATM    1  C11 UNL     1      -0.952   0.932  -0.735  1.00  0.00     0.161 C 
HETATM    2  C12 UNL     1      -2.358   0.892  -0.419  1.00  0.00     0.063 C 
ENDROOT
BRANCH   2   3
HETATM    3  C13 UNL     1      -3.079  -0.253   0.165  1.00  0.00     0.066 C 
BRANCH   3   4
HETATM    4  C14 UNL     1      -3.172  -1.460  -0.722  1.00  0.00    -0.009 C 
HETATM    5  C15 UNL     1      -1.946  -2.102  -1.183  1.00  0.00     0.005 C 
HETATM    6  C16 UNL     1      -2.342  -3.282  -2.071  1.00  0.00     0.001 C 
HETATM    7  C17 UNL     1      -2.277  -4.593  -1.342  1.00  0.00     0.006 C 
HETATM    8  C18 UNL     1      -3.336  -4.793  -0.308  1.00  0.00     0.011 C 
HETATM    9  C20 UNL     1      -3.550  -3.582   0.563  1.00  0.00     0.006 C 
HETATM   10  C21 UNL     1      -4.209  -2.448  -0.191  1.00  0.00     0.005 C 
BRANCH   8  11
HETATM   11  C19 UNL     1      -2.859  -5.909   0.612  1.00  0.00     0.234 C 
BRANCH  11  12
HETATM   12  N5  UNL     1      -2.643  -7.145  -0.090  1.00  0.00    -0.079 N 
ATOM     13  H53 UNL     1      -3.477  -7.425  -0.606  1.00  0.00     0.274 HD
ATOM     14  H52 UNL     1      -2.002  -7.016  -0.873  1.00  0.00     0.274 HD
ATOM     15  H51 UNL     1      -2.324  -7.892   0.526  1.00  0.00     0.274 HD
ENDBRANCH  11  12
ENDBRANCH   8  11
ENDBRANCH   3   4
ENDBRANCH   2   3
BRANCH   2  16
HETATM   16  N6  UNL     1      -2.949   2.199  -0.317  1.00  0.00    -0.325 N 
HETATM   17  C22 UNL     1      -3.714   2.890  -1.277  1.00  0.00     0.252 C 
HETATM   18  O2  UNL     1      -3.893   2.250  -2.382  1.00  0.00    -0.271 OA
ATOM     19  H6  UNL     1      -2.794   2.689   0.564  1.00  0.00     0.168 HD
BRANCH  17  20
HETATM   20  C23 UNL     1      -4.300   4.212  -1.155  1.00  0.00     0.275 C 
BRANCH  20  21
HETATM   21  N7  UNL     1      -4.498   4.724  -2.537  1.00  0.00    -0.066 N 
ATOM     22  H73 UNL     1      -3.645   4.713  -3.096  1.00  0.00     0.275 HD
ATOM     23  H72 UNL     1      -5.045   4.095  -3.124  1.00  0.00     0.275 HD
ATOM     24  H71 UNL     1      -4.910   5.653  -2.451  1.00  0.00     0.275 HD
ENDBRANCH  20  21
BRANCH  20  25
HETATM   25  C24 UNL     1      -5.710   4.127  -0.554  1.00  0.00     0.042 C 
BRANCH  25  26
HETATM   26  C25 UNL     1      -5.679   3.525   0.788  1.00  0.00     0.004 C 
BRANCH  26  27
HETATM   27  C26 UNL     1      -7.017   3.368   1.420  1.00  0.00     0.027 C 
BRANCH  27  28
HETATM   28  C27 UNL     1      -7.786   4.619   1.636  1.00  0.00     0.229 C 
BRANCH  28  29
HETATM   29  N8  UNL     1      -8.158   5.299   0.436  1.00  0.00    -0.079 N 
ATOM     30  H83 UNL     1      -7.335   5.482  -0.138  1.00  0.00     0.274 HD
ATOM     31  H82 UNL     1      -8.668   4.671  -0.185  1.00  0.00     0.274 HD
ATOM     32  H81 UNL     1      -8.686   6.159   0.584  1.00  0.00     0.274 HD
ENDBRANCH  28  29
ENDBRANCH  27  28
ENDBRANCH  26  27
ENDBRANCH  25  26
ENDBRANCH  20  25
ENDBRANCH  17  20
ENDBRANCH   2  16
BRANCH   1  33
HETATM   33  N4  UNL     1       0.179   0.396  -0.097  1.00  0.00    -0.360 N 
HETATM   34  C10 UNL     1       0.156  -0.201   1.209  1.00  0.00     0.125 C 
HETATM   35  C9  UNL     1       1.408   0.271   1.963  1.00  0.00     0.024 C 
HETATM   36  C8  UNL     1       2.675  -0.165   1.267  1.00  0.00    -0.012 C 
HETATM   37  C29 UNL     1       2.347  -0.642  -0.124  1.00  0.00     0.024 C 
HETATM   38  C28 UNL     1       1.495   0.403  -0.781  1.00  0.00     0.125 C 
BRANCH  36  39
HETATM   39  C7  UNL     1       3.684   0.929   1.212  1.00  0.00     0.005 C 
BRANCH  39  40
HETATM   40  C6  UNL     1       4.937   0.459   0.516  1.00  0.00     0.002 C 
BRANCH  40  41
HETATM   41  C5  UNL     1       5.892   1.653   0.529  1.00  0.00     0.020 C 
BRANCH  41  42
HETATM   42  C4  UNL     1       7.201   1.362  -0.121  1.00  0.00     0.122 C 
BRANCH  42  43
HETATM   43  N3  UNL     1       7.935   0.291   0.507  1.00  0.00    -0.365 N 
HETATM   44  C3  UNL     1       9.211  -0.086   0.018  1.00  0.00     0.183 C 
HETATM   45  N1  UNL     1       9.638  -1.286   0.126  1.00  0.00    -0.365 N 
HETATM   46  N2  UNL     1      10.014   0.908  -0.600  1.00  0.00    -0.064 NA
ATOM     47  H1  UNL     1       9.043  -1.984   0.572  1.00  0.00     0.162 HD
ATOM     48  H3  UNL     1       7.534  -0.198   1.307  1.00  0.00     0.162 HD
BRANCH  45  49
HETATM   49  C2  UNL     1      10.953  -1.688  -0.371  1.00  0.00     0.118 C 
HETATM   50  C1  UNL     1      10.758  -2.218  -1.768  1.00  0.00     0.026 C 
ENDBRANCH  45  49
ENDBRANCH  42  43
ENDBRANCH  41  42
ENDBRANCH  40  41
ENDBRANCH  39  40
ENDBRANCH  36  39
ENDBRANCH   1  33
BRANCH   1  51
HETATM   51  O1  UNL     1      -0.637   1.608  -1.825  1.00  0.00    -0.345 OA
ATOM     52  H1  UNL     1      -1.402   1.970  -2.256  1.00  0.00     0.219 HD
ENDBRANCH   1  51
TORSDOF 20
