REMARK  17 active torsions:
REMARK  status: ('A' for Active; 'I' for Inactive)
REMARK    1  A    between atoms: N1_1  and  C1_5 
REMARK    2  A    between atoms: C1_5  and  C2_6 
REMARK    3  A    between atoms: C2_6  and  C3_7 
REMARK    4  A    between atoms: C3_7  and  C4_8 
REMARK    5  A    between atoms: C4_8  and  C5_9 
REMARK    6  A    between atoms: C5_9  and  N2_10 
REMARK    7  A    between atoms: C5_9  and  C16_27 
REMARK    8  A    between atoms: N2_10  and  S1_12 
REMARK    9  A    between atoms: S1_12  and  N3_15 
REMARK   10  A    between atoms: N3_15  and  C6_17 
REMARK   11  A    between atoms: C6_17  and  C7_18 
REMARK   12  A    between atoms: C7_18  and  C8_19 
REMARK       I    between atoms: C16_27  and  N4_29 
REMARK   13  A    between atoms: N4_29  and  C17_31 
REMARK   14  A    between atoms: C17_31  and  C18_32 
REMARK       I    between atoms: C18_32  and  N5_34 
REMARK   15  A    between atoms: N5_34  and  C19_36 
REMARK   16  A    between atoms: C19_36  and  C20_37 
REMARK   17  A    between atoms: C20_37  and  C21_38 
ROOT
HETATM    1  C5  UNL     1       1.141   0.585  -1.144  1.00  0.00     0.186 C 
ENDROOT
BRANCH   1   2
HETATM    2  C4  UNL     1       1.459   1.891  -0.572  1.00  0.00     0.035 C 
BRANCH   2   3
HETATM    3  C3  UNL     1       0.452   2.738   0.059  1.00  0.00     0.004 C 
BRANCH   3   4
HETATM    4  C2  UNL     1      -0.210   2.186   1.286  1.00  0.00     0.027 C 
BRANCH   4   5
HETATM    5  C1  UNL     1      -1.200   3.223   1.770  1.00  0.00     0.229 C 
BRANCH   5   6
HETATM    6  N1  UNL     1      -2.203   3.531   0.785  1.00  0.00    -0.079 N 
ATOM      7  H13 UNL     1      -1.776   3.815  -0.097  1.00  0.00     0.274 HD
ATOM      8  H12 UNL     1      -2.681   2.686   0.471  1.00  0.00     0.274 HD
ATOM      9  H11 UNL     1      -2.870   4.230   1.111  1.00  0.00     0.274 HD
ENDBRANCH   5   6
ENDBRANCH   4   5
ENDBRANCH   3   4
ENDBRANCH   2   3
ENDBRANCH   1   2
BRANCH   1  10
HETATM   10  N2  UNL     1       0.221   0.511  -2.224  1.00  0.00    -0.289 N 
ATOM     11  H2  UNL     1       0.275   1.196  -2.978  1.00  0.00     0.174 HD
BRANCH  10  12
HETATM   12  S1  UNL     1      -0.943  -0.677  -2.277  1.00  0.00     0.315 S 
HETATM   13  O1  UNL     1      -0.916  -1.512  -3.538  1.00  0.00    -0.183 OA
HETATM   14  O2  UNL     1      -0.809  -1.676  -1.148  1.00  0.00    -0.183 OA
BRANCH  12  15
HETATM   15  N3  UNL     1      -2.518  -0.031  -2.159  1.00  0.00    -0.303 N 
ATOM     16  H3  UNL     1      -3.002   0.359  -2.968  1.00  0.00     0.173 HD
BRANCH  15  17
HETATM   17  C6  UNL     1      -3.118  -0.066  -0.870  1.00  0.00     0.134 C 
BRANCH  17  18
HETATM   18  C7  UNL     1      -4.513   0.528  -0.907  1.00  0.00     0.025 C 
BRANCH  18  19
HETATM   19  C8  UNL     1      -5.084   0.506   0.488  1.00  0.00    -0.013 C 
HETATM   20  C9  UNL     1      -5.144  -0.885   0.992  1.00  0.00     0.005 C 
HETATM   21  C10 UNL     1      -5.804  -0.867   2.358  1.00  0.00     0.000 C 
HETATM   22  C11 UNL     1      -7.140  -1.518   2.260  1.00  0.00     0.000 C 
HETATM   23  C12 UNL     1      -8.196  -0.419   2.151  1.00  0.00     0.000 C 
HETATM   24  C13 UNL     1      -8.569  -0.184   0.734  1.00  0.00     0.000 C 
HETATM   25  C14 UNL     1      -7.507   0.374  -0.144  1.00  0.00     0.000 C 
HETATM   26  C15 UNL     1      -6.462   1.192   0.499  1.00  0.00     0.005 C 
ENDBRANCH  18  19
ENDBRANCH  17  18
ENDBRANCH  15  17
ENDBRANCH  12  15
ENDBRANCH  10  12
ENDBRANCH   1  10
BRANCH   1  27
HETATM   27  C16 UNL     1       2.469   0.010  -1.657  1.00  0.00     0.242 C 
HETATM   28  O3  UNL     1       2.535  -0.334  -2.859  1.00  0.00    -0.271 OA
HETATM   29  N4  UNL     1       3.584  -0.137  -0.822  1.00  0.00    -0.341 N 
ATOM     30  H4  UNL     1       3.488   0.150   0.152  1.00  0.00     0.163 HD
BRANCH  29  31
HETATM   31  C17 UNL     1       4.864  -0.668  -1.244  1.00  0.00     0.114 C 
HETATM   32  C22 UNL     1       5.481   0.107  -2.346  1.00  0.00     0.041 C 
HETATM   33  C23 UNL     1       6.000  -0.867  -3.370  1.00  0.00     0.003 C 
HETATM   34  C24 UNL     1       5.236  -2.126  -3.140  1.00  0.00     0.003 C 
HETATM   35  C25 UNL     1       4.729  -2.077  -1.728  1.00  0.00     0.041 C 
BRANCH  31  36
HETATM   36  C18 UNL     1       5.755  -0.701  -0.036  1.00  0.00     0.246 C 
HETATM   37  O4  UNL     1       5.329  -0.292   1.072  1.00  0.00    -0.271 OA
HETATM   38  N5  UNL     1       7.084  -1.186  -0.102  1.00  0.00    -0.358 N 
ATOM     39  H5  UNL     1       7.438  -1.519  -0.999  1.00  0.00     0.162 HD
BRANCH  38  40
HETATM   40  C19 UNL     1       7.943  -1.229   1.022  1.00  0.00     0.133 C 
BRANCH  40  41
HETATM   41  C20 UNL     1       7.468  -2.069   2.167  1.00  0.00     0.133 C 
BRANCH  41  42
HETATM   42  C21 UNL     1       8.466  -2.037   3.288  1.00  0.00     0.174 C 
HETATM   43  O5  UNL     1       8.163  -2.701   4.313  1.00  0.00    -0.648 OA
HETATM   44  O6  UNL     1       9.618  -1.312   3.144  1.00  0.00    -0.648 OA
ENDBRANCH  41  42
ENDBRANCH  40  41
ENDBRANCH  38  40
ENDBRANCH  31  36
ENDBRANCH  29  31
ENDBRANCH   1  27
TORSDOF 17
