REMARK  16 active torsions:
REMARK  status: ('A' for Active; 'I' for Inactive)
REMARK    1  A    between atoms: N1_5  and  C5_7 
REMARK    2  A    between atoms: C5_7  and  C6_8 
REMARK    3  A    between atoms: C6_8  and  C7_9 
REMARK    4  A    between atoms: C7_9  and  C8_10 
REMARK    5  A    between atoms: C8_10  and  C9_11 
REMARK    6  A    between atoms: C9_11  and  C10_12 
REMARK       I    between atoms: C10_12  and  N2_14 
REMARK    7  A    between atoms: N2_14  and  C11_16 
REMARK    8  A    between atoms: C13_18  and  N3_19 
REMARK    9  A    between atoms: N3_19  and  C14_22 
REMARK   10  A    between atoms: C14_22  and  C15_23 
REMARK   11  A    between atoms: C15_23  and  C16_24 
REMARK   12  A    between atoms: C16_24  and  N4_25 
REMARK   13  A    between atoms: N4_25  and  C17_27 
REMARK   14  A    between atoms: C17_27  and  C18_28 
REMARK   15  A    between atoms: C18_28  and  C19_29 
REMARK   16  A    between atoms: C19_29  and  N5_30 
ROOT
HETATM    1  C11 UNL     1      -0.495  -0.916   0.400  1.00  0.00     0.115 C 
HETATM    2  C12 UNL     1       0.827  -0.254   0.181  1.00  0.00     0.060 C 
HETATM    3  C13 UNL     1       1.874  -1.071   0.868  1.00  0.00     0.188 C 
HETATM    4  C21 UNL     1       1.422  -2.427   1.343  1.00  0.00     0.041 C 
HETATM    5  C22 UNL     1       0.545  -3.172   0.433  1.00  0.00     0.028 C 
HETATM    6  C23 UNL     1      -0.374  -2.258  -0.378  1.00  0.00     0.149 C 
HETATM    7  O2  UNL     1       0.271  -2.001  -1.545  1.00  0.00    -0.383 OA
HETATM    8  C24 UNL     1       0.999  -3.140  -1.882  1.00  0.00     0.177 C 
HETATM    9  C25 UNL     1       1.120  -4.001  -0.645  1.00  0.00    -0.020 C 
HETATM   10  C26 UNL     1       2.509  -4.479  -0.514  1.00  0.00     0.017 C 
HETATM   11  C27 UNL     1       0.233  -5.240  -0.927  1.00  0.00     0.017 C 
ENDROOT
BRANCH   1  12
HETATM   12  N2  UNL     1      -1.616  -0.214  -0.129  1.00  0.00    -0.354 N 
HETATM   13  C10 UNL     1      -2.964  -0.574   0.198  1.00  0.00     0.217 C 
HETATM   14  O1  UNL     1      -3.117  -1.541   0.957  1.00  0.00    -0.274 OA
ATOM     15  H2  UNL     1      -1.454   0.570  -0.761  1.00  0.00     0.162 HD
BRANCH  13  16
HETATM   16  C9  UNL     1      -4.089   0.185  -0.361  1.00  0.00     0.103 C 
BRANCH  16  17
HETATM   17  C8  UNL     1      -5.356  -0.572  -0.316  1.00  0.00     0.009 C 
BRANCH  17  18
HETATM   18  C7  UNL     1      -5.917  -1.031   0.953  1.00  0.00     0.002 C 
BRANCH  18  19
HETATM   19  C6  UNL     1      -6.291  -0.054   2.003  1.00  0.00     0.020 C 
BRANCH  19  20
HETATM   20  C5  UNL     1      -7.379   0.896   1.649  1.00  0.00     0.119 C 
BRANCH  20  21
HETATM   21  N1  UNL     1      -7.036   1.731   0.545  1.00  0.00    -0.390 N 
HETATM   22  C4  UNL     1      -7.899   2.416  -0.140  1.00  0.00     0.031 A 
HETATM   23  C3  UNL     1      -9.231   2.381   0.159  1.00  0.00     0.053 A 
HETATM   24  C28 UNL     1      -7.474   3.186  -1.183  1.00  0.00     0.046 A 
HETATM   25  C2  UNL     1     -10.182   3.105  -0.564  1.00  0.00     0.007 A 
HETATM   26  C1  UNL     1     -11.621   3.035  -0.215  1.00  0.00     0.068 C 
HETATM   27  N8  UNL     1      -9.726   3.854  -1.586  1.00  0.00    -0.369 N 
HETATM   28  C29 UNL     1      -8.414   3.907  -1.904  1.00  0.00     0.090 A 
ATOM     29  H8  UNL     1     -10.391   4.397  -2.136  1.00  0.00     0.165 HD
ATOM     30  H1  UNL     1      -6.054   1.793   0.278  1.00  0.00     0.159 HD
ENDBRANCH  20  21
ENDBRANCH  19  20
ENDBRANCH  18  19
ENDBRANCH  17  18
ENDBRANCH  16  17
ENDBRANCH  13  16
ENDBRANCH   1  12
BRANCH   3  31
HETATM   31  N3  UNL     1       3.028  -1.189  -0.001  1.00  0.00    -0.070 N 
ATOM     32  H32 UNL     1       2.964  -2.035  -0.567  1.00  0.00     0.277 HD
ATOM     33  H31 UNL     1       2.994  -0.484  -0.738  1.00  0.00     0.277 HD
BRANCH  31  34
HETATM   34  C14 UNL     1       4.284  -1.138   0.683  1.00  0.00     0.237 C 
BRANCH  34  35
HETATM   35  C15 UNL     1       5.457  -1.401  -0.228  1.00  0.00     0.072 C 
BRANCH  35  36
HETATM   36  C16 UNL     1       5.623  -0.431  -1.344  1.00  0.00     0.061 C 
BRANCH  36  37
HETATM   37  N4  UNL     1       5.835   0.916  -1.057  1.00  0.00    -0.382 N 
ATOM     38  H4  UNL     1       5.091   1.575  -1.287  1.00  0.00     0.163 HD
BRANCH  37  39
HETATM   39  C17 UNL     1       6.985   1.418  -0.482  1.00  0.00     0.061 C 
BRANCH  39  40
HETATM   40  C18 UNL     1       7.355   1.164   0.916  1.00  0.00     0.064 C 
BRANCH  40  41
HETATM   41  C19 UNL     1       8.701   1.885   1.145  1.00  0.00     0.127 C 
BRANCH  41  42
HETATM   42  N5  UNL     1       8.598   3.304   0.917  1.00  0.00    -0.367 N 
HETATM   43  C20 UNL     1       9.618   3.925   0.448  1.00  0.00     0.196 C 
HETATM   44  N6  UNL     1       9.551   5.316   0.211  1.00  0.00    -0.067 NA
HETATM   45  N7  UNL     1      10.818   3.230   0.165  1.00  0.00    -0.067 NA
ATOM     46  H5  UNL     1       7.733   3.804   1.124  1.00  0.00     0.161 HD
ENDBRANCH  41  42
ENDBRANCH  40  41
ENDBRANCH  39  40
ENDBRANCH  37  39
ENDBRANCH  36  37
ENDBRANCH  35  36
ENDBRANCH  34  35
ENDBRANCH  31  34
ENDBRANCH   3  31
TORSDOF 16
