REMARK  19 active torsions:
REMARK  status: ('A' for Active; 'I' for Inactive)
REMARK    1  A    between atoms: C8_8  and  C9_9 
REMARK    2  A    between atoms: C9_9  and  C10_10 
REMARK    3  A    between atoms: C10_10  and  C11_11 
REMARK    4  A    between atoms: C11_11  and  C12_12 
REMARK    5  A    between atoms: C12_12  and  C13_13 
REMARK       I    between atoms: C13_13  and  N1_15 
REMARK    6  A    between atoms: N1_15  and  C14_17 
REMARK    7  A    between atoms: C14_17  and  C15_18 
REMARK       I    between atoms: C15_18  and  N2_20 
REMARK    8  A    between atoms: N2_20  and  C16_22 
REMARK    9  A    between atoms: C16_22  and  C17_23 
REMARK   10  A    between atoms: C16_22  and  C21_31 
REMARK   11  A    between atoms: C17_23  and  C18_24 
REMARK   12  A    between atoms: C18_24  and  C19_25 
REMARK   13  A    between atoms: C19_25  and  C20_26 
REMARK   14  A    between atoms: C20_26  and  N3_27 
REMARK   15  A    between atoms: C21_31  and  N5_35 
REMARK   16  A    between atoms: N5_35  and  C22_37 
REMARK   17  A    between atoms: C22_37  and  C23_38 
REMARK   18  A    between atoms: C23_38  and  O3_39 
REMARK   19  A    between atoms: C23_38  and  N6_41 
ROOT
HETATM    1  C16 UNL     1      -1.838  -0.624  -1.099  1.00  0.00     0.151 C 
ENDROOT
BRANCH   1   2
HETATM    2  N2  UNL     1      -0.819  -0.299  -2.098  1.00  0.00    -0.348 N 
HETATM    3  C15 UNL     1      -1.013  -0.681  -3.436  1.00  0.00     0.235 C 
HETATM    4  O2  UNL     1      -2.089  -1.304  -3.740  1.00  0.00    -0.272 OA
ATOM      5  H2  UNL     1       0.027   0.202  -1.825  1.00  0.00     0.163 HD
BRANCH   3   6
HETATM    6  C14 UNL     1      -0.090  -0.419  -4.532  1.00  0.00     0.225 C 
BRANCH   6   7
HETATM    7  N1  UNL     1       1.161   0.189  -4.196  1.00  0.00    -0.352 N 
HETATM    8  C13 UNL     1       2.089  -0.575  -3.391  1.00  0.00     0.217 C 
HETATM    9  O1  UNL     1       1.767  -1.732  -3.023  1.00  0.00    -0.274 OA
ATOM     10  H1  UNL     1       1.391   1.131  -4.514  1.00  0.00     0.162 HD
BRANCH   8  11
HETATM   11  C12 UNL     1       3.357   0.085  -3.077  1.00  0.00     0.103 C 
BRANCH  11  12
HETATM   12  C11 UNL     1       4.437  -0.785  -2.549  1.00  0.00     0.009 C 
BRANCH  12  13
HETATM   13  C10 UNL     1       4.211  -1.516  -1.293  1.00  0.00     0.001 C 
BRANCH  13  14
HETATM   14  C9  UNL     1       3.932  -0.771  -0.057  1.00  0.00     0.005 C 
BRANCH  14  15
HETATM   15  C8  UNL     1       4.995   0.096   0.428  1.00  0.00    -0.009 C 
HETATM   16  C7  UNL     1       5.510   1.263  -0.260  1.00  0.00    -0.002 C 
HETATM   17  C2  UNL     1       5.389   2.393   0.821  1.00  0.00    -0.040 C 
HETATM   18  C6  UNL     1       7.056   1.187  -0.188  1.00  0.00     0.006 C 
HETATM   19  C1  UNL     1       4.027   2.911   0.977  1.00  0.00     0.015 C 
HETATM   20  C3  UNL     1       6.317   3.534   0.467  1.00  0.00     0.015 C 
HETATM   21  C4  UNL     1       5.936   1.559   1.957  1.00  0.00    -0.006 C 
HETATM   22  C5  UNL     1       7.226   1.060   1.329  1.00  0.00     0.006 C 
HETATM   23  C29 UNL     1       4.952   0.412   1.935  1.00  0.00     0.010 C 
ENDBRANCH  14  15
ENDBRANCH  13  14
ENDBRANCH  12  13
ENDBRANCH  11  12
ENDBRANCH   8  11
ENDBRANCH   6   7
ENDBRANCH   3   6
ENDBRANCH   1   2
BRANCH   1  24
HETATM   24  C17 UNL     1      -1.351  -0.716   0.289  1.00  0.00     0.033 C 
BRANCH  24  25
HETATM   25  C18 UNL     1      -0.756   0.534   0.840  1.00  0.00     0.004 C 
BRANCH  25  26
HETATM   26  C19 UNL     1      -0.345   0.368   2.281  1.00  0.00     0.027 C 
BRANCH  26  27
HETATM   27  C20 UNL     1       0.691  -0.701   2.501  1.00  0.00     0.229 C 
BRANCH  27  28
HETATM   28  N3  UNL     1       1.037  -0.823   3.911  1.00  0.00    -0.079 N 
ATOM     29  H33 UNL     1       1.334   0.071   4.302  1.00  0.00     0.274 HD
ATOM     30  H32 UNL     1       0.210  -0.980   4.487  1.00  0.00     0.274 HD
ATOM     31  H31 UNL     1       1.739  -1.548   4.060  1.00  0.00     0.274 HD
ENDBRANCH  27  28
ENDBRANCH  26  27
ENDBRANCH  25  26
ENDBRANCH  24  25
ENDBRANCH   1  24
BRANCH   1  32
HETATM   32  C21 UNL     1      -2.955   0.395  -1.212  1.00  0.00     0.094 C 
HETATM   33  N4  UNL     1      -2.819   1.298  -2.117  1.00  0.00    -0.387 N 
ATOM     34  H42 UNL     1      -1.996   1.320  -2.720  1.00  0.00     0.157 HD
ATOM     35  H41 UNL     1      -3.570   1.984  -2.193  1.00  0.00     0.157 HD
BRANCH  32  36
HETATM   36  N5  UNL     1      -4.096   0.364  -0.376  1.00  0.00    -0.374 N 
ATOM     37  H5  UNL     1      -3.993   0.538   0.624  1.00  0.00     0.161 HD
BRANCH  36  38
HETATM   38  C22 UNL     1      -5.411   0.087  -0.924  1.00  0.00     0.185 C 
BRANCH  38  39
HETATM   39  C23 UNL     1      -6.507   0.119   0.085  1.00  0.00     0.374 C 
BRANCH  39  40
HETATM   40  O3  UNL     1      -6.516   1.412   0.641  1.00  0.00    -0.366 OA
ATOM     41  H3  UNL     1      -7.215   1.432   1.284  1.00  0.00     0.212 HD
ENDBRANCH  39  40
BRANCH  39  42
HETATM   42  N6  UNL     1      -6.410  -0.822   1.151  1.00  0.00     0.118 N 
HETATM   43  C24 UNL     1      -6.451  -2.197   0.770  1.00  0.00     0.276 C 
HETATM   44  C25 UNL     1      -7.185  -3.049   1.814  1.00  0.00     0.030 C 
HETATM   45  C26 UNL     1      -8.655  -2.694   1.834  1.00  0.00     0.003 C 
HETATM   46  C27 UNL     1      -8.758  -1.214   1.522  1.00  0.00     0.030 C 
HETATM   47  C28 UNL     1      -7.511  -0.558   2.073  1.00  0.00     0.276 C 
ENDBRANCH  39  42
ENDBRANCH  38  39
ENDBRANCH  36  38
ENDBRANCH  32  36
ENDBRANCH   1  32
TORSDOF 19
