REMARK  21 active torsions:
REMARK  status: ('A' for Active; 'I' for Inactive)
REMARK    1  A    between atoms: C2_2  and  C3_3 
REMARK    2  A    between atoms: C2_2  and  C20_29 
REMARK    3  A    between atoms: C3_3  and  C4_4 
REMARK    4  A    between atoms: C4_4  and  C5_5 
REMARK    5  A    between atoms: C5_5  and  C6_6 
REMARK    6  A    between atoms: C9_9  and  C10_10 
REMARK    7  A    between atoms: C15_15  and  C16_16 
REMARK    8  A    between atoms: C16_16  and  N1_17 
REMARK    9  A    between atoms: N1_17  and  C17_20 
REMARK   10  A    between atoms: C17_20  and  C18_21 
REMARK   11  A    between atoms: C18_21  and  O1_22 
REMARK   12  A    between atoms: O1_22  and  N2_23 
REMARK   13  A    between atoms: C20_29  and  C21_30 
REMARK   14  A    between atoms: N4_33  and  C24_34 
REMARK   15  A    between atoms: C24_34  and  O2_35 
REMARK   16  A    between atoms: C24_34  and  C25_37 
REMARK   17  A    between atoms: C25_37  and  N5_38 
REMARK   18  A    between atoms: C25_37  and  C26_42 
REMARK   19  A    between atoms: C26_42  and  C27_43 
REMARK   20  A    between atoms: C27_43  and  C28_44 
REMARK   21  A    between atoms: C28_44  and  N6_45 
ROOT
HETATM    1  C3  UNL     1       0.433   2.348  -0.348  1.00  0.00     0.004 C 
ENDROOT
BRANCH   1   2
HETATM    2  C2  UNL     1       1.249   1.097  -0.054  1.00  0.00    -0.018 C 
HETATM    3  C1  UNL     1       1.058   0.117  -1.149  1.00  0.00     0.010 C 
BRANCH   2   4
HETATM    4  C20 UNL     1       2.645   1.448   0.318  1.00  0.00     0.010 C 
BRANCH   4   5
HETATM    5  C21 UNL     1       3.462   0.322   0.812  1.00  0.00     0.005 C 
HETATM    6  C22 UNL     1       3.684  -0.836  -0.110  1.00  0.00     0.026 C 
HETATM    7  C23 UNL     1       4.950  -1.454   0.577  1.00  0.00     0.125 C 
HETATM    8  N4  UNL     1       5.767  -0.279   0.578  1.00  0.00    -0.363 N 
HETATM    9  C30 UNL     1       4.880   0.768   1.160  1.00  0.00     0.129 C 
BRANCH   8  10
HETATM   10  C24 UNL     1       7.069   0.001   0.176  1.00  0.00     0.144 C 
BRANCH  10  11
HETATM   11  O2  UNL     1       7.455   1.234   0.325  1.00  0.00    -0.348 OA
ATOM     12  H2  UNL     1       8.344   1.425   0.050  1.00  0.00     0.219 HD
ENDBRANCH  10  11
BRANCH  10  13
HETATM   13  C25 UNL     1       8.075  -0.879  -0.390  1.00  0.00     0.257 C 
BRANCH  13  14
HETATM   14  N5  UNL     1       7.588  -2.241  -0.569  1.00  0.00    -0.068 N 
ATOM     15  H53 UNL     1       7.221  -2.617   0.305  1.00  0.00     0.275 HD
ATOM     16  H52 UNL     1       6.733  -2.255  -1.125  1.00  0.00     0.275 HD
ATOM     17  H51 UNL     1       8.295  -2.859  -0.967  1.00  0.00     0.275 HD
ENDBRANCH  13  14
BRANCH  13  18
HETATM   18  C26 UNL     1       9.374  -0.969   0.339  1.00  0.00     0.043 C 
BRANCH  18  19
HETATM   19  C27 UNL     1      10.140   0.303   0.480  1.00  0.00     0.022 C 
BRANCH  19  20
HETATM   20  C28 UNL     1      11.458  -0.062   1.206  1.00  0.00     0.122 C 
BRANCH  20  21
HETATM   21  N6  UNL     1      12.207  -1.017   0.456  1.00  0.00    -0.367 N 
HETATM   22  C29 UNL     1      13.496  -0.898   0.245  1.00  0.00     0.196 C 
HETATM   23  N7  UNL     1      14.183  -1.882  -0.509  1.00  0.00    -0.067 NA
HETATM   24  N8  UNL     1      14.221   0.204   0.759  1.00  0.00    -0.067 NA
ATOM     25  H6  UNL     1      11.720  -1.825   0.068  1.00  0.00     0.161 HD
ENDBRANCH  20  21
ENDBRANCH  19  20
ENDBRANCH  18  19
ENDBRANCH  13  18
ENDBRANCH  10  13
ENDBRANCH   8  10
ENDBRANCH   4   5
ENDBRANCH   2   4
ENDBRANCH   1   2
BRANCH   1  26
HETATM   26  C4  UNL     1      -1.004   2.032  -0.457  1.00  0.00     0.005 C 
BRANCH  26  27
HETATM   27  C5  UNL     1      -1.607   1.391   0.798  1.00  0.00     0.040 C 
BRANCH  27  28
HETATM   28  C6  UNL     1      -3.062   1.184   0.415  1.00  0.00    -0.043 A 
HETATM   29  C7  UNL     1      -4.011   2.141   0.675  1.00  0.00     0.010 A 
HETATM   30  C8  UNL     1      -5.329   1.941   0.299  1.00  0.00     0.026 A 
HETATM   31  C9  UNL     1      -5.677   0.764  -0.343  1.00  0.00     0.013 A 
HETATM   32  N3  UNL     1      -4.759  -0.161  -0.593  1.00  0.00    -0.368 N 
HETATM   33  C19 UNL     1      -3.486   0.041  -0.225  1.00  0.00     0.095 A 
ATOM     34  H3  UNL     1      -5.022  -1.026  -1.065  1.00  0.00     0.165 HD
BRANCH  31  35
HETATM   35  C10 UNL     1      -7.115   0.606  -0.738  1.00  0.00     0.041 C 
HETATM   36  C11 UNL     1      -7.213   0.574  -2.250  1.00  0.00     0.011 C 
HETATM   37  C12 UNL     1      -6.787  -0.731  -2.852  1.00  0.00     0.001 C 
HETATM   38  C13 UNL     1      -7.486  -1.900  -2.172  1.00  0.00     0.000 C 
HETATM   39  C14 UNL     1      -8.489  -1.375  -1.176  1.00  0.00     0.007 C 
HETATM   40  C15 UNL     1      -7.700  -0.612  -0.101  1.00  0.00     0.021 C 
BRANCH  40  41
HETATM   41  C16 UNL     1      -8.630  -0.254   1.032  1.00  0.00     0.237 C 
BRANCH  41  42
HETATM   42  N1  UNL     1      -9.735   0.527   0.609  1.00  0.00    -0.073 N 
ATOM     43  H12 UNL     1      -9.425   1.364   0.116  1.00  0.00     0.277 HD
ATOM     44  H11 UNL     1     -10.240   0.068  -0.149  1.00  0.00     0.277 HD
BRANCH  42  45
HETATM   45  C17 UNL     1     -10.617   0.861   1.687  1.00  0.00     0.260 C 
BRANCH  45  46
HETATM   46  C18 UNL     1     -11.371  -0.324   2.240  1.00  0.00     0.228 C 
BRANCH  46  47
HETATM   47  O1  UNL     1     -12.117  -0.837   1.162  1.00  0.00    -0.286 OA
BRANCH  47  48
HETATM   48  N2  UNL     1     -12.819  -1.893   1.569  1.00  0.00    -0.311 N 
ATOM     49  H22 UNL     1     -12.807  -2.262   2.520  1.00  0.00     0.184 HD
ATOM     50  H21 UNL     1     -13.360  -2.265   0.788  1.00  0.00     0.184 HD
ENDBRANCH  47  48
ENDBRANCH  46  47
ENDBRANCH  45  46
ENDBRANCH  42  45
ENDBRANCH  41  42
ENDBRANCH  40  41
ENDBRANCH  31  35
ENDBRANCH  27  28
ENDBRANCH  26  27
ENDBRANCH   1  26
TORSDOF 21
