REMARK  21 active torsions:
REMARK  status: ('A' for Active; 'I' for Inactive)
REMARK    1  A    between atoms: C2_2  and  C4_4 
REMARK    2  A    between atoms: C4_4  and  C5_5 
REMARK    3  A    between atoms: C7_10  and  C8_11 
REMARK    4  A    between atoms: C8_11  and  C9_12 
REMARK    5  A    between atoms: C9_12  and  C10_13 
REMARK    6  A    between atoms: C10_13  and  C11_14 
REMARK    7  A    between atoms: C11_14  and  C12_15 
REMARK    8  A    between atoms: C12_15  and  C13_16 
REMARK    9  A    between atoms: C13_16  and  C14_17 
REMARK   10  A    between atoms: C14_17  and  C15_18 
REMARK   11  A    between atoms: C15_18  and  C16_19 
REMARK   12  A    between atoms: C16_19  and  C17_20 
REMARK   13  A    between atoms: C17_20  and  N2_21 
REMARK   14  A    between atoms: C19_29  and  C20_30 
REMARK   15  A    between atoms: C20_30  and  C21_31 
REMARK   16  A    between atoms: C21_31  and  C22_32 
REMARK   17  A    between atoms: C22_32  and  C23_33 
REMARK   18  A    between atoms: C23_33  and  N4_34 
REMARK       I    between atoms: N4_34  and  C24_36 
REMARK   19  A    between atoms: C24_36  and  C25_38 
REMARK   20  A    between atoms: C25_38  and  C26_39 
REMARK   21  A    between atoms: C26_39  and  N5_40 
ROOT
HETATM    1  C5  UNL     1       0.260   3.605   0.448  1.00  0.00     0.177 C 
HETATM    2  N1  UNL     1       0.427   2.285  -0.085  1.00  0.00    -0.346 N 
ATOM      3  H1  UNL     1       1.335   1.910   0.189  1.00  0.00     0.163 HD
HETATM    4  C6  UNL     1      -0.248   1.370  -0.846  1.00  0.00     0.241 C 
HETATM    5  O1  UNL     1      -0.178   1.454  -2.131  1.00  0.00    -0.271 OA
HETATM    6  C7  UNL     1      -1.111   0.205  -0.492  1.00  0.00     0.176 C 
HETATM    7  N3  UNL     1      -0.350  -1.046  -0.700  1.00  0.00    -0.346 N 
ATOM      8  H3  UNL     1      -0.775  -1.886  -0.307  1.00  0.00     0.163 HD
HETATM    9  C18 UNL     1       0.852  -1.241  -1.349  1.00  0.00     0.241 C 
HETATM   10  O2  UNL     1       0.824  -1.967  -2.415  1.00  0.00    -0.271 OA
HETATM   11  C19 UNL     1       2.219  -0.758  -1.042  1.00  0.00     0.176 C 
HETATM   12  N6  UNL     1       2.920  -0.187  -2.168  1.00  0.00    -0.348 N 
ATOM     13  H6  UNL     1       3.099  -0.835  -2.935  1.00  0.00     0.163 HD
HETATM   14  C27 UNL     1       3.390   1.104  -2.374  1.00  0.00     0.219 C 
HETATM   15  O4  UNL     1       3.359   1.571  -3.573  1.00  0.00    -0.274 OA
HETATM   16  C28 UNL     1       3.944   2.073  -1.396  1.00  0.00     0.122 C 
HETATM   17  C29 UNL     1       3.021   3.295  -1.413  1.00  0.00     0.134 C 
HETATM   18  N7  UNL     1       2.785   3.879  -0.122  1.00  0.00    -0.354 N 
HETATM   19  C30 UNL     1       3.963   3.998   0.743  1.00  0.00     0.152 C 
HETATM   20  C31 UNL     1       1.573   4.367   0.406  1.00  0.00     0.242 C 
HETATM   21  O5  UNL     1       1.489   5.530   0.907  1.00  0.00    -0.271 OA
ENDROOT
BRANCH   6  22
HETATM   22  C8  UNL     1      -2.263   0.122  -1.509  1.00  0.00     0.035 C 
BRANCH  22  23
HETATM   23  C9  UNL     1      -3.176  -1.036  -1.187  1.00  0.00     0.002 C 
BRANCH  23  24
HETATM   24  C10 UNL     1      -4.292  -1.146  -2.173  1.00  0.00     0.000 C 
BRANCH  24  25
HETATM   25  C11 UNL     1      -5.133   0.088  -2.207  1.00  0.00     0.000 C 
BRANCH  25  26
HETATM   26  C12 UNL     1      -5.734   0.342  -0.847  1.00  0.00     0.000 C 
BRANCH  26  27
HETATM   27  C13 UNL     1      -6.631  -0.797  -0.386  1.00  0.00     0.000 C 
BRANCH  27  28
HETATM   28  C14 UNL     1      -7.156  -0.399   0.967  1.00  0.00     0.000 C 
BRANCH  28  29
HETATM   29  C15 UNL     1      -8.049  -1.462   1.507  1.00  0.00     0.002 C 
BRANCH  29  30
HETATM   30  C16 UNL     1      -9.209  -1.683   0.598  1.00  0.00     0.027 C 
BRANCH  30  31
HETATM   31  C17 UNL     1     -10.095  -2.768   1.212  1.00  0.00     0.229 C 
BRANCH  31  32
HETATM   32  N2  UNL     1     -10.570  -2.361   2.502  1.00  0.00    -0.079 N 
ATOM     33  H23 UNL     1      -9.804  -2.101   3.123  1.00  0.00     0.274 HD
ATOM     34  H22 UNL     1     -11.047  -1.460   2.463  1.00  0.00     0.274 HD
ATOM     35  H21 UNL     1     -11.161  -3.085   2.911  1.00  0.00     0.274 HD
ENDBRANCH  31  32
ENDBRANCH  30  31
ENDBRANCH  29  30
ENDBRANCH  28  29
ENDBRANCH  27  28
ENDBRANCH  26  27
ENDBRANCH  25  26
ENDBRANCH  24  25
ENDBRANCH  23  24
ENDBRANCH  22  23
ENDBRANCH   6  22
BRANCH   1  36
HETATM   36  C4  UNL     1      -0.871   4.436   0.036  1.00  0.00     0.038 C 
BRANCH  36  37
HETATM   37  C2  UNL     1      -2.244   3.945   0.304  1.00  0.00    -0.020 C 
HETATM   38  C1  UNL     1      -3.206   5.013  -0.224  1.00  0.00     0.009 C 
HETATM   39  C3  UNL     1      -2.547   3.769   1.767  1.00  0.00     0.009 C 
ENDBRANCH  36  37
ENDBRANCH   1  36
BRANCH  11  40
HETATM   40  C20 UNL     1       3.007  -2.041  -0.689  1.00  0.00     0.035 C 
BRANCH  40  41
HETATM   41  C21 UNL     1       4.433  -1.696  -0.356  1.00  0.00     0.004 C 
BRANCH  41  42
HETATM   42  C22 UNL     1       5.270  -2.899  -0.006  1.00  0.00     0.020 C 
BRANCH  42  43
HETATM   43  C23 UNL     1       6.685  -2.465   0.310  1.00  0.00     0.122 C 
BRANCH  43  44
HETATM   44  N4  UNL     1       7.474  -3.633   0.639  1.00  0.00    -0.361 N 
HETATM   45  C24 UNL     1       8.849  -3.555   0.978  1.00  0.00     0.219 C 
HETATM   46  O3  UNL     1       9.386  -2.421   0.991  1.00  0.00    -0.274 OA
ATOM     47  H4  UNL     1       7.024  -4.548   0.627  1.00  0.00     0.162 HD
BRANCH  45  48
HETATM   48  C25 UNL     1       9.662  -4.740   1.314  1.00  0.00     0.130 C 
BRANCH  48  49
HETATM   49  C26 UNL     1      11.095  -4.368   1.621  1.00  0.00     0.238 C 
BRANCH  49  50
HETATM   50  N5  UNL     1      11.173  -3.468   2.736  1.00  0.00    -0.079 N 
ATOM     51  H53 UNL     1      10.595  -2.641   2.590  1.00  0.00     0.274 HD
ATOM     52  H52 UNL     1      10.701  -3.847   3.557  1.00  0.00     0.274 HD
ATOM     53  H51 UNL     1      12.140  -3.217   2.943  1.00  0.00     0.274 HD
ENDBRANCH  49  50
ENDBRANCH  48  49
ENDBRANCH  45  48
ENDBRANCH  43  44
ENDBRANCH  42  43
ENDBRANCH  41  42
ENDBRANCH  40  41
ENDBRANCH  11  40
TORSDOF 21
