REMARK  21 active torsions:
REMARK  status: ('A' for Active; 'I' for Inactive)
REMARK    1  A    between atoms: C2_2  and  N1_3 
REMARK    2  A    between atoms: C4_8  and  N3_9 
REMARK    3  A    between atoms: C6_18  and  N6_19 
REMARK    4  A    between atoms: N6_19  and  C7_21 
REMARK    5  A    between atoms: C7_21  and  C8_22 
REMARK    6  A    between atoms: C8_22  and  C9_23 
REMARK    7  A    between atoms: C9_23  and  C10_24 
REMARK    8  A    between atoms: C10_24  and  C11_25 
REMARK    9  A    between atoms: C11_25  and  C12_26 
REMARK   10  A    between atoms: C12_26  and  C13_27 
REMARK   11  A    between atoms: C13_27  and  C14_28 
REMARK   12  A    between atoms: C14_28  and  N7_29 
REMARK   13  A    between atoms: N7_29  and  C16_31 
REMARK   14  A    between atoms: C16_31  and  C17_32 
REMARK   15  A    between atoms: C17_32  and  C18_33 
REMARK   16  A    between atoms: C17_32  and  N10_48 
REMARK   17  A    between atoms: C18_33  and  C19_34 
REMARK   18  A    between atoms: C19_34  and  C20_35 
REMARK       I    between atoms: C20_35  and  N8_37 
REMARK   19  A    between atoms: N8_37  and  C22_39 
REMARK   20  A    between atoms: C22_39  and  C23_40 
REMARK   21  A    between atoms: C23_40  and  C24_41 
REMARK       I    between atoms: N10_48  and  C29_50 
ROOT
HETATM    1  C11 UNL     1       2.258   1.988  -0.334  1.00  0.00     0.000 C 
ENDROOT
BRANCH   1   2
HETATM    2  C10 UNL     1       3.580   2.254   0.239  1.00  0.00     0.000 C 
BRANCH   2   3
HETATM    3  C9  UNL     1       4.606   1.263   0.509  1.00  0.00     0.002 C 
BRANCH   3   4
HETATM    4  C8  UNL     1       4.356   0.103   1.402  1.00  0.00     0.020 C 
BRANCH   4   5
HETATM    5  C7  UNL     1       5.700  -0.670   1.625  1.00  0.00     0.121 C 
BRANCH   5   6
HETATM    6  N6  UNL     1       6.637   0.198   2.255  1.00  0.00    -0.373 N 
ATOM      7  H6  UNL     1       6.259   0.768   3.012  1.00  0.00     0.161 HD
BRANCH   6   8
HETATM    8  C6  UNL     1       7.870   0.369   2.016  1.00  0.00     0.161 C 
HETATM    9  C5  UNL     1       8.490   1.318   2.845  1.00  0.00     0.159 C 
HETATM   10  N4  UNL     1       9.496   2.123   2.485  1.00  0.00    -0.173 N 
HETATM   11  N5  UNL     1       8.031   1.391   4.041  1.00  0.00    -0.382 N 
HETATM   12  C4  UNL     1      10.209   2.131   1.320  1.00  0.00     0.692 C 
ATOM     13  H4  UNL     1       9.767   2.825   3.173  1.00  0.00     0.186 HD
HETATM   14  N2  UNL     1      10.205   1.197   0.345  1.00  0.00    -0.023 N 
HETATM   15  C3  UNL     1       9.658  -0.055   0.393  1.00  0.00     0.694 C 
ATOM     16  H2  UNL     1      10.663   1.456  -0.529  1.00  0.00     0.203 HD
HETATM   17  N1  UNL     1      10.263  -1.025  -0.174  1.00  0.00    -0.226 N 
HETATM   18  N11 UNL     1       8.482  -0.330   1.033  1.00  0.00    -0.173 N 
ATOM     19  H1  UNL     1       9.859  -1.961  -0.140  1.00  0.00     0.177 HD
ATOM     20  H11 UNL     1       8.001  -1.176   0.728  1.00  0.00     0.186 HD
ATOM     21  H52 UNL     1       8.481   2.080   4.643  1.00  0.00     0.157 HD
ATOM     22  H51 UNL     1       7.264   0.777   4.315  1.00  0.00     0.157 HD
BRANCH  12  23
HETATM   23  N3  UNL     1      10.978   3.124   1.094  1.00  0.00    -0.234 N 
ATOM     24  H32 UNL     1      11.510   3.130   0.224  1.00  0.00     0.174 HD
ATOM     25  H31 UNL     1      10.981   3.830   1.831  1.00  0.00     0.174 HD
ENDBRANCH  12  23
BRANCH  17  26
HETATM   26  C2  UNL     1      11.507  -0.812  -0.859  1.00  0.00     0.133 C 
HETATM   27  C1  UNL     1      12.595  -0.300   0.036  1.00  0.00     0.027 C 
ENDBRANCH  17  26
ENDBRANCH   6   8
ENDBRANCH   5   6
ENDBRANCH   4   5
ENDBRANCH   3   4
ENDBRANCH   2   3
ENDBRANCH   1   2
BRANCH   1  28
HETATM   28  C12 UNL     1       1.363   1.158   0.522  1.00  0.00     0.005 C 
BRANCH  28  29
HETATM   29  C13 UNL     1      -0.014   1.011  -0.048  1.00  0.00     0.044 C 
BRANCH  29  30
HETATM   30  C14 UNL     1      -0.150   0.322  -1.349  1.00  0.00     0.057 C 
BRANCH  30  31
HETATM   31  N7  UNL     1       0.143  -1.040  -1.367  1.00  0.00    -0.396 N 
HETATM   32  C15 UNL     1       1.471  -1.505  -1.202  1.00  0.00     0.148 C 
BRANCH  31  33
HETATM   33  C16 UNL     1      -0.719  -1.948  -2.023  1.00  0.00     0.146 C 
BRANCH  33  34
HETATM   34  C17 UNL     1      -2.011  -2.230  -1.359  1.00  0.00     0.102 C 
BRANCH  34  35
HETATM   35  C18 UNL     1      -2.951  -1.119  -1.117  1.00  0.00     0.036 C 
BRANCH  35  36
HETATM   36  C19 UNL     1      -4.209  -1.732  -0.467  1.00  0.00     0.105 C 
BRANCH  36  37
HETATM   37  C20 UNL     1      -5.183  -0.662  -0.162  1.00  0.00     0.219 C 
HETATM   38  O1  UNL     1      -4.885   0.556  -0.172  1.00  0.00    -0.273 OA
HETATM   39  N8  UNL     1      -6.525  -1.012   0.164  1.00  0.00    -0.356 N 
HETATM   40  C21 UNL     1      -6.961  -2.393   0.181  1.00  0.00     0.152 C 
BRANCH  39  41
HETATM   41  C22 UNL     1      -7.507   0.009   0.512  1.00  0.00     0.125 C 
BRANCH  41  42
HETATM   42  C23 UNL     1      -8.195   0.520  -0.711  1.00  0.00     0.024 C 
BRANCH  42  43
HETATM   43  C24 UNL     1      -9.226   1.569  -0.415  1.00  0.00    -0.010 C 
HETATM   44  C25 UNL     1      -8.585   2.746   0.280  1.00  0.00     0.024 C 
HETATM   45  C26 UNL     1      -9.663   3.796   0.465  1.00  0.00     0.114 C 
HETATM   46  N9  UNL     1     -10.797   3.345   1.207  1.00  0.00    -0.421 N 
HETATM   47  C27 UNL     1     -10.856   1.939   1.460  1.00  0.00     0.114 C 
ATOM     48  H9  UNL     1     -11.519   3.986   1.536  1.00  0.00     0.153 HD
HETATM   49  C28 UNL     1     -10.437   1.075   0.302  1.00  0.00     0.024 C 
ENDBRANCH  42  43
ENDBRANCH  41  42
ENDBRANCH  39  41
ENDBRANCH  36  37
ENDBRANCH  35  36
ENDBRANCH  34  35
BRANCH  34  50
HETATM   50  N10 UNL     1      -2.683  -3.394  -1.953  1.00  0.00    -0.355 N 
HETATM   51  C29 UNL     1      -2.953  -4.592  -1.273  1.00  0.00     0.213 C 
HETATM   52  C30 UNL     1      -3.640  -5.699  -1.966  1.00  0.00     0.117 C 
HETATM   53  O2  UNL     1      -2.619  -4.739  -0.079  1.00  0.00    -0.274 OA
ATOM     54  H10 UNL     1      -2.974  -3.327  -2.928  1.00  0.00     0.162 HD
ENDBRANCH  34  50
ENDBRANCH  33  34
ENDBRANCH  31  33
ENDBRANCH  30  31
ENDBRANCH  29  30
ENDBRANCH  28  29
ENDBRANCH   1  28
TORSDOF 21
