REMARK  22 active torsions:
REMARK  status: ('A' for Active; 'I' for Inactive)
REMARK    1  A    between atoms: C2_2  and  C4_4 
REMARK    2  A    between atoms: C4_4  and  C5_5 
REMARK    3  A    between atoms: C5_5  and  N1_6 
REMARK    4  A    between atoms: C10_11  and  C11_12 
REMARK    5  A    between atoms: C11_12  and  C13_14 
REMARK    6  A    between atoms: C13_14  and  N2_15 
REMARK    7  A    between atoms: C13_14  and  C26_42 
REMARK    8  A    between atoms: N2_15  and  C14_17 
REMARK    9  A    between atoms: C14_17  and  C15_18 
REMARK   10  A    between atoms: C14_17  and  C19_26 
REMARK   11  A    between atoms: C15_18  and  C16_19 
REMARK   12  A    between atoms: C16_19  and  C17_20 
REMARK   13  A    between atoms: C17_20  and  C18_21 
REMARK   14  A    between atoms: C18_21  and  N3_22 
REMARK       I    between atoms: C19_26  and  N4_28 
REMARK   15  A    between atoms: N4_28  and  C20_30 
REMARK   16  A    between atoms: C20_30  and  C21_31 
REMARK   17  A    between atoms: C20_30  and  C25_39 
REMARK   18  A    between atoms: C21_31  and  C22_32 
REMARK   19  A    between atoms: C22_32  and  C23_33 
REMARK   20  A    between atoms: C23_33  and  N5_34 
REMARK   21  A    between atoms: C26_42  and  O4_44 
REMARK   22  A    between atoms: O4_44  and  C27_45 
ROOT
HETATM    1  C14 UNL     1       0.557  -0.542  -0.714  1.00  0.00     0.170 C 
ENDROOT
BRANCH   1   2
HETATM    2  N2  UNL     1      -0.494  -0.226   0.136  1.00  0.00    -0.396 N 
ATOM      3  H2  UNL     1      -0.649   0.756   0.362  1.00  0.00     0.155 HD
BRANCH   2   4
HETATM    4  C13 UNL     1      -1.351  -1.173   0.700  1.00  0.00     0.187 C 
BRANCH   4   5
HETATM    5  C11 UNL     1      -2.244  -0.579   1.814  1.00  0.00     0.059 C 
HETATM    6  C12 UNL     1      -1.405  -0.213   3.001  1.00  0.00     0.018 C 
BRANCH   5   7
HETATM    7  C10 UNL     1      -3.167   0.500   1.324  1.00  0.00    -0.010 C 
HETATM    8  N1  UNL     1      -2.630   1.712   0.891  1.00  0.00    -0.387 N 
HETATM    9  C6  UNL     1      -2.619   2.818   1.780  1.00  0.00     0.122 C 
HETATM   10  C7  UNL     1      -3.775   2.959   2.702  1.00  0.00     0.020 C 
HETATM   11  C8  UNL     1      -4.304   1.687   3.258  1.00  0.00     0.007 C 
HETATM   12  C9  UNL     1      -4.372   0.622   2.239  1.00  0.00     0.053 C 
BRANCH   8  13
HETATM   13  C5  UNL     1      -2.903   2.085  -0.472  1.00  0.00     0.123 C 
BRANCH  13  14
HETATM   14  C4  UNL     1      -4.325   2.582  -0.677  1.00  0.00     0.023 C 
BRANCH  14  15
HETATM   15  C2  UNL     1      -4.538   2.951  -2.144  1.00  0.00    -0.021 C 
HETATM   16  C1  UNL     1      -3.592   4.038  -2.562  1.00  0.00     0.009 C 
HETATM   17  C3  UNL     1      -5.959   3.439  -2.284  1.00  0.00     0.009 C 
ENDBRANCH  14  15
ENDBRANCH  13  14
ENDBRANCH   8  13
ENDBRANCH   5   7
ENDBRANCH   4   5
BRANCH   4  18
HETATM   18  C26 UNL     1      -0.720  -2.386   1.274  1.00  0.00     0.282 C 
HETATM   19  O3  UNL     1       0.474  -2.340   1.638  1.00  0.00    -0.263 OA
BRANCH  18  20
HETATM   20  O4  UNL     1      -1.391  -3.585   1.424  1.00  0.00    -0.310 OA
BRANCH  20  21
HETATM   21  C27 UNL     1      -0.837  -4.766   1.962  1.00  0.00     0.060 C 
HETATM   22  C28 UNL     1      -0.414  -4.514   3.407  1.00  0.00     0.045 C 
HETATM   23  C29 UNL     1       0.380  -5.201   1.154  1.00  0.00     0.045 C 
HETATM   24  C30 UNL     1      -1.856  -5.857   1.954  1.00  0.00     0.045 C 
ENDBRANCH  20  21
ENDBRANCH  18  20
ENDBRANCH   4  18
ENDBRANCH   2   4
ENDBRANCH   1   2
BRANCH   1  25
HETATM   25  C15 UNL     1       0.332  -1.151  -2.044  1.00  0.00     0.034 C 
BRANCH  25  26
HETATM   26  C16 UNL     1      -0.316  -2.468  -2.151  1.00  0.00     0.004 C 
BRANCH  26  27
HETATM   27  C17 UNL     1      -0.374  -2.828  -3.653  1.00  0.00     0.027 C 
BRANCH  27  28
HETATM   28  C18 UNL     1      -1.037  -4.183  -3.814  1.00  0.00     0.229 C 
BRANCH  28  29
HETATM   29  N3  UNL     1      -1.106  -4.528  -5.217  1.00  0.00    -0.079 N 
ATOM     30  H33 UNL     1      -1.570  -3.806  -5.768  1.00  0.00     0.274 HD
ATOM     31  H32 UNL     1      -0.191  -4.492  -5.667  1.00  0.00     0.274 HD
ATOM     32  H31 UNL     1      -1.552  -5.439  -5.325  1.00  0.00     0.274 HD
ENDBRANCH  28  29
ENDBRANCH  27  28
ENDBRANCH  26  27
ENDBRANCH  25  26
ENDBRANCH   1  25
BRANCH   1  33
HETATM   33  C19 UNL     1       1.372   0.720  -0.982  1.00  0.00     0.240 C 
HETATM   34  O1  UNL     1       0.788   1.826  -0.956  1.00  0.00    -0.271 OA
HETATM   35  N4  UNL     1       2.741   0.634  -1.244  1.00  0.00    -0.346 N 
ATOM     36  H4  UNL     1       3.162  -0.295  -1.252  1.00  0.00     0.163 HD
BRANCH  35  37
HETATM   37  C20 UNL     1       3.597   1.750  -1.502  1.00  0.00     0.173 C 
BRANCH  37  38
HETATM   38  C21 UNL     1       4.322   2.171  -0.201  1.00  0.00     0.036 C 
BRANCH  38  39
HETATM   39  C22 UNL     1       5.145   1.006   0.321  1.00  0.00     0.022 C 
BRANCH  39  40
HETATM   40  C23 UNL     1       5.827   1.472   1.599  1.00  0.00     0.122 C 
BRANCH  40  41
HETATM   41  N5  UNL     1       6.680   2.589   1.335  1.00  0.00    -0.367 N 
HETATM   42  C24 UNL     1       7.982   2.511   1.436  1.00  0.00     0.196 C 
HETATM   43  N6  UNL     1       8.840   3.593   1.182  1.00  0.00    -0.067 NA
HETATM   44  N7  UNL     1       8.520   1.254   1.824  1.00  0.00    -0.067 NA
ATOM     45  H5  UNL     1       6.259   3.476   1.059  1.00  0.00     0.161 HD
ENDBRANCH  40  41
ENDBRANCH  39  40
ENDBRANCH  38  39
ENDBRANCH  37  38
BRANCH  37  46
HETATM   46  C25 UNL     1       4.616   1.434  -2.525  1.00  0.00     0.254 C 
HETATM   47  N8  UNL     1       5.593   2.387  -2.894  1.00  0.00    -0.060 NA
HETATM   48  O2  UNL     1       4.612   0.310  -3.068  1.00  0.00    -0.275 OA
ENDBRANCH  37  46
ENDBRANCH  35  37
ENDBRANCH   1  33
TORSDOF 22
