REMARK  21 active torsions:
REMARK  status: ('A' for Active; 'I' for Inactive)
REMARK       I    between atoms: C2_2  and  N1_4 
REMARK    1  A    between atoms: N1_4  and  C3_6 
REMARK    2  A    between atoms: C3_6  and  C4_7 
REMARK    3  A    between atoms: C3_6  and  C24_36 
REMARK    4  A    between atoms: C4_7  and  N2_8 
REMARK    5  A    between atoms: N2_8  and  C5_9 
REMARK    6  A    between atoms: N2_8  and  C9_13 
REMARK    7  A    between atoms: C5_9  and  C6_10 
REMARK    8  A    between atoms: C9_13  and  C10_14 
REMARK    9  A    between atoms: C10_14  and  O2_15 
REMARK   10  A    between atoms: C10_14  and  C11_17 
REMARK   11  A    between atoms: C11_17  and  O3_18 
REMARK   12  A    between atoms: C11_17  and  C12_20 
REMARK   13  A    between atoms: C12_20  and  C13_21 
REMARK   14  A    between atoms: C12_20  and  N3_25 
REMARK   15  A    between atoms: C13_21  and  C14_22 
REMARK       I    between atoms: N3_25  and  C17_27 
REMARK       I    between atoms: C17_27  and  N4_29 
REMARK   16  A    between atoms: C24_36  and  N5_37 
REMARK   17  A    between atoms: C24_36  and  C25_41 
REMARK   18  A    between atoms: C25_41  and  C26_42 
REMARK       I    between atoms: C26_42  and  N6_44 
REMARK   19  A    between atoms: N6_44  and  C27_46 
REMARK   20  A    between atoms: C27_46  and  C28_47 
REMARK   21  A    between atoms: C28_47  and  C29_48 
ROOT
HETATM    1  N2  UNL     1      -0.856  -1.477  -0.845  1.00  0.00    -0.365 N 
ENDROOT
BRANCH   1   2
HETATM    2  C4  UNL     1      -1.984  -1.482  -1.661  1.00  0.00     0.117 C 
BRANCH   2   3
HETATM    3  C3  UNL     1      -2.545  -0.283  -2.294  1.00  0.00     0.062 C 
BRANCH   3   4
HETATM    4  N1  UNL     1      -3.726  -0.620  -3.099  1.00  0.00    -0.328 N 
HETATM    5  C2  UNL     1      -3.895  -0.408  -4.458  1.00  0.00     0.218 C 
HETATM    6  C1  UNL     1      -5.147  -0.804  -5.126  1.00  0.00     0.117 C 
HETATM    7  O1  UNL     1      -3.005   0.116  -5.149  1.00  0.00    -0.274 OA
ATOM      8  H1  UNL     1      -4.505  -1.056  -2.605  1.00  0.00     0.168 HD
ENDBRANCH   3   4
BRANCH   3   9
HETATM    9  C24 UNL     1      -2.670   1.000  -1.634  1.00  0.00     0.262 C 
BRANCH   9  10
HETATM   10  N5  UNL     1      -2.865   2.009  -2.755  1.00  0.00    -0.066 N 
ATOM     11  H53 UNL     1      -2.134   1.981  -3.466  1.00  0.00     0.275 HD
ATOM     12  H52 UNL     1      -3.643   1.788  -3.377  1.00  0.00     0.275 HD
ATOM     13  H51 UNL     1      -2.953   2.913  -2.290  1.00  0.00     0.275 HD
ENDBRANCH   9  10
BRANCH   9  14
HETATM   14  C25 UNL     1      -3.627   1.375  -0.622  1.00  0.00     0.086 C 
BRANCH  14  15
HETATM   15  C26 UNL     1      -5.056   1.409  -0.824  1.00  0.00     0.239 C 
HETATM   16  O5  UNL     1      -5.731   1.222  -1.856  1.00  0.00    -0.269 OA
HETATM   17  N6  UNL     1      -5.864   1.708   0.344  1.00  0.00    -0.358 N 
ATOM     18  H6  UNL     1      -5.405   1.884   1.237  1.00  0.00     0.162 HD
BRANCH  17  19
HETATM   19  C27 UNL     1      -7.290   1.761   0.268  1.00  0.00     0.123 C 
BRANCH  19  20
HETATM   20  C28 UNL     1      -8.025   2.075   1.503  1.00  0.00     0.023 C 
BRANCH  20  21
HETATM   21  C29 UNL     1      -7.953   1.155   2.656  1.00  0.00    -0.021 C 
HETATM   22  C30 UNL     1      -6.634   0.877   3.275  1.00  0.00     0.009 C 
HETATM   23  C31 UNL     1      -8.611  -0.184   2.367  1.00  0.00     0.009 C 
ENDBRANCH  20  21
ENDBRANCH  19  20
ENDBRANCH  17  19
ENDBRANCH  14  15
ENDBRANCH   9  14
ENDBRANCH   3   9
ENDBRANCH   2   3
ENDBRANCH   1   2
BRANCH   1  24
HETATM   24  C5  UNL     1      -0.864  -0.965   0.447  1.00  0.00     0.067 C 
BRANCH  24  25
HETATM   25  C6  UNL     1      -1.738  -1.737   1.430  1.00  0.00     0.016 C 
HETATM   26  C7  UNL     1      -1.363  -3.161   1.609  1.00  0.00     0.015 C 
HETATM   27  C8  UNL     1      -1.563  -1.028   2.776  1.00  0.00     0.015 C 
ENDBRANCH  24  25
ENDBRANCH   1  24
BRANCH   1  28
HETATM   28  C9  UNL     1       0.382  -1.369  -1.581  1.00  0.00     0.162 C 
BRANCH  28  29
HETATM   29  C10 UNL     1       1.639  -1.428  -0.790  1.00  0.00     0.167 C 
BRANCH  29  30
HETATM   30  O2  UNL     1       1.792  -2.623  -0.092  1.00  0.00    -0.391 OA
ATOM     31  H2  UNL     1       2.595  -2.661   0.414  1.00  0.00     0.210 HD
ENDBRANCH  29  30
BRANCH  29  32
HETATM   32  C11 UNL     1       2.773  -1.410  -1.828  1.00  0.00     0.171 C 
BRANCH  32  33
HETATM   33  O3  UNL     1       2.721  -2.455  -2.713  1.00  0.00    -0.391 OA
ATOM     34  H3  UNL     1       3.422  -2.444  -3.354  1.00  0.00     0.210 HD
ENDBRANCH  32  33
BRANCH  32  35
HETATM   35  C12 UNL     1       4.125  -1.197  -1.242  1.00  0.00     0.117 C 
BRANCH  35  36
HETATM   36  C13 UNL     1       4.806  -2.437  -0.781  1.00  0.00     0.031 C 
BRANCH  36  37
HETATM   37  C14 UNL     1       6.176  -2.245  -0.197  1.00  0.00    -0.021 C 
HETATM   38  C15 UNL     1       7.191  -1.652  -1.105  1.00  0.00     0.009 C 
HETATM   39  C16 UNL     1       6.678  -3.620   0.249  1.00  0.00     0.009 C 
ENDBRANCH  36  37
ENDBRANCH  35  36
BRANCH  35  40
HETATM   40  N3  UNL     1       4.108  -0.115  -0.297  1.00  0.00    -0.336 N 
HETATM   41  C17 UNL     1       4.659   1.171  -0.538  1.00  0.00     0.318 C 
HETATM   42  O4  UNL     1       5.194   1.302  -1.707  1.00  0.00    -0.247 OA
HETATM   43  N4  UNL     1       4.663   2.249   0.361  1.00  0.00    -0.334 N 
HETATM   44  C18 UNL     1       5.320   3.454  -0.105  1.00  0.00     0.127 C 
HETATM   45  C23 UNL     1       4.026   2.066   1.627  1.00  0.00     0.127 C 
HETATM   46  C19 UNL     1       6.494   3.820   0.769  1.00  0.00     0.020 C 
HETATM   47  C20 UNL     1       6.937   2.606   1.572  1.00  0.00     0.002 C 
HETATM   48  C21 UNL     1       6.128   2.585   2.847  1.00  0.00     0.002 C 
HETATM   49  C22 UNL     1       5.014   1.564   2.678  1.00  0.00     0.020 C 
ATOM     50  H3  UNL     1       3.670  -0.282   0.609  1.00  0.00     0.164 HD
ENDBRANCH  35  40
ENDBRANCH  32  35
ENDBRANCH  29  32
ENDBRANCH  28  29
ENDBRANCH   1  28
TORSDOF 21
