REMARK  19 active torsions:
REMARK  status: ('A' for Active; 'I' for Inactive)
REMARK       I    between atoms: C1_4  and  N3_6 
REMARK    1  A    between atoms: N3_6  and  C2_8 
REMARK    2  A    between atoms: C3_9  and  C4_10 
REMARK    3  A    between atoms: C4_10  and  N4_11 
REMARK    4  A    between atoms: C5_15  and  O1_16 
REMARK    5  A    between atoms: C6_18  and  O2_19 
REMARK    6  A    between atoms: C7_21  and  N5_22 
REMARK    7  A    between atoms: C8_26  and  N6_27 
REMARK    8  A    between atoms: N6_27  and  C9_29 
REMARK    9  A    between atoms: C9_29  and  C10_30 
REMARK   10  A    between atoms: C9_29  and  C12_36 
REMARK   11  A    between atoms: C10_30  and  C11_31 
REMARK   12  A    between atoms: C11_31  and  N7_32 
REMARK   13  A    between atoms: C12_36  and  N9_40 
REMARK   14  A    between atoms: N9_40  and  C13_42 
REMARK   15  A    between atoms: C13_42  and  C14_43 
REMARK   16  A    between atoms: C14_43  and  O3_44 
REMARK   17  A    between atoms: O3_44  and  N10_45 
REMARK   18  A    between atoms: N10_45  and  C15_46 
REMARK   19  A    between atoms: C15_46  and  N11_47 
ROOT
HETATM    1  C2  UNL     1      -2.505  -0.899  -0.664  1.00  0.00     0.044 C 
HETATM    2  C3  UNL     1      -3.626   0.051  -0.487  1.00  0.00     0.094 C 
HETATM    3  C5  UNL     1      -3.630   1.296  -1.287  1.00  0.00     0.161 C 
HETATM    4  C6  UNL     1      -2.552   1.484  -2.288  1.00  0.00     0.184 C 
HETATM    5  C7  UNL     1      -1.506   0.429  -2.371  1.00  0.00     0.265 C 
HETATM    6  C8  UNL     1      -1.185  -0.308  -1.142  1.00  0.00     0.062 C 
ENDROOT
BRANCH   6   7
HETATM    7  N6  UNL     1      -0.338   0.113  -0.156  1.00  0.00    -0.378 N 
ATOM      8  H6  UNL     1      -0.645  -0.038   0.805  1.00  0.00     0.160 HD
BRANCH   7   9
HETATM    9  C9  UNL     1       0.890   0.721  -0.324  1.00  0.00     0.150 C 
BRANCH   9  10
HETATM   10  C10 UNL     1       0.859   2.115  -0.809  1.00  0.00     0.060 C 
BRANCH  10  11
HETATM   11  C11 UNL     1       0.115   3.121  -0.005  1.00  0.00     0.232 C 
BRANCH  11  12
HETATM   12  N7  UNL     1       0.510   3.363   1.330  1.00  0.00    -0.079 N 
ATOM     13  H73 UNL     1       0.514   2.477   1.836  1.00  0.00     0.274 HD
ATOM     14  H72 UNL     1       1.501   3.604   1.340  1.00  0.00     0.274 HD
ATOM     15  H71 UNL     1      -0.000   4.053   1.881  1.00  0.00     0.274 HD
ENDBRANCH  11  12
ENDBRANCH  10  11
ENDBRANCH   9  10
BRANCH   9  16
HETATM   16  C12 UNL     1       1.843   0.562   0.811  1.00  0.00     0.093 C 
HETATM   17  N8  UNL     1       2.718   1.452   1.048  1.00  0.00    -0.387 N 
ATOM     18  H82 UNL     1       2.731   2.293   0.471  1.00  0.00     0.157 HD
ATOM     19  H81 UNL     1       3.370   1.343   1.825  1.00  0.00     0.157 HD
BRANCH  16  20
HETATM   20  N9  UNL     1       1.824  -0.624   1.625  1.00  0.00    -0.376 N 
ATOM     21  H9  UNL     1       1.210  -0.652   2.439  1.00  0.00     0.160 HD
BRANCH  20  22
HETATM   22  C13 UNL     1       2.639  -1.770   1.331  1.00  0.00     0.149 C 
BRANCH  22  23
HETATM   23  C14 UNL     1       4.126  -1.473   1.540  1.00  0.00     0.215 C 
BRANCH  23  24
HETATM   24  O3  UNL     1       4.853  -2.609   1.239  1.00  0.00    -0.283 OA
BRANCH  24  25
HETATM   25  N10 UNL     1       6.170  -2.485   1.381  1.00  0.00    -0.074 NA
BRANCH  25  26
HETATM   26  C15 UNL     1       6.581  -1.102   1.349  1.00  0.00     0.371 C 
BRANCH  26  27
HETATM   27  N11 UNL     1       8.039  -1.025   1.513  1.00  0.00    -0.064 N 
ATOM     28 3H11 UNL     1       8.359  -1.504   2.355  1.00  0.00     0.275 HD
ATOM     29 2H11 UNL     1       8.536  -1.592   0.826  1.00  0.00     0.275 HD
ATOM     30 1H11 UNL     1       8.329  -0.048   1.490  1.00  0.00     0.275 HD
ENDBRANCH  26  27
ENDBRANCH  25  26
ENDBRANCH  24  25
ENDBRANCH  23  24
ENDBRANCH  22  23
ENDBRANCH  20  22
ENDBRANCH  16  20
ENDBRANCH   9  16
ENDBRANCH   7   9
ENDBRANCH   6   7
BRANCH   1  31
HETATM   31  N3  UNL     1      -2.357  -1.875   0.388  1.00  0.00    -0.332 N 
HETATM   32  C1  UNL     1      -3.413  -2.822   0.674  1.00  0.00     0.186 C 
HETATM   33  N1  UNL     1      -3.602  -3.297   1.842  1.00  0.00    -0.374 N 
HETATM   34  N2  UNL     1      -4.213  -3.175  -0.451  1.00  0.00    -0.064 NA
ATOM     35  H12 UNL     1      -4.346  -3.965   2.044  1.00  0.00     0.158 HD
ATOM     36  H11 UNL     1      -3.029  -3.044   2.647  1.00  0.00     0.158 HD
ATOM     37  H3  UNL     1      -1.498  -1.898   0.937  1.00  0.00     0.168 HD
ENDBRANCH   1  31
BRANCH   5  38
HETATM   38  N5  UNL     1      -2.103  -0.615  -3.292  1.00  0.00    -0.067 N 
ATOM     39  H53 UNL     1      -3.019  -0.956  -2.999  1.00  0.00     0.275 HD
ATOM     40  H52 UNL     1      -2.403  -0.252  -4.197  1.00  0.00     0.275 HD
ATOM     41  H51 UNL     1      -1.386  -1.338  -3.349  1.00  0.00     0.275 HD
ENDBRANCH   5  38
BRANCH   2  42
HETATM   42  C4  UNL     1      -3.873   0.454   0.979  1.00  0.00     0.243 C 
BRANCH  42  43
HETATM   43  N4  UNL     1      -2.759   1.088   1.593  1.00  0.00    -0.079 N 
ATOM     44  H43 UNL     1      -1.926   0.505   1.516  1.00  0.00     0.274 HD
ATOM     45  H42 UNL     1      -2.456   1.893   1.045  1.00  0.00     0.274 HD
ATOM     46  H41 UNL     1      -2.923   1.355   2.564  1.00  0.00     0.274 HD
ENDBRANCH  42  43
ENDBRANCH   2  42
BRANCH   4  47
HETATM   47  O2  UNL     1      -3.089   1.610  -3.602  1.00  0.00    -0.390 OA
ATOM     48  H2  UNL     1      -2.398   1.730  -4.243  1.00  0.00     0.210 HD
ENDBRANCH   4  47
BRANCH   3  49
HETATM   49  O1  UNL     1      -3.787   2.451  -0.466  1.00  0.00    -0.392 OA
ATOM     50  H1  UNL     1      -3.790   3.250  -0.980  1.00  0.00     0.210 HD
ENDBRANCH   3  49
TORSDOF 19
