REMARK  15 active torsions:
REMARK  status: ('A' for Active; 'I' for Inactive)
REMARK       I    between atoms: C1_4  and  N3_6 
REMARK    1  A    between atoms: N3_6  and  C2_8 
REMARK    2  A    between atoms: C2_8  and  C3_9 
REMARK    3  A    between atoms: N4_10  and  C4_12 
REMARK    4  A    between atoms: C5_13  and  O1_14 
REMARK    5  A    between atoms: C6_16  and  N5_17 
REMARK    6  A    between atoms: C7_21  and  O2_22 
REMARK    7  A    between atoms: C8_24  and  O3_25 
REMARK    8  A    between atoms: O3_25  and  C9_26 
REMARK    9  A    between atoms: C10_28  and  N6_29 
REMARK   10  A    between atoms: N6_29  and  N7_30 
REMARK   11  A    between atoms: C11_33  and  N8_34 
REMARK   12  A    between atoms: N8_34  and  C12_37 
REMARK   13  A    between atoms: C12_37  and  C13_38 
REMARK   14  A    between atoms: C13_38  and  C14_39 
REMARK   15  A    between atoms: C14_39  and  N9_40 
REMARK       I    between atoms: N9_40  and  C15_43 
REMARK       I    between atoms: C15_43  and  N10_44 
REMARK       I    between atoms: C15_43  and  N11_48 
ROOT
HETATM    1  C9  UNL     1      -0.189  -2.360  -0.131  1.00  0.00     0.297 C 
HETATM    2  O4  UNL     1       0.718  -3.126   0.609  1.00  0.00    -0.334 OA
HETATM    3  C10 UNL     1       1.669  -2.773  -0.374  1.00  0.00     0.272 C 
HETATM    4  C11 UNL     1       0.956  -1.453  -0.528  1.00  0.00     0.286 C 
ENDROOT
BRANCH   1   5
HETATM    5  O3  UNL     1      -1.207  -1.774   0.575  1.00  0.00    -0.349 OA
BRANCH   5   6
HETATM    6  C8  UNL     1      -2.407  -2.006  -0.040  1.00  0.00     0.180 C 
HETATM    7  C4  UNL     1      -3.114  -0.754  -0.520  1.00  0.00     0.143 C 
HETATM    8  C5  UNL     1      -4.457  -1.364  -0.942  1.00  0.00     0.176 C 
HETATM    9  C6  UNL     1      -4.790  -2.183   0.307  1.00  0.00     0.245 C 
HETATM   10  C7  UNL     1      -3.444  -2.685   0.811  1.00  0.00     0.182 C 
BRANCH   7  11
HETATM   11  N4  UNL     1      -2.439  -0.272  -1.688  1.00  0.00    -0.391 N 
HETATM   12  C3  UNL     1      -2.497   0.972  -2.043  1.00  0.00     0.075 C 
ATOM     13  H4  UNL     1      -1.899  -0.926  -2.255  1.00  0.00     0.159 HD
BRANCH  12  14
HETATM   14  C2  UNL     1      -3.267   1.985  -1.266  1.00  0.00     0.166 C 
BRANCH  14  15
HETATM   15  N3  UNL     1      -2.500   2.505  -0.159  1.00  0.00    -0.360 N 
HETATM   16  C1  UNL     1      -3.098   3.479   0.679  1.00  0.00     0.182 C 
HETATM   17  N1  UNL     1      -3.786   3.132   1.687  1.00  0.00    -0.374 N 
HETATM   18  N2  UNL     1      -2.920   4.855   0.378  1.00  0.00    -0.064 NA
ATOM     19  H12 UNL     1      -4.216   3.833   2.290  1.00  0.00     0.158 HD
ATOM     20  H11 UNL     1      -3.914   2.143   1.903  1.00  0.00     0.158 HD
ATOM     21  H3  UNL     1      -1.550   2.179   0.016  1.00  0.00     0.162 HD
ENDBRANCH  14  15
ENDBRANCH  12  14
ENDBRANCH   7  11
BRANCH   8  22
HETATM   22  O1  UNL     1      -4.201  -2.232  -1.984  1.00  0.00    -0.391 OA
ATOM     23  H1  UNL     1      -5.033  -2.610  -2.245  1.00  0.00     0.210 HD
ENDBRANCH   8  22
BRANCH   9  24
HETATM   24  N5  UNL     1      -5.636  -3.307  -0.001  1.00  0.00    -0.070 N 
ATOM     25  H53 UNL     1      -6.482  -3.013  -0.489  1.00  0.00     0.274 HD
ATOM     26  H52 UNL     1      -5.227  -3.891  -0.730  1.00  0.00     0.274 HD
ATOM     27  H51 UNL     1      -5.858  -3.853   0.832  1.00  0.00     0.274 HD
ENDBRANCH   9  24
BRANCH  10  28
HETATM   28  O2  UNL     1      -3.362  -4.066   0.643  1.00  0.00    -0.391 OA
ATOM     29  H2  UNL     1      -2.522  -4.379   0.958  1.00  0.00     0.210 HD
ENDBRANCH  10  28
ENDBRANCH   5   6
ENDBRANCH   1   5
BRANCH   4  30
HETATM   30  N8  UNL     1       1.295  -0.425   0.403  1.00  0.00    -0.062 N 
ATOM     31  H82 UNL     1       0.487   0.124   0.695  1.00  0.00     0.277 HD
ATOM     32  H81 UNL     1       1.550  -0.792   1.320  1.00  0.00     0.277 HD
BRANCH  30  33
HETATM   33  C12 UNL     1       2.344   0.390  -0.186  1.00  0.00     0.235 C 
BRANCH  33  34
HETATM   34  C13 UNL     1       2.756   1.503   0.751  1.00  0.00     0.055 C 
BRANCH  34  35
HETATM   35  C14 UNL     1       3.838   2.369   0.171  1.00  0.00     0.238 C 
BRANCH  35  36
HETATM   36  N9  UNL     1       5.034   1.635  -0.127  1.00  0.00    -0.022 N 
HETATM   37  C15 UNL     1       6.075   2.486  -0.678  1.00  0.00     0.575 C 
HETATM   38  N10 UNL     1       6.464   3.543   0.208  1.00  0.00    -0.026 N 
HETATM   39  N11 UNL     1       7.254   1.716  -1.026  1.00  0.00    -0.026 N 
ATOM     40 3H10 UNL     1       5.655   4.096   0.492  1.00  0.00     0.278 HD
ATOM     41 2H10 UNL     1       6.741   3.172   1.117  1.00  0.00     0.278 HD
ATOM     42 1H10 UNL     1       7.195   4.140  -0.179  1.00  0.00     0.278 HD
ATOM     43 3H11 UNL     1       7.595   1.173  -0.232  1.00  0.00     0.278 HD
ATOM     44 2H11 UNL     1       7.027   0.947  -1.656  1.00  0.00     0.278 HD
ATOM     45 1H11 UNL     1       7.985   2.313  -1.413  1.00  0.00     0.278 HD
ATOM     46  H92 UNL     1       5.368   1.125   0.691  1.00  0.00     0.281 HD
ATOM     47  H91 UNL     1       4.839   0.845  -0.742  1.00  0.00     0.281 HD
ENDBRANCH  35  36
ENDBRANCH  34  35
ENDBRANCH  33  34
ENDBRANCH  30  33
ENDBRANCH   4  30
BRANCH   3  48
HETATM   48  N6  UNL     1       2.996  -2.750   0.151  1.00  0.00    -0.114 NA
BRANCH  48  49
HETATM   49  N7  UNL     1       3.271  -4.059   0.628  1.00  0.00    -0.346 N 
ATOM     50  H72 UNL     1       2.632  -4.853   0.595  1.00  0.00     0.172 HD
ATOM     51  H71 UNL     1       4.219  -4.043   1.003  1.00  0.00     0.172 HD
ENDBRANCH  48  49
ENDBRANCH   3  48
TORSDOF 15
