REMARK  17 active torsions:
REMARK  status: ('A' for Active; 'I' for Inactive)
REMARK    1  A    between atoms: N1_1  and  C1_4 
REMARK    2  A    between atoms: C3_9  and  N4_10 
REMARK    3  A    between atoms: N4_10  and  N5_12 
REMARK    4  A    between atoms: C4_14  and  N6_15 
REMARK    5  A    between atoms: N6_15  and  N7_17 
REMARK    6  A    between atoms: N7_17  and  C5_19 
REMARK    7  A    between atoms: C5_19  and  N8_20 
REMARK    8  A    between atoms: C5_19  and  C6_24 
REMARK    9  A    between atoms: C6_24  and  N9_25 
REMARK   10  A    between atoms: N9_25  and  N10_26 
REMARK   11  A    between atoms: N9_25  and  C7_29 
REMARK   12  A    between atoms: C7_29  and  C8_30 
REMARK   13  A    between atoms: C8_30  and  O1_31 
REMARK   14  A    between atoms: O1_31  and  C9_32 
REMARK   15  A    between atoms: C11_34  and  N11_35 
REMARK   16  A    between atoms: C12_39  and  O2_40 
REMARK   17  A    between atoms: C13_42  and  O3_43 
ROOT
HETATM    1  C5  UNL     1       1.219  -1.129  -0.911  1.00  0.00     0.311 C 
ENDROOT
BRANCH   1   2
HETATM    2  N7  UNL     1       1.901  -0.155  -0.166  1.00  0.00    -0.304 N 
ATOM      3  H7  UNL     1       2.233  -0.393   0.768  1.00  0.00     0.182 HD
BRANCH   2   4
HETATM    4  N6  UNL     1       2.131   1.079  -0.640  1.00  0.00    -0.297 N 
ATOM      5  H6  UNL     1       1.415   1.792  -0.500  1.00  0.00     0.187 HD
BRANCH   4   6
HETATM    6  C4  UNL     1       3.335   1.449  -1.336  1.00  0.00     0.213 C 
HETATM    7  N5  UNL     1       4.480   0.955  -1.159  1.00  0.00    -0.294 N 
ATOM      8  H5  UNL     1       5.204   1.355  -1.755  1.00  0.00     0.187 HD
BRANCH   7   9
HETATM    9  N4  UNL     1       4.926  -0.016  -0.316  1.00  0.00    -0.292 N 
ATOM     10  H4  UNL     1       4.291  -0.777  -0.074  1.00  0.00     0.187 HD
BRANCH   9  11
HETATM   11  C3  UNL     1       6.232  -0.022   0.244  1.00  0.00     0.159 A 
HETATM   12  C2  UNL     1       7.209   0.895  -0.105  1.00  0.00     0.165 A 
HETATM   13  N2  UNL     1       8.446   0.885   0.458  1.00  0.00    -0.176 N 
HETATM   14  N3  UNL     1       6.895   1.874  -1.097  1.00  0.00    -0.079 NA
HETATM   15  C1  UNL     1       8.764  -0.030   1.384  1.00  0.00     0.680 A 
ATOM     16  H2  UNL     1       9.137   1.579   0.174  1.00  0.00     0.185 HD
HETATM   17  N12 UNL     1       7.824  -0.928   1.734  1.00  0.00    -0.154 N 
HETATM   18  C14 UNL     1       6.602  -0.957   1.211  1.00  0.00     0.291 A 
ATOM     19  H12 UNL     1       8.063  -1.625   2.440  1.00  0.00     0.187 HD
HETATM   20  O4  UNL     1       5.723  -1.805   1.546  1.00  0.00    -0.265 OA
BRANCH  15  21
HETATM   21  N1  UNL     1       9.934  -0.071   1.957  1.00  0.00    -0.234 N 
ATOM     22  H12 UNL     1      10.646   0.609   1.692  1.00  0.00     0.174 HD
ATOM     23  H11 UNL     1      10.176  -0.767   2.662  1.00  0.00     0.174 HD
ENDBRANCH  15  21
ENDBRANCH   9  11
ENDBRANCH   7   9
ENDBRANCH   4   6
ENDBRANCH   2   4
ENDBRANCH   1   2
BRANCH   1  24
HETATM   24  N8  UNL     1       1.848  -1.372  -2.222  1.00  0.00    -0.056 N 
ATOM     25  H83 UNL     1       1.945  -0.505  -2.750  1.00  0.00     0.276 HD
ATOM     26  H82 UNL     1       2.834  -1.611  -2.119  1.00  0.00     0.276 HD
ATOM     27  H81 UNL     1       1.352  -2.080  -2.764  1.00  0.00     0.276 HD
ENDBRANCH   1  24
BRANCH   1  28
HETATM   28  C6  UNL     1      -0.242  -0.917  -1.088  1.00  0.00     0.168 C 
BRANCH  28  29
HETATM   29  N9  UNL     1      -0.975  -0.876   0.155  1.00  0.00    -0.232 NA
BRANCH  29  30
HETATM   30  N10 UNL     1      -0.553   0.156   0.990  1.00  0.00    -0.363 NA
ATOM     31 2H10 UNL     1       0.456   0.136   1.141  1.00  0.00     0.171 HD
ATOM     32 1H10 UNL     1      -1.071   0.185   1.868  1.00  0.00     0.171 HD
ENDBRANCH  29  30
BRANCH  29  33
HETATM   33  C7  UNL     1      -2.408  -0.847  -0.060  1.00  0.00     0.139 C 
BRANCH  33  34
HETATM   34  C8  UNL     1      -3.190  -0.852   1.205  1.00  0.00     0.184 C 
BRANCH  34  35
HETATM   35  O1  UNL     1      -4.542  -0.839   0.949  1.00  0.00    -0.382 OA
BRANCH  35  36
HETATM   36  C9  UNL     1      -5.021   0.264   0.266  1.00  0.00     0.154 C 
HETATM   37  C10 UNL     1      -6.134   0.853   1.117  1.00  0.00     0.070 C 
HETATM   38  C11 UNL     1      -7.414   0.465   0.474  1.00  0.00     0.217 C 
HETATM   39  C12 UNL     1      -7.063  -0.712  -0.398  1.00  0.00     0.179 C 
HETATM   40  C13 UNL     1      -5.738  -0.232  -0.998  1.00  0.00     0.177 C 
BRANCH  38  41
HETATM   41  N11 UNL     1      -7.879   1.545  -0.387  1.00  0.00    -0.072 N 
ATOM     42 3H11 UNL     1      -7.954   2.430   0.114  1.00  0.00     0.274 HD
ATOM     43 2H11 UNL     1      -7.174   1.822  -1.071  1.00  0.00     0.274 HD
ATOM     44 1H11 UNL     1      -8.759   1.278  -0.829  1.00  0.00     0.274 HD
ENDBRANCH  38  41
BRANCH  39  45
HETATM   45  O2  UNL     1      -6.865  -1.849   0.369  1.00  0.00    -0.391 OA
ATOM     46  H2  UNL     1      -6.644  -2.591  -0.181  1.00  0.00     0.210 HD
ENDBRANCH  39  45
BRANCH  40  47
HETATM   47  O3  UNL     1      -6.039   0.784  -1.873  1.00  0.00    -0.390 OA
ATOM     48  H3  UNL     1      -6.483   0.477  -2.655  1.00  0.00     0.210 HD
ENDBRANCH  40  47
ENDBRANCH  35  36
ENDBRANCH  34  35
ENDBRANCH  33  34
ENDBRANCH  29  33
ENDBRANCH  28  29
ENDBRANCH   1  28
TORSDOF 17
