REMARK  20 active torsions:
REMARK  status: ('A' for Active; 'I' for Inactive)
REMARK    1  A    between atoms: N1_1  and  C1_5 
REMARK    2  A    between atoms: C1_5  and  C2_6 
REMARK    3  A    between atoms: C2_6  and  N2_7 
REMARK    4  A    between atoms: N2_7  and  C3_10 
REMARK    5  A    between atoms: C3_10  and  C4_11 
REMARK    6  A    between atoms: C4_11  and  C5_12 
REMARK    7  A    between atoms: C5_12  and  C6_13 
REMARK    8  A    between atoms: C6_13  and  N3_14 
REMARK    9  A    between atoms: N3_14  and  C7_17 
REMARK   10  A    between atoms: C7_17  and  C8_18 
REMARK   11  A    between atoms: C8_18  and  N4_19 
REMARK   12  A    between atoms: N4_19  and  C9_21 
REMARK   13  A    between atoms: C10_22  and  O1_23 
REMARK   14  A    between atoms: C11_25  and  O2_26 
REMARK   15  A    between atoms: C12_28  and  O3_29 
REMARK   16  A    between atoms: C13_31  and  N5_32 
REMARK       I    between atoms: N5_32  and  C14_34 
REMARK       I    between atoms: C14_34  and  N8_40 
REMARK   17  A    between atoms: N6_35  and  N7_37 
REMARK   18  A    between atoms: N8_40  and  N9_41 
REMARK   19  A    between atoms: N8_40  and  O4_44 
REMARK   20  A    between atoms: C15_46  and  O5_47 
ROOT
HETATM    1  C9  UNL     1      -2.296   0.593   0.306  1.00  0.00     0.139 C 
HETATM    2  C10 UNL     1      -2.189   1.384  -0.986  1.00  0.00     0.174 C 
HETATM    3  C11 UNL     1      -3.468   2.151  -1.156  1.00  0.00     0.179 C 
HETATM    4  C12 UNL     1      -4.675   1.355  -0.707  1.00  0.00     0.175 C 
HETATM    5  C13 UNL     1      -4.426  -0.118  -0.755  1.00  0.00     0.161 C 
HETATM    6  C15 UNL     1      -3.338  -0.478   0.245  1.00  0.00     0.168 C 
ENDROOT
BRANCH   1   7
HETATM    7  N4  UNL     1      -1.032   0.256   0.841  1.00  0.00    -0.411 N 
ATOM      8  H4  UNL     1      -0.746   0.647   1.738  1.00  0.00     0.153 HD
BRANCH   7   9
HETATM    9  C8  UNL     1      -0.166  -0.607   0.158  1.00  0.00     0.142 C 
BRANCH   9  10
HETATM   10  C7  UNL     1       1.242  -0.365   0.735  1.00  0.00     0.251 C 
BRANCH  10  11
HETATM   11  N3  UNL     1       2.216  -1.206   0.086  1.00  0.00    -0.074 N 
ATOM     12  H32 UNL     1       2.049  -1.253  -0.919  1.00  0.00     0.277 HD
ATOM     13  H31 UNL     1       2.069  -2.187   0.323  1.00  0.00     0.277 HD
BRANCH  11  14
HETATM   14  C6  UNL     1       3.592  -0.796   0.372  1.00  0.00     0.232 C 
BRANCH  14  15
HETATM   15  C5  UNL     1       3.863   0.526  -0.346  1.00  0.00     0.029 C 
BRANCH  15  16
HETATM   16  C4  UNL     1       5.261   0.959  -0.059  1.00  0.00     0.029 C 
BRANCH  16  17
HETATM   17  C3  UNL     1       6.306  -0.052  -0.509  1.00  0.00     0.232 C 
BRANCH  17  18
HETATM   18  N2  UNL     1       7.599   0.521  -0.205  1.00  0.00    -0.074 N 
ATOM     19  H22 UNL     1       7.650   0.817   0.770  1.00  0.00     0.277 HD
ATOM     20  H21 UNL     1       7.715   1.428  -0.657  1.00  0.00     0.277 HD
BRANCH  18  21
HETATM   21  C2  UNL     1       8.667  -0.352  -0.531  1.00  0.00     0.259 C 
BRANCH  21  22
HETATM   22  C1  UNL     1       8.719  -1.541   0.404  1.00  0.00     0.257 C 
BRANCH  22  23
HETATM   23  N1  UNL     1       8.906  -1.081   1.787  1.00  0.00    -0.078 N 
ATOM     24  H13 UNL     1       9.725  -0.481   1.884  1.00  0.00     0.274 HD
ATOM     25  H12 UNL     1       8.194  -0.405   2.066  1.00  0.00     0.274 HD
ATOM     26  H11 UNL     1       8.941  -1.882   2.417  1.00  0.00     0.274 HD
ENDBRANCH  22  23
ENDBRANCH  21  22
ENDBRANCH  18  21
ENDBRANCH  17  18
ENDBRANCH  16  17
ENDBRANCH  15  16
ENDBRANCH  14  15
ENDBRANCH  11  14
ENDBRANCH  10  11
ENDBRANCH   9  10
ENDBRANCH   7   9
ENDBRANCH   1   7
BRANCH   2  27
HETATM   27  O1  UNL     1      -1.886   0.683  -2.103  1.00  0.00    -0.391 OA
ATOM     28  H1  UNL     1      -1.819   1.178  -2.911  1.00  0.00     0.210 HD
ENDBRANCH   2  27
BRANCH   6  29
HETATM   29  O5  UNL     1      -2.782  -1.724  -0.092  1.00  0.00    -0.391 OA
ATOM     30  H5  UNL     1      -3.444  -2.404  -0.131  1.00  0.00     0.210 HD
ENDBRANCH   6  29
BRANCH   3  31
HETATM   31  O2  UNL     1      -3.694   2.612  -2.436  1.00  0.00    -0.390 OA
ATOM     32  H2  UNL     1      -4.503   3.097  -2.544  1.00  0.00     0.210 HD
ENDBRANCH   3  31
BRANCH   5  33
HETATM   33  N5  UNL     1      -5.653  -0.851  -0.570  1.00  0.00    -0.212 N 
HETATM   34  C14 UNL     1      -6.508  -0.884   0.528  1.00  0.00     0.734 C 
HETATM   35  N6  UNL     1      -6.595  -1.909   1.297  1.00  0.00    -0.135 N 
HETATM   36  N8  UNL     1      -7.378   0.186   0.844  1.00  0.00     0.010 N 
ATOM     37  H6  UNL     1      -7.232  -1.902   2.093  1.00  0.00     0.205 HD
ATOM     38  H5  UNL     1      -5.937  -1.431  -1.360  1.00  0.00     0.178 HD
BRANCH  35  39
HETATM   39  N7  UNL     1      -5.812  -3.031   1.035  1.00  0.00    -0.331 N 
ATOM     40  H72 UNL     1      -5.180  -3.022   0.235  1.00  0.00     0.177 HD
ATOM     41  H71 UNL     1      -5.881  -3.845   1.646  1.00  0.00     0.177 HD
ENDBRANCH  35  39
BRANCH  36  42
HETATM   42  N9  UNL     1      -7.290   0.990   1.986  1.00  0.00    -0.304 N 
ATOM     43  H92 UNL     1      -6.533   0.815   2.647  1.00  0.00     0.180 HD
ATOM     44  H91 UNL     1      -7.917   1.761   2.214  1.00  0.00     0.180 HD
ENDBRANCH  36  42
BRANCH  36  45
HETATM   45  O4  UNL     1      -8.398   0.422  -0.046  1.00  0.00    -0.255 OA
ATOM     46  H4  UNL     1      -8.982   1.140   0.166  1.00  0.00     0.247 HD
ENDBRANCH  36  45
ENDBRANCH   5  33
BRANCH   4  47
HETATM   47  O3  UNL     1      -5.723   1.610  -1.613  1.00  0.00    -0.391 OA
ATOM     48  H3  UNL     1      -6.480   1.111  -1.331  1.00  0.00     0.210 HD
ENDBRANCH   4  47
TORSDOF 20
