REMARK  19 active torsions:
REMARK  status: ('A' for Active; 'I' for Inactive)
REMARK    1  A    between atoms: N1_1  and  C1_5 
REMARK    2  A    between atoms: C1_5  and  C2_6 
REMARK    3  A    between atoms: C2_6  and  C3_7 
REMARK    4  A    between atoms: C3_7  and  C4_8 
REMARK    5  A    between atoms: C4_8  and  N2_9 
REMARK    6  A    between atoms: N2_9  and  N3_10 
REMARK    7  A    between atoms: N3_10  and  C5_11 
REMARK    8  A    between atoms: C5_11  and  C6_12 
REMARK    9  A    between atoms: C6_12  and  N4_13 
REMARK   10  A    between atoms: N4_13  and  C7_16 
REMARK   11  A    between atoms: C8_20  and  O1_21 
REMARK   12  A    between atoms: O1_21  and  C9_22 
REMARK   13  A    between atoms: C10_23  and  N6_24 
REMARK   14  A    between atoms: C11_28  and  O2_29 
REMARK   15  A    between atoms: C12_31  and  N7_32 
REMARK   16  A    between atoms: C13_36  and  N8_37 
REMARK   17  A    between atoms: C14_41  and  O3_42 
REMARK   18  A    between atoms: C15_44  and  O4_45 
REMARK   19  A    between atoms: C16_47  and  O5_48 
ROOT
HETATM    1  C7  UNL     1       0.028  -0.031   0.705  1.00  0.00     0.416 C 
HETATM    2  N5  UNL     1      -1.081  -0.327  -0.186  1.00  0.00    -0.015 N 
ATOM      3  H51 UNL     1      -1.115  -1.280  -0.547  1.00  0.00     0.282 HD
ATOM      4  H52 UNL     1      -1.037   0.111  -1.106  1.00  0.00     0.282 HD
HETATM    5  C8  UNL     1      -2.200   0.070   0.646  1.00  0.00     0.355 C 
HETATM    6  C15 UNL     1      -1.822   1.470   1.060  1.00  0.00     0.207 C 
HETATM    7  C16 UNL     1      -0.300   1.365   1.173  1.00  0.00     0.209 C 
ENDROOT
BRANCH   5   8
HETATM    8  O1  UNL     1      -3.387   0.134  -0.062  1.00  0.00    -0.347 OA
BRANCH   8   9
HETATM    9  C9  UNL     1      -4.412  -0.626   0.424  1.00  0.00     0.188 C 
HETATM   10  C10 UNL     1      -4.754  -1.745  -0.560  1.00  0.00     0.245 C 
HETATM   11  C11 UNL     1      -5.371  -1.217  -1.819  1.00  0.00     0.183 C 
HETATM   12  C12 UNL     1      -6.600  -0.380  -1.555  1.00  0.00     0.246 C 
HETATM   13  C13 UNL     1      -6.367   0.651  -0.484  1.00  0.00     0.247 C 
HETATM   14  C14 UNL     1      -5.684   0.081   0.728  1.00  0.00     0.181 C 
BRANCH  10  15
HETATM   15  N6  UNL     1      -5.706  -2.642   0.067  1.00  0.00    -0.070 N 
ATOM     16  H63 UNL     1      -5.374  -2.999   0.963  1.00  0.00     0.274 HD
ATOM     17  H62 UNL     1      -6.535  -2.155   0.407  1.00  0.00     0.274 HD
ATOM     18  H61 UNL     1      -5.934  -3.389  -0.589  1.00  0.00     0.274 HD
ENDBRANCH  10  15
BRANCH  11  19
HETATM   19  O2  UNL     1      -5.778  -2.314  -2.577  1.00  0.00    -0.391 OA
ATOM     20  H2  UNL     1      -6.169  -1.979  -3.375  1.00  0.00     0.210 HD
ENDBRANCH  11  19
BRANCH  12  21
HETATM   21  N7  UNL     1      -7.747  -1.201  -1.192  1.00  0.00    -0.070 N 
ATOM     22  H73 UNL     1      -7.929  -1.916  -1.896  1.00  0.00     0.274 HD
ATOM     23  H72 UNL     1      -7.534  -1.807  -0.400  1.00  0.00     0.274 HD
ATOM     24  H71 UNL     1      -8.577  -0.636  -1.014  1.00  0.00     0.274 HD
ENDBRANCH  12  21
BRANCH  13  25
HETATM   25  N8  UNL     1      -5.721   1.789  -1.051  1.00  0.00    -0.070 N 
ATOM     26  H83 UNL     1      -4.861   1.540  -1.540  1.00  0.00     0.274 HD
ATOM     27  H82 UNL     1      -6.236   2.168  -1.846  1.00  0.00     0.274 HD
ATOM     28  H81 UNL     1      -5.563   2.488  -0.325  1.00  0.00     0.274 HD
ENDBRANCH  13  25
BRANCH  14  29
HETATM   29  O3  UNL     1      -5.620   1.056   1.689  1.00  0.00    -0.391 OA
ATOM     30  H3  UNL     1      -6.433   1.508   1.883  1.00  0.00     0.210 HD
ENDBRANCH  14  29
ENDBRANCH   8   9
ENDBRANCH   5   8
BRANCH   6  31
HETATM   31  O4  UNL     1      -2.368   1.776   2.313  1.00  0.00    -0.388 OA
ATOM     32  H4  UNL     1      -2.130   2.658   2.574  1.00  0.00     0.210 HD
ENDBRANCH   6  31
BRANCH   1  33
HETATM   33  N4  UNL     1       1.313  -0.122   0.090  1.00  0.00    -0.042 N 
ATOM     34  H42 UNL     1       1.387   0.447  -0.753  1.00  0.00     0.279 HD
ATOM     35  H41 UNL     1       1.479  -1.031  -0.342  1.00  0.00     0.279 HD
BRANCH  33  36
HETATM   36  C6  UNL     1       2.314   0.216   1.082  1.00  0.00     0.252 C 
BRANCH  36  37
HETATM   37  C5  UNL     1       3.721   0.132   0.479  1.00  0.00     0.158 C 
BRANCH  37  38
HETATM   38  N3  UNL     1       4.683   0.477   1.502  1.00  0.00    -0.147 NA
BRANCH  38  39
HETATM   39  N2  UNL     1       5.973   0.414   1.010  1.00  0.00    -0.149 NA
BRANCH  39  40
HETATM   40  C4  UNL     1       6.094  -0.476  -0.097  1.00  0.00     0.130 C 
BRANCH  40  41
HETATM   41  C3  UNL     1       7.529  -0.535  -0.589  1.00  0.00     0.019 C 
BRANCH  41  42
HETATM   42  C2  UNL     1       8.053   0.793  -1.043  1.00  0.00     0.028 C 
BRANCH  42  43
HETATM   43  C1  UNL     1       9.489   0.573  -1.506  1.00  0.00     0.229 C 
BRANCH  43  44
HETATM   44  N1  UNL     1      10.258   0.062  -0.390  1.00  0.00    -0.079 N 
ATOM     45  H13 UNL     1      10.199   0.662   0.433  1.00  0.00     0.274 HD
ATOM     46  H12 UNL     1       9.845  -0.777   0.019  1.00  0.00     0.274 HD
ATOM     47  H11 UNL     1      11.219  -0.085  -0.700  1.00  0.00     0.274 HD
ENDBRANCH  43  44
ENDBRANCH  42  43
ENDBRANCH  41  42
ENDBRANCH  40  41
ENDBRANCH  39  40
ENDBRANCH  38  39
ENDBRANCH  37  38
ENDBRANCH  36  37
ENDBRANCH  33  36
ENDBRANCH   1  33
BRANCH   7  48
HETATM   48  O5  UNL     1       0.284   2.333   0.356  1.00  0.00    -0.389 OA
ATOM     49  H5  UNL     1       0.077   3.212   0.651  1.00  0.00     0.210 HD
ENDBRANCH   7  48
TORSDOF 19
