REMARK  5 active torsions:
REMARK  status: ('A' for Active; 'I' for Inactive)
REMARK    1  A    between atoms: C2_2  and  C3_3 
REMARK    2  A    between atoms: C3_3  and  N1_4 
REMARK    3  A    between atoms: N1_4  and  C4_7 
REMARK    4  A    between atoms: C4_7  and  C5_8 
REMARK    5  A    between atoms: C5_8  and  C6_9 
ROOT
HETATM    1  N1  UNL     1       1.558  -1.122   0.013  1.00  0.00    -0.072 N 
ATOM      2  H11 UNL     1       1.246  -2.038   0.337  1.00  0.00     0.277 HD
ATOM      3  H12 UNL     1       1.735  -1.373  -0.960  1.00  0.00     0.277 HD
ENDROOT
BRANCH   1   4
HETATM    4  C3  UNL     1       2.747  -0.663   0.697  1.00  0.00     0.259 C 
BRANCH   4   5
HETATM    5  C2  UNL     1       3.420   0.471   0.066  1.00  0.00    -0.010 C 
HETATM    6  C1  UNL     1       4.667   0.401  -0.337  1.00  0.00     0.008 C 
ENDBRANCH   4   5
ENDBRANCH   1   4
BRANCH   1   7
HETATM    7  C4  UNL     1       0.520  -0.085   0.153  1.00  0.00     0.233 C 
BRANCH   7   8
HETATM    8  C5  UNL     1      -0.709  -0.627  -0.499  1.00  0.00     0.032 C 
BRANCH   8   9
HETATM    9  C6  UNL     1      -1.893   0.309  -0.454  1.00  0.00    -0.013 C 
HETATM   10  C7  UNL     1      -2.351   0.705   0.937  1.00  0.00     0.005 C 
HETATM   11  C8  UNL     1      -3.772   0.587   0.423  1.00  0.00     0.001 C 
HETATM   12  C9  UNL     1      -3.235  -0.403  -0.594  1.00  0.00     0.005 C 
ENDBRANCH   8   9
ENDBRANCH   7   8
ENDBRANCH   1   7
TORSDOF 5
