REMARK  4 active torsions:
REMARK  status: ('A' for Active; 'I' for Inactive)
REMARK    1  A    between atoms: C2_2  and  C3_3 
REMARK    2  A    between atoms: C3_3  and  C4_4 
REMARK    3  A    between atoms: C4_4  and  C5_5 
REMARK    4  A    between atoms: C5_5  and  C6_6 
ROOT
HETATM    1  C6  UNL     1       1.795  -0.135   0.433  1.00  0.00     0.025 A 
HETATM    2  C7  UNL     1       2.261   0.327  -0.765  1.00  0.00     0.113 A 
HETATM    3  N1  UNL     1       3.599   0.402  -0.656  1.00  0.00    -0.360 N 
ATOM      4  H1  UNL     1       4.226   0.716  -1.397  1.00  0.00     0.166 HD
HETATM    5  C8  UNL     1       3.996   0.006   0.565  1.00  0.00     0.180 A 
HETATM    6  N2  UNL     1       2.869  -0.321   1.221  1.00  0.00    -0.355 N 
ATOM      7  H2  UNL     1       2.833  -0.662   2.182  1.00  0.00     0.166 HD
ENDROOT
BRANCH   1   8
HETATM    8  C5  UNL     1       0.408  -0.411   0.879  1.00  0.00     0.059 C 
BRANCH   8   9
HETATM    9  C4  UNL     1      -0.589  -0.109  -0.219  1.00  0.00     0.010 C 
BRANCH   9  10
HETATM   10  C3  UNL     1      -1.966  -0.428   0.353  1.00  0.00     0.026 C 
BRANCH  10  11
HETATM   11  C2  UNL     1      -3.047  -0.175  -0.624  1.00  0.00    -0.037 C 
HETATM   12  C1  UNL     1      -3.992   0.695  -0.349  1.00  0.00     0.007 C 
ENDBRANCH  10  11
ENDBRANCH   9  10
ENDBRANCH   8   9
ENDBRANCH   1   8
TORSDOF 4
