REMARK  4 active torsions:
REMARK  status: ('A' for Active; 'I' for Inactive)
REMARK    1  A    between atoms: C2_2  and  C3_3 
REMARK    2  A    between atoms: C3_3  and  N1_4 
REMARK    3  A    between atoms: N1_4  and  C4_6 
REMARK    4  A    between atoms: C4_6  and  C5_7 
ROOT
HETATM    1  C4  UNL     1      -0.468  -0.448   0.888  1.00  0.00     0.159 C 
ENDROOT
BRANCH   1   2
HETATM    2  N1  UNL     1       0.399   0.587   0.271  1.00  0.00    -0.395 N 
ATOM      3  H1  UNL     1       0.116   1.564   0.189  1.00  0.00     0.159 HD
BRANCH   2   4
HETATM    4  C3  UNL     1       1.640   0.116  -0.192  1.00  0.00     0.082 C 
BRANCH   4   5
HETATM    5  C2  UNL     1       2.685  -0.180   0.751  1.00  0.00     0.006 C 
HETATM    6  C1  UNL     1       3.862   0.461   0.614  1.00  0.00     0.012 C 
ENDBRANCH   4   5
ENDBRANCH   2   4
ENDBRANCH   1   2
BRANCH   1   7
HETATM    7  C5  UNL     1      -1.792  -0.196   0.199  1.00  0.00    -0.017 A 
HETATM    8  C6  UNL     1      -2.748  -1.115  -0.201  1.00  0.00     0.035 A 
HETATM    9  C7  UNL     1      -3.656  -0.401  -0.942  1.00  0.00     0.142 A 
HETATM   10  O1  UNL     1      -3.299   0.841  -1.002  1.00  0.00    -0.334 OA
HETATM   11  C8  UNL     1      -2.195   1.013  -0.329  1.00  0.00     0.150 A 
ENDBRANCH   1   7
TORSDOF 4
