REMARK  4 active torsions:
REMARK  status: ('A' for Active; 'I' for Inactive)
REMARK    1  A    between atoms: C2_2  and  C3_3 
REMARK    2  A    between atoms: C3_3  and  C4_4 
REMARK    3  A    between atoms: C4_4  and  C5_5 
REMARK    4  A    between atoms: C5_5  and  C6_6 
ROOT
HETATM    1  C6  UNL     1      -1.017   0.500   0.564  1.00  0.00     0.192 C 
HETATM    2  N1  UNL     1      -2.257   0.959   1.163  1.00  0.00    -0.066 N 
ATOM      3  H11 UNL     1      -2.434   1.948   1.341  1.00  0.00     0.278 HD
ATOM      4  H12 UNL     1      -2.479   0.781   2.143  1.00  0.00     0.278 HD
HETATM    5  C7  UNL     1      -2.901   0.266   0.119  1.00  0.00     0.193 A 
HETATM    6  C8  UNL     1      -2.899   0.384  -1.316  1.00  0.00     0.042 A 
HETATM    7  C9  UNL     1      -1.701   0.838  -0.692  1.00  0.00     0.049 A 
ENDROOT
BRANCH   1   8
HETATM    8  C5  UNL     1      -0.525  -0.858   0.829  1.00  0.00     0.034 C 
BRANCH   8   9
HETATM    9  C4  UNL     1       0.782  -1.133   0.111  1.00  0.00     0.006 C 
BRANCH   9  10
HETATM   10  C3  UNL     1       1.864  -0.175   0.550  1.00  0.00     0.026 C 
BRANCH  10  11
HETATM   11  C2  UNL     1       3.118  -0.523  -0.197  1.00  0.00    -0.037 C 
HETATM   12  C1  UNL     1       3.739   0.321  -0.999  1.00  0.00     0.007 C 
ENDBRANCH  10  11
ENDBRANCH   9  10
ENDBRANCH   8   9
ENDBRANCH   1   8
TORSDOF 4
