REMARK  5 active torsions:
REMARK  status: ('A' for Active; 'I' for Inactive)
REMARK    1  A    between atoms: C2_2  and  C3_3 
REMARK    2  A    between atoms: C3_3  and  C4_4 
REMARK    3  A    between atoms: C7_7  and  C8_8 
REMARK    4  A    between atoms: C8_8  and  C9_9 
REMARK    5  A    between atoms: C9_9  and  N1_10 
ROOT
HETATM    1  C4  UNL     1      -0.956  -0.548   0.235  1.00  0.00    -0.007 C 
HETATM    2  C5  UNL     1      -0.673   0.561   1.250  1.00  0.00     0.005 C 
HETATM    3  C6  UNL     1       0.572  -0.236   1.616  1.00  0.00     0.005 C 
HETATM    4  C7  UNL     1       0.514  -0.818   0.210  1.00  0.00    -0.009 C 
ENDROOT
BRANCH   4   5
HETATM    5  C8  UNL     1       1.320  -0.019  -0.759  1.00  0.00     0.032 C 
BRANCH   5   6
HETATM    6  C9  UNL     1       2.777  -0.443  -0.626  1.00  0.00     0.230 C 
BRANCH   6   7
HETATM    7  N1  UNL     1       3.618   0.305  -1.551  1.00  0.00    -0.079 N 
ATOM      8  H13 UNL     1       3.287   0.224  -2.512  1.00  0.00     0.274 HD
ATOM      9  H12 UNL     1       3.505   1.312  -1.434  1.00  0.00     0.274 HD
ATOM     10  H11 UNL     1       4.594   0.021  -1.462  1.00  0.00     0.274 HD
ENDBRANCH   6   7
ENDBRANCH   5   6
ENDBRANCH   4   5
BRANCH   1  11
HETATM   11  C3  UNL     1      -1.556   0.062  -0.993  1.00  0.00     0.031 C 
BRANCH  11  12
HETATM   12  C2  UNL     1      -2.825   0.741  -0.579  1.00  0.00    -0.037 C 
HETATM   13  C1  UNL     1      -3.991   0.392  -1.088  1.00  0.00     0.007 C 
ENDBRANCH  11  12
ENDBRANCH   1  11
TORSDOF 5
