REMARK  11 active torsions:
REMARK  status: ('A' for Active; 'I' for Inactive)
REMARK    1  A    between atoms: N1_1  and  C1_5 
REMARK    2  A    between atoms: C1_5  and  C2_6 
REMARK    3  A    between atoms: C2_6  and  C3_7 
REMARK    4  A    between atoms: C3_7  and  C4_8 
REMARK    5  A    between atoms: C4_8  and  C5_9 
REMARK    6  A    between atoms: C5_9  and  N2_10 
REMARK    7  A    between atoms: N2_10  and  C6_12 
REMARK    8  A    between atoms: C7_17  and  C8_18 
REMARK    9  A    between atoms: N6_20  and  O1_22 
REMARK   10  A    between atoms: N7_24  and  N8_25 
REMARK   11  A    between atoms: N8_25  and  N9_27 
ROOT
HETATM    1  C6  UNL     1       1.150  -0.432   0.214  1.00  0.00     0.717 A 
HETATM    2  N3  UNL     1       1.191   0.286   1.337  1.00  0.00    -0.129 N 
ATOM      3  H3  UNL     1       0.395   0.509   1.934  1.00  0.00     0.205 HD
HETATM    4  N4  UNL     1       2.440   0.657   1.542  1.00  0.00    -0.266 N 
ATOM      5  H4  UNL     1       2.764   1.218   2.330  1.00  0.00     0.189 HD
HETATM    6  C7  UNL     1       3.230   0.179   0.545  1.00  0.00     0.205 A 
HETATM    7  N7  UNL     1       2.398  -0.497  -0.270  1.00  0.00    -0.050 N 
ENDROOT
BRANCH   1   8
HETATM    8  N2  UNL     1       0.124  -0.958  -0.306  1.00  0.00    -0.223 N 
ATOM      9  H2  UNL     1       0.250  -1.481  -1.173  1.00  0.00     0.177 HD
BRANCH   8  10
HETATM   10  C5  UNL     1      -1.215  -0.873   0.237  1.00  0.00     0.138 C 
BRANCH  10  11
HETATM   11  C4  UNL     1      -1.886   0.424  -0.149  1.00  0.00     0.020 C 
BRANCH  11  12
HETATM   12  C3  UNL     1      -3.269   0.541   0.401  1.00  0.00     0.003 C 
BRANCH  12  13
HETATM   13  C2  UNL     1      -4.137  -0.566  -0.098  1.00  0.00     0.027 C 
BRANCH  13  14
HETATM   14  C1  UNL     1      -5.542  -0.432   0.470  1.00  0.00     0.229 C 
BRANCH  14  15
HETATM   15  N1  UNL     1      -6.100   0.832   0.055  1.00  0.00    -0.079 N 
ATOM     16  H13 UNL     1      -5.503   1.620   0.306  1.00  0.00     0.274 HD
ATOM     17  H12 UNL     1      -6.078   0.952  -0.958  1.00  0.00     0.274 HD
ATOM     18  H11 UNL     1      -7.042   0.922   0.436  1.00  0.00     0.274 HD
ENDBRANCH  14  15
ENDBRANCH  13  14
ENDBRANCH  12  13
ENDBRANCH  11  12
ENDBRANCH  10  11
ENDBRANCH   8  10
ENDBRANCH   1   8
BRANCH   7  19
HETATM   19  N8  UNL     1       2.849  -1.141  -1.425  1.00  0.00    -0.226 N 
ATOM     20  H8  UNL     1       3.171  -2.107  -1.362  1.00  0.00     0.209 HD
BRANCH  19  21
HETATM   21  N9  UNL     1       2.870  -0.498  -2.658  1.00  0.00    -0.330 N 
ATOM     22  H92 UNL     1       2.545   0.468  -2.703  1.00  0.00     0.178 HD
ATOM     23  H91 UNL     1       3.199  -0.968  -3.501  1.00  0.00     0.178 HD
ENDBRANCH  19  21
ENDBRANCH   7  19
BRANCH   6  24
HETATM   24  C8  UNL     1       4.661   0.355   0.386  1.00  0.00     0.184 C 
HETATM   25  N5  UNL     1       5.421   1.096   1.328  1.00  0.00    -0.077 NA
HETATM   26  N6  UNL     1       5.242  -0.176  -0.630  1.00  0.00    -0.252 N 
ATOM     27  H6  UNL     1       4.697  -0.710  -1.307  1.00  0.00     0.195 HD
BRANCH  26  28
HETATM   28  O1  UNL     1       6.613  -0.024  -0.808  1.00  0.00    -0.288 OA
ATOM     29  H1  UNL     1       7.042  -0.417  -1.559  1.00  0.00     0.244 HD
ENDBRANCH  26  28
ENDBRANCH   6  24
TORSDOF 11
