REMARK  12 active torsions:
REMARK  status: ('A' for Active; 'I' for Inactive)
REMARK    1  A    between atoms: N1_1  and  C1_4 
REMARK    2  A    between atoms: C2_7  and  C3_8 
REMARK    3  A    between atoms: C3_8  and  N3_9 
REMARK    4  A    between atoms: C3_8  and  N4_13 
REMARK    5  A    between atoms: N6_19  and  C4_20 
REMARK    6  A    between atoms: C4_20  and  C5_21 
REMARK    7  A    between atoms: C5_21  and  C6_22 
REMARK    8  A    between atoms: C6_22  and  C7_23 
REMARK    9  A    between atoms: C7_23  and  C8_24 
REMARK   10  A    between atoms: C8_24  and  O1_25 
REMARK   11  A    between atoms: C9_27  and  N7_28 
REMARK   12  A    between atoms: N7_28  and  N8_30 
ROOT
HETATM    1  C1  UNL     1      -2.480  -1.715   0.622  1.00  0.00     0.148 A 
HETATM    2  N2  UNL     1      -3.242  -0.616   0.677  1.00  0.00    -0.325 N 
ATOM      3  H2  UNL     1      -4.180  -0.647   1.076  1.00  0.00     0.169 HD
HETATM    4  C2  UNL     1      -2.734   0.529   0.190  1.00  0.00     0.156 A 
HETATM    5  N5  UNL     1      -1.484   0.580  -0.345  1.00  0.00    -0.282 N 
ATOM      6  H5  UNL     1      -1.135   1.469  -0.704  1.00  0.00     0.188 HD
HETATM    7  N6  UNL     1      -0.710  -0.487  -0.413  1.00  0.00    -0.271 N 
HETATM    8  C9  UNL     1      -1.216  -1.632   0.073  1.00  0.00     0.181 A 
ENDROOT
BRANCH   4   9
HETATM    9  C3  UNL     1      -3.544   1.783   0.229  1.00  0.00     0.446 C 
BRANCH   9  10
HETATM   10  N3  UNL     1      -3.489   2.508  -1.013  1.00  0.00    -0.043 N 
ATOM     11  H33 UNL     1      -2.525   2.701  -1.284  1.00  0.00     0.277 HD
ATOM     12  H32 UNL     1      -3.764   1.916  -1.797  1.00  0.00     0.277 HD
ATOM     13  H31 UNL     1      -4.042   3.365  -0.986  1.00  0.00     0.277 HD
ENDBRANCH   9  10
BRANCH   9  14
HETATM   14  N4  UNL     1      -3.029   2.613   1.308  1.00  0.00    -0.043 N 
ATOM     15  H43 UNL     1      -3.008   2.128   2.205  1.00  0.00     0.277 HD
ATOM     16  H42 UNL     1      -2.028   2.791   1.227  1.00  0.00     0.277 HD
ATOM     17  H41 UNL     1      -3.582   3.470   1.335  1.00  0.00     0.277 HD
ENDBRANCH   9  14
ENDBRANCH   4   9
BRANCH   1  18
HETATM   18  N1  UNL     1      -2.927  -2.834   1.077  1.00  0.00    -0.382 N 
ATOM     19  H12 UNL     1      -3.861  -2.895   1.483  1.00  0.00     0.157 HD
ATOM     20  H11 UNL     1      -2.346  -3.672   1.035  1.00  0.00     0.157 HD
ENDBRANCH   1  18
BRANCH   7  21
HETATM   21  C4  UNL     1       0.596  -0.453  -0.967  1.00  0.00     0.151 C 
BRANCH  21  22
HETATM   22  C5  UNL     1       1.685  -0.141   0.032  1.00  0.00     0.022 C 
BRANCH  22  23
HETATM   23  C6  UNL     1       2.981  -0.151  -0.744  1.00  0.00     0.004 C 
BRANCH  23  24
HETATM   24  C7  UNL     1       4.196   0.131   0.083  1.00  0.00     0.026 C 
BRANCH  24  25
HETATM   25  C8  UNL     1       4.073   1.487   0.704  1.00  0.00     0.164 C 
BRANCH  25  26
HETATM   26  O1  UNL     1       5.203   1.787   1.480  1.00  0.00    -0.401 OA
ATOM     27  H1  UNL     1       5.125   2.648   1.874  1.00  0.00     0.209 HD
ENDBRANCH  25  26
ENDBRANCH  24  25
ENDBRANCH  23  24
ENDBRANCH  22  23
ENDBRANCH  21  22
ENDBRANCH   7  21
BRANCH   8  28
HETATM   28  N7  UNL     1      -0.507  -2.684   0.028  1.00  0.00    -0.288 N 
ATOM     29  H7  UNL     1       0.421  -2.586  -0.384  1.00  0.00     0.188 HD
BRANCH  28  30
HETATM   30  N8  UNL     1      -0.846  -3.938   0.470  1.00  0.00    -0.343 N 
ATOM     31  H82 UNL     1      -1.777  -4.016   0.879  1.00  0.00     0.176 HD
ATOM     32  H81 UNL     1      -0.276  -4.783   0.434  1.00  0.00     0.176 HD
ENDBRANCH  28  30
ENDBRANCH   8  28
TORSDOF 12
