REMARK  9 active torsions:
REMARK  status: ('A' for Active; 'I' for Inactive)
REMARK    1  A    between atoms: C1_4  and  N2_5 
REMARK    2  A    between atoms: N2_5  and  C2_7 
REMARK    3  A    between atoms: C3_9  and  C4_10 
REMARK    4  A    between atoms: C4_10  and  S1_11 
REMARK    5  A    between atoms: S1_11  and  C5_12 
REMARK    6  A    between atoms: C5_12  and  C6_13 
REMARK    7  A    between atoms: C6_13  and  N3_14 
REMARK    8  A    between atoms: C7_21  and  O2_22 
REMARK    9  A    between atoms: C8_24  and  O3_25 
ROOT
HETATM    1  C2  UNL     1      -2.103   0.279  -0.669  1.00  0.00     0.257 C 
HETATM    2  O1  UNL     1      -0.910   0.412   0.011  1.00  0.00    -0.331 OA
HETATM    3  C3  UNL     1      -0.161  -0.729  -0.221  1.00  0.00     0.335 C 
HETATM    4  N4  UNL     1      -0.721  -1.787   0.576  1.00  0.00    -0.019 N 
ATOM      5  H41 UNL     1      -0.565  -1.606   1.568  1.00  0.00     0.283 HD
ATOM      6  H42 UNL     1      -0.176  -2.642   0.466  1.00  0.00     0.283 HD
HETATM    7  C7  UNL     1      -2.105  -2.043   0.328  1.00  0.00     0.355 C 
HETATM    8  C8  UNL     1      -2.813  -1.013  -0.470  1.00  0.00     0.223 C 
ENDROOT
BRANCH   3   9
HETATM    9  C4  UNL     1       1.262  -0.507   0.256  1.00  0.00     0.135 C 
BRANCH   9  10
HETATM   10  S1  UNL     1       2.041   0.879  -0.617  1.00  0.00    -0.163 SA
BRANCH  10  11
HETATM   11  C5  UNL     1       3.728   1.056   0.011  1.00  0.00     0.101 C 
BRANCH  11  12
HETATM   12  C6  UNL     1       4.581  -0.152  -0.361  1.00  0.00     0.239 C 
BRANCH  12  13
HETATM   13  N3  UNL     1       5.912   0.065   0.176  1.00  0.00    -0.079 N 
ATOM     14  H33 UNL     1       6.322   0.948  -0.127  1.00  0.00     0.274 HD
ATOM     15  H32 UNL     1       5.909   0.255   1.178  1.00  0.00     0.274 HD
ATOM     16  H31 UNL     1       6.483  -0.743  -0.073  1.00  0.00     0.274 HD
ENDBRANCH  12  13
ENDBRANCH  11  12
ENDBRANCH  10  11
ENDBRANCH   9  10
ENDBRANCH   3   9
BRANCH   1  17
HETATM   17  N2  UNL     1      -2.988   1.391  -0.342  1.00  0.00    -0.358 N 
ATOM     18  H2  UNL     1      -3.940   1.187  -0.038  1.00  0.00     0.162 HD
BRANCH  17  19
HETATM   19  C1  UNL     1      -2.575   2.748  -0.431  1.00  0.00     0.170 C 
HETATM   20  N1  UNL     1      -2.936   3.599   0.485  1.00  0.00    -0.395 N 
ATOM     21  H12 UNL     1      -3.515   3.276   1.260  1.00  0.00     0.156 HD
ATOM     22  H11 UNL     1      -2.640   4.573   0.421  1.00  0.00     0.156 HD
ENDBRANCH  17  19
ENDBRANCH   1  17
BRANCH   7  23
HETATM   23  O2  UNL     1      -2.742  -2.296   1.544  1.00  0.00    -0.368 OA
ATOM     24  H2  UNL     1      -3.662  -2.466   1.379  1.00  0.00     0.212 HD
ENDBRANCH   7  23
BRANCH   8  25
HETATM   25  O3  UNL     1      -4.057  -0.774   0.163  1.00  0.00    -0.387 OA
ATOM     26  H3  UNL     1      -4.510  -1.599   0.290  1.00  0.00     0.210 HD
ENDBRANCH   8  25
TORSDOF 9
