REMARK  10 active torsions:
REMARK  status: ('A' for Active; 'I' for Inactive)
REMARK       I    between atoms: C1_4  and  N2_5 
REMARK       I    between atoms: C1_4  and  N4_10 
REMARK    1  A    between atoms: N2_5  and  N3_7 
REMARK    2  A    between atoms: N4_10  and  C2_11 
REMARK    3  A    between atoms: N4_10  and  C5_16 
REMARK    4  A    between atoms: C2_11  and  C3_12 
REMARK    5  A    between atoms: C3_12  and  C4_13 
REMARK    6  A    between atoms: C4_13  and  O1_14 
REMARK    7  A    between atoms: C5_16  and  C6_17 
REMARK    8  A    between atoms: C6_17  and  C7_18 
REMARK    9  A    between atoms: C7_18  and  N5_19 
REMARK   10  A    between atoms: C8_24  and  N8_25 
ROOT
HETATM    1  N1  UNL     1      -1.928   1.191  -1.160  1.00  0.00    -0.233 N 
ATOM      2  H11 UNL     1      -1.371   0.533  -1.705  1.00  0.00     0.174 HD
ATOM      3  H12 UNL     1      -2.474   1.920  -1.619  1.00  0.00     0.174 HD
HETATM    4  C1  UNL     1      -1.897   1.046   0.111  1.00  0.00     0.688 C 
HETATM    5  N2  UNL     1      -2.677   1.968   0.875  1.00  0.00    -0.139 N 
ATOM      6  H2  UNL     1      -3.199   1.625   1.681  1.00  0.00     0.205 HD
HETATM    7  N4  UNL     1      -1.140   0.036   0.747  1.00  0.00    -0.217 N 
ENDROOT
BRANCH   7   8
HETATM    8  C2  UNL     1      -1.817  -1.120   1.253  1.00  0.00     0.143 C 
BRANCH   8   9
HETATM    9  C3  UNL     1      -1.522  -2.410   0.582  1.00  0.00     0.046 C 
BRANCH   9  10
HETATM   10  C4  UNL     1      -1.861  -2.430  -0.881  1.00  0.00     0.165 C 
BRANCH  10  11
HETATM   11  O1  UNL     1      -3.221  -2.172  -1.022  1.00  0.00    -0.401 OA
ATOM     12  H1  UNL     1      -3.435  -2.185  -1.947  1.00  0.00     0.209 HD
ENDBRANCH  10  11
ENDBRANCH   9  10
ENDBRANCH   8   9
ENDBRANCH   7   8
BRANCH   7  13
HETATM   13  C5  UNL     1       0.268   0.167   0.897  1.00  0.00     0.143 C 
BRANCH  13  14
HETATM   14  C6  UNL     1       0.863   1.408   0.341  1.00  0.00     0.044 C 
BRANCH  14  15
HETATM   15  C7  UNL     1       2.333   1.416   0.589  1.00  0.00     0.173 C 
BRANCH  15  16
HETATM   16  N5  UNL     1       3.090   0.357   0.026  1.00  0.00    -0.205 N 
HETATM   17  N6  UNL     1       3.358  -0.782   0.634  1.00  0.00    -0.211 N 
HETATM   18  N7  UNL     1       4.071  -1.565  -0.124  1.00  0.00    -0.115 N 
ATOM     19  H6  UNL     1       3.047  -1.019   1.576  1.00  0.00     0.210 HD
HETATM   20  C8  UNL     1       4.282  -0.914  -1.279  1.00  0.00     0.707 A 
ATOM     21  H7  UNL     1       4.406  -2.498   0.115  1.00  0.00     0.207 HD
HETATM   22  N9  UNL     1       3.672   0.265  -1.167  1.00  0.00    -0.113 N 
ATOM     23  H9  UNL     1       3.654   0.988  -1.887  1.00  0.00     0.207 HD
BRANCH  20  24
HETATM   24  N8  UNL     1       4.938  -1.316  -2.310  1.00  0.00    -0.232 N 
ATOM     25  H82 UNL     1       5.405  -2.219  -2.396  1.00  0.00     0.174 HD
ATOM     26  H81 UNL     1       5.098  -0.821  -3.188  1.00  0.00     0.174 HD
ENDBRANCH  20  24
ENDBRANCH  15  16
ENDBRANCH  14  15
ENDBRANCH  13  14
ENDBRANCH   7  13
BRANCH   5  27
HETATM   27  N3  UNL     1      -2.745   3.307   0.556  1.00  0.00    -0.331 N 
ATOM     28  H32 UNL     1      -2.217   3.634  -0.253  1.00  0.00     0.177 HD
ATOM     29  H31 UNL     1      -3.302   3.965   1.101  1.00  0.00     0.177 HD
ENDBRANCH   5  27
TORSDOF 10
