REMARK  9 active torsions:
REMARK  status: ('A' for Active; 'I' for Inactive)
REMARK    1  A    between atoms: O1_2  and  C2_3 
REMARK    2  A    between atoms: C2_3  and  C3_4 
REMARK    3  A    between atoms: C3_4  and  C4_5 
REMARK    4  A    between atoms: C4_5  and  N1_6 
REMARK    5  A    between atoms: N1_6  and  C5_9 
REMARK    6  A    between atoms: C5_9  and  C6_10 
REMARK    7  A    between atoms: C7_13  and  N3_14 
REMARK    8  A    between atoms: C8_19  and  N5_20 
REMARK    9  A    between atoms: N7_26  and  N8_28 
ROOT
HETATM    1  C6  UNL     1      -1.489  -0.504   0.229  1.00  0.00     0.098 C 
HETATM    2  N2  UNL     1      -1.227   0.478   1.045  1.00  0.00    -0.190 N 
ATOM      3  H2  UNL     1      -0.283   0.473   1.432  1.00  0.00     0.184 HD
HETATM    4  C7  UNL     1      -2.023   1.527   1.471  1.00  0.00     0.690 C 
HETATM    5  N4  UNL     1      -3.218   1.867   0.925  1.00  0.00    -0.023 N 
ATOM      6  H4  UNL     1      -3.649   2.704   1.317  1.00  0.00     0.203 HD
HETATM    7  C8  UNL     1      -3.938   1.256  -0.077  1.00  0.00     0.692 C 
HETATM    8  N6  UNL     1      -3.764  -0.063  -0.405  1.00  0.00    -0.173 N 
ATOM      9  H6  UNL     1      -4.586  -0.499  -0.824  1.00  0.00     0.186 HD
HETATM   10  C9  UNL     1      -2.731  -0.874  -0.280  1.00  0.00     0.160 C 
HETATM   11  N7  UNL     1      -2.847  -2.038  -0.617  1.00  0.00    -0.290 N 
ATOM     12  H7  UNL     1      -1.939  -2.451  -0.406  1.00  0.00     0.188 HD
ENDROOT
BRANCH   1  13
HETATM   13  C5  UNL     1      -0.412  -1.359  -0.306  1.00  0.00     0.293 C 
BRANCH  13  14
HETATM   14  N1  UNL     1       0.873  -1.022   0.320  1.00  0.00    -0.070 N 
ATOM     15  H12 UNL     1       1.263  -1.819   0.824  1.00  0.00     0.277 HD
ATOM     16  H11 UNL     1       0.749  -0.383   1.106  1.00  0.00     0.277 HD
BRANCH  14  17
HETATM   17  C4  UNL     1       1.811  -0.497  -0.644  1.00  0.00     0.235 C 
BRANCH  17  18
HETATM   18  C3  UNL     1       3.194  -0.420   0.065  1.00  0.00     0.054 C 
BRANCH  18  19
HETATM   19  C2  UNL     1       4.137   0.244  -0.904  1.00  0.00     0.168 C 
BRANCH  19  20
HETATM   20  O1  UNL     1       5.404   0.403  -0.369  1.00  0.00    -0.396 OA
HETATM   21  C1  UNL     1       5.326   1.277   0.706  1.00  0.00     0.201 C 
ENDBRANCH  19  20
ENDBRANCH  18  19
ENDBRANCH  17  18
ENDBRANCH  14  17
ENDBRANCH  13  14
ENDBRANCH   1  13
BRANCH   4  22
HETATM   22  N3  UNL     1      -1.578   2.205   2.400  1.00  0.00    -0.234 N 
ATOM     23  H32 UNL     1      -0.680   1.949   2.810  1.00  0.00     0.174 HD
ATOM     24  H31 UNL     1      -2.165   2.978   2.714  1.00  0.00     0.174 HD
ENDBRANCH   4  22
BRANCH  11  25
HETATM   25  N8  UNL     1      -3.531  -3.014  -1.104  1.00  0.00    -0.344 N 
ATOM     26  H82 UNL     1      -4.426  -2.566  -1.302  1.00  0.00     0.176 HD
ATOM     27  H81 UNL     1      -3.628  -3.989  -1.386  1.00  0.00     0.176 HD
ENDBRANCH  11  25
BRANCH   7  28
HETATM   28  N5  UNL     1      -4.747   1.940  -0.661  1.00  0.00    -0.234 N 
ATOM     29  H52 UNL     1      -4.877   2.922  -0.417  1.00  0.00     0.174 HD
ATOM     30  H51 UNL     1      -5.280   1.487  -1.403  1.00  0.00     0.174 HD
ENDBRANCH   7  28
TORSDOF 9
