REMARK  13 active torsions:
REMARK  status: ('A' for Active; 'I' for Inactive)
REMARK    1  A    between atoms: N1_1  and  C1_5 
REMARK    2  A    between atoms: C1_5  and  C2_6 
REMARK    3  A    between atoms: C1_5  and  C3_9 
REMARK    4  A    between atoms: C2_6  and  O1_7 
REMARK       I    between atoms: C3_9  and  N2_11 
REMARK    5  A    between atoms: N2_11  and  N3_13 
REMARK    6  A    between atoms: C4_15  and  C5_16 
REMARK    7  A    between atoms: C6_17  and  C7_18 
REMARK       I    between atoms: C7_18  and  N4_20 
REMARK    8  A    between atoms: N4_20  and  C8_22 
REMARK    9  A    between atoms: C8_22  and  C9_23 
REMARK   10  A    between atoms: C12_29  and  O6_30 
REMARK   11  A    between atoms: N6_36  and  C15_37 
REMARK   12  A    between atoms: C17_40  and  C18_41 
REMARK   13  A    between atoms: C18_41  and  N7_42 
ROOT
HETATM    1  C5  UNL     1      -0.095   0.301   0.652  1.00  0.00     0.066 A 
HETATM    2  C6  UNL     1      -0.302   1.414  -0.146  1.00  0.00     0.066 A 
HETATM    3  C10 UNL     1      -1.586   1.855  -0.330  1.00  0.00     0.067 A 
HETATM    4  C11 UNL     1      -1.853   2.960  -1.108  1.00  0.00     0.165 A 
HETATM    5  F1  UNL     1      -0.848   3.624  -1.698  1.00  0.00    -0.202 F 
HETATM    6  C12 UNL     1      -3.174   3.356  -1.250  1.00  0.00     0.120 A 
HETATM    7  C13 UNL     1      -4.151   2.629  -0.608  1.00  0.00     0.129 A 
HETATM    8  N5  UNL     1      -3.868   1.558   0.145  1.00  0.00    -0.348 N 
ATOM      9  H5  UNL     1      -4.620   1.046   0.605  1.00  0.00     0.167 HD
HETATM   10  C14 UNL     1      -2.612   1.164   0.292  1.00  0.00     0.127 A 
HETATM   11  N6  UNL     1      -2.450   0.085   1.070  1.00  0.00    -0.270 N 
HETATM   12  C20 UNL     1      -1.164  -0.339   1.241  1.00  0.00     0.264 A 
HETATM   13  O8  UNL     1      -0.882  -1.346   1.953  1.00  0.00    -0.267 OA
ENDROOT
BRANCH   1  14
HETATM   14  C4  UNL     1       1.276  -0.160   0.841  1.00  0.00     0.125 C 
HETATM   15  N3  UNL     1       1.546  -1.198   1.576  1.00  0.00    -0.308 N 
ATOM     16  H3  UNL     1       0.796  -1.713   2.038  1.00  0.00     0.186 HD
BRANCH  15  17
HETATM   17  N2  UNL     1       2.866  -1.597   1.725  1.00  0.00    -0.269 N 
HETATM   18  C3  UNL     1       3.695  -1.836   0.602  1.00  0.00     0.268 C 
HETATM   19  O2  UNL     1       3.212  -1.679  -0.563  1.00  0.00    -0.269 OA
ATOM     20  H2  UNL     1       3.248  -1.721   2.663  1.00  0.00     0.190 HD
BRANCH  18  21
HETATM   21  C1  UNL     1       5.096  -2.258   0.683  1.00  0.00     0.299 C 
BRANCH  21  22
HETATM   22  N1  UNL     1       5.558  -2.409   2.049  1.00  0.00    -0.064 N 
ATOM     23  H13 UNL     1       6.531  -2.712   2.086  1.00  0.00     0.275 HD
ATOM     24  H12 UNL     1       5.660  -1.507   2.514  1.00  0.00     0.275 HD
ATOM     25  H11 UNL     1       4.947  -3.036   2.572  1.00  0.00     0.275 HD
ENDBRANCH  21  22
BRANCH  21  26
HETATM   26  C2  UNL     1       6.014  -1.315  -0.103  1.00  0.00     0.206 C 
BRANCH  26  27
HETATM   27  O1  UNL     1       7.286  -1.844  -0.112  1.00  0.00    -0.398 OA
ATOM     28  H1  UNL     1       7.855  -1.260  -0.599  1.00  0.00     0.209 HD
ENDBRANCH  26  27
ENDBRANCH  21  26
ENDBRANCH  18  21
ENDBRANCH  15  17
ENDBRANCH   1  14
BRANCH   2  29
HETATM   29  C7  UNL     1       0.847   2.061  -0.749  1.00  0.00     0.254 C 
HETATM   30  O3  UNL     1       1.250   1.795  -1.906  1.00  0.00    -0.268 OA
HETATM   31  N4  UNL     1       1.553   3.038  -0.004  1.00  0.00    -0.347 N 
ATOM     32  H4  UNL     1       1.232   3.260   0.938  1.00  0.00     0.163 HD
BRANCH  31  33
HETATM   33  C8  UNL     1       2.712   3.735  -0.524  1.00  0.00     0.236 C 
BRANCH  33  34
HETATM   34  C9  UNL     1       3.258   4.701   0.458  1.00  0.00     0.191 C 
HETATM   35  O4  UNL     1       2.721   4.839   1.585  1.00  0.00    -0.647 OA
HETATM   36  O5  UNL     1       4.367   5.479   0.174  1.00  0.00    -0.647 OA
ENDBRANCH  33  34
ENDBRANCH  31  33
ENDBRANCH   2  29
BRANCH  11  37
HETATM   37  C15 UNL     1      -3.424  -0.669   1.731  1.00  0.00     0.243 C 
HETATM   38  C16 UNL     1      -4.836  -0.620   1.478  1.00  0.00     0.131 C 
HETATM   39  S1  UNL     1      -4.811  -1.553  -0.123  1.00  0.00    -0.131 SA
HETATM   40  C17 UNL     1      -3.474  -2.452   0.203  1.00  0.00     0.205 C 
HETATM   41  O7  UNL     1      -3.103  -2.040   1.463  1.00  0.00    -0.348 OA
BRANCH  40  42
HETATM   42  C18 UNL     1      -2.831  -3.482  -0.698  1.00  0.00     0.194 C 
BRANCH  42  43
HETATM   43  N7  UNL     1      -3.579  -3.563  -1.915  1.00  0.00    -0.268 N 
HETATM   44  C19 UNL     1      -4.614  -4.382  -2.136  1.00  0.00     0.220 A 
HETATM   45  N8  UNL     1      -5.070  -4.179  -3.401  1.00  0.00    -0.279 N 
HETATM   46  N9  UNL     1      -4.309  -3.241  -3.933  1.00  0.00    -0.227 N 
ATOM     47  H8  UNL     1      -5.849  -4.659  -3.851  1.00  0.00     0.189 HD
HETATM   48  N10 UNL     1      -3.405  -2.873  -3.022  1.00  0.00    -0.225 N 
ATOM     49  H9  UNL     1      -4.396  -2.863  -4.876  1.00  0.00     0.210 HD
ATOM     50  H10 UNL     1      -2.687  -2.163  -3.163  1.00  0.00     0.210 HD
ENDBRANCH  42  43
ENDBRANCH  40  42
ENDBRANCH  11  37
BRANCH   6  51
HETATM   51  O6  UNL     1      -3.458   4.465  -2.031  1.00  0.00    -0.356 OA
ATOM     52  H6  UNL     1      -4.363   4.736  -2.128  1.00  0.00     0.218 HD
ENDBRANCH   6  51
TORSDOF 13
