REMARK  13 active torsions:
REMARK  status: ('A' for Active; 'I' for Inactive)
REMARK    1  A    between atoms: C2_2  and  C5_5 
REMARK       I    between atoms: C5_5  and  N1_7 
REMARK    2  A    between atoms: N2_10  and  C8_11 
REMARK    3  A    between atoms: N5_16  and  C9_17 
REMARK    4  A    between atoms: C9_17  and  C10_18 
REMARK    5  A    between atoms: C11_20  and  O3_21 
REMARK    6  A    between atoms: O3_21  and  C12_22 
REMARK    7  A    between atoms: C12_22  and  C13_23 
REMARK    8  A    between atoms: C13_23  and  N6_24 
REMARK    9  A    between atoms: C15_27  and  C16_28 
REMARK   10  A    between atoms: C18_39  and  O4_40 
REMARK   11  A    between atoms: C18_39  and  C19_42 
REMARK   12  A    between atoms: C19_42  and  O5_43 
REMARK   13  A    between atoms: C20_45  and  O6_46 
ROOT
HETATM    1  C10 UNL     1      -1.333  -1.941  -1.282  1.00  0.00     0.178 C 
HETATM    2  O2  UNL     1      -2.749  -1.902  -1.356  1.00  0.00    -0.348 OA
HETATM    3  C11 UNL     1      -3.153  -1.125  -0.307  1.00  0.00     0.299 C 
HETATM    4  C18 UNL     1      -2.149  -1.315   0.810  1.00  0.00     0.156 C 
HETATM    5  C20 UNL     1      -1.060  -2.157   0.184  1.00  0.00     0.190 C 
ENDROOT
BRANCH   1   6
HETATM    6  C9  UNL     1      -0.725  -0.661  -1.728  1.00  0.00     0.206 C 
BRANCH   6   7
HETATM    7  N5  UNL     1       0.714  -0.708  -1.663  1.00  0.00    -0.202 N 
HETATM    8  N4  UNL     1       1.466  -1.138  -2.687  1.00  0.00    -0.211 N 
HETATM    9  N3  UNL     1       2.731  -1.049  -2.327  1.00  0.00    -0.115 N 
ATOM     10  H4  UNL     1       1.120  -1.474  -3.586  1.00  0.00     0.210 HD
HETATM   11  C8  UNL     1       2.823  -0.569  -1.082  1.00  0.00     0.712 A 
ATOM     12  H3  UNL     1       3.525  -1.309  -2.913  1.00  0.00     0.207 HD
HETATM   13  N11 UNL     1       1.549  -0.367  -0.699  1.00  0.00    -0.113 N 
ATOM     14  H11 UNL     1       1.267  -0.001   0.210  1.00  0.00     0.207 HD
BRANCH  11  15
HETATM   15  N2  UNL     1       4.020  -0.337  -0.356  1.00  0.00    -0.212 N 
HETATM   16  C7  UNL     1       4.069   0.199   0.986  1.00  0.00     0.161 C 
HETATM   17  C6  UNL     1       5.033   1.362   1.052  1.00  0.00     0.146 C 
HETATM   18  N1  UNL     1       6.222   1.139   0.266  1.00  0.00    -0.348 N 
HETATM   19  C5  UNL     1       7.484   1.376   0.837  1.00  0.00     0.227 C 
HETATM   20  C22 UNL     1       6.049   0.677  -1.084  1.00  0.00     0.146 C 
HETATM   21  O1  UNL     1       7.513   1.788   2.055  1.00  0.00    -0.273 OA
HETATM   22  C21 UNL     1       5.282  -0.653  -0.986  1.00  0.00     0.161 C 
BRANCH  19  23
HETATM   23  C2  UNL     1       8.794   1.198   0.169  1.00  0.00     0.030 C 
HETATM   24  C1  UNL     1       9.050  -0.212  -0.287  1.00  0.00     0.025 C 
HETATM   25  C3  UNL     1       8.897   2.202  -0.968  1.00  0.00     0.025 C 
HETATM   26  C4  UNL     1       9.907   1.524   1.165  1.00  0.00     0.025 C 
ENDBRANCH  19  23
ENDBRANCH  11  15
ENDBRANCH   6   7
ENDBRANCH   1   6
BRANCH   5  27
HETATM   27  O6  UNL     1      -1.208  -3.499   0.541  1.00  0.00    -0.390 OA
ATOM     28  H6  UNL     1      -1.036  -3.635   1.465  1.00  0.00     0.210 HD
ENDBRANCH   5  27
BRANCH   3  29
HETATM   29  O3  UNL     1      -4.396  -1.451   0.202  1.00  0.00    -0.356 OA
BRANCH  29  30
HETATM   30  C12 UNL     1      -5.322  -0.443   0.148  1.00  0.00     0.192 C 
BRANCH  30  31
HETATM   31  C13 UNL     1      -6.614  -1.011   0.753  1.00  0.00     0.176 C 
BRANCH  31  32
HETATM   32  N6  UNL     1      -7.673  -0.073   0.766  1.00  0.00    -0.153 N 
HETATM   33  C14 UNL     1      -8.582   0.109  -0.226  1.00  0.00     0.235 A 
HETATM   34  F1  UNL     1      -8.606  -0.602  -1.406  1.00  0.00    -0.183 F 
HETATM   35  C15 UNL     1      -9.443   1.085   0.127  1.00  0.00     0.146 A 
HETATM   36  N9  UNL     1      -9.051   1.510   1.366  1.00  0.00    -0.184 N 
HETATM   37  C17 UNL     1      -7.979   0.794   1.730  1.00  0.00     0.681 A 
ATOM     38  H9  UNL     1      -9.497   2.244   1.917  1.00  0.00     0.184 HD
HETATM   39  N10 UNL     1      -7.372   0.976   2.879  1.00  0.00    -0.234 N 
ATOM     40 2H10 UNL     1      -6.556   0.431   3.156  1.00  0.00     0.174 HD
ATOM     41 1H10 UNL     1      -7.606   1.640   3.617  1.00  0.00     0.174 HD
BRANCH  35  42
HETATM   42  C16 UNL     1     -10.573   1.610  -0.624  1.00  0.00     0.142 C 
HETATM   43  N7  UNL     1     -10.936   1.218  -1.768  1.00  0.00    -0.386 N 
ATOM     44  H72 UNL     1     -10.374   0.471  -2.176  1.00  0.00     0.157 HD
ATOM     45  H71 UNL     1     -11.728   1.586  -2.295  1.00  0.00     0.157 HD
HETATM   46  N8  UNL     1     -11.377   2.678  -0.041  1.00  0.00    -0.081 NA
ENDBRANCH  35  42
ENDBRANCH  31  32
ENDBRANCH  30  31
ENDBRANCH  29  30
ENDBRANCH   3  29
BRANCH   4  47
HETATM   47  O4  UNL     1      -1.713  -0.089   1.248  1.00  0.00    -0.380 OA
ATOM     48  H4  UNL     1      -1.083  -0.208   1.949  1.00  0.00     0.211 HD
ENDBRANCH   4  47
BRANCH   4  49
HETATM   49  C19 UNL     1      -2.750  -2.075   1.965  1.00  0.00     0.210 C 
BRANCH  49  50
HETATM   50  O5  UNL     1      -1.765  -2.232   2.936  1.00  0.00    -0.398 OA
ATOM     51  H5  UNL     1      -2.144  -2.711   3.664  1.00  0.00     0.209 HD
ENDBRANCH  49  50
ENDBRANCH   4  49
TORSDOF 13
