REMARK  15 active torsions:
REMARK  status: ('A' for Active; 'I' for Inactive)
REMARK    1  A    between atoms: N1_2  and  C3_4 
REMARK    2  A    between atoms: C4_7  and  N3_8 
REMARK    3  A    between atoms: N3_8  and  N4_10 
REMARK    4  A    between atoms: N4_10  and  N5_12 
REMARK    5  A    between atoms: N5_12  and  N6_13 
REMARK    6  A    between atoms: N5_12  and  O1_16 
REMARK    7  A    between atoms: N7_18  and  N8_19 
REMARK    8  A    between atoms: C6_22  and  N9_23 
REMARK    9  A    between atoms: N9_23  and  C7_25 
REMARK   10  A    between atoms: C7_25  and  C8_26 
REMARK   11  A    between atoms: C8_26  and  C9_27 
REMARK   12  A    between atoms: C9_27  and  N10_28 
REMARK   13  A    between atoms: N10_28  and  C10_30 
REMARK   14  A    between atoms: C11_31  and  N11_32 
REMARK   15  A    between atoms: C16_44  and  N14_45 
ROOT
HETATM    1  C7  UNL     1      -0.334   1.249   1.636  1.00  0.00     0.139 C 
ENDROOT
BRANCH   1   2
HETATM    2  N9  UNL     1      -1.026   0.160   1.005  1.00  0.00    -0.223 N 
ATOM      3  H9  UNL     1      -0.460  -0.634   0.705  1.00  0.00     0.177 HD
BRANCH   2   4
HETATM    4  C6  UNL     1      -2.278   0.091   0.784  1.00  0.00     0.728 A 
HETATM    5  N7  UNL     1      -2.720  -1.044   0.168  1.00  0.00     0.086 N 
HETATM    6  C4  UNL     1      -4.002  -1.241  -0.119  1.00  0.00     0.750 A 
HETATM    7  N2  UNL     1      -4.856  -0.229   0.243  1.00  0.00    -0.018 N 
HETATM    8  C3  UNL     1      -4.458   0.881   0.840  1.00  0.00     0.708 A 
ATOM      9  H2  UNL     1      -5.850  -0.339   0.041  1.00  0.00     0.203 HD
HETATM   10  N16 UNL     1      -3.151   1.045   1.114  1.00  0.00    -0.020 N 
ATOM     11  H16 UNL     1      -2.828   1.897   1.573  1.00  0.00     0.203 HD
BRANCH   5  12
HETATM   12  N8  UNL     1      -1.787  -2.044  -0.175  1.00  0.00    -0.309 N 
ATOM     13  H82 UNL     1      -2.117  -2.892  -0.635  1.00  0.00     0.178 HD
ATOM     14  H81 UNL     1      -0.803  -1.893   0.045  1.00  0.00     0.178 HD
ENDBRANCH   5  12
BRANCH   6  15
HETATM   15  N3  UNL     1      -4.577  -2.352  -0.745  1.00  0.00    -0.108 N 
HETATM   16  C5  UNL     1      -3.848  -3.501  -1.198  1.00  0.00     0.199 C 
BRANCH  15  17
HETATM   17  N4  UNL     1      -5.973  -2.388  -0.967  1.00  0.00    -0.185 N 
ATOM     18  H4  UNL     1      -6.613  -2.682  -0.229  1.00  0.00     0.213 HD
BRANCH  17  19
HETATM   19  N5  UNL     1      -6.448  -2.013  -2.212  1.00  0.00    -0.086 N 
BRANCH  19  20
HETATM   20  N6  UNL     1      -5.962  -0.799  -2.743  1.00  0.00    -0.302 N 
ATOM     21  H62 UNL     1      -5.292  -0.266  -2.188  1.00  0.00     0.181 HD
ATOM     22  H61 UNL     1      -6.312  -0.523  -3.660  1.00  0.00     0.181 HD
ENDBRANCH  19  20
BRANCH  19  23
HETATM   23  O1  UNL     1      -7.264  -2.662  -2.889  1.00  0.00    -0.253 OA
ATOM     24  H1  UNL     1      -7.590  -2.405  -3.743  1.00  0.00     0.248 HD
ENDBRANCH  19  23
ENDBRANCH  17  19
ENDBRANCH  15  17
ENDBRANCH   6  15
BRANCH   8  25
HETATM   25  N1  UNL     1      -5.414   1.885   1.183  1.00  0.00    -0.225 N 
HETATM   26  C1  UNL     1      -5.719   2.903   0.214  1.00  0.00     0.168 C 
HETATM   27  C2  UNL     1      -6.054   1.885   2.460  1.00  0.00     0.168 C 
ENDBRANCH   8  25
ENDBRANCH   2   4
ENDBRANCH   1   2
BRANCH   1  28
HETATM   28  C8  UNL     1       1.033   1.412   0.960  1.00  0.00     0.040 C 
BRANCH  28  29
HETATM   29  C9  UNL     1       1.781   0.136   1.133  1.00  0.00     0.121 C 
BRANCH  29  30
HETATM   30  N10 UNL     1       3.079   0.070   0.562  1.00  0.00    -0.382 N 
ATOM     31  H10 UNL     1       3.850   0.088   1.229  1.00  0.00     0.160 HD
BRANCH  30  32
HETATM   32  C10 UNL     1       3.457  -0.017  -0.794  1.00  0.00     0.143 A 
HETATM   33  C11 UNL     1       4.814   0.125  -1.089  1.00  0.00     0.163 A 
HETATM   34  N13 UNL     1       5.199   0.024  -2.364  1.00  0.00    -0.174 N 
HETATM   35  C16 UNL     1       4.316  -0.212  -3.375  1.00  0.00     0.680 A 
ATOM     36  H13 UNL     1       6.189   0.127  -2.589  1.00  0.00     0.186 HD
HETATM   37  N15 UNL     1       3.016  -0.345  -3.066  1.00  0.00    -0.154 N 
HETATM   38  C17 UNL     1       2.550  -0.256  -1.802  1.00  0.00     0.289 A 
ATOM     39  H15 UNL     1       2.351  -0.521  -3.819  1.00  0.00     0.187 HD
HETATM   40  O4  UNL     1       1.305  -0.398  -1.595  1.00  0.00    -0.265 OA
BRANCH  33  41
HETATM   41  N11 UNL     1       5.796   0.374  -0.088  1.00  0.00    -0.256 N 
HETATM   42  C12 UNL     1       6.542  -0.675   0.356  1.00  0.00     0.128 A 
HETATM   43  C13 UNL     1       7.508  -0.487   1.325  1.00  0.00     0.095 A 
HETATM   44 BR1  UNL     1       8.589  -1.899   1.997  1.00  0.00    -0.044 Br
HETATM   45  C14 UNL     1       7.669   0.801   1.807  1.00  0.00     0.268 A 
HETATM   46  O2  UNL     1       8.551   0.982   2.694  1.00  0.00    -0.267 OA
HETATM   47  N12 UNL     1       6.917   1.838   1.354  1.00  0.00    -0.274 N 
HETATM   48  C15 UNL     1       5.991   1.599   0.411  1.00  0.00     0.335 A 
ATOM     49  H12 UNL     1       7.053   2.779   1.723  1.00  0.00     0.173 HD
HETATM   50  O3  UNL     1       5.273   2.526  -0.038  1.00  0.00    -0.246 OA
ENDBRANCH  33  41
BRANCH  35  51
HETATM   51  N14 UNL     1       4.683  -0.308  -4.589  1.00  0.00    -0.234 N 
ATOM     52 2H14 UNL     1       5.670  -0.207  -4.824  1.00  0.00     0.174 HD
ATOM     53 1H14 UNL     1       4.022  -0.485  -5.346  1.00  0.00     0.174 HD
ENDBRANCH  35  51
ENDBRANCH  30  32
ENDBRANCH  29  30
ENDBRANCH  28  29
ENDBRANCH   1  28
TORSDOF 15
