REMARK  15 active torsions:
REMARK  status: ('A' for Active; 'I' for Inactive)
REMARK    1  A    between atoms: C2_2  and  O1_3 
REMARK    2  A    between atoms: C2_2  and  C3_5 
REMARK    3  A    between atoms: C6_14  and  C7_15 
REMARK    4  A    between atoms: C8_18  and  S1_19 
REMARK    5  A    between atoms: S1_19  and  C9_20 
REMARK    6  A    between atoms: C9_20  and  C10_22 
REMARK    7  A    between atoms: C10_22  and  N5_23 
REMARK    8  A    between atoms: C10_22  and  N6_33 
REMARK    9  A    between atoms: N5_23  and  C11_25 
REMARK   10  A    between atoms: C11_25  and  O5_26 
REMARK   11  A    between atoms: C11_25  and  C12_28 
REMARK   12  A    between atoms: C12_28  and  O6_29 
REMARK   13  A    between atoms: C12_28  and  O7_31 
REMARK   14  A    between atoms: C15_41  and  C16_42 
REMARK   15  A    between atoms: C16_42  and  C17_43 
ROOT
HETATM    1  C3  UNL     1      -2.893   1.938  -0.369  1.00  0.00     0.007 C 
HETATM    2  C4  UNL     1      -3.295   2.222  -1.566  1.00  0.00     0.136 A 
HETATM    3  N1  UNL     1      -4.339   3.005  -2.121  1.00  0.00    -0.314 N 
ATOM      4  H1  UNL     1      -5.063   3.507  -1.607  1.00  0.00     0.170 HD
HETATM    5  C5  UNL     1      -4.179   2.955  -3.553  1.00  0.00     0.209 A 
HETATM    6  N2  UNL     1      -5.013   3.602  -4.499  1.00  0.00    -0.062 NA
HETATM    7  N3  UNL     1      -3.169   2.238  -3.855  1.00  0.00    -0.264 N 
ATOM      8  H3  UNL     1      -2.846   2.047  -4.803  1.00  0.00     0.190 HD
HETATM    9  N4  UNL     1      -2.557   1.742  -2.659  1.00  0.00    -0.229 N 
HETATM   10  C6  UNL     1      -1.408   0.958  -2.461  1.00  0.00     0.149 C 
HETATM   11  C8  UNL     1      -0.997   0.628  -1.248  1.00  0.00     0.034 C 
HETATM   12  C15 UNL     1      -1.767   0.949  -0.055  1.00  0.00     0.087 C 
ENDROOT
BRANCH  11  13
HETATM   13  S1  UNL     1       0.525  -0.346  -1.239  1.00  0.00    -0.050 SA
BRANCH  13  14
HETATM   14  C9  UNL     1       1.406  -0.214   0.303  1.00  0.00     0.234 C 
HETATM   15  O4  UNL     1       1.026   0.537   1.182  1.00  0.00    -0.281 OA
BRANCH  14  16
HETATM   16  C10 UNL     1       2.656  -1.041   0.540  1.00  0.00     0.286 C 
BRANCH  16  17
HETATM   17  N5  UNL     1       3.150  -0.732   1.818  1.00  0.00    -0.364 N 
ATOM     18  H5  UNL     1       2.876   0.140   2.271  1.00  0.00     0.158 HD
BRANCH  17  19
HETATM   19  C11 UNL     1       4.026  -1.624   2.481  1.00  0.00     0.270 C 
BRANCH  19  20
HETATM   20  O5  UNL     1       3.416  -2.867   2.748  1.00  0.00    -0.372 OA
ATOM     21  H5  UNL     1       4.004  -3.466   3.193  1.00  0.00     0.212 HD
ENDBRANCH  19  20
BRANCH  19  22
HETATM   22  C12 UNL     1       5.381  -1.833   1.899  1.00  0.00     0.302 C 
BRANCH  22  23
HETATM   23  O6  UNL     1       6.053  -2.780   2.711  1.00  0.00    -0.367 OA
ATOM     24  H6  UNL     1       6.917  -2.913   2.340  1.00  0.00     0.212 HD
ENDBRANCH  22  23
BRANCH  22  25
HETATM   25  O7  UNL     1       6.111  -0.646   2.079  1.00  0.00    -0.367 OA
ATOM     26  H7  UNL     1       6.975  -0.779   1.708  1.00  0.00     0.212 HD
ENDBRANCH  22  25
ENDBRANCH  19  22
ENDBRANCH  17  19
ENDBRANCH  16  17
BRANCH  16  27
HETATM   27  N6  UNL     1       3.545  -0.778  -0.566  1.00  0.00    -0.253 N 
HETATM   28  C13 UNL     1       4.199   0.377  -0.756  1.00  0.00     0.177 A 
HETATM   29  C14 UNL     1       4.926   0.244  -1.927  1.00  0.00     0.221 A 
HETATM   30  F1  UNL     1       5.731   1.154  -2.506  1.00  0.00    -0.183 F 
HETATM   31  N7  UNL     1       4.651  -0.993  -2.360  1.00  0.00    -0.260 N 
HETATM   32  N8  UNL     1       3.828  -1.627  -1.564  1.00  0.00    -0.236 N 
ATOM     33  H7  UNL     1       5.039  -1.395  -3.213  1.00  0.00     0.191 HD
ATOM     34  H8  UNL     1       3.473  -2.576  -1.680  1.00  0.00     0.208 HD
ENDBRANCH  16  27
ENDBRANCH  14  16
ENDBRANCH  13  14
ENDBRANCH  11  13
BRANCH  10  35
HETATM   35  C7  UNL     1      -0.665   0.511  -3.657  1.00  0.00     0.230 C 
HETATM   36  O2  UNL     1      -1.080   0.842  -4.783  1.00  0.00    -0.643 OA
HETATM   37  O3  UNL     1       0.479  -0.264  -3.575  1.00  0.00    -0.643 OA
ENDBRANCH  10  35
BRANCH  12  38
HETATM   38  C16 UNL     1      -2.534  -0.272   0.387  1.00  0.00    -0.001 C 
BRANCH  38  39
HETATM   39  C17 UNL     1      -1.924  -1.490   0.786  1.00  0.00    -0.039 A 
HETATM   40  C18 UNL     1      -1.699  -2.476  -0.176  1.00  0.00     0.011 A 
HETATM   41  C19 UNL     1      -1.138  -3.693   0.134  1.00  0.00     0.001 A 
HETATM   42  C20 UNL     1      -0.772  -3.982   1.437  1.00  0.00     0.000 A 
HETATM   43  C21 UNL     1      -0.977  -3.041   2.410  1.00  0.00     0.001 A 
HETATM   44  C22 UNL     1      -1.538  -1.834   2.077  1.00  0.00     0.011 A 
ENDBRANCH  38  39
ENDBRANCH  12  38
BRANCH   1  45
HETATM   45  C2  UNL     1      -3.575   2.492   0.853  1.00  0.00     0.148 C 
HETATM   46  C1  UNL     1      -2.501   3.070   1.778  1.00  0.00     0.044 C 
BRANCH  45  47
HETATM   47  O1  UNL     1      -4.459   3.521   0.559  1.00  0.00    -0.391 OA
ATOM     48  H1  UNL     1      -5.126   3.162  -0.015  1.00  0.00     0.210 HD
ENDBRANCH  45  47
ENDBRANCH   1  45
TORSDOF 15
