REMARK  10 active torsions:
REMARK  status: ('A' for Active; 'I' for Inactive)
REMARK    1  A    between atoms: C2_2  and  C3_3 
REMARK    2  A    between atoms: C3_3  and  C4_4 
REMARK    3  A    between atoms: C4_4  and  N1_5 
REMARK    4  A    between atoms: N1_5  and  C5_7 
REMARK    5  A    between atoms: C6_10  and  N3_11 
REMARK    6  A    between atoms: N3_11  and  N4_12 
REMARK    7  A    between atoms: N3_11  and  C9_20 
REMARK    8  A    between atoms: N4_12  and  C7_14 
REMARK    9  A    between atoms: C7_14  and  C8_15 
REMARK   10  A    between atoms: C8_15  and  N5_16 
ROOT
HETATM    1  N3  UNL     1      -1.749   0.262   0.219  1.00  0.00    -0.269 N 
ENDROOT
BRANCH   1   2
HETATM    2  C6  UNL     1      -0.349   0.117   0.385  1.00  0.00     0.197 A 
HETATM    3  N2  UNL     1       0.515  -0.339  -0.510  1.00  0.00    -0.167 N 
HETATM    4  C5  UNL     1       1.783  -0.400  -0.192  1.00  0.00     0.686 A 
ATOM      5  H2  UNL     1       0.197  -0.638  -1.432  1.00  0.00     0.186 HD
HETATM    6  N6  UNL     1       2.148   0.003   1.027  1.00  0.00    -0.157 N 
HETATM    7  S1  UNL     1       0.682   0.464   1.708  1.00  0.00     0.040 SA
ATOM      8  H6  UNL     1       3.080   0.026   1.440  1.00  0.00     0.193 HD
BRANCH   4   9
HETATM    9  N1  UNL     1       2.647  -0.878  -1.077  1.00  0.00    -0.225 N 
ATOM     10  H1  UNL     1       2.287  -1.187  -1.980  1.00  0.00     0.177 HD
BRANCH   9  11
HETATM   11  C4  UNL     1       4.042  -0.986  -0.843  1.00  0.00     0.138 C 
BRANCH  11  12
HETATM   12  C3  UNL     1       4.781   0.321  -1.126  1.00  0.00     0.020 C 
BRANCH  12  13
HETATM   13  C2  UNL     1       6.262   0.170  -0.859  1.00  0.00    -0.003 C 
HETATM   14  C1  UNL     1       6.440  -0.205   0.596  1.00  0.00     0.005 C 
ENDBRANCH  12  13
ENDBRANCH  11  12
ENDBRANCH   9  11
ENDBRANCH   4   9
ENDBRANCH   1   2
BRANCH   1  15
HETATM   15  N4  UNL     1      -2.343   1.498   0.234  1.00  0.00    -0.330 N 
ATOM     16  H4  UNL     1      -3.358   1.601   0.249  1.00  0.00     0.180 HD
BRANCH  15  17
HETATM   17  C7  UNL     1      -1.481   2.632   0.227  1.00  0.00     0.166 C 
BRANCH  17  18
HETATM   18  C8  UNL     1      -2.309   3.909   0.237  1.00  0.00     0.250 C 
BRANCH  18  19
HETATM   19  N5  UNL     1      -1.336   5.019   0.225  1.00  0.00    -0.078 N 
ATOM     20  H53 UNL     1      -0.652   4.970   0.980  1.00  0.00     0.274 HD
ATOM     21  H52 UNL     1      -0.670   4.970  -0.546  1.00  0.00     0.274 HD
ATOM     22  H51 UNL     1      -1.891   5.875   0.232  1.00  0.00     0.274 HD
ENDBRANCH  18  19
ENDBRANCH  17  18
ENDBRANCH  15  17
ENDBRANCH   1  15
BRANCH   1  23
HETATM   23  C9  UNL     1      -2.546  -0.907   0.015  1.00  0.00     0.110 C 
HETATM   24  C10 UNL     1      -4.006  -0.544  -0.080  1.00  0.00     0.027 C 
HETATM   25  C11 UNL     1      -4.902  -1.727   0.215  1.00  0.00     0.002 C 
HETATM   26  C12 UNL     1      -4.289  -3.042  -0.126  1.00  0.00     0.000 C 
HETATM   27  C13 UNL     1      -2.903  -3.264   0.380  1.00  0.00     0.002 C 
HETATM   28  C14 UNL     1      -2.387  -1.983   1.052  1.00  0.00     0.027 C 
ENDBRANCH   1  23
TORSDOF 10
