REMARK  8 active torsions:
REMARK  status: ('A' for Active; 'I' for Inactive)
REMARK    1  A    between atoms: C2_2  and  N1_3 
REMARK    2  A    between atoms: N1_3  and  C3_4 
REMARK    3  A    between atoms: N1_3  and  C5_6 
REMARK    4  A    between atoms: C5_6  and  C6_7 
REMARK    5  A    between atoms: C6_7  and  S1_8 
REMARK    6  A    between atoms: S1_8  and  C7_9 
REMARK    7  A    between atoms: C9_13  and  N3_14 
REMARK    8  A    between atoms: N3_14  and  N4_16 
ROOT
HETATM    1  C7  UNL     1      -0.065   0.983   0.697  1.00  0.00     0.146 A 
HETATM    2  N2  UNL     1      -1.322   0.663   1.137  1.00  0.00    -0.332 N 
ATOM      3  H2  UNL     1      -1.561   0.304   2.062  1.00  0.00     0.168 HD
HETATM    4  C8  UNL     1      -2.182   0.904   0.139  1.00  0.00     0.107 A 
HETATM    5  C9  UNL     1      -3.573   0.779  -0.010  1.00  0.00     0.082 A 
HETATM    6  C11 UNL     1      -4.201   1.113  -1.171  1.00  0.00    -0.016 A 
HETATM    7  C12 UNL     1      -5.672   0.972  -1.286  1.00  0.00     0.052 C 
HETATM    8  C13 UNL     1      -3.429   1.589  -2.229  1.00  0.00     0.099 A 
HETATM    9  N5  UNL     1      -2.100   1.721  -2.121  1.00  0.00    -0.350 N 
ATOM     10  H5  UNL     1      -1.548   2.071  -2.904  1.00  0.00     0.166 HD
HETATM   11  C14 UNL     1      -1.507   1.383  -0.960  1.00  0.00     0.136 A 
HETATM   12  N6  UNL     1      -0.199   1.408  -0.553  1.00  0.00    -0.321 N 
ATOM     13  H6  UNL     1       0.577   1.716  -1.139  1.00  0.00     0.169 HD
ENDROOT
BRANCH   1  14
HETATM   14  S1  UNL     1       1.446   0.846   1.642  1.00  0.00    -0.089 SA
BRANCH  14  15
HETATM   15  C6  UNL     1       2.163  -0.774   1.578  1.00  0.00     0.127 C 
BRANCH  15  16
HETATM   16  C5  UNL     1       2.775  -1.198   0.271  1.00  0.00     0.073 C 
BRANCH  16  17
HETATM   17  N1  UNL     1       3.868  -0.434  -0.129  1.00  0.00    -0.374 N 
BRANCH  17  18
HETATM   18  C2  UNL     1       3.775   0.888  -0.541  1.00  0.00     0.122 C 
HETATM   19  C1  UNL     1       4.659   1.797   0.341  1.00  0.00     0.027 C 
ENDBRANCH  17  18
BRANCH  17  20
HETATM   20  C3  UNL     1       5.118  -1.042  -0.361  1.00  0.00     0.058 C 
HETATM   21  C4  UNL     1       5.224  -2.458   0.144  1.00  0.00     0.055 C 
ENDBRANCH  17  20
ENDBRANCH  16  17
ENDBRANCH  15  16
ENDBRANCH  14  15
ENDBRANCH   1  14
BRANCH   5  22
HETATM   22  N3  UNL     1      -4.278   0.275   1.110  1.00  0.00    -0.302 N 
ATOM     23  H3  UNL     1      -4.647   0.897   1.829  1.00  0.00     0.182 HD
BRANCH  22  24
HETATM   24  N4  UNL     1      -4.447  -1.110   1.189  1.00  0.00    -0.146 NA
HETATM   25  C10 UNL     1      -5.820  -1.540   1.107  1.00  0.00     0.159 C 
ENDBRANCH  22  24
ENDBRANCH   5  22
TORSDOF 8
