REMARK  8 active torsions:
REMARK  status: ('A' for Active; 'I' for Inactive)
REMARK    1  A    between atoms: C2_2  and  C3_3 
REMARK    2  A    between atoms: C3_3  and  C5_5 
REMARK    3  A    between atoms: C5_5  and  S1_6 
REMARK    4  A    between atoms: S1_6  and  C6_7 
REMARK    5  A    between atoms: C6_7  and  C7_8 
REMARK    6  A    between atoms: C6_7  and  C12_18 
REMARK    7  A    between atoms: C7_8  and  N1_9 
REMARK    8  A    between atoms: N1_9  and  C8_11 
ROOT
HETATM    1  C6  UNL     1      -0.915   0.699  -0.205  1.00  0.00     0.136 C 
ENDROOT
BRANCH   1   2
HETATM    2  S1  UNL     1       0.717  -0.036  -0.588  1.00  0.00    -0.152 SA
BRANCH   2   3
HETATM    3  C5  UNL     1       1.768   0.264   0.865  1.00  0.00     0.079 C 
BRANCH   3   4
HETATM    4  C3  UNL     1       3.160  -0.304   0.655  1.00  0.00    -0.010 C 
HETATM    5  C4  UNL     1       3.901   0.433  -0.415  1.00  0.00     0.011 C 
BRANCH   4   6
HETATM    6  C2  UNL     1       3.064  -1.783   0.425  1.00  0.00     0.000 C 
HETATM    7  C1  UNL     1       4.386  -2.467   0.342  1.00  0.00     0.005 C 
ENDBRANCH   4   6
ENDBRANCH   3   4
ENDBRANCH   2   3
ENDBRANCH   1   2
BRANCH   1   8
HETATM    8  C7  UNL     1      -1.871   0.501  -1.347  1.00  0.00     0.077 C 
BRANCH   8   9
HETATM    9  N1  UNL     1      -2.176  -0.821  -1.729  1.00  0.00    -0.394 N 
ATOM     10  H1  UNL     1      -1.811  -1.185  -2.609  1.00  0.00     0.159 HD
BRANCH   9  11
HETATM   11  C8  UNL     1      -2.971  -1.643  -0.923  1.00  0.00     0.107 C 
HETATM   12  C9  UNL     1      -2.477  -2.037   0.435  1.00  0.00     0.054 C 
HETATM   13  C10 UNL     1      -3.046  -3.438   0.685  1.00  0.00     0.234 C 
HETATM   14  N2  UNL     1      -3.903  -3.664  -0.450  1.00  0.00    -0.073 N 
HETATM   15  C11 UNL     1      -3.178  -3.042  -1.543  1.00  0.00     0.257 C 
ATOM     16  H22 UNL     1      -4.150  -4.641  -0.607  1.00  0.00     0.277 HD
ATOM     17  H21 UNL     1      -4.860  -3.331  -0.332  1.00  0.00     0.277 HD
ENDBRANCH   9  11
ENDBRANCH   8   9
ENDBRANCH   1   8
BRANCH   1  18
HETATM   18  C12 UNL     1      -0.646   2.169  -0.003  1.00  0.00     0.043 A 
HETATM   19  C13 UNL     1      -0.900   2.805   1.191  1.00  0.00     0.116 A 
HETATM   20  N3  UNL     1      -0.650   4.116   1.348  1.00  0.00    -0.352 N 
HETATM   21  C14 UNL     1      -0.134   4.822   0.301  1.00  0.00     0.131 A 
ATOM     22  H3  UNL     1      -0.843   4.577   2.237  1.00  0.00     0.166 HD
HETATM   23  N4  UNL     1       0.156   6.212   0.396  1.00  0.00    -0.081 NA
HETATM   24  C15 UNL     1       0.124   4.194  -0.900  1.00  0.00     0.133 A 
HETATM   25  N5  UNL     1      -0.143   2.878  -1.010  1.00  0.00    -0.364 N 
ATOM     26  H5  UNL     1       0.047   2.409  -1.896  1.00  0.00     0.165 HD
ENDBRANCH   1  18
TORSDOF 8
