REMARK  10 active torsions:
REMARK  status: ('A' for Active; 'I' for Inactive)
REMARK    1  A    between atoms: N2_4  and  O1_6 
REMARK    2  A    between atoms: O1_6  and  C1_7 
REMARK    3  A    between atoms: C1_7  and  C2_8 
REMARK    4  A    between atoms: C2_8  and  O2_9 
REMARK    5  A    between atoms: C2_8  and  C3_11 
REMARK    6  A    between atoms: C3_11  and  C4_12 
REMARK    7  A    between atoms: C4_12  and  N3_13 
REMARK    8  A    between atoms: N4_15  and  N5_17 
REMARK    9  A    between atoms: N5_17  and  C5_19 
REMARK   10  A    between atoms: C5_19  and  N6_21 
ROOT
HETATM    1  N3  UNL     1       0.773   1.644  -0.191  1.00  0.00    -0.322 N 
ATOM      2  H3  UNL     1       0.892   2.383   0.502  1.00  0.00     0.181 HD
HETATM    3  N4  UNL     1      -0.378   1.351  -0.628  1.00  0.00    -0.245 N 
ATOM      4  H4  UNL     1      -1.187   1.864  -0.278  1.00  0.00     0.208 HD
ENDROOT
BRANCH   1   5
HETATM    5  C4  UNL     1       1.916   0.914  -0.691  1.00  0.00     0.143 C 
BRANCH   5   6
HETATM    6  C3  UNL     1       3.090   1.234   0.192  1.00  0.00     0.055 C 
BRANCH   6   7
HETATM    7  C2  UNL     1       4.342   0.511  -0.254  1.00  0.00     0.146 C 
BRANCH   7   8
HETATM    8  C1  UNL     1       5.449   0.900   0.692  1.00  0.00     0.234 C 
BRANCH   8   9
HETATM    9  O1  UNL     1       6.641   0.221   0.396  1.00  0.00    -0.263 OA
BRANCH   9  10
HETATM   10  N2  UNL     1       7.741   0.458   1.157  1.00  0.00    -0.214 N 
HETATM   11  N1  UNL     1       7.864   0.054   2.339  1.00  0.00    -0.326 N 
ATOM     12  H12 UNL     1       7.089  -0.478   2.733  1.00  0.00     0.178 HD
ATOM     13  H11 UNL     1       8.690   0.232   2.910  1.00  0.00     0.178 HD
ATOM     14  H2  UNL     1       8.507   0.992   0.746  1.00  0.00     0.215 HD
ENDBRANCH   9  10
ENDBRANCH   8   9
ENDBRANCH   7   8
BRANCH   7  15
HETATM   15  O2  UNL     1       4.069  -0.854  -0.190  1.00  0.00    -0.393 OA
ATOM     16  H2  UNL     1       3.371  -1.099  -0.786  1.00  0.00     0.210 HD
ENDBRANCH   7  15
ENDBRANCH   6   7
ENDBRANCH   5   6
ENDBRANCH   1   5
BRANCH   3  17
HETATM   17  N5  UNL     1      -0.565   0.364  -1.558  1.00  0.00    -0.262 N 
ATOM     18  H5  UNL     1       0.041   0.357  -2.379  1.00  0.00     0.191 HD
BRANCH  17  19
HETATM   19  C5  UNL     1      -1.542  -0.641  -1.449  1.00  0.00     0.189 C 
HETATM   20  S1  UNL     1      -1.633  -1.770  -2.683  1.00  0.00    -0.039 SA
BRANCH  19  21
HETATM   21  N6  UNL     1      -2.456  -0.791  -0.403  1.00  0.00    -0.357 N 
HETATM   22  C6  UNL     1      -2.428   0.151   0.676  1.00  0.00     0.125 C 
HETATM   23  C7  UNL     1      -3.560  -0.126   1.674  1.00  0.00     0.020 C 
HETATM   24  C8  UNL     1      -4.916  -0.038   1.069  1.00  0.00     0.002 C 
HETATM   25  C9  UNL     1      -4.963  -0.015  -0.423  1.00  0.00     0.002 C 
HETATM   26  C10 UNL     1      -4.664  -1.363  -1.050  1.00  0.00     0.020 C 
HETATM   27  C11 UNL     1      -3.366  -1.935  -0.544  1.00  0.00     0.125 C 
ENDBRANCH  19  21
ENDBRANCH  17  19
ENDBRANCH   3  17
TORSDOF 10
