REMARK  4 active torsions:
REMARK  status: ('A' for Active; 'I' for Inactive)
REMARK    1  A    between atoms: C5_6  and  N2_7 
REMARK    2  A    between atoms: N5_16  and  C8_17 
REMARK    3  A    between atoms: C8_17  and  C9_18 
REMARK    4  A    between atoms: C15_24  and  N6_25 
ROOT
HETATM    1  C1  UNL     1      -2.547   2.068  -0.476  1.00  0.00     0.051 C 
HETATM    2  C2  UNL     1      -2.640   0.646  -0.131  1.00  0.00    -0.020 A 
HETATM    3  C3  UNL     1      -3.831   0.112   0.398  1.00  0.00     0.095 A 
HETATM    4  C4  UNL     1      -4.956   1.003   0.591  1.00  0.00     0.104 C 
HETATM    5  N1  UNL     1      -5.861   1.708   0.759  1.00  0.00    -0.191 NA
HETATM    6  C5  UNL     1      -3.943  -1.212   0.729  1.00  0.00     0.122 A 
HETATM    7  N3  UNL     1      -2.919  -2.057   0.561  1.00  0.00    -0.327 N 
ATOM      8  H3  UNL     1      -3.022  -3.040   0.813  1.00  0.00     0.169 HD
HETATM    9  C6  UNL     1      -1.758  -1.610   0.061  1.00  0.00     0.122 A 
HETATM   10  N4  UNL     1      -0.708  -2.462  -0.114  1.00  0.00    -0.338 N 
ATOM     11  H4  UNL     1      -0.816  -3.444   0.139  1.00  0.00     0.168 HD
HETATM   12  C7  UNL     1       0.461  -2.041  -0.610  1.00  0.00     0.186 A 
HETATM   13  N5  UNL     1       0.631  -0.749  -0.953  1.00  0.00    -0.325 N 
HETATM   14  C15 UNL     1      -0.390   0.126  -0.795  1.00  0.00     0.117 A 
HETATM   15  C16 UNL     1      -1.627  -0.291  -0.275  1.00  0.00     0.059 A 
ENDROOT
BRANCH   6  16
HETATM   16  N2  UNL     1      -5.061  -1.641   1.210  1.00  0.00    -0.384 N 
ATOM     17  H22 UNL     1      -5.842  -0.997   1.338  1.00  0.00     0.157 HD
ATOM     18  H21 UNL     1      -5.144  -2.627   1.457  1.00  0.00     0.157 HD
ENDBRANCH   6  16
BRANCH  14  19
HETATM   19  N6  UNL     1      -0.317   1.343  -1.123  1.00  0.00    -0.384 N 
ATOM     20  H62 UNL     1       0.581   1.646  -1.500  1.00  0.00     0.157 HD
ATOM     21  H61 UNL     1      -1.086   2.002  -1.004  1.00  0.00     0.157 HD
ENDBRANCH  14  19
BRANCH  13  22
HETATM   22  C8  UNL     1       1.902  -0.345  -1.444  1.00  0.00     0.170 C 
BRANCH  22  23
HETATM   23  C9  UNL     1       2.906   0.011  -0.441  1.00  0.00    -0.040 A 
HETATM   24  C10 UNL     1       3.127   1.289  -0.004  1.00  0.00     0.009 A 
HETATM   25  C11 UNL     1       4.089   1.586   0.953  1.00  0.00     0.001 A 
HETATM   26  C12 UNL     1       4.858   0.565   1.491  1.00  0.00     0.000 A 
HETATM   27  C13 UNL     1       4.622  -0.710   1.041  1.00  0.00     0.001 A 
HETATM   28  C14 UNL     1       3.673  -1.000   0.098  1.00  0.00     0.009 A 
ENDBRANCH  22  23
ENDBRANCH  13  22
TORSDOF 4
