REMARK  4 active torsions:
REMARK  status: ('A' for Active; 'I' for Inactive)
REMARK    1  A    between atoms: C4_6  and  N2_7 
REMARK    2  A    between atoms: C5_12  and  C6_13 
REMARK    3  A    between atoms: C9_18  and  N5_19 
REMARK    4  A    between atoms: N5_19  and  C10_21 
ROOT
HETATM    1  C6  UNL     1      -1.238   0.670   0.203  1.00  0.00     0.078 A 
HETATM    2  C7  UNL     1      -0.725   1.819   0.761  1.00  0.00     0.050 A 
HETATM    3  C8  UNL     1       0.664   1.995   0.903  1.00  0.00     0.108 A 
HETATM    4  N4  UNL     1       1.531   1.057   0.503  1.00  0.00    -0.202 N 
ATOM      5  H4  UNL     1       2.538   1.184   0.605  1.00  0.00     0.183 HD
HETATM    6  C9  UNL     1       1.019  -0.055  -0.037  1.00  0.00     0.683 A 
HETATM    7  N7  UNL     1      -0.304  -0.233  -0.177  1.00  0.00    -0.189 N 
ATOM      8  H7  UNL     1      -0.626  -1.105  -0.597  1.00  0.00     0.184 HD
ENDROOT
BRANCH   1   9
HETATM    9  C5  UNL     1      -2.677   0.436   0.031  1.00  0.00     0.083 A 
HETATM   10  C2  UNL     1      -3.184  -0.714  -0.526  1.00  0.00    -0.016 A 
HETATM   11  C1  UNL     1      -2.299  -1.808  -0.999  1.00  0.00     0.052 C 
HETATM   12  C3  UNL     1      -4.565  -0.862  -0.655  1.00  0.00     0.115 A 
HETATM   13  N1  UNL     1      -5.401   0.095  -0.245  1.00  0.00    -0.202 N 
HETATM   14  C4  UNL     1      -4.901   1.201   0.293  1.00  0.00     0.676 A 
ATOM     15  H1  UNL     1      -6.409  -0.022  -0.344  1.00  0.00     0.183 HD
HETATM   16  N3  UNL     1      -3.570   1.362   0.425  1.00  0.00    -0.189 N 
ATOM     17  H3  UNL     1      -3.223   2.226   0.843  1.00  0.00     0.184 HD
BRANCH  14  18
HETATM   18  N2  UNL     1      -5.701   2.137   0.694  1.00  0.00    -0.234 N 
ATOM     19  H22 UNL     1      -6.709   2.015   0.594  1.00  0.00     0.174 HD
ATOM     20  H21 UNL     1      -5.317   2.987   1.107  1.00  0.00     0.174 HD
ENDBRANCH  14  18
ENDBRANCH   1   9
BRANCH   6  21
HETATM   21  N5  UNL     1       1.782  -1.009  -0.449  1.00  0.00    -0.190 N 
ATOM     22  H5  UNL     1       1.347  -1.838  -0.854  1.00  0.00     0.184 HD
BRANCH  21  23
HETATM   23  C10 UNL     1       3.199  -0.962  -0.366  1.00  0.00     0.064 A 
HETATM   24  C11 UNL     1       3.933  -1.629   0.592  1.00  0.00     0.033 A 
HETATM   25  C12 UNL     1       5.324  -1.518   0.588  1.00  0.00     0.019 A 
HETATM   26  C13 UNL     1       5.999  -0.759  -0.345  1.00  0.00     0.088 A 
HETATM   27  N6  UNL     1       5.248  -0.123  -1.263  1.00  0.00    -0.373 N 
HETATM   28  C14 UNL     1       3.894  -0.208  -1.289  1.00  0.00     0.117 A 
ATOM     29  H6  UNL     1       5.716   0.446  -1.968  1.00  0.00     0.164 HD
ENDBRANCH  21  23
ENDBRANCH   6  21
TORSDOF 4
