REMARK  2 active torsions:
REMARK  status: ('A' for Active; 'I' for Inactive)
REMARK       I    between atoms: N2_3  and  C2_5 
REMARK    1  A    between atoms: N4_7  and  C3_9 
REMARK    2  A    between atoms: C12_18  and  C13_19 
ROOT
HETATM    1  C3  UNL     1       1.030   0.252  -0.303  1.00  0.00     0.088 C 
HETATM    2  C4  UNL     1       0.951  -1.064  -1.041  1.00  0.00     0.026 C 
HETATM    3  C5  UNL     1      -0.566  -1.295  -1.065  1.00  0.00     0.008 C 
HETATM    4  C6  UNL     1      -0.946  -1.002   0.345  1.00  0.00     0.001 C 
HETATM    5  C7  UNL     1      -0.124   0.229   0.671  1.00  0.00     0.014 C 
HETATM    6  C8  UNL     1      -1.350   1.043   0.233  1.00  0.00     0.018 C 
HETATM    7  C9  UNL     1      -2.159  -0.154   0.538  1.00  0.00    -0.024 C 
HETATM    8  C10 UNL     1      -2.900  -0.242   1.811  1.00  0.00     0.011 C 
HETATM    9  C11 UNL     1      -3.930  -1.095   1.055  1.00  0.00     0.015 C 
HETATM   10  C12 UNL     1      -3.379  -0.448  -0.219  1.00  0.00     0.084 C 
ENDROOT
BRANCH   1  11
HETATM   11  N4  UNL     1       2.275   0.454   0.376  1.00  0.00    -0.359 N 
HETATM   12  C2  UNL     1       3.418  -0.019   0.080  1.00  0.00     0.189 C 
HETATM   13  N2  UNL     1       4.537   0.318   0.908  1.00  0.00    -0.329 N 
HETATM   14  N3  UNL     1       3.678  -0.867  -1.020  1.00  0.00    -0.064 NA
HETATM   15  C1  UNL     1       5.578   0.865   0.395  1.00  0.00     0.192 C 
ATOM     16  H2  UNL     1       4.506   0.123   1.909  1.00  0.00     0.168 HD
HETATM   17  N1  UNL     1       6.680   1.194   1.227  1.00  0.00    -0.097 NA
ATOM     18  H4  UNL     1       2.241   1.053   1.201  1.00  0.00     0.162 HD
ENDBRANCH   1  11
BRANCH  10  19
HETATM   19  C13 UNL     1      -4.242   0.735  -0.540  1.00  0.00     0.236 C 
HETATM   20  N5  UNL     1      -3.783   1.826  -1.303  1.00  0.00    -0.062 NA
HETATM   21  O1  UNL     1      -5.450   0.800  -0.127  1.00  0.00    -0.276 OA
ENDBRANCH  10  19
TORSDOF 2
