REMARK  5 active torsions:
REMARK  status: ('A' for Active; 'I' for Inactive)
REMARK    1  A    between atoms: C2_2  and  N1_3 
REMARK    2  A    between atoms: N1_3  and  C3_5 
REMARK    3  A    between atoms: C3_5  and  N2_7 
REMARK    4  A    between atoms: N2_7  and  N3_9 
REMARK       I    between atoms: N3_9  and  C4_11 
REMARK       I    between atoms: C4_11  and  N4_13 
REMARK    5  A    between atoms: N4_13  and  C5_15 
ROOT
HETATM    1  N3  UNL     1       1.404   0.789  -0.727  1.00  0.00    -0.249 N 
ATOM      2  H3  UNL     1       1.123   1.438  -1.462  1.00  0.00     0.192 HD
HETATM    3  C4  UNL     1       0.411   0.006  -0.095  1.00  0.00     0.335 C 
HETATM    4  O1  UNL     1       0.788  -0.805   0.821  1.00  0.00    -0.246 OA
HETATM    5  N4  UNL     1      -0.956   0.116  -0.463  1.00  0.00    -0.337 N 
ATOM      6  H4  UNL     1      -1.243   0.766  -1.195  1.00  0.00     0.164 HD
ENDROOT
BRANCH   1   7
HETATM    7  N2  UNL     1       2.745   0.707  -0.385  1.00  0.00    -0.272 N 
ATOM      8  H2  UNL     1       3.057  -0.104   0.150  1.00  0.00     0.189 HD
BRANCH   7   9
HETATM    9  C3  UNL     1       3.706   1.686  -0.737  1.00  0.00     0.186 C 
HETATM   10  S1  UNL     1       3.150   2.969  -1.597  1.00  0.00    -0.040 SA
BRANCH   9  11
HETATM   11  N1  UNL     1       5.075   1.596  -0.386  1.00  0.00    -0.366 N 
ATOM     12  H1  UNL     1       5.715   2.338  -0.669  1.00  0.00     0.161 HD
BRANCH  11  13
HETATM   13  C2  UNL     1       5.576   0.478   0.362  1.00  0.00     0.117 C 
HETATM   14  C1  UNL     1       5.542  -0.800  -0.463  1.00  0.00     0.026 C 
ENDBRANCH  11  13
ENDBRANCH   9  11
ENDBRANCH   7   9
ENDBRANCH   1   7
BRANCH   5  15
HETATM   15  C5  UNL     1      -1.920  -0.692   0.202  1.00  0.00     0.090 C 
HETATM   16  C6  UNL     1      -2.770  -1.527  -0.735  1.00  0.00     0.030 C 
HETATM   17  C7  UNL     1      -4.213  -1.293  -0.342  1.00  0.00    -0.012 C 
HETATM   18  C8  UNL     1      -4.619   0.070  -0.810  1.00  0.00     0.005 C 
HETATM   19  C11 UNL     1      -4.016  -1.013   1.159  1.00  0.00     0.011 C 
HETATM   20  C9  UNL     1      -3.696   0.973  -0.001  1.00  0.00     0.007 C 
HETATM   21  C10 UNL     1      -2.967   0.096   0.955  1.00  0.00     0.009 C 
ENDBRANCH   5  15
TORSDOF 5
