REMARK  8 active torsions:
REMARK  status: ('A' for Active; 'I' for Inactive)
REMARK    1  A    between atoms: C3_3  and  C4_4 
REMARK    2  A    between atoms: C4_4  and  N1_5 
REMARK    3  A    between atoms: N1_5  and  C5_7 
REMARK    4  A    between atoms: C5_7  and  N2_9 
REMARK    5  A    between atoms: N2_9  and  N3_11 
REMARK    6  A    between atoms: N3_11  and  C6_13 
REMARK    7  A    between atoms: C6_13  and  N4_15 
REMARK    8  A    between atoms: N4_15  and  C7_17 
ROOT
HETATM    1  C1  UNL     1       7.143  -0.983   0.410  1.00  0.00     0.112 C 
HETATM    2  C2  UNL     1       5.731  -0.593   0.427  1.00  0.00    -0.109 C 
HETATM    3  C3  UNL     1       4.567  -0.273   0.427  1.00  0.00    -0.087 C 
ENDROOT
BRANCH   3   4
HETATM    4  C4  UNL     1       3.161   0.133   0.419  1.00  0.00     0.216 C 
BRANCH   4   5
HETATM    5  N1  UNL     1       2.645   0.183  -0.950  1.00  0.00    -0.356 N 
ATOM      6  H1  UNL     1       3.272  -0.054  -1.719  1.00  0.00     0.162 HD
BRANCH   5   7
HETATM    7  C5  UNL     1       1.322   0.544  -1.247  1.00  0.00     0.187 C 
HETATM    8  S1  UNL     1       0.835   0.571  -2.814  1.00  0.00    -0.040 SA
BRANCH   7   9
HETATM    9  N2  UNL     1       0.437   0.877  -0.195  1.00  0.00    -0.274 N 
ATOM     10  H2  UNL     1       0.767   0.853   0.770  1.00  0.00     0.189 HD
BRANCH   9  11
HETATM   11  N3  UNL     1      -0.881   1.238  -0.465  1.00  0.00    -0.274 N 
ATOM     12  H3  UNL     1      -1.049   2.079  -1.017  1.00  0.00     0.189 HD
BRANCH  11  13
HETATM   13  C6  UNL     1      -1.996   0.499  -0.014  1.00  0.00     0.186 C 
HETATM   14  S2  UNL     1      -1.797  -0.848   0.867  1.00  0.00    -0.040 SA
BRANCH  13  15
HETATM   15  N4  UNL     1      -3.303   0.935  -0.332  1.00  0.00    -0.362 N 
ATOM     16  H4  UNL     1      -3.421   1.783  -0.887  1.00  0.00     0.162 HD
BRANCH  15  17
HETATM   17  C7  UNL     1      -4.481   0.211   0.108  1.00  0.00     0.076 C 
HETATM   18  C8  UNL     1      -4.541   0.129   1.608  1.00  0.00     0.032 C 
HETATM   19  C9  UNL     1      -4.410  -1.154  -0.538  1.00  0.00     0.032 C 
ENDBRANCH  15  17
ENDBRANCH  13  15
ENDBRANCH  11  13
ENDBRANCH   9  11
ENDBRANCH   7   9
ENDBRANCH   5   7
ENDBRANCH   4   5
ENDBRANCH   3   4
TORSDOF 8
