REMARK  4 active torsions:
REMARK  status: ('A' for Active; 'I' for Inactive)
REMARK       I    between atoms: N1_2  and  C2_4 
REMARK       I    between atoms: C2_4  and  N3_8 
REMARK       I    between atoms: N3_8  and  C3_10 
REMARK       I    between atoms: C3_10  and  N4_12 
REMARK    1  A    between atoms: N4_12  and  C4_14 
REMARK    2  A    between atoms: C4_14  and  C5_15 
REMARK    3  A    between atoms: C5_15  and  O2_16 
REMARK    4  A    between atoms: C5_15  and  N5_18 
ROOT
HETATM    1  C1  UNL     1       5.345  -0.742  -0.360  1.00  0.00     0.165 C 
HETATM    2  N1  UNL     1       4.701   0.537  -0.629  1.00  0.00    -0.231 N 
ATOM      3  H1  UNL     1       4.814   0.941  -1.559  1.00  0.00     0.177 HD
HETATM    4  C2  UNL     1       3.949   1.238   0.290  1.00  0.00     0.675 C 
HETATM    5  N2  UNL     1       4.563   2.188   0.983  1.00  0.00    -0.235 N 
ATOM      6  H21 UNL     1       4.007   2.707   1.663  1.00  0.00     0.174 HD
ATOM      7  H22 UNL     1       5.549   2.336   0.770  1.00  0.00     0.174 HD
HETATM    8  N3  UNL     1       2.600   1.035   0.581  1.00  0.00    -0.142 N 
ATOM      9  H3  UNL     1       2.152   1.614   1.291  1.00  0.00     0.189 HD
HETATM   10  C3  UNL     1       1.830   0.035  -0.091  1.00  0.00     0.335 C 
HETATM   11  O1  UNL     1       2.368  -0.651  -0.967  1.00  0.00    -0.246 OA
HETATM   12  N4  UNL     1       0.475  -0.140   0.289  1.00  0.00    -0.326 N 
ATOM     13  H4  UNL     1       0.088   0.524   0.960  1.00  0.00     0.165 HD
ENDROOT
BRANCH  12  14
HETATM   14  C4  UNL     1      -0.399  -1.175  -0.193  1.00  0.00     0.099 A 
HETATM   15  C10 UNL     1       0.147  -2.384  -0.862  1.00  0.00     0.042 A 
HETATM   16  C11 UNL     1      -0.417  -1.299  -1.712  1.00  0.00     0.042 A 
BRANCH  14  17
HETATM   17  C5  UNL     1      -1.749  -1.213   0.461  1.00  0.00     0.142 C 
BRANCH  17  18
HETATM   18  O2  UNL     1      -2.024  -2.347   1.070  1.00  0.00    -0.348 OA
ATOM     19  H2  UNL     1      -2.879  -2.371   1.484  1.00  0.00     0.219 HD
ENDBRANCH  17  18
BRANCH  17  20
HETATM   20  N5  UNL     1      -2.741  -0.227   0.505  1.00  0.00    -0.363 N 
HETATM   21  C6  UNL     1      -2.797   1.001  -0.238  1.00  0.00     0.124 C 
HETATM   22  C7  UNL     1      -3.939   1.799   0.283  1.00  0.00     0.021 C 
HETATM   23  C8  UNL     1      -4.858   0.777   0.893  1.00  0.00     0.021 C 
HETATM   24  C9  UNL     1      -3.895  -0.287   1.390  1.00  0.00     0.124 C 
ENDBRANCH  17  20
ENDBRANCH  14  17
ENDBRANCH  12  14
TORSDOF 4
