REMARK  6 active torsions:
REMARK  status: ('A' for Active; 'I' for Inactive)
REMARK    1  A    between atoms: C2_2  and  C3_3 
REMARK    2  A    between atoms: C3_3  and  N1_4 
REMARK    3  A    between atoms: N1_4  and  C4_6 
REMARK    4  A    between atoms: C4_6  and  N2_8 
REMARK    5  A    between atoms: N2_8  and  N3_10 
REMARK       I    between atoms: N3_10  and  C5_12 
REMARK       I    between atoms: C5_12  and  N4_14 
REMARK    6  A    between atoms: C8_17  and  N5_18 
ROOT
HETATM    1  N3  UNL     1       0.563   0.181   0.845  1.00  0.00    -0.249 N 
ATOM      2  H3  UNL     1       0.609   0.670  -0.049  1.00  0.00     0.192 HD
HETATM    3  C5  UNL     1      -0.611  -0.501   1.237  1.00  0.00     0.337 C 
HETATM    4  O1  UNL     1      -0.611  -1.095   2.360  1.00  0.00    -0.245 OA
HETATM    5  N4  UNL     1      -1.752  -0.522   0.404  1.00  0.00    -0.333 N 
HETATM    6  C6  UNL     1      -1.788   0.129  -0.881  1.00  0.00     0.129 C 
HETATM    7  C7  UNL     1      -3.029   1.048  -0.931  1.00  0.00     0.052 C 
HETATM    8  C8  UNL     1      -4.209   0.176  -0.645  1.00  0.00     0.186 C 
HETATM    9  C9  UNL     1      -4.112  -0.237   0.829  1.00  0.00     0.052 C 
HETATM   10  C10 UNL     1      -2.942  -1.234   0.892  1.00  0.00     0.129 C 
ENDROOT
BRANCH   1  11
HETATM   11  N2  UNL     1       1.659   0.169   1.712  1.00  0.00    -0.272 N 
ATOM     12  H2  UNL     1       1.554   0.454   2.686  1.00  0.00     0.189 HD
BRANCH  11  13
HETATM   13  C4  UNL     1       2.913  -0.245   1.216  1.00  0.00     0.186 C 
HETATM   14  S1  UNL     1       4.191  -0.288   2.231  1.00  0.00    -0.040 SA
BRANCH  13  15
HETATM   15  N1  UNL     1       3.019  -0.631  -0.143  1.00  0.00    -0.366 N 
ATOM     16  H1  UNL     1       2.192  -0.616  -0.740  1.00  0.00     0.161 HD
BRANCH  15  17
HETATM   17  C3  UNL     1       4.287  -1.045  -0.688  1.00  0.00     0.121 C 
BRANCH  17  18
HETATM   18  C2  UNL     1       5.191   0.140  -0.806  1.00  0.00     0.015 C 
HETATM   19  C1  UNL     1       4.504   1.124  -1.771  1.00  0.00     0.006 C 
ENDBRANCH  17  18
ENDBRANCH  15  17
ENDBRANCH  13  15
ENDBRANCH  11  13
ENDBRANCH   1  11
BRANCH   8  20
HETATM   20  N5  UNL     1      -5.471   0.831  -0.905  1.00  0.00    -0.075 N 
ATOM     21  H53 UNL     1      -5.536   1.711  -0.394  1.00  0.00     0.274 HD
ATOM     22  H52 UNL     1      -5.506   1.189  -1.859  1.00  0.00     0.274 HD
ATOM     23  H51 UNL     1      -6.276   0.236  -0.710  1.00  0.00     0.274 HD
ENDBRANCH   8  20
TORSDOF 6
