REMARK  7 active torsions:
REMARK  status: ('A' for Active; 'I' for Inactive)
REMARK       I    between atoms: C3_3  and  N1_5 
REMARK    1  A    between atoms: N1_5  and  N2_7 
REMARK    2  A    between atoms: N2_7  and  C4_9 
REMARK    3  A    between atoms: C4_9  and  N3_11 
REMARK    4  A    between atoms: N3_11  and  C5_13 
REMARK    5  A    between atoms: C5_13  and  N4_15 
REMARK    6  A    between atoms: N4_15  and  C6_17 
REMARK    7  A    between atoms: C6_17  and  C7_18 
ROOT
HETATM    1  C1  UNL     1       7.393   0.854   0.727  1.00  0.00     0.023 C 
HETATM    2  C2  UNL     1       6.349   0.468   0.264  1.00  0.00    -0.015 C 
HETATM    3  C3  UNL     1       5.104  -0.001  -0.262  1.00  0.00     0.314 C 
HETATM    4  O1  UNL     1       5.027  -1.188  -0.645  1.00  0.00    -0.256 OA
HETATM    5  N1  UNL     1       3.945   0.829  -0.367  1.00  0.00    -0.257 N 
ATOM      6  H1  UNL     1       3.985   1.801  -0.061  1.00  0.00     0.191 HD
ENDROOT
BRANCH   5   7
HETATM    7  N2  UNL     1       2.771   0.315  -0.883  1.00  0.00    -0.273 N 
ATOM      8  H2  UNL     1       2.746  -0.045  -1.837  1.00  0.00     0.189 HD
BRANCH   7   9
HETATM    9  C4  UNL     1       1.601   0.290  -0.081  1.00  0.00     0.192 C 
HETATM   10  S1  UNL     1       1.719   0.896   1.443  1.00  0.00    -0.039 SA
BRANCH   9  11
HETATM   11  N3  UNL     1       0.400  -0.233  -0.588  1.00  0.00    -0.309 N 
ATOM     12  H3  UNL     1       0.417  -0.585  -1.545  1.00  0.00     0.170 HD
BRANCH  11  13
HETATM   13  C5  UNL     1      -0.837  -0.318   0.107  1.00  0.00     0.173 C 
HETATM   14  S2  UNL     1      -0.945   0.214   1.646  1.00  0.00    -0.041 SA
BRANCH  13  15
HETATM   15  N4  UNL     1      -1.959  -0.879  -0.555  1.00  0.00    -0.367 N 
ATOM     16  H4  UNL     1      -1.827  -1.203  -1.513  1.00  0.00     0.161 HD
BRANCH  15  17
HETATM   17  C6  UNL     1      -3.264  -1.026   0.020  1.00  0.00     0.121 C 
BRANCH  17  18
HETATM   18  C7  UNL     1      -3.954   0.287   0.223  1.00  0.00     0.015 C 
HETATM   19  C8  UNL     1      -5.337   0.012   0.828  1.00  0.00     0.006 C 
ENDBRANCH  17  18
ENDBRANCH  15  17
ENDBRANCH  13  15
ENDBRANCH  11  13
ENDBRANCH   9  11
ENDBRANCH   7   9
ENDBRANCH   5   7
TORSDOF 7
