REMARK  7 active torsions:
REMARK  status: ('A' for Active; 'I' for Inactive)
REMARK    1  A    between atoms: C2_2  and  O1_3 
REMARK    2  A    between atoms: C2_2  and  N1_5 
REMARK    3  A    between atoms: N1_5  and  N2_6 
REMARK    4  A    between atoms: N2_6  and  C3_8 
REMARK    5  A    between atoms: C3_8  and  N3_10 
REMARK       I    between atoms: N3_10  and  C4_12 
REMARK       I    between atoms: C4_12  and  N4_14 
REMARK    6  A    between atoms: N4_14  and  C5_16 
REMARK    7  A    between atoms: C5_16  and  C6_17 
ROOT
HETATM    1  N3  UNL     1       1.572   0.028  -0.135  1.00  0.00    -0.284 N 
ATOM      2  H3  UNL     1       2.131   0.647   0.452  1.00  0.00     0.173 HD
HETATM    3  C4  UNL     1       0.225   0.378  -0.497  1.00  0.00     0.322 C 
HETATM    4  O2  UNL     1      -0.329  -0.402  -1.370  1.00  0.00    -0.247 OA
HETATM    5  N4  UNL     1      -0.514   1.464   0.014  1.00  0.00    -0.342 N 
ATOM      6  H4  UNL     1      -0.072   2.128   0.650  1.00  0.00     0.164 HD
ENDROOT
BRANCH   1   7
HETATM    7  C3  UNL     1       2.113  -1.214  -0.619  1.00  0.00     0.205 C 
HETATM    8  S1  UNL     1       1.006  -2.126  -1.568  1.00  0.00    -0.038 SA
BRANCH   7   9
HETATM    9  N2  UNL     1       3.373  -1.673  -0.596  1.00  0.00    -0.207 N 
ATOM     10  H2  UNL     1       3.515  -2.660  -0.810  1.00  0.00     0.204 HD
BRANCH   9  11
HETATM   11  N1  UNL     1       4.454  -0.949  -0.317  1.00  0.00    -0.303 NA
BRANCH  11  12
HETATM   12  C2  UNL     1       5.549  -0.220  -0.042  1.00  0.00     0.210 C 
HETATM   13  C1  UNL     1       5.912   0.510   1.229  1.00  0.00     0.117 C 
BRANCH  12  14
HETATM   14  O1  UNL     1       6.515  -0.068  -0.926  1.00  0.00    -0.338 OA
ATOM     15  H1  UNL     1       6.287  -0.527  -1.726  1.00  0.00     0.220 HD
ENDBRANCH  12  14
ENDBRANCH  11  12
ENDBRANCH   9  11
ENDBRANCH   7   9
ENDBRANCH   1   7
BRANCH   5  16
HETATM   16  C5  UNL     1      -1.895   1.636  -0.364  1.00  0.00     0.129 C 
BRANCH  16  17
HETATM   17  C6  UNL     1      -2.803   0.876   0.466  1.00  0.00     0.003 C 
HETATM   18  C7  UNL     1      -4.256   0.969   0.005  1.00  0.00     0.006 C 
HETATM   19  C8  UNL     1      -4.742  -0.394  -0.184  1.00  0.00     0.000 C 
HETATM   20  C9  UNL     1      -3.739  -1.342   0.414  1.00  0.00     0.000 C 
HETATM   21  C10 UNL     1      -2.581  -0.482   0.917  1.00  0.00     0.006 C 
ENDBRANCH  16  17
ENDBRANCH   5  16
TORSDOF 7
