REMARK  5 active torsions:
REMARK  status: ('A' for Active; 'I' for Inactive)
REMARK       I    between atoms: C1_2  and  N1_3 
REMARK    1  A    between atoms: C1_2  and  C7_15 
REMARK    2  A    between atoms: N1_3  and  N2_5 
REMARK    3  A    between atoms: N2_5  and  C2_7 
REMARK    4  A    between atoms: C2_7  and  N3_9 
REMARK    5  A    between atoms: N3_9  and  C3_11 
ROOT
HETATM    1  O1  UNL     1      -0.991  -0.304   1.243  1.00  0.00    -0.271 OA
HETATM    2  C1  UNL     1      -1.289  -0.314   0.028  1.00  0.00     0.240 C 
HETATM    3  N1  UNL     1      -0.404  -0.190  -1.036  1.00  0.00    -0.268 N 
ATOM      4  H1  UNL     1      -0.882  -0.229  -1.936  1.00  0.00     0.190 HD
ENDROOT
BRANCH   3   5
HETATM    5  N2  UNL     1       0.926  -0.031  -1.179  1.00  0.00    -0.274 N 
ATOM      6  H2  UNL     1       1.266  -0.218  -2.122  1.00  0.00     0.189 HD
BRANCH   5   7
HETATM    7  C2  UNL     1       1.920   0.339  -0.285  1.00  0.00     0.186 C 
HETATM    8  S1  UNL     1       1.632   0.688   1.283  1.00  0.00    -0.040 SA
BRANCH   7   9
HETATM    9  N3  UNL     1       3.301   0.447  -0.753  1.00  0.00    -0.361 N 
ATOM     10  H3  UNL     1       3.535   0.270  -1.730  1.00  0.00     0.162 HD
BRANCH   9  11
HETATM   11  C3  UNL     1       4.308   0.803   0.181  1.00  0.00     0.083 C 
HETATM   12  C4  UNL     1       4.523  -0.388   1.135  1.00  0.00     0.025 C 
HETATM   13  C5  UNL     1       5.596  -0.842   0.127  1.00  0.00     0.004 C 
HETATM   14  C6  UNL     1       5.729   0.643  -0.249  1.00  0.00     0.025 C 
ENDBRANCH   9  11
ENDBRANCH   7   9
ENDBRANCH   5   7
ENDBRANCH   3   5
BRANCH   2  15
HETATM   15  C7  UNL     1      -2.772  -0.478  -0.226  1.00  0.00     0.082 C 
HETATM   16  C8  UNL     1      -3.234   0.434  -1.341  1.00  0.00     0.041 C 
HETATM   17  C9  UNL     1      -4.702   0.692  -1.201  1.00  0.00     0.233 C 
HETATM   18  N4  UNL     1      -5.393  -0.317  -0.458  1.00  0.00    -0.075 N 
HETATM   19  C10 UNL     1      -4.950  -0.455   0.896  1.00  0.00     0.233 C 
ATOM     20  H42 UNL     1      -6.400  -0.157  -0.490  1.00  0.00     0.277 HD
ATOM     21  H41 UNL     1      -5.345  -1.213  -0.943  1.00  0.00     0.277 HD
HETATM   22  C11 UNL     1      -3.509  -0.118   1.049  1.00  0.00     0.041 C 
ENDBRANCH   2  15
TORSDOF 5
