REMARK  1 active torsions:
REMARK  status: ('A' for Active; 'I' for Inactive)
REMARK    1  A    between atoms: C7_8  and  N2_9 
REMARK       I    between atoms: C8_11  and  N4_13 
REMARK       I    between atoms: N4_13  and  C9_15 
ROOT
HETATM    1  C1  UNL     1      -3.962   0.367   0.915  1.00  0.00     0.272 C 
HETATM    2  N1  UNL     1      -3.199  -0.158  -0.202  1.00  0.00    -0.070 N 
HETATM    3  C2  UNL     1      -3.898  -1.222  -0.829  1.00  0.00     0.272 C 
HETATM    4  C3  UNL     1      -2.863   0.935  -1.060  1.00  0.00     0.237 C 
HETATM    5  C4  UNL     1      -1.649   1.626  -0.431  1.00  0.00     0.034 C 
HETATM    6  C5  UNL     1      -1.294   0.716   0.712  1.00  0.00     0.020 C 
HETATM    7  C6  UNL     1       0.151   0.668   1.035  1.00  0.00     0.032 C 
HETATM    8  C7  UNL     1       0.907  -0.453   0.394  1.00  0.00     0.084 C 
HETATM    9  C10 UNL     1       0.313  -0.896  -0.922  1.00  0.00     0.027 C 
HETATM   10  C11 UNL     1      -1.132  -1.244  -0.843  1.00  0.00     0.036 C 
HETATM   11  C12 UNL     1      -1.878  -0.601   0.272  1.00  0.00     0.194 C 
ENDROOT
BRANCH   8  12
HETATM   12  N2  UNL     1       2.264  -0.061   0.154  1.00  0.00    -0.360 N 
HETATM   13  C8  UNL     1       3.279  -0.842   0.160  1.00  0.00     0.190 C 
HETATM   14  N3  UNL     1       3.075  -2.208   0.420  1.00  0.00    -0.063 NA
HETATM   15  N4  UNL     1       4.561  -0.298  -0.097  1.00  0.00    -0.305 N 
HETATM   16  C9  UNL     1       4.754   1.071  -0.348  1.00  0.00     0.188 C 
ATOM     17  H4  UNL     1       5.370  -0.920  -0.100  1.00  0.00     0.171 HD
HETATM   18  N5  UNL     1       3.843   1.851  -0.823  1.00  0.00    -0.373 N 
HETATM   19  N6  UNL     1       6.016   1.664  -0.071  1.00  0.00    -0.064 NA
ATOM     20  H52 UNL     1       2.938   1.426  -1.022  1.00  0.00     0.158 HD
ATOM     21  H51 UNL     1       3.983   2.845  -1.005  1.00  0.00     0.158 HD
ATOM     22  H2  UNL     1       2.437   0.926  -0.038  1.00  0.00     0.162 HD
ENDBRANCH   8  12
TORSDOF 1
