REMARK  1 active torsions:
REMARK  status: ('A' for Active; 'I' for Inactive)
REMARK       I    between atoms: N1_2  and  C2_4 
REMARK    1  A    between atoms: C2_4  and  C3_6 
ROOT
HETATM    1  C3  UNL     1       0.868   0.014   0.253  1.00  0.00     0.211 C 
HETATM    2  C4  UNL     1       0.371  -0.815  -0.935  1.00  0.00     0.074 C 
HETATM    3  C5  UNL     1      -0.999  -0.825  -1.339  1.00  0.00     0.080 C 
HETATM    4  C6  UNL     1      -1.657  -2.136  -0.917  1.00  0.00     0.025 C 
HETATM    5  C7  UNL     1      -2.550  -1.905   0.246  1.00  0.00     0.004 C 
HETATM    6  C8  UNL     1      -2.246  -0.942   1.249  1.00  0.00     0.036 C 
HETATM    7  C9  UNL     1      -1.157   0.111   1.113  1.00  0.00     0.215 C 
HETATM    8  N2  UNL     1       0.103  -0.530   1.323  1.00  0.00    -0.050 N 
ATOM      9  H21 UNL     1       0.505  -0.412   2.253  1.00  0.00     0.279 HD
ATOM     10  H22 UNL     1       0.074  -1.549   1.367  1.00  0.00     0.279 HD
HETATM   11  C10 UNL     1      -1.345   0.977  -0.071  1.00  0.00     0.054 C 
HETATM   12  C11 UNL     1      -1.524   2.279   0.580  1.00  0.00     0.033 C 
HETATM   13  C12 UNL     1      -0.043   2.297   1.090  1.00  0.00     0.010 C 
HETATM   14  C13 UNL     1       0.776   1.485   0.110  1.00  0.00     0.034 C 
HETATM   15  C14 UNL     1      -0.268   1.531  -0.956  1.00  0.00     0.040 C 
HETATM   16  N3  UNL     1      -1.992   0.197  -0.947  1.00  0.00    -0.406 N 
ATOM     17  H3  UNL     1      -2.955   0.288  -1.271  1.00  0.00     0.154 HD
ENDROOT
BRANCH   1  18
HETATM   18  C2  UNL     1       2.292  -0.356   0.445  1.00  0.00     0.254 C 
HETATM   19  N1  UNL     1       3.280   0.061  -0.485  1.00  0.00    -0.363 N 
HETATM   20  C1  UNL     1       4.651  -0.323  -0.257  1.00  0.00     0.149 C 
ATOM     21  H1  UNL     1       3.025   0.621  -1.298  1.00  0.00     0.161 HD
HETATM   22  O1  UNL     1       2.601  -1.052   1.461  1.00  0.00    -0.271 OA
ENDBRANCH   1  18
TORSDOF 1
