REMARK  3 active torsions:
REMARK  status: ('A' for Active; 'I' for Inactive)
REMARK    1  A    between atoms: C3_3  and  N1_4 
REMARK       I    between atoms: N1_4  and  C4_6 
REMARK       I    between atoms: C4_6  and  N3_10 
REMARK    2  A    between atoms: N3_10  and  N4_12 
REMARK       I    between atoms: N4_12  and  C5_14 
REMARK    3  A    between atoms: C5_14  and  C6_16 
ROOT
HETATM    1  C1  UNL     1       6.483   1.427  -0.229  1.00  0.00     0.014 C 
HETATM    2  C2  UNL     1       5.792   0.562   0.276  1.00  0.00    -0.097 C 
HETATM    3  C3  UNL     1       4.935  -0.466   0.884  1.00  0.00     0.231 C 
ENDROOT
BRANCH   3   4
HETATM    4  N1  UNL     1       3.530  -0.135   0.730  1.00  0.00    -0.215 N 
HETATM    5  C4  UNL     1       2.887  -0.135  -0.537  1.00  0.00     0.687 C 
HETATM    6  N2  UNL     1       3.184  -1.073  -1.371  1.00  0.00    -0.234 N 
HETATM    7  N3  UNL     1       1.941   0.838  -0.951  1.00  0.00    -0.130 N 
ATOM      8  H22 UNL     1       3.864  -1.772  -1.073  1.00  0.00     0.174 HD
ATOM      9  H21 UNL     1       2.722  -1.073  -2.281  1.00  0.00     0.174 HD
ATOM     10  H3  UNL     1       2.299   1.644  -1.463  1.00  0.00     0.205 HD
ATOM     11  H1  UNL     1       2.986   0.106   1.559  1.00  0.00     0.178 HD
BRANCH   7  12
HETATM   12  N4  UNL     1       0.575   0.794  -0.723  1.00  0.00    -0.255 N 
HETATM   13  C5  UNL     1      -0.155  -0.343  -0.356  1.00  0.00     0.245 C 
HETATM   14  O1  UNL     1       0.455  -1.430  -0.211  1.00  0.00    -0.271 OA
ATOM     15  H4  UNL     1       0.056   1.665  -0.832  1.00  0.00     0.190 HD
BRANCH  13  16
HETATM   16  C6  UNL     1      -1.607  -0.369  -0.121  1.00  0.00     0.047 C 
HETATM   17  C7  UNL     1      -2.449   0.075  -1.324  1.00  0.00     0.024 C 
HETATM   18  C8  UNL     1      -3.671   0.622  -0.614  1.00  0.00    -0.013 C 
HETATM   19  C9  UNL     1      -4.296  -0.458   0.229  1.00  0.00     0.010 C 
HETATM   20  C13 UNL     1      -2.980   1.450   0.484  1.00  0.00     0.011 C 
HETATM   21  C10 UNL     1      -3.165  -0.790   1.184  1.00  0.00    -0.008 C 
HETATM   22  C11 UNL     1      -2.151  -1.668   0.437  1.00  0.00     0.025 C 
HETATM   23  C12 UNL     1      -2.153   0.321   1.074  1.00  0.00     0.008 C 
ENDBRANCH  13  16
ENDBRANCH   7  12
ENDBRANCH   3   4
TORSDOF 3
