REMARK  7 active torsions:
REMARK  status: ('A' for Active; 'I' for Inactive)
REMARK    1  A    between atoms: C2_2  and  N1_3 
REMARK    2  A    between atoms: C2_2  and  C3_7 
REMARK    3  A    between atoms: C3_7  and  N3_11 
REMARK    4  A    between atoms: N3_11  and  N4_13 
REMARK    5  A    between atoms: N4_13  and  C4_15 
REMARK    6  A    between atoms: C4_15  and  N5_17 
REMARK    7  A    between atoms: N5_17  and  C5_19 
ROOT
HETATM    1  N3  UNL     1       2.547  -0.700   0.393  1.00  0.00    -0.285 N 
ATOM      2  H3  UNL     1       2.592  -0.190   1.275  1.00  0.00     0.188 HD
ENDROOT
BRANCH   1   3
HETATM    3  C3  UNL     1       3.679  -0.678  -0.445  1.00  0.00     0.120 C 
HETATM    4  N2  UNL     1       3.950  -1.733  -1.134  1.00  0.00    -0.386 N 
ATOM      5  H22 UNL     1       4.770  -1.717  -1.741  1.00  0.00     0.157 HD
ATOM      6  H21 UNL     1       3.348  -2.553  -1.060  1.00  0.00     0.157 HD
BRANCH   3   7
HETATM    7  C2  UNL     1       4.551   0.509  -0.552  1.00  0.00     0.247 C 
HETATM    8  C1  UNL     1       5.132   0.836   0.804  1.00  0.00     0.048 C 
BRANCH   7   9
HETATM    9  N1  UNL     1       3.795   1.617  -1.100  1.00  0.00    -0.069 N 
ATOM     10  H13 UNL     1       3.071   1.927  -0.452  1.00  0.00     0.275 HD
ATOM     11  H12 UNL     1       4.357   2.468  -1.133  1.00  0.00     0.275 HD
ATOM     12  H11 UNL     1       3.403   1.396  -2.015  1.00  0.00     0.275 HD
ENDBRANCH   7   9
ENDBRANCH   3   7
ENDBRANCH   1   3
BRANCH   1  13
HETATM   13  N4  UNL     1       1.365  -1.380   0.086  1.00  0.00    -0.275 N 
ATOM     14  H4  UNL     1       1.427  -2.358  -0.198  1.00  0.00     0.189 HD
BRANCH  13  15
HETATM   15  C4  UNL     1       0.084  -0.775   0.151  1.00  0.00     0.186 C 
HETATM   16  S1  UNL     1       0.030   0.786   0.618  1.00  0.00    -0.040 SA
BRANCH  15  17
HETATM   17  N5  UNL     1      -1.083  -1.500  -0.167  1.00  0.00    -0.361 N 
ATOM     18  H5  UNL     1      -0.955  -2.474  -0.440  1.00  0.00     0.162 HD
BRANCH  17  19
HETATM   19  C5  UNL     1      -2.421  -1.013  -0.146  1.00  0.00     0.083 C 
HETATM   20  C6  UNL     1      -2.636   0.081  -1.128  1.00  0.00     0.025 C 
HETATM   21  C7  UNL     1      -3.336   1.295  -0.662  1.00  0.00     0.002 C 
HETATM   22  C8  UNL     1      -4.315   1.166   0.441  1.00  0.00     0.000 C 
HETATM   23  C9  UNL     1      -4.375  -0.224   1.012  1.00  0.00     0.002 C 
HETATM   24  C10 UNL     1      -2.917  -0.653   1.244  1.00  0.00     0.025 C 
ENDBRANCH  17  19
ENDBRANCH  15  17
ENDBRANCH  13  15
ENDBRANCH   1  13
TORSDOF 7
