REMARK  2 active torsions:
REMARK  status: ('A' for Active; 'I' for Inactive)
REMARK    1  A    between atoms: O1_1  and  C1_3 
REMARK    2  A    between atoms: C1_3  and  C2_4 
ROOT
HETATM    1  C2  UNL     1      -0.992  -0.670   0.310  1.00  0.00     0.039 C 
HETATM    2  C3  UNL     1      -0.876  -2.048  -0.271  1.00  0.00     0.246 C 
HETATM    3  N1  UNL     1       0.212  -2.821   0.260  1.00  0.00    -0.073 N 
ATOM      4  H11 UNL     1       0.087  -3.827   0.146  1.00  0.00     0.277 HD
ATOM      5  H12 UNL     1       0.254  -2.814   1.279  1.00  0.00     0.277 HD
HETATM    6  C4  UNL     1       1.425  -2.312  -0.374  1.00  0.00     0.262 C 
HETATM    7  C5  UNL     1       1.905  -1.167   0.422  1.00  0.00     0.288 C 
HETATM    8  N2  UNL     1       1.368   0.108   0.204  1.00  0.00     0.017 N 
HETATM    9  C6  UNL     1       1.689   0.889   1.420  1.00  0.00     0.262 C 
HETATM   10  C7  UNL     1       3.084   1.367   1.246  1.00  0.00     0.048 C 
HETATM   11  C8  UNL     1       3.385   1.117  -0.189  1.00  0.00     0.144 C 
HETATM   12  N3  UNL     1       2.159   0.742  -0.798  1.00  0.00    -0.046 NA
HETATM   13  C9  UNL     1       0.022   0.299  -0.159  1.00  0.00     0.224 C 
HETATM   14  C10 UNL     1      -0.131   0.621  -1.651  1.00  0.00     0.041 C 
HETATM   15  C11 UNL     1      -1.541   1.056  -1.976  1.00  0.00    -0.012 C 
HETATM   16  C12 UNL     1      -2.031   2.109  -0.991  1.00  0.00     0.005 C 
HETATM   17  C13 UNL     1      -2.557   1.308   0.186  1.00  0.00     0.006 C 
HETATM   18  C14 UNL     1      -2.361  -0.149  -0.166  1.00  0.00     0.000 C 
HETATM   19  C15 UNL     1      -2.446  -0.093  -1.663  1.00  0.00     0.010 C 
ENDROOT
BRANCH   1  20
HETATM   20  C1  UNL     1      -1.142  -0.695   1.817  1.00  0.00     0.177 C 
BRANCH  20  21
HETATM   21  O1  UNL     1      -2.307  -1.409   2.191  1.00  0.00    -0.400 OA
ATOM     22  H1  UNL     1      -2.401  -1.425   3.136  1.00  0.00     0.209 HD
ENDBRANCH  20  21
ENDBRANCH   1  20
TORSDOF 2
