REMARK  3 active torsions:
REMARK  status: ('A' for Active; 'I' for Inactive)
REMARK       I    between atoms: C2_2  and  N1_4 
REMARK    1  A    between atoms: N1_4  and  C3_6 
REMARK    2  A    between atoms: C6_12  and  C7_13 
REMARK       I    between atoms: C7_13  and  N3_15 
REMARK    3  A    between atoms: N3_15  and  C8_17 
ROOT
HETATM    1  C3  UNL     1       2.299  -0.662   0.145  1.00  0.00     0.111 C 
HETATM    2  C4  UNL     1       2.615  -2.048  -0.351  1.00  0.00     0.257 C 
HETATM    3  N2  UNL     1       1.561  -2.991  -0.099  1.00  0.00    -0.072 N 
ATOM      4  H21 UNL     1       1.510  -3.227   0.892  1.00  0.00     0.277 HD
ATOM      5  H22 UNL     1       1.794  -3.910  -0.475  1.00  0.00     0.277 HD
HETATM    6  C5  UNL     1       0.275  -2.537  -0.594  1.00  0.00     0.246 C 
HETATM    7  C6  UNL     1      -0.051  -1.246   0.074  1.00  0.00     0.105 C 
HETATM    8  C12 UNL     1       0.944  -0.206  -0.400  1.00  0.00     0.042 C 
ENDROOT
BRANCH   7   9
HETATM    9  C7  UNL     1      -1.443  -0.827  -0.068  1.00  0.00     0.224 C 
HETATM   10  O2  UNL     1      -2.234  -1.553  -0.715  1.00  0.00    -0.273 OA
HETATM   11  N3  UNL     1      -1.857   0.399   0.538  1.00  0.00    -0.353 N 
ATOM     12  H3  UNL     1      -1.172   0.951   1.054  1.00  0.00     0.163 HD
BRANCH  11  13
HETATM   13  C8  UNL     1      -3.216   0.881   0.442  1.00  0.00     0.022 C 
HETATM   14  C9  UNL     1      -3.643   1.105  -0.988  1.00  0.00     0.037 C 
HETATM   15  C10 UNL     1      -4.110  -0.117   1.149  1.00  0.00     0.037 C 
HETATM   16  C11 UNL     1      -3.363   2.198   1.167  1.00  0.00     0.037 C 
ENDBRANCH  11  13
ENDBRANCH   7   9
BRANCH   1  17
HETATM   17  N1  UNL     1       3.305   0.259  -0.313  1.00  0.00    -0.355 N 
HETATM   18  C2  UNL     1       4.075   1.031   0.585  1.00  0.00     0.213 C 
HETATM   19  C1  UNL     1       5.118   1.989   0.144  1.00  0.00     0.117 C 
HETATM   20  O1  UNL     1       3.880   0.917   1.820  1.00  0.00    -0.274 OA
ATOM     21  H1  UNL     1       3.467   0.357  -1.315  1.00  0.00     0.162 HD
ENDBRANCH   1  17
TORSDOF 3
