REMARK  5 active torsions:
REMARK  status: ('A' for Active; 'I' for Inactive)
REMARK    1  A    between atoms: C2_2  and  N1_3 
REMARK    2  A    between atoms: N1_3  and  C3_5 
REMARK    3  A    between atoms: C3_5  and  N2_7 
REMARK    4  A    between atoms: N2_7  and  N3_9 
REMARK       I    between atoms: N3_9  and  C4_11 
REMARK    5  A    between atoms: C4_11  and  C5_13 
ROOT
HETATM    1  N3  UNL     1       0.973  -1.262   1.084  1.00  0.00    -0.268 N 
ATOM      2  H3  UNL     1       0.616  -2.152   0.735  1.00  0.00     0.190 HD
HETATM    3  C4  UNL     1       0.140  -0.134   1.091  1.00  0.00     0.242 C 
HETATM    4  O1  UNL     1       0.576   0.957   1.520  1.00  0.00    -0.271 OA
ENDROOT
BRANCH   3   5
HETATM    5  C5  UNL     1      -1.237  -0.206   0.607  1.00  0.00     0.110 C 
HETATM    6  C6  UNL     1      -1.336  -0.760  -0.808  1.00  0.00     0.018 C 
HETATM    7  C7  UNL     1      -2.840  -0.981  -1.026  1.00  0.00     0.034 C 
HETATM    8  C8  UNL     1      -3.603   0.282  -0.655  1.00  0.00     0.186 C 
HETATM    9  C9  UNL     1      -4.099   0.269   0.772  1.00  0.00     0.035 C 
HETATM   10  N4  UNL     1      -2.663   1.360  -0.662  1.00  0.00    -0.066 N 
HETATM   11  C10 UNL     1      -3.056   1.076   1.563  1.00  0.00     0.036 C 
HETATM   12  C11 UNL     1      -1.905   1.149   0.555  1.00  0.00     0.199 C 
ATOM     13  H42 UNL     1      -2.097   1.423  -1.508  1.00  0.00     0.278 HD
ATOM     14  H41 UNL     1      -3.081   2.287  -0.746  1.00  0.00     0.278 HD
ENDBRANCH   3   5
BRANCH   1  15
HETATM   15  N2  UNL     1       2.274  -1.180   1.545  1.00  0.00    -0.274 N 
ATOM     16  H2  UNL     1       2.508  -1.647   2.421  1.00  0.00     0.189 HD
BRANCH  15  17
HETATM   17  C3  UNL     1       3.298  -0.479   0.860  1.00  0.00     0.186 C 
HETATM   18  S1  UNL     1       4.822  -0.442   1.490  1.00  0.00    -0.040 SA
BRANCH  17  19
HETATM   19  N1  UNL     1       3.044   0.190  -0.362  1.00  0.00    -0.366 N 
ATOM     20  H1  UNL     1       2.102   0.159  -0.752  1.00  0.00     0.161 HD
BRANCH  19  21
HETATM   21  C2  UNL     1       4.060   0.907  -1.069  1.00  0.00     0.117 C 
HETATM   22  C1  UNL     1       5.091  -0.050  -1.640  1.00  0.00     0.026 C 
ENDBRANCH  19  21
ENDBRANCH  17  19
ENDBRANCH  15  17
ENDBRANCH   1  15
TORSDOF 5
