REMARK  5 active torsions:
REMARK  status: ('A' for Active; 'I' for Inactive)
REMARK    1  A    between atoms: C2_2  and  N1_5 
REMARK    2  A    between atoms: N1_5  and  S1_7 
REMARK    3  A    between atoms: S1_7  and  N2_9 
REMARK    4  A    between atoms: S1_7  and  N5_16 
REMARK       I    between atoms: N2_9  and  C5_11 
REMARK    5  A    between atoms: N5_16  and  C6_18 
ROOT
HETATM    1  S1  UNL     1      -0.052   0.528   0.000  1.00  0.00     0.198 S 
HETATM    2  O1  UNL     1      -0.036   0.203  -1.453  1.00  0.00    -0.206 OA
ENDROOT
BRANCH   1   3
HETATM    3  N1  UNL     1       1.320   0.053   0.592  1.00  0.00    -0.311 N 
ATOM      4  H1  UNL     1       1.602   0.417   1.502  1.00  0.00     0.173 HD
BRANCH   3   5
HETATM    5  C2  UNL     1       2.191  -0.852  -0.063  1.00  0.00     0.029 C 
HETATM    6  C1  UNL     1       2.956  -0.196  -1.191  1.00  0.00     0.038 C 
HETATM    7  C3  UNL     1       1.491  -2.110  -0.538  1.00  0.00     0.038 C 
HETATM    8  C4  UNL     1       3.224  -1.306   0.965  1.00  0.00     0.038 C 
ENDBRANCH   3   5
ENDBRANCH   1   3
BRANCH   1   9
HETATM    9  N2  UNL     1      -0.146   2.243   0.187  1.00  0.00    -0.259 N 
HETATM   10  C5  UNL     1       0.841   2.995   0.875  1.00  0.00     0.195 C 
HETATM   11  N3  UNL     1       0.525   3.542   1.988  1.00  0.00    -0.373 N 
HETATM   12  N4  UNL     1       2.169   3.177   0.399  1.00  0.00    -0.063 NA
ATOM     13  H32 UNL     1      -0.427   3.411   2.329  1.00  0.00     0.158 HD
ATOM     14  H31 UNL     1       1.235   4.083   2.483  1.00  0.00     0.158 HD
ATOM     15  H2  UNL     1      -0.944   2.735  -0.214  1.00  0.00     0.181 HD
ENDBRANCH   1   9
BRANCH   1  16
HETATM   16  N5  UNL     1      -1.277  -0.306   0.803  1.00  0.00    -0.311 N 
ATOM     17  H5  UNL     1      -1.151  -0.653   1.754  1.00  0.00     0.173 HD
BRANCH  16  18
HETATM   18  C6  UNL     1      -2.489  -0.503   0.098  1.00  0.00     0.029 C 
HETATM   19  C7  UNL     1      -3.426  -1.276   1.040  1.00  0.00     0.038 C 
HETATM   20  C8  UNL     1      -2.396  -1.278  -1.164  1.00  0.00     0.038 C 
HETATM   21  C9  UNL     1      -3.210   0.828  -0.159  1.00  0.00     0.038 C 
ENDBRANCH  16  18
ENDBRANCH   1  16
TORSDOF 5
