REMARK  5 active torsions:
REMARK  status: ('A' for Active; 'I' for Inactive)
REMARK    1  A    between atoms: C2_2  and  N1_4 
REMARK    2  A    between atoms: N1_4  and  C4_6 
REMARK    3  A    between atoms: C4_6  and  N2_8 
REMARK    4  A    between atoms: N2_8  and  N3_10 
REMARK       I    between atoms: N3_10  and  C5_12 
REMARK       I    between atoms: C5_12  and  N4_14 
REMARK    5  A    between atoms: N4_14  and  C6_16 
ROOT
HETATM    1  N3  UNL     1       0.586  -1.856   1.016  1.00  0.00    -0.249 N 
ATOM      2  H3  UNL     1       0.276  -2.782   0.720  1.00  0.00     0.192 HD
HETATM    3  C5  UNL     1      -0.299  -0.737   1.009  1.00  0.00     0.335 C 
HETATM    4  O1  UNL     1       0.156   0.376   1.388  1.00  0.00    -0.246 OA
HETATM    5  N4  UNL     1      -1.650  -0.890   0.583  1.00  0.00    -0.337 N 
ATOM      6  H4  UNL     1      -2.009  -1.795   0.279  1.00  0.00     0.164 HD
ENDROOT
BRANCH   1   7
HETATM    7  N2  UNL     1       1.904  -1.628   1.448  1.00  0.00    -0.272 N 
ATOM      8  H2  UNL     1       2.191  -1.977   2.362  1.00  0.00     0.189 HD
BRANCH   7   9
HETATM    9  C4  UNL     1       2.842  -0.932   0.657  1.00  0.00     0.186 C 
HETATM   10  S1  UNL     1       4.336  -0.699   1.237  1.00  0.00    -0.040 SA
BRANCH   9  11
HETATM   11  N1  UNL     1       2.481  -0.441  -0.610  1.00  0.00    -0.362 N 
ATOM     12  H1  UNL     1       1.531  -0.600  -0.944  1.00  0.00     0.162 HD
BRANCH  11  13
HETATM   13  C2  UNL     1       3.405   0.282  -1.460  1.00  0.00     0.076 C 
HETATM   14  C1  UNL     1       4.574  -0.594  -1.818  1.00  0.00     0.032 C 
HETATM   15  C3  UNL     1       3.939   1.519  -0.801  1.00  0.00     0.032 C 
ENDBRANCH  11  13
ENDBRANCH   9  11
ENDBRANCH   7   9
ENDBRANCH   1   7
BRANCH   5  16
HETATM   16  C6  UNL     1      -2.491   0.282   0.597  1.00  0.00     0.086 C 
HETATM   17  C7  UNL     1      -3.591   0.073   1.619  1.00  0.00     0.025 C 
HETATM   18  C8  UNL     1      -4.605   1.106   1.167  1.00  0.00     0.002 C 
HETATM   19  C9  UNL     1      -4.664   0.806  -0.337  1.00  0.00     0.002 C 
HETATM   20  C10 UNL     1      -3.211   0.507  -0.712  1.00  0.00     0.025 C 
ENDBRANCH   5  16
TORSDOF 5
