REMARK  1 active torsions:
REMARK  status: ('A' for Active; 'I' for Inactive)
REMARK    1  A    between atoms: C2_2  and  C4_4 
ROOT
HETATM    1  C4  UNL     1       1.244   0.276   0.657  1.00  0.00     0.035 C 
HETATM    2  C5  UNL     1       0.992  -1.169   0.808  1.00  0.00     0.061 C 
HETATM    3  N1  UNL     1      -0.346  -1.446   1.103  1.00  0.00    -0.396 N 
ATOM      4  H1  UNL     1      -0.683  -1.314   2.057  1.00  0.00     0.159 HD
HETATM    5  C6  UNL     1      -1.234  -1.899   0.123  1.00  0.00     0.098 C 
HETATM    6  C7  UNL     1      -2.573  -1.146   0.106  1.00  0.00     0.027 C 
HETATM    7  C8  UNL     1      -2.638  -0.053   1.090  1.00  0.00     0.016 C 
HETATM    8  C9  UNL     1      -2.233   1.307   0.682  1.00  0.00     0.078 C 
HETATM    9  C10 UNL     1      -0.803   1.539   1.035  1.00  0.00     0.023 C 
HETATM   10  C11 UNL     1       0.195   1.092  -0.013  1.00  0.00     0.038 C 
HETATM   11  C12 UNL     1      -0.327   0.705  -1.311  1.00  0.00     0.184 C 
HETATM   12  N2  UNL     1      -0.894  -0.456  -1.673  1.00  0.00    -0.399 N 
ATOM     13  H2  UNL     1      -1.625  -0.339  -2.375  1.00  0.00     0.155 HD
HETATM   14  C13 UNL     1      -0.711  -1.744  -1.314  1.00  0.00     0.141 C 
HETATM   15  N3  UNL     1      -1.339   1.737  -1.571  1.00  0.00    -0.340 N 
ATOM     16  H3  UNL     1      -1.253   2.402  -2.339  1.00  0.00     0.164 HD
HETATM   17  C14 UNL     1      -2.442   1.747  -0.684  1.00  0.00     0.223 C 
HETATM   18  O1  UNL     1      -3.569   2.134  -1.096  1.00  0.00    -0.273 OA
ENDROOT
BRANCH   1  19
HETATM   19  C2  UNL     1       2.646   0.567   0.129  1.00  0.00    -0.013 C 
HETATM   20  C1  UNL     1       3.697   0.015   1.075  1.00  0.00     0.010 C 
HETATM   21  C3  UNL     1       2.890   0.105  -1.258  1.00  0.00     0.010 C 
ENDBRANCH   1  19
TORSDOF 1
