REMARK  3 active torsions:
REMARK  status: ('A' for Active; 'I' for Inactive)
REMARK    1  A    between atoms: C5_6  and  C6_7 
REMARK    2  A    between atoms: C6_7  and  N2_8 
REMARK       I    between atoms: N2_8  and  C7_10 
REMARK       I    between atoms: C7_10  and  N6_18 
REMARK       I    between atoms: N3_11  and  C8_13 
REMARK    3  A    between atoms: N6_18  and  C9_20 
ROOT
HETATM    1  N2  UNL     1      -0.228   0.108  -1.660  1.00  0.00    -0.224 N 
ATOM      2  H2  UNL     1      -0.801  -0.156  -2.462  1.00  0.00     0.177 HD
HETATM    3  C7  UNL     1      -0.896   0.382  -0.436  1.00  0.00     0.677 C 
HETATM    4  N3  UNL     1      -0.944   1.522   0.130  1.00  0.00    -0.164 N 
ATOM      5  H3  UNL     1      -1.458   1.583   1.009  1.00  0.00     0.187 HD
HETATM    6  C8  UNL     1      -0.352   2.703  -0.349  1.00  0.00     0.200 C 
HETATM    7  N4  UNL     1       0.522   3.307   0.379  1.00  0.00    -0.373 N 
ATOM      8  H41 UNL     1       0.952   4.164   0.031  1.00  0.00     0.158 HD
ATOM      9  H42 UNL     1       0.752   2.897   1.284  1.00  0.00     0.158 HD
HETATM   10  N5  UNL     1      -0.673   3.276  -1.613  1.00  0.00    -0.063 NA
HETATM   11  N6  UNL     1      -1.571  -0.723   0.194  1.00  0.00    -0.218 N 
ATOM     12  H6  UNL     1      -1.160  -1.654   0.129  1.00  0.00     0.178 HD
ENDROOT
BRANCH   1  13
HETATM   13  C6  UNL     1       1.192   0.175  -1.852  1.00  0.00     0.173 C 
BRANCH  13  14
HETATM   14  C5  UNL     1       1.969  -0.895  -1.119  1.00  0.00     0.240 C 
HETATM   15  N1  UNL     1       1.780  -0.835   0.292  1.00  0.00     0.090 N 
HETATM   16  C1  UNL     1       1.868  -2.127   0.941  1.00  0.00     0.310 C 
HETATM   17  C2  UNL     1       2.838  -0.009   0.848  1.00  0.00     0.272 C 
HETATM   18  C3  UNL     1       4.047  -0.241  -0.032  1.00  0.00     0.032 C 
HETATM   19  C4  UNL     1       3.454  -0.638  -1.357  1.00  0.00     0.039 C 
ENDBRANCH  13  14
ENDBRANCH   1  13
BRANCH  11  20
HETATM   20  C9  UNL     1      -2.802  -0.558   0.910  1.00  0.00     0.036 C 
HETATM   21  C10 UNL     1      -3.248  -1.897   1.453  1.00  0.00     0.038 C 
HETATM   22  C11 UNL     1      -2.676   0.433   2.064  1.00  0.00     0.038 C 
HETATM   23  C12 UNL     1      -3.920  -0.047   0.024  1.00  0.00     0.038 C 
ENDBRANCH  11  20
TORSDOF 3
