REMARK  3 active torsions:
REMARK  status: ('A' for Active; 'I' for Inactive)
REMARK    1  A    between atoms: C2_2  and  C3_3 
REMARK    2  A    between atoms: C3_3  and  N1_4 
REMARK       I    between atoms: N1_4  and  C4_6 
REMARK       I    between atoms: C4_6  and  N3_10 
REMARK    3  A    between atoms: C10_16  and  N4_17 
ROOT
HETATM    1  N1  UNL     1       3.133  -0.488  -1.135  1.00  0.00    -0.223 N 
ATOM      2  H1  UNL     1       2.762  -1.277  -1.664  1.00  0.00     0.178 HD
HETATM    3  C4  UNL     1       2.209   0.418  -0.614  1.00  0.00     0.669 C 
HETATM    4  N2  UNL     1       2.531   1.610  -0.253  1.00  0.00    -0.235 N 
ATOM      5  H21 UNL     1       1.855   2.272   0.128  1.00  0.00     0.174 HD
ATOM      6  H22 UNL     1       3.515   1.856  -0.362  1.00  0.00     0.174 HD
HETATM    7  N3  UNL     1       0.823   0.072  -0.461  1.00  0.00    -0.218 N 
HETATM    8  C5  UNL     1       0.250  -0.718  -1.563  1.00  0.00     0.146 C 
HETATM    9  C6  UNL     1      -1.181  -0.219  -1.712  1.00  0.00     0.006 C 
HETATM   10  C7  UNL     1      -1.164   1.259  -1.333  1.00  0.00     0.014 C 
HETATM   11  C8  UNL     1      -1.283   1.135   0.195  1.00  0.00     0.027 C 
HETATM   12  C9  UNL     1      -0.002   0.436   0.644  1.00  0.00     0.148 C 
HETATM   13  C10 UNL     1      -2.479   0.193   0.249  1.00  0.00     0.089 C 
HETATM   14  C12 UNL     1      -2.023  -0.919  -0.647  1.00  0.00     0.032 C 
ENDROOT
BRANCH   1  15
HETATM   15  C3  UNL     1       4.543  -0.409  -0.994  1.00  0.00     0.164 C 
BRANCH  15  16
HETATM   16  C2  UNL     1       4.958  -0.648   0.410  1.00  0.00    -0.017 C 
HETATM   17  C1  UNL     1       5.633   0.257   1.107  1.00  0.00     0.008 C 
ENDBRANCH  15  16
ENDBRANCH   1  15
BRANCH  13  18
HETATM   18  N4  UNL     1      -2.852  -0.184   1.566  1.00  0.00    -0.362 N 
HETATM   19  C11 UNL     1      -4.118  -0.255   1.857  1.00  0.00     0.197 C 
HETATM   20  N5  UNL     1      -5.117   0.035   0.878  1.00  0.00    -0.067 NA
HETATM   21  N6  UNL     1      -4.584  -0.616   3.137  1.00  0.00    -0.067 NA
ATOM     22  H4  UNL     1      -2.143  -0.395   2.268  1.00  0.00     0.162 HD
ENDBRANCH  13  18
TORSDOF 3
