REMARK  5 active torsions:
REMARK  status: ('A' for Active; 'I' for Inactive)
REMARK    1  A    between atoms: N1_1  and  N2_4 
REMARK    2  A    between atoms: N2_4  and  N3_6 
REMARK    3  A    between atoms: C1_8  and  C2_9 
REMARK    4  A    between atoms: C9_16  and  O1_17 
REMARK    5  A    between atoms: C11_20  and  O2_21 
ROOT
HETATM    1  C2  UNL     1       1.070  -0.488  -0.851  1.00  0.00     0.065 C 
HETATM    2  C3  UNL     1       0.152   0.565  -1.430  1.00  0.00     0.006 C 
HETATM    3  C4  UNL     1       0.328   1.940  -1.040  1.00  0.00     0.006 C 
HETATM    4  C5  UNL     1      -0.102   2.507   0.234  1.00  0.00     0.004 C 
HETATM    5  C6  UNL     1      -1.547   2.333   0.640  1.00  0.00     0.027 C 
HETATM    6  C7  UNL     1      -1.626   0.886   1.080  1.00  0.00    -0.021 C 
HETATM    7  C8  UNL     1      -1.482  -0.136   0.280  1.00  0.00    -0.051 C 
HETATM    8  C9  UNL     1      -1.590  -1.493   0.896  1.00  0.00     0.150 C 
HETATM    9  C10 UNL     1      -0.203  -2.120   0.622  1.00  0.00     0.075 C 
HETATM   10  C11 UNL     1       0.287  -1.777  -0.743  1.00  0.00     0.070 C 
HETATM   11  C12 UNL     1      -0.917  -1.483  -1.648  1.00  0.00     0.048 C 
HETATM   12  C13 UNL     1      -1.208  -0.068  -1.187  1.00  0.00     0.024 C 
ENDROOT
BRANCH   1  13
HETATM   13  C1  UNL     1       1.749  -0.081   0.376  1.00  0.00     0.089 C 
HETATM   14  N3  UNL     1       2.953   0.385   0.312  1.00  0.00    -0.301 N 
ATOM     15  H3  UNL     1       3.381   0.447  -0.612  1.00  0.00     0.187 HD
BRANCH  14  16
HETATM   16  N2  UNL     1       3.706   0.805   1.386  1.00  0.00    -0.250 N 
ATOM     17  H2  UNL     1       4.312   1.623   1.313  1.00  0.00     0.207 HD
BRANCH  16  18
HETATM   18  N1  UNL     1       3.625   0.139   2.482  1.00  0.00    -0.331 N 
ATOM     19  H12 UNL     1       3.015  -0.676   2.539  1.00  0.00     0.178 HD
ATOM     20  H11 UNL     1       4.183   0.450   3.277  1.00  0.00     0.178 HD
ENDBRANCH  16  18
ENDBRANCH  14  16
ENDBRANCH   1  13
BRANCH  10  21
HETATM   21  O2  UNL     1       0.981  -2.871  -1.292  1.00  0.00    -0.389 OA
ATOM     22  H2  UNL     1       0.489  -3.681  -1.224  1.00  0.00     0.210 HD
ENDBRANCH  10  21
BRANCH   8  23
HETATM   23  O1  UNL     1      -1.707  -1.332   2.258  1.00  0.00    -0.391 OA
ATOM     24  H1  UNL     1      -1.776  -2.195   2.650  1.00  0.00     0.210 HD
ENDBRANCH   8  23
TORSDOF 5
