REMARK  6 active torsions:
REMARK  status: ('A' for Active; 'I' for Inactive)
REMARK    1  A    between atoms: C2_2  and  N1_3 
REMARK    2  A    between atoms: N1_3  and  C3_5 
REMARK    3  A    between atoms: C3_5  and  N2_7 
REMARK    4  A    between atoms: N2_7  and  N3_9 
REMARK       I    between atoms: N3_9  and  C4_11 
REMARK       I    between atoms: C4_11  and  N6_19 
REMARK    5  A    between atoms: N4_12  and  C5_14 
REMARK    6  A    between atoms: C5_14  and  N5_16 
ROOT
HETATM    1  N3  UNL     1      -0.479   0.233   0.792  1.00  0.00    -0.130 N 
ATOM      2  H3  UNL     1      -0.770   0.891   1.515  1.00  0.00     0.205 HD
HETATM    3  C4  UNL     1      -1.478  -0.491   0.118  1.00  0.00     0.696 C 
HETATM    4  N4  UNL     1      -2.249   0.077  -0.739  1.00  0.00    -0.165 N 
ATOM      5  H4  UNL     1      -2.955  -0.501  -1.196  1.00  0.00     0.186 HD
HETATM    6  N6  UNL     1      -1.712  -1.880   0.328  1.00  0.00    -0.225 N 
HETATM    7  C7  UNL     1      -1.800  -2.852  -0.747  1.00  0.00     0.168 C 
HETATM    8  C8  UNL     1      -1.877  -2.402   1.675  1.00  0.00     0.168 C 
ENDROOT
BRANCH   1   9
HETATM    9  N2  UNL     1       0.890   0.107   0.532  1.00  0.00    -0.262 N 
ATOM     10  H2  UNL     1       1.196  -0.397  -0.301  1.00  0.00     0.190 HD
BRANCH   9  11
HETATM   11  C3  UNL     1       1.856   0.661   1.396  1.00  0.00     0.186 C 
HETATM   12  S1  UNL     1       1.382   1.462   2.729  1.00  0.00    -0.040 SA
BRANCH  11  13
HETATM   13  N1  UNL     1       3.232   0.532   1.122  1.00  0.00    -0.366 N 
ATOM     14  H1  UNL     1       3.902   0.947   1.770  1.00  0.00     0.161 HD
BRANCH  13  15
HETATM   15  C2  UNL     1       3.732  -0.166  -0.041  1.00  0.00     0.117 C 
HETATM   16  C1  UNL     1       5.244  -0.101  -0.111  1.00  0.00     0.026 C 
ENDBRANCH  13  15
ENDBRANCH  11  13
ENDBRANCH   9  11
ENDBRANCH   1   9
BRANCH   4  17
HETATM   17  C5  UNL     1      -2.191   1.440  -1.094  1.00  0.00     0.186 C 
HETATM   18  S2  UNL     1      -0.986   2.447  -0.708  1.00  0.00    -0.040 SA
BRANCH  17  19
HETATM   19  N5  UNL     1      -3.303   1.945  -1.857  1.00  0.00    -0.371 N 
HETATM   20  C6  UNL     1      -3.315   3.325  -2.261  1.00  0.00     0.148 C 
ATOM     21  H5  UNL     1      -4.076   1.329  -2.109  1.00  0.00     0.161 HD
ENDBRANCH  17  19
ENDBRANCH   4  17
TORSDOF 6
