REMARK  5 active torsions:
REMARK  status: ('A' for Active; 'I' for Inactive)
REMARK    1  A    between atoms: C3_3  and  N1_4 
REMARK       I    between atoms: N1_4  and  C4_6 
REMARK       I    between atoms: C4_6  and  N2_8 
REMARK    2  A    between atoms: N2_8  and  C5_10 
REMARK    3  A    between atoms: C5_10  and  C7_13 
REMARK    4  A    between atoms: C7_13  and  C8_14 
REMARK    5  A    between atoms: N4_23  and  C15_25 
ROOT
HETATM    1  C1  UNL     1       1.659   3.179   2.112  1.00  0.00     0.054 C 
HETATM    2  C2  UNL     1       2.032   2.003   1.286  1.00  0.00     0.011 A 
HETATM    3  C3  UNL     1       1.138   1.438   0.418  1.00  0.00     0.117 A 
HETATM    4  N3  UNL     1       1.556   0.378  -0.291  1.00  0.00    -0.351 N 
ATOM      5  H3  UNL     1       0.911  -0.064  -0.947  1.00  0.00     0.166 HD
HETATM    6  C12 UNL     1       2.802  -0.121  -0.163  1.00  0.00     0.107 A 
HETATM    7  C13 UNL     1       3.717   0.431   0.705  1.00  0.00     0.053 A 
HETATM    8  C14 UNL     1       5.023   0.156   1.048  1.00  0.00     0.130 A 
HETATM    9  N4  UNL     1       5.815  -0.722   0.657  1.00  0.00    -0.371 N 
ATOM     10  H4  UNL     1       6.724  -0.653   1.115  1.00  0.00     0.161 HD
HETATM   11  N5  UNL     1       5.386   1.087   1.992  1.00  0.00    -0.284 N 
ATOM     12  H5  UNL     1       6.297   1.151   2.447  1.00  0.00     0.188 HD
HETATM   13  N6  UNL     1       4.370   1.874   2.207  1.00  0.00    -0.298 N 
ATOM     14  H6  UNL     1       4.367   2.655   2.863  1.00  0.00     0.187 HD
HETATM   15  C18 UNL     1       3.331   1.513   1.445  1.00  0.00     0.073 A 
ENDROOT
BRANCH   3  16
HETATM   16  N1  UNL     1      -0.032   1.932   0.318  1.00  0.00    -0.294 N 
HETATM   17  C4  UNL     1      -1.036   1.420  -0.555  1.00  0.00     0.324 C 
HETATM   18  O1  UNL     1      -0.839   1.514  -1.810  1.00  0.00    -0.247 OA
HETATM   19  N2  UNL     1      -2.211   0.827  -0.024  1.00  0.00    -0.307 N 
ATOM     20  H2  UNL     1      -2.319   0.772   0.989  1.00  0.00     0.167 HD
ATOM     21  H1  UNL     1      -0.264   2.740   0.896  1.00  0.00     0.172 HD
BRANCH  19  22
HETATM   22  C5  UNL     1      -3.283   0.287  -0.883  1.00  0.00     0.176 C 
HETATM   23  C6  UNL     1      -3.800   1.458  -1.654  1.00  0.00     0.076 C 
HETATM   24  F1  UNL     1      -2.663  -0.652  -1.681  1.00  0.00    -0.220 F 
BRANCH  22  25
HETATM   25  C7  UNL     1      -4.312  -0.274   0.012  1.00  0.00     0.074 C 
BRANCH  25  26
HETATM   26  C8  UNL     1      -5.504  -0.916  -0.577  1.00  0.00    -0.047 C 
HETATM   27  C9  UNL     1      -6.393  -0.105  -1.442  1.00  0.00     0.014 C 
HETATM   28  C10 UNL     1      -6.377  -1.363   0.615  1.00  0.00     0.014 C 
HETATM   29  C11 UNL     1      -5.114  -2.213  -1.284  1.00  0.00     0.014 C 
ENDBRANCH  25  26
ENDBRANCH  22  25
ENDBRANCH  19  22
ENDBRANCH   3  16
BRANCH   9  30
HETATM   30  C15 UNL     1       5.761  -1.779  -0.257  1.00  0.00     0.075 C 
HETATM   31  C16 UNL     1       6.886  -2.779   0.060  1.00  0.00     0.031 C 
HETATM   32  C17 UNL     1       6.017  -1.254  -1.661  1.00  0.00     0.031 C 
ENDBRANCH   9  30
TORSDOF 5
