REMARK  4 active torsions:
REMARK  status: ('A' for Active; 'I' for Inactive)
REMARK    1  A    between atoms: C3_4  and  C4_5 
REMARK    2  A    between atoms: C4_5  and  N2_9 
REMARK       I    between atoms: C5_11  and  N3_12 
REMARK       I    between atoms: C5_11  and  N4_20 
REMARK    3  A    between atoms: N3_12  and  C6_14 
REMARK    4  A    between atoms: N4_20  and  C12_22 
ROOT
HETATM    1  N2  UNL     1       0.107   1.414   0.736  1.00  0.00    -0.178 N 
ATOM      2  H2  UNL     1       0.911   1.661   1.312  1.00  0.00     0.185 HD
HETATM    3  C5  UNL     1       0.090   0.248   0.222  1.00  0.00     0.676 C 
HETATM    4  N3  UNL     1       1.203  -0.604   0.504  1.00  0.00    -0.222 N 
ATOM      5  H3  UNL     1       1.310  -0.964   1.452  1.00  0.00     0.178 HD
HETATM    6  N4  UNL     1      -0.959  -0.241  -0.603  1.00  0.00    -0.222 N 
ATOM      7  H4  UNL     1      -0.887  -0.167  -1.618  1.00  0.00     0.178 HD
ENDROOT
BRANCH   1   8
HETATM    8  C4  UNL     1      -0.904   2.395   0.570  1.00  0.00     0.115 C 
HETATM    9  N1  UNL     1      -1.690   2.608   1.544  1.00  0.00    -0.385 N 
ATOM     10  H12 UNL     1      -2.417   3.313   1.425  1.00  0.00     0.157 HD
ATOM     11  H11 UNL     1      -1.595   2.088   2.416  1.00  0.00     0.157 HD
BRANCH   8  12
HETATM   12  C3  UNL     1      -1.038   3.131  -0.665  1.00  0.00     0.062 C 
HETATM   13  C2  UNL     1      -1.922   4.040  -0.911  1.00  0.00    -0.012 C 
HETATM   14  C1  UNL     1      -2.944   4.469   0.048  1.00  0.00     0.056 C 
HETATM   15 BR1  UNL     1      -1.923   4.898  -2.630  1.00  0.00    -0.056 Br
ENDBRANCH   8  12
ENDBRANCH   1   8
BRANCH   4  16
HETATM   16  C6  UNL     1       2.179  -0.978  -0.485  1.00  0.00     0.099 C 
HETATM   17  C7  UNL     1       2.909   0.180  -1.085  1.00  0.00     0.026 C 
HETATM   18  C8  UNL     1       4.280   0.399  -0.487  1.00  0.00     0.002 C 
HETATM   19  C9  UNL     1       4.192   0.054   0.987  1.00  0.00     0.000 C 
HETATM   20  C10 UNL     1       4.072  -1.444   1.089  1.00  0.00     0.002 C 
HETATM   21  C11 UNL     1       3.096  -2.018   0.110  1.00  0.00     0.026 C 
ENDBRANCH   4  16
BRANCH   6  22
HETATM   22  C12 UNL     1      -2.140  -0.849   0.004  1.00  0.00     0.099 C 
HETATM   23  C13 UNL     1      -3.122  -1.293  -1.058  1.00  0.00     0.026 C 
HETATM   24  C14 UNL     1      -3.843  -2.427  -0.317  1.00  0.00     0.002 C 
HETATM   25  C15 UNL     1      -2.653  -3.208   0.201  1.00  0.00     0.002 C 
HETATM   26  C16 UNL     1      -1.786  -2.099   0.787  1.00  0.00     0.026 C 
ENDBRANCH   6  22
TORSDOF 4
