REMARK  3 active torsions:
REMARK  status: ('A' for Active; 'I' for Inactive)
REMARK       I    between atoms: C1_4  and  N2_5 
REMARK       I    between atoms: C1_4  and  N5_20 
REMARK       I    between atoms: N3_7  and  C2_9 
REMARK       I    between atoms: C2_9  and  N4_11 
REMARK    1  A    between atoms: N4_11  and  C3_13 
REMARK    2  A    between atoms: N5_20  and  C10_22 
REMARK    3  A    between atoms: C10_22  and  C11_23 
ROOT
HETATM    1  N1  UNL     1       2.110   2.357   2.051  1.00  0.00    -0.234 N 
ATOM      2  H11 UNL     1       2.930   2.558   2.624  1.00  0.00     0.174 HD
ATOM      3  H12 UNL     1       1.254   2.894   2.189  1.00  0.00     0.174 HD
HETATM    4  C1  UNL     1       2.159   1.438   1.170  1.00  0.00     0.686 C 
HETATM    5  N2  UNL     1       1.028   1.161   0.380  1.00  0.00    -0.129 N 
ATOM      6  H2  UNL     1       0.612   0.230   0.355  1.00  0.00     0.205 HD
HETATM    7  N3  UNL     1       0.546   2.122  -0.302  1.00  0.00    -0.237 N 
ATOM      8  H3  UNL     1       0.950   3.059  -0.289  1.00  0.00     0.192 HD
HETATM    9  C2  UNL     1      -0.610   1.791  -1.093  1.00  0.00     0.335 C 
HETATM   10  O1  UNL     1      -0.722   2.144  -2.282  1.00  0.00    -0.246 OA
HETATM   11  N4  UNL     1      -1.621   1.038  -0.444  1.00  0.00    -0.337 N 
ATOM     12  H4  UNL     1      -1.517   0.755   0.530  1.00  0.00     0.164 HD
HETATM   13  N5  UNL     1       3.340   0.698   0.979  1.00  0.00    -0.220 N 
ATOM     14  H5  UNL     1       3.838   0.316   1.783  1.00  0.00     0.178 HD
ENDROOT
BRANCH  13  15
HETATM   15  C10 UNL     1       3.847   0.480  -0.354  1.00  0.00     0.195 C 
BRANCH  15  16
HETATM   16  C11 UNL     1       5.090  -0.324  -0.257  1.00  0.00     0.028 A 
HETATM   17  C12 UNL     1       5.135  -1.700  -0.283  1.00  0.00     0.047 A 
HETATM   18  C13 UNL     1       6.462  -2.034  -0.168  1.00  0.00     0.028 A 
HETATM   19 BR1  UNL     1       7.194  -3.793  -0.138  1.00  0.00    -0.050 Br
HETATM   20  C14 UNL     1       7.215  -0.888  -0.074  1.00  0.00     0.107 A 
HETATM   21  N6  UNL     1       6.344   0.142  -0.132  1.00  0.00    -0.366 N 
ATOM     22  H6  UNL     1       6.600   1.128  -0.087  1.00  0.00     0.165 HD
ENDBRANCH  15  16
ENDBRANCH  13  15
BRANCH  11  23
HETATM   23  C3  UNL     1      -2.792   0.684  -1.189  1.00  0.00     0.086 C 
HETATM   24  C4  UNL     1      -3.998   1.304  -0.568  1.00  0.00     0.025 C 
HETATM   25  C5  UNL     1      -4.547   0.581   0.609  1.00  0.00     0.002 C 
HETATM   26  C6  UNL     1      -5.330  -0.630   0.149  1.00  0.00     0.000 C 
HETATM   27  C7  UNL     1      -4.460  -1.834   0.300  1.00  0.00     0.000 C 
HETATM   28  C8  UNL     1      -3.003  -1.541  -0.030  1.00  0.00     0.002 C 
HETATM   29  C9  UNL     1      -2.867  -0.813  -1.321  1.00  0.00     0.025 C 
ENDBRANCH  11  23
TORSDOF 3
