REMARK  3 active torsions:
REMARK  status: ('A' for Active; 'I' for Inactive)
REMARK    1  A    between atoms: C5_5  and  C6_6 
REMARK    2  A    between atoms: C7_7  and  N1_8 
REMARK       I    between atoms: N1_8  and  C8_10 
REMARK    3  A    between atoms: C8_10  and  C9_12 
REMARK       I    between atoms: N2_20  and  C17_21 
ROOT
HETATM    1  C6  UNL     1      -0.078  -1.299   0.325  1.00  0.00     0.115 C 
HETATM    2  C7  UNL     1       0.703  -0.756  -0.887  1.00  0.00     0.107 C 
HETATM    3  C13 UNL     1       1.560  -1.956  -1.331  1.00  0.00     0.027 C 
HETATM    4  C14 UNL     1       0.860  -2.934  -2.188  1.00  0.00     0.004 C 
HETATM    5  C15 UNL     1       0.226  -4.105  -1.509  1.00  0.00     0.020 C 
HETATM    6  C16 UNL     1      -0.485  -3.781  -0.232  1.00  0.00     0.126 C 
HETATM    7  N2  UNL     1      -0.872  -2.355  -0.187  1.00  0.00    -0.349 N 
HETATM    8  C17 UNL     1      -2.149  -2.195  -0.755  1.00  0.00     0.184 C 
HETATM    9  N3  UNL     1      -2.445  -1.454  -1.767  1.00  0.00    -0.374 N 
ATOM     10  H31 UNL     1      -3.371  -1.338  -2.179  1.00  0.00     0.158 HD
ATOM     11  H32 UNL     1      -1.669  -0.936  -2.180  1.00  0.00     0.158 HD
HETATM   12  N4  UNL     1      -3.223  -2.912  -0.183  1.00  0.00    -0.064 NA
ENDROOT
BRANCH   1  13
HETATM   13  C5  UNL     1      -0.618  -0.279   1.201  1.00  0.00     0.036 C 
HETATM   14  C4  UNL     1      -1.327  -0.891   2.425  1.00  0.00     0.010 C 
HETATM   15  C3  UNL     1      -1.458   0.158   3.513  1.00  0.00     0.033 C 
HETATM   16  C2  UNL     1      -2.333   1.255   2.937  1.00  0.00     0.181 C 
HETATM   17  C1  UNL     1      -2.560   2.372   3.896  1.00  0.00     0.040 C 
HETATM   18  N5  UNL     1      -1.679   1.777   1.770  1.00  0.00    -0.071 N 
HETATM   19  C18 UNL     1      -1.540   0.766   0.714  1.00  0.00     0.239 C 
ATOM     20  H52 UNL     1      -2.153   2.611   1.423  1.00  0.00     0.277 HD
ATOM     21  H51 UNL     1      -0.777   2.191   2.006  1.00  0.00     0.277 HD
ENDBRANCH   1  13
BRANCH   2  22
HETATM   22  N1  UNL     1       1.614   0.289  -0.533  1.00  0.00    -0.354 N 
HETATM   23  C8  UNL     1       1.715   1.532  -1.201  1.00  0.00     0.222 C 
HETATM   24  O1  UNL     1       0.956   1.737  -2.174  1.00  0.00    -0.273 OA
ATOM     25  H1  UNL     1       2.236   0.126   0.259  1.00  0.00     0.162 HD
BRANCH  23  26
HETATM   26  C9  UNL     1       2.657   2.609  -0.832  1.00  0.00     0.082 A 
HETATM   27  C10 UNL     1       2.101   4.064  -0.924  1.00  0.00     0.019 A 
HETATM   28  C11 UNL     1       3.103   3.552  -1.870  1.00  0.00    -0.005 A 
HETATM   29  C12 UNL     1       4.464   4.194  -1.845  1.00  0.00     0.011 C 
ENDBRANCH  23  26
ENDBRANCH   2  22
TORSDOF 3
