REMARK  3 active torsions:
REMARK  status: ('A' for Active; 'I' for Inactive)
REMARK       I    between atoms: N1_2  and  C2_4 
REMARK       I    between atoms: C2_4  and  N2_6 
REMARK    1  A    between atoms: N2_6  and  C3_8 
REMARK    2  A    between atoms: C7_12  and  N3_13 
REMARK       I    between atoms: N3_13  and  C8_15 
REMARK       I    between atoms: C8_15  and  N4_17 
REMARK    3  A    between atoms: N4_17  and  C9_19 
ROOT
HETATM    1  N3  UNL     1       1.556  -0.458  -1.162  1.00  0.00    -0.337 N 
ATOM      2  H3  UNL     1       1.981   0.463  -1.272  1.00  0.00     0.164 HD
HETATM    3  C8  UNL     1       0.193  -0.524  -0.784  1.00  0.00     0.317 C 
HETATM    4  O2  UNL     1      -0.345  -1.642  -0.644  1.00  0.00    -0.247 OA
HETATM    5  N4  UNL     1      -0.577   0.634  -0.560  1.00  0.00    -0.334 N 
ATOM      6  H4  UNL     1      -0.120   1.538  -0.679  1.00  0.00     0.165 HD
ENDROOT
BRANCH   1   7
HETATM    7  C7  UNL     1       2.376  -1.620  -1.400  1.00  0.00     0.109 C 
HETATM    8  C3  UNL     1       3.593  -1.598  -0.495  1.00  0.00     0.109 C 
HETATM    9  C4  UNL     1       4.775  -1.926  -1.347  1.00  0.00     0.027 C 
HETATM   10  C5  UNL     1       4.224  -2.332  -2.699  1.00  0.00     0.004 C 
HETATM   11  C6  UNL     1       2.967  -1.492  -2.789  1.00  0.00     0.027 C 
BRANCH   8  12
HETATM   12  N2  UNL     1       3.719  -0.332   0.188  1.00  0.00    -0.337 N 
HETATM   13  C2  UNL     1       3.683  -0.184   1.583  1.00  0.00     0.316 C 
HETATM   14  N1  UNL     1       3.804   1.043   2.265  1.00  0.00    -0.347 N 
HETATM   15  O1  UNL     1       3.529  -1.248   2.272  1.00  0.00    -0.247 OA
HETATM   16  C1  UNL     1       3.765   1.178   3.703  1.00  0.00     0.151 C 
ATOM     17  H1  UNL     1       3.927   1.889   1.709  1.00  0.00     0.163 HD
ATOM     18  H2  UNL     1       3.842   0.507  -0.379  1.00  0.00     0.164 HD
ENDBRANCH   8  12
ENDBRANCH   1   7
BRANCH   5  19
HETATM   19  C9  UNL     1      -1.974   0.629  -0.172  1.00  0.00     0.035 C 
HETATM   20  C10 UNL     1      -2.869  -0.044  -1.167  1.00  0.00     0.035 C 
HETATM   21  C11 UNL     1      -4.310   0.158  -0.799  1.00  0.00    -0.012 C 
HETATM   22  C12 UNL     1      -4.563  -0.557   0.518  1.00  0.00     0.009 C 
HETATM   23  C16 UNL     1      -4.630   1.612  -0.684  1.00  0.00     0.009 C 
HETATM   24  C13 UNL     1      -3.638   0.052   1.550  1.00  0.00    -0.012 C 
HETATM   25  C14 UNL     1      -4.058   1.478   1.750  1.00  0.00     0.009 C 
HETATM   26  C18 UNL     1      -2.179  -0.083   1.165  1.00  0.00     0.035 C 
HETATM   27  C15 UNL     1      -3.823   2.204   0.446  1.00  0.00    -0.012 C 
HETATM   28  C17 UNL     1      -2.373   2.069   0.086  1.00  0.00     0.035 C 
ENDBRANCH   5  19
TORSDOF 3
