REMARK  3 active torsions:
REMARK  status: ('A' for Active; 'I' for Inactive)
REMARK    1  A    between atoms: C2_2  and  N1_4 
REMARK       I    between atoms: N1_4  and  C4_6 
REMARK       I    between atoms: C4_6  and  N2_8 
REMARK    2  A    between atoms: C7_11  and  C8_12 
REMARK       I    between atoms: C8_12  and  N3_14 
REMARK    3  A    between atoms: N3_14  and  C9_16 
ROOT
HETATM    1  C8  UNL     1       1.468  -0.868   1.532  1.00  0.00     0.222 C 
HETATM    2  O2  UNL     1       1.706  -1.666   2.495  1.00  0.00    -0.273 OA
HETATM    3  N3  UNL     1       2.572  -0.310   0.841  1.00  0.00    -0.351 N 
ATOM      4  H3  UNL     1       2.397   0.330   0.067  1.00  0.00     0.163 HD
ENDROOT
BRANCH   1   5
HETATM    5  C7  UNL     1       0.082  -0.547   1.160  1.00  0.00     0.081 C 
HETATM    6  C6  UNL     1      -0.236  -0.940  -0.268  1.00  0.00     0.034 C 
HETATM    7  C5  UNL     1      -1.765  -0.864  -0.386  1.00  0.00     0.128 C 
HETATM    8  N2  UNL     1      -2.114   0.513  -0.136  1.00  0.00    -0.334 N 
HETATM    9  C4  UNL     1      -3.439   0.940  -0.321  1.00  0.00     0.318 C 
HETATM   10  C16 UNL     1      -1.140   1.479   0.303  1.00  0.00     0.128 C 
HETATM   11  N1  UNL     1      -4.427   0.002  -0.756  1.00  0.00    -0.339 N 
HETATM   12  O1  UNL     1      -3.722   2.139  -0.099  1.00  0.00    -0.247 OA
ATOM     13  H1  UNL     1      -4.160  -0.967  -0.927  1.00  0.00     0.164 HD
HETATM   14  C15 UNL     1      -0.159   0.932   1.297  1.00  0.00     0.034 C 
BRANCH  11  15
HETATM   15  C2  UNL     1      -5.796   0.408  -0.956  1.00  0.00     0.078 C 
HETATM   16  C1  UNL     1      -6.654  -0.309   0.079  1.00  0.00     0.032 C 
HETATM   17  C3  UNL     1      -6.290   0.207  -2.346  1.00  0.00     0.032 C 
ENDBRANCH  11  15
ENDBRANCH   1   5
BRANCH   3  18
HETATM   18  C9  UNL     1       3.931  -0.618   1.197  1.00  0.00     0.138 C 
HETATM   19  C10 UNL     1       4.754   0.573   1.560  1.00  0.00     0.032 C 
HETATM   20  C11 UNL     1       5.027   1.516   0.435  1.00  0.00     0.008 C 
HETATM   21  C12 UNL     1       4.956   0.918  -0.931  1.00  0.00     0.061 C 
HETATM   22  C13 UNL     1       5.097  -0.556  -0.960  1.00  0.00     0.051 A 
HETATM   23  N4  UNL     1       5.526  -1.665  -1.577  1.00  0.00    -0.303 N 
HETATM   24  C14 UNL     1       4.602  -1.311   0.069  1.00  0.00     0.072 A 
HETATM   25  N5  UNL     1       5.056  -2.396  -0.600  1.00  0.00    -0.301 N 
ATOM     26  H4  UNL     1       6.017  -1.859  -2.450  1.00  0.00     0.186 HD
ATOM     27  H5  UNL     1       5.038  -3.399  -0.414  1.00  0.00     0.186 HD
ENDBRANCH   3  18
TORSDOF 3
