REMARK  4 active torsions:
REMARK  status: ('A' for Active; 'I' for Inactive)
REMARK    1  A    between atoms: C2_2  and  N1_3 
REMARK       I    between atoms: N1_3  and  C3_5 
REMARK       I    between atoms: C3_5  and  N3_9 
REMARK       I    between atoms: C4_11  and  N4_12 
REMARK       I    between atoms: C4_11  and  N5_22 
REMARK    2  A    between atoms: N4_12  and  C5_14 
REMARK    3  A    between atoms: C5_14  and  C6_15 
REMARK    4  A    between atoms: C6_15  and  O1_16 
ROOT
HETATM    1  N1  UNL     1      -1.563   2.823   0.223  1.00  0.00    -0.226 N 
ATOM      2  H1  UNL     1      -0.765   3.295   0.647  1.00  0.00     0.177 HD
HETATM    3  C3  UNL     1      -2.027   1.660   0.863  1.00  0.00     0.686 C 
HETATM    4  N2  UNL     1      -2.778   1.728   1.931  1.00  0.00    -0.234 N 
ATOM      5  H21 UNL     1      -3.115   0.884   2.395  1.00  0.00     0.174 HD
ATOM      6  H22 UNL     1      -3.032   2.641   2.308  1.00  0.00     0.174 HD
HETATM    7  N3  UNL     1      -1.676   0.398   0.342  1.00  0.00    -0.023 N 
ATOM      8  H3  UNL     1      -2.444  -0.253   0.176  1.00  0.00     0.203 HD
HETATM    9  C4  UNL     1      -0.508  -0.021   0.055  1.00  0.00     0.691 C 
HETATM   10  N4  UNL     1      -0.366  -1.331  -0.462  1.00  0.00    -0.214 N 
ATOM     11  H4  UNL     1       0.262  -1.457  -1.256  1.00  0.00     0.178 HD
HETATM   12  N5  UNL     1       0.627   0.765   0.233  1.00  0.00    -0.217 N 
HETATM   13  C11 UNL     1       1.273   1.397  -0.890  1.00  0.00     0.142 C 
HETATM   14  C12 UNL     1       2.735   0.940  -0.902  1.00  0.00     0.029 C 
HETATM   15  C13 UNL     1       3.437   1.148   0.392  1.00  0.00    -0.045 C 
HETATM   16  C14 UNL     1       4.637   2.090   0.229  1.00  0.00     0.015 C 
HETATM   17  C15 UNL     1       4.025  -0.167   0.878  1.00  0.00     0.015 C 
HETATM   18  C16 UNL     1       2.518   1.746   1.414  1.00  0.00     0.029 C 
HETATM   19  C17 UNL     1       1.206   0.975   1.538  1.00  0.00     0.142 C 
ENDROOT
BRANCH  10  20
HETATM   20  C5  UNL     1      -1.030  -2.487   0.039  1.00  0.00     0.068 C 
HETATM   21  C7  UNL     1      -0.614  -3.689  -0.781  1.00  0.00     0.033 C 
HETATM   22  C8  UNL     1      -1.830  -4.564  -0.886  1.00  0.00     0.003 C 
HETATM   23  C9  UNL     1      -2.930  -3.890  -0.139  1.00  0.00     0.003 C 
HETATM   24  C10 UNL     1      -2.534  -2.432  -0.158  1.00  0.00     0.033 C 
BRANCH  20  25
HETATM   25  C6  UNL     1      -0.711  -2.776   1.491  1.00  0.00     0.195 C 
BRANCH  25  26
HETATM   26  O1  UNL     1      -1.061  -1.764   2.351  1.00  0.00    -0.398 OA
ATOM     27  H1  UNL     1      -0.861  -1.945   3.262  1.00  0.00     0.209 HD
ENDBRANCH  25  26
ENDBRANCH  20  25
ENDBRANCH  10  20
BRANCH   1  28
HETATM   28  C2  UNL     1      -2.099   3.404  -0.958  1.00  0.00     0.133 C 
HETATM   29  C1  UNL     1      -3.476   3.988  -0.775  1.00  0.00     0.027 C 
ENDBRANCH   1  28
TORSDOF 4
