REMARK  6 active torsions:
REMARK  status: ('A' for Active; 'I' for Inactive)
REMARK    1  A    between atoms: C2_2  and  C4_4 
REMARK    2  A    between atoms: C4_4  and  N1_5 
REMARK       I    between atoms: N1_5  and  C5_7 
REMARK       I    between atoms: C5_7  and  N2_9 
REMARK    3  A    between atoms: N2_9  and  N3_11 
REMARK    4  A    between atoms: N3_11  and  C6_13 
REMARK    5  A    between atoms: C6_13  and  N4_15 
REMARK    6  A    between atoms: N4_15  and  C7_17 
ROOT
HETATM    1  C6  UNL     1       0.264  -0.083   0.526  1.00  0.00     0.186 C 
HETATM    2  S1  UNL     1       0.273  -1.644   0.947  1.00  0.00    -0.040 SA
ENDROOT
BRANCH   1   3
HETATM    3  N3  UNL     1       1.526   0.596   0.628  1.00  0.00    -0.272 N 
ATOM      4  H3  UNL     1       1.556   1.576   0.348  1.00  0.00     0.189 HD
BRANCH   3   5
HETATM    5  N2  UNL     1       2.700   0.027   1.075  1.00  0.00    -0.249 N 
HETATM    6  C5  UNL     1       3.802  -0.285   0.236  1.00  0.00     0.334 C 
HETATM    7  N1  UNL     1       4.988  -0.853   0.723  1.00  0.00    -0.341 N 
HETATM    8  O1  UNL     1       3.707  -0.039  -0.998  1.00  0.00    -0.246 OA
ATOM      9  H1  UNL     1       5.051  -1.050   1.722  1.00  0.00     0.164 HD
ATOM     10  H2  UNL     1       2.782  -0.183   2.070  1.00  0.00     0.192 HD
BRANCH   7  11
HETATM   11  C4  UNL     1       6.115  -1.173  -0.097  1.00  0.00     0.128 C 
BRANCH  11  12
HETATM   12  C2  UNL     1       6.748  -0.031  -0.816  1.00  0.00    -0.005 C 
HETATM   13  C1  UNL     1       7.914  -0.588  -1.613  1.00  0.00     0.011 C 
HETATM   14  C3  UNL     1       7.319   0.978   0.166  1.00  0.00     0.011 C 
ENDBRANCH  11  12
ENDBRANCH   7  11
ENDBRANCH   3   5
ENDBRANCH   1   3
BRANCH   1  15
HETATM   15  N4  UNL     1      -0.885   0.578   0.064  1.00  0.00    -0.361 N 
ATOM     16  H4  UNL     1      -0.800   1.557  -0.207  1.00  0.00     0.162 HD
BRANCH  15  17
HETATM   17  C7  UNL     1      -2.169  -0.043  -0.048  1.00  0.00     0.088 C 
HETATM   18  C8  UNL     1      -2.734  -0.341   1.287  1.00  0.00     0.030 C 
HETATM   19  C9  UNL     1      -4.180  -0.776   1.292  1.00  0.00    -0.012 C 
HETATM   20  C10 UNL     1      -4.607  -1.558   0.103  1.00  0.00     0.009 C 
HETATM   21  C14 UNL     1      -5.042   0.402   1.609  1.00  0.00     0.009 C 
HETATM   22  C11 UNL     1      -5.098  -0.708  -1.041  1.00  0.00    -0.013 C 
HETATM   23  C12 UNL     1      -5.968   0.430  -0.625  1.00  0.00     0.009 C 
HETATM   24  C17 UNL     1      -3.904  -0.132  -1.790  1.00  0.00     0.011 C 
HETATM   25  C13 UNL     1      -5.192   1.267   0.381  1.00  0.00    -0.013 C 
HETATM   26  C15 UNL     1      -3.898   1.768  -0.148  1.00  0.00     0.011 C 
HETATM   27  C16 UNL     1      -3.108   0.774  -0.920  1.00  0.00     0.009 C 
ENDBRANCH  15  17
ENDBRANCH   1  15
TORSDOF 6
