REMARK  20 active torsions:
REMARK  status: ('A' for Active; 'I' for Inactive)
REMARK       I    between atoms: C2_2  and  N1_4 
REMARK    1  A    between atoms: N1_4  and  C3_6 
REMARK    2  A    between atoms: C5_10  and  C6_11 
REMARK       I    between atoms: C6_11  and  N3_13 
REMARK    3  A    between atoms: N3_13  and  C7_15 
REMARK    4  A    between atoms: C7_15  and  C8_16 
REMARK    5  A    between atoms: C8_16  and  C9_17 
REMARK    6  A    between atoms: C9_17  and  N4_18 
REMARK    7  A    between atoms: N4_18  and  C12_21 
REMARK    8  A    between atoms: C12_21  and  C13_22 
REMARK    9  A    between atoms: C13_22  and  C14_23 
REMARK   10  A    between atoms: C14_23  and  S1_24 
REMARK   11  A    between atoms: S1_24  and  N5_27 
REMARK   12  A    between atoms: N5_27  and  C15_29 
REMARK   13  A    between atoms: C15_29  and  C16_30 
REMARK   14  A    between atoms: C16_30  and  C17_31 
REMARK   15  A    between atoms: C17_31  and  C18_32 
REMARK   16  A    between atoms: C18_32  and  N6_33 
REMARK   17  A    between atoms: N9_39  and  C21_41 
REMARK   18  A    between atoms: C21_41  and  C22_42 
REMARK   19  A    between atoms: C22_42  and  C23_43 
REMARK   20  A    between atoms: C23_43  and  N10_44 
ROOT
HETATM    1  C6  UNL     1      -3.578  -0.383   1.321  1.00  0.00     0.256 C 
HETATM    2  O2  UNL     1      -3.681  -0.747   2.524  1.00  0.00    -0.267 OA
HETATM    3  N3  UNL     1      -2.366  -0.511   0.546  1.00  0.00    -0.357 N 
ATOM      4  H3  UNL     1      -2.338  -0.341  -0.459  1.00  0.00     0.162 HD
ENDROOT
BRANCH   1   5
HETATM    5  C5  UNL     1      -4.684   0.296   0.618  1.00  0.00     0.092 A 
HETATM    6  C4  UNL     1      -4.248   1.456  -0.092  1.00  0.00     0.127 A 
HETATM    7  N2  UNL     1      -5.097   2.325  -0.465  1.00  0.00    -0.200 N 
HETATM    8  C3  UNL     1      -6.410   2.198  -0.206  1.00  0.00     0.686 A 
ATOM      9  H2  UNL     1      -4.772   3.145  -0.977  1.00  0.00     0.183 HD
HETATM   10  N13 UNL     1      -6.767   1.139   0.443  1.00  0.00    -0.176 N 
HETATM   11  C20 UNL     1      -5.967   0.111   0.869  1.00  0.00     0.134 A 
ATOM     12  H13 UNL     1      -7.760   1.059   0.664  1.00  0.00     0.186 HD
HETATM   13  N9  UNL     1      -6.242  -0.954   1.455  1.00  0.00    -0.375 N 
ATOM     14  H9  UNL     1      -5.393  -1.493   1.628  1.00  0.00     0.161 HD
BRANCH   8  15
HETATM   15  N1  UNL     1      -7.100   3.249  -0.538  1.00  0.00    -0.160 N 
HETATM   16  C2  UNL     1      -8.449   3.210  -0.367  1.00  0.00     0.231 C 
HETATM   17  C1  UNL     1      -8.966   2.401  -1.731  1.00  0.00     0.118 C 
HETATM   18  O1  UNL     1      -9.249   3.505   0.402  1.00  0.00    -0.273 OA
ATOM     19  H1  UNL     1      -6.643   4.079  -0.916  1.00  0.00     0.187 HD
ENDBRANCH   8  15
BRANCH  13  20
HETATM   20  C21 UNL     1      -7.381  -1.649   1.957  1.00  0.00     0.126 C 
BRANCH  20  21
HETATM   21  C22 UNL     1      -7.242  -3.134   1.445  1.00  0.00     0.064 C 
BRANCH  21  22
HETATM   22  C23 UNL     1      -7.104  -3.032  -0.070  1.00  0.00     0.065 C 
BRANCH  22  23
HETATM   23  N10 UNL     1      -7.988  -2.112  -0.635  1.00  0.00    -0.346 N 
HETATM   24  C24 UNL     1      -9.192  -2.218  -1.034  1.00  0.00     0.200 C 
HETATM   25  N11 UNL     1      -9.868  -3.480  -1.001  1.00  0.00    -0.067 NA
HETATM   26  N12 UNL     1      -9.873  -1.029  -1.410  1.00  0.00    -0.067 NA
ATOM     27  H10 UNL     1      -7.595  -1.178  -0.750  1.00  0.00     0.167 HD
ENDBRANCH  22  23
ENDBRANCH  21  22
ENDBRANCH  20  21
ENDBRANCH  13  20
ENDBRANCH   1   5
BRANCH   3  28
HETATM   28  C7  UNL     1      -1.197  -0.898   1.300  1.00  0.00     0.124 C 
BRANCH  28  29
HETATM   29  C8  UNL     1      -0.190   0.146   0.814  1.00  0.00     0.048 C 
BRANCH  29  30
HETATM   30  C9  UNL     1       0.090   0.101  -0.656  1.00  0.00     0.238 C 
BRANCH  30  31
HETATM   31  N4  UNL     1       1.385   0.818  -0.827  1.00  0.00    -0.075 N 
HETATM   32  C10 UNL     1       1.318   2.106  -0.295  1.00  0.00     0.272 C 
HETATM   33  C11 UNL     1       1.718   0.758  -2.206  1.00  0.00     0.272 C 
BRANCH  31  34
HETATM   34  C12 UNL     1       2.209  -0.122  -0.008  1.00  0.00     0.237 C 
BRANCH  34  35
HETATM   35  C13 UNL     1       3.519  -0.272  -0.631  1.00  0.00     0.045 C 
BRANCH  35  36
HETATM   36  C14 UNL     1       4.523   0.844  -0.561  1.00  0.00     0.165 C 
BRANCH  36  37
HETATM   37  S1  UNL     1       5.135   0.947   1.151  1.00  0.00     0.236 S 
HETATM   38  O3  UNL     1       5.473  -0.418   1.612  1.00  0.00    -0.205 OA
HETATM   39  O4  UNL     1       4.233   1.661   1.952  1.00  0.00    -0.205 OA
BRANCH  37  40
HETATM   40  N5  UNL     1       6.617   1.918   0.970  1.00  0.00    -0.253 N 
ATOM     41  H5  UNL     1       6.852   2.818   1.388  1.00  0.00     0.188 HD
BRANCH  40  42
HETATM   42  C15 UNL     1       7.342   1.155   0.141  1.00  0.00    -0.061 C 
BRANCH  42  43
HETATM   43  C16 UNL     1       8.143   0.414  -0.723  1.00  0.00     0.106 C 
BRANCH  43  44
HETATM   44  C17 UNL     1       9.693   0.338  -0.448  1.00  0.00     0.033 C 
BRANCH  44  45
HETATM   45  C18 UNL     1       9.942  -0.179   0.975  1.00  0.00     0.123 C 
BRANCH  45  46
HETATM   46  N6  UNL     1      10.559  -1.486   0.831  1.00  0.00    -0.367 N 
HETATM   47  C19 UNL     1      11.678  -1.454   0.097  1.00  0.00     0.196 C 
HETATM   48  N7  UNL     1      12.301  -2.735  -0.075  1.00  0.00    -0.067 NA
HETATM   49  N8  UNL     1      12.259  -0.268  -0.365  1.00  0.00    -0.067 NA
ATOM     50  H6  UNL     1      10.180  -2.338   1.245  1.00  0.00     0.161 HD
ENDBRANCH  45  46
ENDBRANCH  44  45
ENDBRANCH  43  44
ENDBRANCH  42  43
ENDBRANCH  40  42
ENDBRANCH  37  40
ENDBRANCH  36  37
ENDBRANCH  35  36
ENDBRANCH  34  35
ENDBRANCH  31  34
ENDBRANCH  30  31
ENDBRANCH  29  30
ENDBRANCH  28  29
ENDBRANCH   3  28
TORSDOF 20
