REMARK  21 active torsions:
REMARK  status: ('A' for Active; 'I' for Inactive)
REMARK       I    between atoms: N2_3  and  C2_5 
REMARK       I    between atoms: C2_5  and  N10_49 
REMARK       I    between atoms: N3_6  and  C3_8 
REMARK       I    between atoms: C3_8  and  N5_12 
REMARK    1  A    between atoms: N5_12  and  C4_14 
REMARK    2  A    between atoms: C4_14  and  C5_15 
REMARK    3  A    between atoms: C5_15  and  C6_16 
REMARK    4  A    between atoms: C6_16  and  C7_17 
REMARK    5  A    between atoms: C7_17  and  C8_18 
REMARK    6  A    between atoms: C8_18  and  C9_19 
REMARK       I    between atoms: C9_19  and  N6_21 
REMARK    7  A    between atoms: N6_21  and  C10_23 
REMARK    8  A    between atoms: C10_23  and  C11_24 
REMARK    9  A    between atoms: C11_24  and  C12_25 
REMARK   10  A    between atoms: C12_25  and  C13_26 
REMARK   11  A    between atoms: C13_26  and  C14_27 
REMARK   12  A    between atoms: C14_27  and  C15_28 
REMARK       I    between atoms: C15_28  and  N7_30 
REMARK   13  A    between atoms: N7_30  and  C16_32 
REMARK   14  A    between atoms: C16_32  and  C17_33 
REMARK   15  A    between atoms: C16_32  and  C18_36 
REMARK   16  A    between atoms: C17_33  and  O3_34 
REMARK   17  A    between atoms: C18_36  and  C19_37 
REMARK   18  A    between atoms: C19_37  and  C20_38 
REMARK   19  A    between atoms: C20_38  and  C21_39 
REMARK   20  A    between atoms: C21_39  and  N8_40 
REMARK   21  A    between atoms: N10_49  and  N11_51 
ROOT
HETATM    1  N1  UNL     1      11.389  -1.881   3.188  1.00  0.00    -0.171 NA
HETATM    2  C1  UNL     1      11.072  -0.770   3.305  1.00  0.00     0.196 C 
HETATM    3  N2  UNL     1      10.709   0.566   3.458  1.00  0.00    -0.124 N 
ATOM      4  H2  UNL     1      10.539   0.914   4.402  1.00  0.00     0.197 HD
HETATM    5  C2  UNL     1      10.561   1.476   2.366  1.00  0.00     0.721 C 
HETATM    6  N3  UNL     1       9.373   1.704   1.946  1.00  0.00    -0.021 N 
ATOM      7  H3  UNL     1       8.594   1.232   2.404  1.00  0.00     0.203 HD
HETATM    8  C3  UNL     1       9.098   2.577   0.881  1.00  0.00     0.686 C 
HETATM    9  N4  UNL     1       9.963   2.847  -0.017  1.00  0.00    -0.234 N 
ATOM     10  H41 UNL     1       9.763   3.481  -0.791  1.00  0.00     0.174 HD
ATOM     11  H42 UNL     1      10.892   2.427   0.023  1.00  0.00     0.174 HD
HETATM   12  N5  UNL     1       7.799   3.165   0.825  1.00  0.00    -0.226 N 
ATOM     13  H5  UNL     1       7.533   3.952   1.416  1.00  0.00     0.177 HD
HETATM   14  N10 UNL     1      11.664   2.113   1.756  1.00  0.00    -0.117 N 
ATOM     15  H10 UNL     1      12.137   1.665   0.971  1.00  0.00     0.207 HD
ENDROOT
BRANCH  14  16
HETATM   16  N11 UNL     1      12.110   3.345   2.218  1.00  0.00    -0.235 N 
HETATM   17  N12 UNL     1      12.229   3.521   3.470  1.00  0.00    -0.330 N 
ATOM     18 2H12 UNL     1      11.997   2.762   4.111  1.00  0.00     0.178 HD
ATOM     19 1H12 UNL     1      12.556   4.426   3.809  1.00  0.00     0.178 HD
ATOM     20  H11 UNL     1      12.338   4.094   1.564  1.00  0.00     0.208 HD
ENDBRANCH  14  16
BRANCH  12  21
HETATM   21  C4  UNL     1       6.876   2.566  -0.134  1.00  0.00     0.138 C 
BRANCH  21  22
HETATM   22  C5  UNL     1       6.555   1.180   0.354  1.00  0.00     0.020 C 
BRANCH  22  23
HETATM   23  C6  UNL     1       5.592   0.547  -0.649  1.00  0.00     0.002 C 
BRANCH  23  24
HETATM   24  C7  UNL     1       5.230  -0.837  -0.246  1.00  0.00     0.009 C 
BRANCH  24  25
HETATM   25  C8  UNL     1       4.308  -1.499  -1.194  1.00  0.00     0.103 C 
BRANCH  25  26
HETATM   26  C9  UNL     1       3.002  -0.852  -1.313  1.00  0.00     0.217 C 
HETATM   27  O1  UNL     1       2.639   0.132  -0.652  1.00  0.00    -0.274 OA
HETATM   28  N6  UNL     1       2.060  -1.387  -2.259  1.00  0.00    -0.361 N 
ATOM     29  H6  UNL     1       2.333  -2.195  -2.819  1.00  0.00     0.162 HD
BRANCH  28  30
HETATM   30  C10 UNL     1       0.740  -0.825  -2.448  1.00  0.00     0.122 C 
BRANCH  30  31
HETATM   31  C11 UNL     1      -0.017  -1.629  -3.500  1.00  0.00     0.020 C 
BRANCH  31  32
HETATM   32  C12 UNL     1      -0.134  -3.058  -3.036  1.00  0.00     0.002 C 
BRANCH  32  33
HETATM   33  C13 UNL     1      -0.861  -3.191  -1.738  1.00  0.00     0.009 C 
BRANCH  33  34
HETATM   34  C14 UNL     1      -2.263  -2.669  -1.902  1.00  0.00     0.103 C 
BRANCH  34  35
HETATM   35  C15 UNL     1      -2.971  -2.793  -0.606  1.00  0.00     0.217 C 
HETATM   36  O2  UNL     1      -2.310  -3.153   0.399  1.00  0.00    -0.274 OA
HETATM   37  N7  UNL     1      -4.368  -2.509  -0.522  1.00  0.00    -0.354 N 
ATOM     38  H7  UNL     1      -4.868  -2.222  -1.364  1.00  0.00     0.162 HD
BRANCH  37  39
HETATM   39  C16 UNL     1      -5.095  -2.617   0.727  1.00  0.00     0.108 C 
BRANCH  39  40
HETATM   40  C17 UNL     1      -5.901  -3.931   0.583  1.00  0.00     0.189 C 
BRANCH  40  41
HETATM   41  O3  UNL     1      -6.757  -3.832  -0.511  1.00  0.00    -0.399 OA
ATOM     42  H3  UNL     1      -7.252  -4.638  -0.599  1.00  0.00     0.209 HD
ENDBRANCH  40  41
ENDBRANCH  39  40
BRANCH  39  43
HETATM   43  C18 UNL     1      -6.114  -1.530   0.922  1.00  0.00     0.027 C 
BRANCH  43  44
HETATM   44  C19 UNL     1      -5.540  -0.139   0.927  1.00  0.00     0.004 C 
BRANCH  44  45
HETATM   45  C20 UNL     1      -6.617   0.908   1.119  1.00  0.00     0.020 C 
BRANCH  45  46
HETATM   46  C21 UNL     1      -7.655   0.855   0.019  1.00  0.00     0.126 C 
BRANCH  46  47
HETATM   47  N8  UNL     1      -8.639   1.891   0.310  1.00  0.00    -0.343 N 
HETATM   48  C22 UNL     1      -9.802   1.565   1.135  1.00  0.00     0.146 C 
HETATM   49  C23 UNL     1      -9.800   2.535   2.301  1.00  0.00     0.143 C 
HETATM   50  N9  UNL     1      -9.943   3.872   1.729  1.00  0.00    -0.351 N 
HETATM   51  C24 UNL     1      -9.213   4.263   0.577  1.00  0.00     0.309 C 
ATOM     52  H9  UNL     1     -10.580   4.537   2.167  1.00  0.00     0.162 HD
HETATM   53  O4  UNL     1      -9.154   5.460   0.206  1.00  0.00    -0.262 OA
HETATM   54  C25 UNL     1      -8.523   3.212  -0.173  1.00  0.00     0.311 C 
HETATM   55  O5  UNL     1      -7.849   3.430  -1.201  1.00  0.00    -0.262 OA
ENDBRANCH  46  47
ENDBRANCH  45  46
ENDBRANCH  44  45
ENDBRANCH  43  44
ENDBRANCH  39  43
ENDBRANCH  37  39
ENDBRANCH  34  35
ENDBRANCH  33  34
ENDBRANCH  32  33
ENDBRANCH  31  32
ENDBRANCH  30  31
ENDBRANCH  28  30
ENDBRANCH  25  26
ENDBRANCH  24  25
ENDBRANCH  23  24
ENDBRANCH  22  23
ENDBRANCH  21  22
ENDBRANCH  12  21
TORSDOF 21
