REMARK  24 active torsions:
REMARK  status: ('A' for Active; 'I' for Inactive)
REMARK    1  A    between atoms: N2_4  and  N3_6 
REMARK    2  A    between atoms: N3_6  and  C1_8 
REMARK    3  A    between atoms: C1_8  and  C2_9 
REMARK    4  A    between atoms: C2_9  and  N4_10 
REMARK    5  A    between atoms: C2_9  and  N5_14 
REMARK    6  A    between atoms: N5_14  and  C3_16 
REMARK    7  A    between atoms: C3_16  and  C4_17 
REMARK    8  A    between atoms: C4_17  and  C5_18 
REMARK    9  A    between atoms: C5_18  and  C6_19 
REMARK   10  A    between atoms: C6_19  and  O1_20 
REMARK   11  A    between atoms: C6_19  and  N6_22 
REMARK   12  A    between atoms: N6_22  and  C7_24 
REMARK   13  A    between atoms: C7_24  and  O2_25 
REMARK   14  A    between atoms: C7_24  and  C8_27 
REMARK       I    between atoms: C8_27  and  N7_29 
REMARK   15  A    between atoms: N7_29  and  C9_31 
REMARK   16  A    between atoms: C9_31  and  C10_32 
REMARK   17  A    between atoms: C9_31  and  C18_40 
REMARK   18  A    between atoms: C11_33  and  C12_34 
REMARK   19  A    between atoms: C18_40  and  N8_41 
REMARK       I    between atoms: N8_41  and  C19_43 
REMARK   20  A    between atoms: C19_43  and  C20_45 
REMARK   21  A    between atoms: C20_45  and  C21_46 
REMARK   22  A    between atoms: C21_46  and  N9_47 
REMARK       I    between atoms: N9_47  and  C22_49 
REMARK   23  A    between atoms: C22_49  and  C23_51 
REMARK   24  A    between atoms: C23_51  and  C24_52 
ROOT
HETATM    1  C8  UNL     1       1.033   0.923  -1.174  1.00  0.00     0.293 C 
HETATM    2  O3  UNL     1       1.469   1.364  -0.108  1.00  0.00    -0.264 OA
HETATM    3  N7  UNL     1       0.184   1.806  -1.932  1.00  0.00    -0.345 N 
ATOM      4  H7  UNL     1      -0.223   1.532  -2.826  1.00  0.00     0.163 HD
ENDROOT
BRANCH   3   5
HETATM    5  C9  UNL     1      -0.063   3.154  -1.322  1.00  0.00     0.125 C 
BRANCH   5   6
HETATM    6  C10 UNL     1       0.633   4.164  -2.156  1.00  0.00     0.001 C 
HETATM    7  C11 UNL     1       0.666   5.572  -1.847  1.00  0.00     0.009 C 
BRANCH   7   8
HETATM    8  C12 UNL     1      -0.477   6.421  -1.716  1.00  0.00    -0.036 A 
HETATM    9  C13 UNL     1      -1.139   6.943  -2.815  1.00  0.00     0.011 A 
HETATM   10  C14 UNL     1      -2.198   7.814  -2.718  1.00  0.00     0.001 A 
HETATM   11  C15 UNL     1      -2.625   8.188  -1.456  1.00  0.00     0.000 A 
HETATM   12  C16 UNL     1      -1.996   7.694  -0.329  1.00  0.00     0.001 A 
HETATM   13  C17 UNL     1      -0.934   6.820  -0.473  1.00  0.00     0.011 A 
ENDBRANCH   7   8
ENDBRANCH   5   6
BRANCH   5  14
HETATM   14  C18 UNL     1      -1.564   3.224  -1.299  1.00  0.00     0.151 C 
BRANCH  14  15
HETATM   15  N8  UNL     1      -2.053   2.101  -0.506  1.00  0.00    -0.359 N 
HETATM   16  C19 UNL     1      -3.442   1.900  -0.288  1.00  0.00     0.219 C 
HETATM   17  O4  UNL     1      -4.311   2.695  -0.773  1.00  0.00    -0.274 OA
ATOM     18  H8  UNL     1      -1.384   1.447  -0.100  1.00  0.00     0.162 HD
BRANCH  16  19
HETATM   19  C20 UNL     1      -3.931   0.757   0.510  1.00  0.00     0.122 C 
BRANCH  19  20
HETATM   20  C21 UNL     1      -5.423   0.851   0.627  1.00  0.00     0.132 C 
BRANCH  20  21
HETATM   21  N9  UNL     1      -6.035  -0.213   1.375  1.00  0.00    -0.360 N 
HETATM   22  C22 UNL     1      -5.980  -1.580   1.030  1.00  0.00     0.221 C 
HETATM   23  O5  UNL     1      -5.369  -1.955   0.006  1.00  0.00    -0.273 OA
ATOM     24  H9  UNL     1      -6.548   0.039   2.220  1.00  0.00     0.162 HD
BRANCH  22  25
HETATM   25  C23 UNL     1      -6.654  -2.584   1.887  1.00  0.00     0.141 C 
BRANCH  25  26
HETATM   26  C24 UNL     1      -6.471  -3.936   1.295  1.00  0.00    -0.050 A 
HETATM   27  C25 UNL     1      -7.394  -4.456   0.403  1.00  0.00     0.007 A 
HETATM   28  C26 UNL     1      -7.225  -5.696  -0.137  1.00  0.00     0.001 A 
HETATM   29  C27 UNL     1      -6.137  -6.497   0.169  1.00  0.00     0.000 A 
HETATM   30  C28 UNL     1      -5.224  -5.971   1.057  1.00  0.00     0.001 A 
HETATM   31  C29 UNL     1      -5.380  -4.714   1.616  1.00  0.00     0.007 A 
ENDBRANCH  25  26
ENDBRANCH  22  25
ENDBRANCH  20  21
ENDBRANCH  19  20
ENDBRANCH  16  19
ENDBRANCH  14  15
ENDBRANCH   5  14
ENDBRANCH   3   5
BRANCH   1  32
HETATM   32  C7  UNL     1       1.311  -0.377  -1.691  1.00  0.00     0.211 C 
BRANCH  32  33
HETATM   33  N6  UNL     1       2.104  -1.426  -1.267  1.00  0.00    -0.317 N 
ATOM     34  H6  UNL     1       2.028  -2.234  -1.884  1.00  0.00     0.170 HD
BRANCH  33  35
HETATM   35  C6  UNL     1       2.970  -1.657  -0.224  1.00  0.00     0.117 C 
BRANCH  35  36
HETATM   36  C5  UNL     1       3.386  -0.759   0.847  1.00  0.00     0.085 C 
BRANCH  36  37
HETATM   37  C4  UNL     1       4.557  -1.342   1.650  1.00  0.00     0.027 C 
BRANCH  37  38
HETATM   38  C3  UNL     1       5.810  -1.499   0.838  1.00  0.00     0.116 C 
BRANCH  38  39
HETATM   39  N5  UNL     1       6.895  -2.029   1.593  1.00  0.00    -0.394 N 
ATOM     40  H5  UNL     1       7.709  -1.449   1.798  1.00  0.00     0.155 HD
BRANCH  39  41
HETATM   41  C2  UNL     1       6.838  -3.351   2.053  1.00  0.00     0.296 C 
BRANCH  41  42
HETATM   42  C1  UNL     1       6.759  -4.423   1.009  1.00  0.00     0.194 C 
BRANCH  42  43
HETATM   43  N3  UNL     1       7.862  -4.400   0.068  1.00  0.00    -0.319 N 
ATOM     44  H3  UNL     1       7.651  -4.270  -0.921  1.00  0.00     0.181 HD
BRANCH  43  45
HETATM   45  N2  UNL     1       9.198  -4.547   0.446  1.00  0.00    -0.254 N 
HETATM   46  N1  UNL     1       9.564  -5.695   0.859  1.00  0.00    -0.331 N 
ATOM     47  H12 UNL     1       8.896  -6.465   0.906  1.00  0.00     0.178 HD
ATOM     48  H11 UNL     1      10.540  -5.802   1.135  1.00  0.00     0.178 HD
ATOM     49  H2  UNL     1       9.854  -3.767   0.394  1.00  0.00     0.207 HD
ENDBRANCH  43  45
ENDBRANCH  42  43
ENDBRANCH  41  42
BRANCH  41  50
HETATM   50  N4  UNL     1       8.106  -3.603   2.772  1.00  0.00    -0.057 N 
ATOM     51  H43 UNL     1       8.187  -4.549   3.146  1.00  0.00     0.276 HD
ATOM     52  H42 UNL     1       8.923  -3.646   2.163  1.00  0.00     0.276 HD
ATOM     53  H41 UNL     1       8.160  -2.873   3.483  1.00  0.00     0.276 HD
ENDBRANCH  41  50
ENDBRANCH  39  41
ENDBRANCH  38  39
ENDBRANCH  37  38
ENDBRANCH  36  37
ENDBRANCH  35  36
BRANCH  35  54
HETATM   54  O1  UNL     1       3.523  -2.844  -0.149  1.00  0.00    -0.349 OA
ATOM     55  H1  UNL     1       3.252  -3.429  -0.847  1.00  0.00     0.219 HD
ENDBRANCH  35  54
ENDBRANCH  33  35
ENDBRANCH  32  33
BRANCH  32  56
HETATM   56  O2  UNL     1       0.650  -0.609  -2.836  1.00  0.00    -0.342 OA
ATOM     57  H2  UNL     1       0.105   0.112  -3.128  1.00  0.00     0.219 HD
ENDBRANCH  32  56
ENDBRANCH   1  32
TORSDOF 24
