REMARK  21 active torsions:
REMARK  status: ('A' for Active; 'I' for Inactive)
REMARK    1  A    between atoms: C2_2  and  N1_3 
REMARK       I    between atoms: N1_3  and  C3_5 
REMARK       I    between atoms: C3_5  and  N2_7 
REMARK    2  A    between atoms: N3_10  and  C7_12 
REMARK    3  A    between atoms: C7_12  and  C8_13 
REMARK    4  A    between atoms: C8_13  and  N4_14 
REMARK    5  A    between atoms: N4_14  and  C9_16 
REMARK    6  A    between atoms: C9_16  and  C10_17 
REMARK    7  A    between atoms: C11_18  and  C12_19 
REMARK    8  A    between atoms: C12_19  and  C13_20 
REMARK    9  A    between atoms: C13_20  and  C14_21 
REMARK       I    between atoms: C14_21  and  N5_23 
REMARK   10  A    between atoms: N5_23  and  C15_24 
REMARK   11  A    between atoms: C15_24  and  C16_25 
REMARK   12  A    between atoms: C16_25  and  C17_26 
REMARK   13  A    between atoms: C17_26  and  N6_27 
REMARK   14  A    between atoms: N6_27  and  C18_30 
REMARK   15  A    between atoms: C18_30  and  C19_31 
REMARK       I    between atoms: C19_31  and  N7_33 
REMARK   16  A    between atoms: N7_33  and  C20_35 
REMARK   17  A    between atoms: C20_35  and  C21_36 
REMARK   18  A    between atoms: C21_36  and  C22_37 
REMARK   19  A    between atoms: C22_37  and  C23_38 
REMARK   20  A    between atoms: C23_38  and  N8_39 
REMARK       I    between atoms: N8_39  and  C24_41 
REMARK   21  A    between atoms: N11_46  and  C25_48 
ROOT
HETATM    1  C25 UNL     1      -2.971  -2.636  -0.425  1.00  0.00     0.245 C 
HETATM    2  C26 UNL     1      -2.274  -2.819  -1.726  1.00  0.00     0.078 C 
HETATM    3  N12 UNL     1      -1.727  -2.937  -2.752  1.00  0.00    -0.196 NA
ENDROOT
BRANCH   1   4
HETATM    4  N11 UNL     1      -2.220  -1.688   0.309  1.00  0.00    -0.364 N 
HETATM    5  C9  UNL     1      -2.779  -0.632   0.859  1.00  0.00     0.097 C 
ATOM      6  H11 UNL     1      -1.215  -1.828   0.415  1.00  0.00     0.162 HD
BRANCH   5   7
HETATM    7  N4  UNL     1      -4.169  -0.567   0.609  1.00  0.00    -0.375 N 
ATOM      8  H4  UNL     1      -4.831  -1.274   0.930  1.00  0.00     0.161 HD
BRANCH   7   9
HETATM    9  C8  UNL     1      -4.569   0.638  -0.170  1.00  0.00     0.149 C 
BRANCH   9  10
HETATM   10  C7  UNL     1      -5.940   0.616  -0.670  1.00  0.00     0.256 C 
BRANCH  10  11
HETATM   11  N3  UNL     1      -7.006   0.461   0.271  1.00  0.00    -0.066 N 
HETATM   12  C5  UNL     1      -7.969   1.539   0.035  1.00  0.00     0.257 C 
HETATM   13  C4  UNL     1      -9.391   1.058   0.288  1.00  0.00     0.155 C 
HETATM   14  N2  UNL     1      -9.674  -0.056  -0.587  1.00  0.00    -0.331 N 
HETATM   15  C3  UNL     1     -10.965  -0.549  -0.764  1.00  0.00     0.318 C 
HETATM   16  C28 UNL     1      -8.511  -0.670  -1.229  1.00  0.00     0.155 C 
HETATM   17  N1  UNL     1     -12.065  -0.031  -0.009  1.00  0.00    -0.343 N 
HETATM   18  O1  UNL     1     -11.169  -1.441  -1.577  1.00  0.00    -0.247 OA
ATOM     19  H1  UNL     1     -11.909   0.696   0.689  1.00  0.00     0.164 HD
HETATM   20  C27 UNL     1      -7.555  -0.870   0.002  1.00  0.00     0.257 C 
HETATM   21  C6  UNL     1      -6.615   0.519   1.644  1.00  0.00     0.272 C 
BRANCH  17  22
HETATM   22  C2  UNL     1     -13.381  -0.535  -0.236  1.00  0.00     0.120 C 
HETATM   23  C1  UNL     1     -13.826  -0.213  -1.634  1.00  0.00     0.026 C 
ENDBRANCH  17  22
ENDBRANCH  10  11
ENDBRANCH   9  10
ENDBRANCH   7   9
ENDBRANCH   5   7
BRANCH   5  24
HETATM   24  C10 UNL     1      -2.036   0.131   1.824  1.00  0.00     0.044 C 
HETATM   25  C11 UNL     1      -0.727   0.256   1.687  1.00  0.00    -0.022 C 
BRANCH  25  26
HETATM   26  C12 UNL     1      -0.097  -0.359   0.510  1.00  0.00     0.037 C 
BRANCH  26  27
HETATM   27  C13 UNL     1       0.656   0.859  -0.155  1.00  0.00     0.122 C 
BRANCH  27  28
HETATM   28  C14 UNL     1       1.896   1.135   0.647  1.00  0.00     0.286 C 
HETATM   29  O2  UNL     1       2.085   0.247   1.557  1.00  0.00    -0.258 OA
HETATM   30  N5  UNL     1       2.655   2.157   0.358  1.00  0.00    -0.415 NA
BRANCH  30  31
HETATM   31  C15 UNL     1       3.498   3.266   0.057  1.00  0.00     0.223 C 
BRANCH  31  32
HETATM   32  C16 UNL     1       4.736   2.765  -0.692  1.00  0.00     0.061 C 
BRANCH  32  33
HETATM   33  C17 UNL     1       5.329   1.481  -0.222  1.00  0.00     0.235 C 
BRANCH  33  34
HETATM   34  N6  UNL     1       5.677   1.221   1.100  1.00  0.00    -0.067 N 
ATOM     35  H62 UNL     1       5.628   2.064   1.672  1.00  0.00     0.277 HD
ATOM     36  H61 UNL     1       4.962   0.668   1.572  1.00  0.00     0.277 HD
BRANCH  34  37
HETATM   37  C18 UNL     1       6.966   0.600   1.191  1.00  0.00     0.334 C 
BRANCH  37  38
HETATM   38  C19 UNL     1       7.018  -0.732   0.510  1.00  0.00     0.243 C 
HETATM   39  O3  UNL     1       6.001  -1.238  -0.048  1.00  0.00    -0.272 OA
HETATM   40  N7  UNL     1       8.236  -1.398   0.493  1.00  0.00    -0.360 N 
ATOM     41  H7  UNL     1       8.978  -0.947   1.028  1.00  0.00     0.162 HD
BRANCH  40  42
HETATM   42  C20 UNL     1       8.614  -2.606  -0.149  1.00  0.00     0.122 C 
BRANCH  42  43
HETATM   43  C21 UNL     1      10.150  -2.736   0.111  1.00  0.00     0.021 C 
BRANCH  43  44
HETATM   44  C22 UNL     1      10.674  -1.435  -0.505  1.00  0.00     0.021 C 
BRANCH  44  45
HETATM   45  C23 UNL     1      12.142  -1.171  -0.250  1.00  0.00     0.122 C 
BRANCH  45  46
HETATM   46  N8  UNL     1      12.435   0.139  -0.835  1.00  0.00    -0.365 N 
HETATM   47  C24 UNL     1      13.692   0.764  -0.603  1.00  0.00     0.181 C 
HETATM   48  N9  UNL     1      14.039   1.859  -1.210  1.00  0.00    -0.374 N 
HETATM   49  N10 UNL     1      14.590   0.176   0.343  1.00  0.00    -0.064 NA
ATOM     50  H92 UNL     1      13.399   2.278  -1.884  1.00  0.00     0.158 HD
ATOM     51  H91 UNL     1      14.940   2.307  -1.044  1.00  0.00     0.158 HD
ATOM     52  H8  UNL     1      11.735   0.606  -1.411  1.00  0.00     0.162 HD
ENDBRANCH  45  46
ENDBRANCH  44  45
ENDBRANCH  43  44
ENDBRANCH  42  43
ENDBRANCH  40  42
ENDBRANCH  37  38
ENDBRANCH  34  37
ENDBRANCH  33  34
ENDBRANCH  32  33
ENDBRANCH  31  32
ENDBRANCH  30  31
ENDBRANCH  27  28
ENDBRANCH  26  27
ENDBRANCH  25  26
ENDBRANCH   5  24
ENDBRANCH   1   4
TORSDOF 21
