REMARK  21 active torsions:
REMARK  status: ('A' for Active; 'I' for Inactive)
REMARK    1  A    between atoms: N1_2  and  C3_4 
REMARK    2  A    between atoms: N1_2  and  C23_44 
REMARK    3  A    between atoms: C4_5  and  C5_6 
REMARK    4  A    between atoms: C5_6  and  N2_7 
REMARK    5  A    between atoms: C8_10  and  S1_11 
REMARK    6  A    between atoms: S1_11  and  C9_12 
REMARK    7  A    between atoms: C9_12  and  C10_13 
REMARK    8  A    between atoms: C10_13  and  C11_14 
REMARK    9  A    between atoms: C11_14  and  N3_15 
REMARK       I    between atoms: C12_17  and  N4_18 
REMARK       I    between atoms: C12_17  and  N8_33 
REMARK       I    between atoms: C13_20  and  N6_22 
REMARK   10  A    between atoms: N6_22  and  C14_24 
REMARK   11  A    between atoms: C14_24  and  C15_25 
REMARK   12  A    between atoms: C15_25  and  C16_26 
REMARK   13  A    between atoms: C16_26  and  C17_27 
REMARK   14  A    between atoms: C17_27  and  C18_28 
REMARK   15  A    between atoms: C18_28  and  N7_29 
REMARK   16  A    between atoms: N8_33  and  C19_35 
REMARK   17  A    between atoms: C20_39  and  O1_40 
REMARK   18  A    between atoms: C23_44  and  C24_45 
REMARK   19  A    between atoms: C24_45  and  C25_46 
REMARK       I    between atoms: C25_46  and  N10_48 
REMARK   20  A    between atoms: N10_48  and  C26_49 
REMARK   21  A    between atoms: C26_49  and  C27_50 
ROOT
HETATM    1  N3  UNL     1       4.095  -0.489   0.227  1.00  0.00    -0.226 N 
ATOM      2  H3  UNL     1       3.872  -1.248   0.871  1.00  0.00     0.177 HD
HETATM    3  C12 UNL     1       5.316  -0.285   0.058  1.00  0.00     0.678 C 
HETATM    4  N4  UNL     1       6.246  -1.041   0.708  1.00  0.00    -0.164 N 
ATOM      5  H4  UNL     1       7.105  -0.492   0.693  1.00  0.00     0.187 HD
HETATM    6  C13 UNL     1       6.523  -2.064   1.295  1.00  0.00     0.202 C 
HETATM    7  N5  UNL     1       5.589  -3.116   1.528  1.00  0.00    -0.063 NA
HETATM    8  N6  UNL     1       7.882  -2.188   1.783  1.00  0.00    -0.364 N 
ATOM      9  H6  UNL     1       8.090  -1.981   2.760  1.00  0.00     0.162 HD
HETATM   10  N8  UNL     1       5.815   0.753  -0.781  1.00  0.00    -0.192 N 
ATOM     11  H8  UNL     1       6.172   1.593  -0.326  1.00  0.00     0.180 HD
ENDROOT
BRANCH   1  12
HETATM   12  C11 UNL     1       2.966   0.169  -0.336  1.00  0.00     0.139 C 
BRANCH  12  13
HETATM   13  C10 UNL     1       2.965   1.568   0.138  1.00  0.00     0.031 C 
BRANCH  13  14
HETATM   14  C9  UNL     1       1.820   2.468  -0.201  1.00  0.00     0.081 C 
BRANCH  14  15
HETATM   15  S1  UNL     1       0.351   2.083   0.607  1.00  0.00    -0.130 SA
BRANCH  15  16
HETATM   16  C8  UNL     1      -0.724   0.805   0.164  1.00  0.00     0.003 A 
HETATM   17  C7  UNL     1      -0.823   0.081  -0.999  1.00  0.00     0.035 A 
HETATM   18  C6  UNL     1      -1.774  -0.910  -1.221  1.00  0.00     0.092 A 
HETATM   19  N2  UNL     1      -2.669  -1.231  -0.309  1.00  0.00    -0.363 N 
HETATM   20  C22 UNL     1      -2.596  -0.539   0.860  1.00  0.00     0.092 A 
HETATM   21  C21 UNL     1      -1.707   0.428   1.139  1.00  0.00     0.035 A 
BRANCH  19  22
HETATM   22  C5  UNL     1      -3.710  -2.224  -0.367  1.00  0.00     0.156 C 
BRANCH  22  23
HETATM   23  C4  UNL     1      -4.947  -1.851  -1.070  1.00  0.00     0.018 C 
HETATM   24  C3  UNL     1      -5.816  -0.742  -0.837  1.00  0.00     0.199 C 
BRANCH  24  25
HETATM   25  N1  UNL     1      -6.635  -0.325   0.185  1.00  0.00    -0.054 N 
HETATM   26  C1  UNL     1      -6.130  -0.025   1.497  1.00  0.00     0.277 C 
HETATM   27  C2  UNL     1      -7.047   1.073  -0.288  1.00  0.00     0.277 C 
BRANCH  25  28
HETATM   28  C23 UNL     1      -7.928  -0.991   0.360  1.00  0.00     0.252 C 
BRANCH  28  29
HETATM   29  C24 UNL     1      -8.969   0.053   0.525  1.00  0.00     0.147 C 
BRANCH  29  30
HETATM   30  C25 UNL     1     -10.367  -0.577   0.794  1.00  0.00     0.292 C 
HETATM   31  O2  UNL     1     -10.350  -1.805   0.964  1.00  0.00    -0.257 OA
HETATM   32  N10 UNL     1     -11.416   0.301   0.805  1.00  0.00    -0.378 NA
BRANCH  32  33
HETATM   33  C26 UNL     1     -12.461   1.176   0.816  1.00  0.00     0.257 C 
BRANCH  33  34
HETATM   34  C27 UNL     1     -13.499   0.879  -0.223  1.00  0.00     0.283 C 
HETATM   35  N11 UNL     1     -14.646   1.694  -0.412  1.00  0.00    -0.056 NA
HETATM   36  O3  UNL     1     -13.358  -0.143  -0.988  1.00  0.00    -0.269 OA
ENDBRANCH  33  34
ENDBRANCH  32  33
ENDBRANCH  29  30
ENDBRANCH  28  29
ENDBRANCH  25  28
ENDBRANCH  24  25
ENDBRANCH  22  23
ENDBRANCH  19  22
ENDBRANCH  15  16
ENDBRANCH  14  15
ENDBRANCH  13  14
ENDBRANCH  12  13
ENDBRANCH   1  12
BRANCH  10  37
HETATM   37  C19 UNL     1       5.855   0.711  -2.216  1.00  0.00     0.358 A 
HETATM   38  N9  UNL     1       5.243   1.812  -2.929  1.00  0.00    -0.019 N 
HETATM   39  C20 UNL     1       6.671   1.786  -2.876  1.00  0.00     0.372 A 
ATOM     40  H92 UNL     1       4.572   1.863  -3.696  1.00  0.00     0.283 HD
ATOM     41  H91 UNL     1       4.546   2.511  -2.672  1.00  0.00     0.283 HD
BRANCH  39  42
HETATM   42  O1  UNL     1       7.356   2.603  -1.962  1.00  0.00    -0.367 OA
ATOM     43  H1  UNL     1       7.872   3.283  -2.379  1.00  0.00     0.212 HD
ENDBRANCH  39  42
ENDBRANCH  10  37
BRANCH   8  44
HETATM   44  C14 UNL     1       8.932  -2.598   0.906  1.00  0.00     0.122 C 
BRANCH  44  45
HETATM   45  C15 UNL     1       9.240  -1.610  -0.164  1.00  0.00     0.020 C 
BRANCH  45  46
HETATM   46  C16 UNL     1       9.637  -0.272   0.355  1.00  0.00     0.003 C 
BRANCH  46  47
HETATM   47  C17 UNL     1      10.862  -0.267   1.236  1.00  0.00     0.027 C 
BRANCH  47  48
HETATM   48  C18 UNL     1      11.082   1.155   1.709  1.00  0.00     0.229 C 
BRANCH  48  49
HETATM   49  N7  UNL     1      11.312   2.094   0.651  1.00  0.00    -0.079 N 
ATOM     50  H73 UNL     1      12.088   1.788   0.064  1.00  0.00     0.274 HD
ATOM     51  H72 UNL     1      10.554   2.057  -0.031  1.00  0.00     0.274 HD
ATOM     52  H71 UNL     1      11.460   3.052   0.970  1.00  0.00     0.274 HD
ENDBRANCH  48  49
ENDBRANCH  47  48
ENDBRANCH  46  47
ENDBRANCH  45  46
ENDBRANCH  44  45
ENDBRANCH   8  44
TORSDOF 21
