REMARK  27 active torsions:
REMARK  status: ('A' for Active; 'I' for Inactive)
REMARK       I    between atoms: C1_4  and  N3_6 
REMARK    1  A    between atoms: N3_6  and  C2_8 
REMARK    2  A    between atoms: C2_8  and  C3_9 
REMARK    3  A    between atoms: C3_9  and  C4_10 
REMARK    4  A    between atoms: C4_10  and  C5_11 
REMARK    5  A    between atoms: C5_11  and  N4_12 
REMARK    6  A    between atoms: N4_12  and  C6_14 
REMARK    7  A    between atoms: C6_14  and  O1_15 
REMARK    8  A    between atoms: C6_14  and  C7_17 
REMARK    9  A    between atoms: C7_17  and  C8_18 
REMARK   10  A    between atoms: C8_18  and  C9_19 
REMARK   11  A    between atoms: C9_19  and  C10_20 
REMARK   12  A    between atoms: C10_20  and  C11_21 
REMARK   13  A    between atoms: C11_21  and  N5_22 
REMARK   14  A    between atoms: N5_22  and  C12_24 
REMARK   15  A    between atoms: C12_24  and  O2_25 
REMARK   16  A    between atoms: C12_24  and  N6_27 
REMARK   17  A    between atoms: N6_27  and  C13_29 
REMARK   18  A    between atoms: C13_29  and  C14_30 
REMARK   19  A    between atoms: C14_30  and  C15_31 
REMARK       I    between atoms: C15_31  and  N7_33 
REMARK   20  A    between atoms: N7_33  and  C16_34 
REMARK   21  A    between atoms: N7_33  and  C21_49 
REMARK   22  A    between atoms: C16_34  and  C17_35 
REMARK   23  A    between atoms: C17_35  and  N8_36 
REMARK       I    between atoms: N8_36  and  C18_37 
REMARK   24  A    between atoms: C18_37  and  C19_39 
REMARK       I    between atoms: C19_39  and  N9_41 
REMARK   25  A    between atoms: N9_41  and  C20_43 
REMARK   26  A    between atoms: N10_44  and  N11_46 
REMARK   27  A    between atoms: C21_49  and  C22_50 
ROOT
HETATM    1  N6  UNL     1       0.980  -2.532   0.049  1.00  0.00    -0.356 N 
ATOM      2  H6  UNL     1       1.288  -3.117  -0.728  1.00  0.00     0.163 HD
ENDROOT
BRANCH   1   3
HETATM    3  C12 UNL     1      -0.256  -1.809   0.020  1.00  0.00     0.212 C 
BRANCH   3   4
HETATM    4  N5  UNL     1      -1.132  -1.690  -1.055  1.00  0.00    -0.357 N 
ATOM      5  H5  UNL     1      -0.886  -2.059  -1.974  1.00  0.00     0.163 HD
BRANCH   4   6
HETATM    6  C11 UNL     1      -2.393  -1.034  -0.838  1.00  0.00     0.123 C 
BRANCH   6   7
HETATM    7  C10 UNL     1      -2.361   0.337  -0.320  1.00  0.00     0.020 C 
BRANCH   7   8
HETATM    8  C9  UNL     1      -3.806   0.813  -0.043  1.00  0.00     0.002 C 
BRANCH   8   9
HETATM    9  C8  UNL     1      -4.479  -0.138   0.886  1.00  0.00     0.008 C 
BRANCH   9  10
HETATM   10  C7  UNL     1      -5.877   0.339   1.308  1.00  0.00     0.084 C 
BRANCH  10  11
HETATM   11  C6  UNL     1      -6.654   0.643   0.140  1.00  0.00     0.114 C 
BRANCH  11  12
HETATM   12  N4  UNL     1      -7.697   0.045  -0.450  1.00  0.00    -0.354 N 
ATOM     13  H4  UNL     1      -8.487   0.515  -0.008  1.00  0.00     0.166 HD
BRANCH  12  14
HETATM   14  C5  UNL     1      -8.252  -0.724  -1.198  1.00  0.00     0.063 C 
BRANCH  14  15
HETATM   15  C4  UNL     1      -9.762  -0.708  -1.199  1.00  0.00     0.046 C 
BRANCH  15  16
HETATM   16  C3  UNL     1     -10.249  -0.658   0.214  1.00  0.00     0.025 C 
BRANCH  16  17
HETATM   17  C2  UNL     1     -11.767  -0.458   0.162  1.00  0.00     0.122 C 
BRANCH  17  18
HETATM   18  N3  UNL     1     -11.923   0.842  -0.519  1.00  0.00    -0.365 N 
HETATM   19  C1  UNL     1     -11.488   2.013   0.195  1.00  0.00     0.181 C 
HETATM   20  N1  UNL     1     -10.425   2.655  -0.168  1.00  0.00    -0.374 N 
HETATM   21  N2  UNL     1     -12.200   2.428   1.311  1.00  0.00    -0.064 NA
ATOM     22  H12 UNL     1     -10.117   3.485   0.338  1.00  0.00     0.158 HD
ATOM     23  H11 UNL     1      -9.902   2.350  -0.989  1.00  0.00     0.158 HD
ATOM     24  H3  UNL     1     -12.322   0.908  -1.455  1.00  0.00     0.162 HD
ENDBRANCH  17  18
ENDBRANCH  16  17
ENDBRANCH  15  16
ENDBRANCH  14  15
ENDBRANCH  12  14
ENDBRANCH  11  12
BRANCH  11  25
HETATM   25  O1  UNL     1      -6.269   1.755  -0.488  1.00  0.00    -0.349 OA
ATOM     26  H1  UNL     1      -5.529   2.179  -0.069  1.00  0.00     0.219 HD
ENDBRANCH  11  25
ENDBRANCH  10  11
ENDBRANCH   9  10
ENDBRANCH   8   9
ENDBRANCH   7   8
ENDBRANCH   6   7
ENDBRANCH   4   6
ENDBRANCH   3   4
BRANCH   3  27
HETATM   27  O2  UNL     1      -0.552  -1.218   1.162  1.00  0.00    -0.333 OA
ATOM     28  H2  UNL     1       0.046  -1.299   1.896  1.00  0.00     0.220 HD
ENDBRANCH   3  27
ENDBRANCH   1   3
BRANCH   1  29
HETATM   29  C13 UNL     1       1.769  -2.373   1.269  1.00  0.00     0.132 C 
BRANCH  29  30
HETATM   30  C14 UNL     1       2.417  -0.932   1.133  1.00  0.00     0.122 C 
BRANCH  30  31
HETATM   31  C15 UNL     1       3.395  -1.221   0.044  1.00  0.00     0.222 C 
HETATM   32  O3  UNL     1       3.018  -1.720  -1.041  1.00  0.00    -0.273 OA
HETATM   33  N7  UNL     1       4.792  -0.914   0.213  1.00  0.00    -0.342 N 
BRANCH  33  34
HETATM   34  C16 UNL     1       5.807  -1.398  -0.656  1.00  0.00     0.185 C 
BRANCH  34  35
HETATM   35  C17 UNL     1       5.994  -0.832  -2.017  1.00  0.00     0.179 C 
BRANCH  35  36
HETATM   36  N8  UNL     1       7.266  -1.020  -2.471  1.00  0.00    -0.378 NA
HETATM   37  C18 UNL     1       8.542  -1.207  -2.935  1.00  0.00     0.383 C 
HETATM   38  O4  UNL     1       9.284  -1.241  -3.806  1.00  0.00    -0.246 OA
BRANCH  37  39
HETATM   39  C19 UNL     1       9.426  -1.427  -1.536  1.00  0.00     0.329 C 
HETATM   40  O5  UNL     1       9.578  -2.482  -1.175  1.00  0.00    -0.261 OA
HETATM   41  N9  UNL     1       9.735  -0.119  -1.125  1.00  0.00    -0.313 N 
ATOM     42  H9  UNL     1       9.388   0.650  -1.699  1.00  0.00     0.170 HD
BRANCH  41  43
HETATM   43  C20 UNL     1      10.496   0.214   0.032  1.00  0.00     0.199 C 
HETATM   44  N10 UNL     1      11.092  -0.489   0.858  1.00  0.00    -0.303 N 
ATOM     45  H10 UNL     1      11.108  -1.506   0.787  1.00  0.00     0.187 HD
BRANCH  44  46
HETATM   46  N11 UNL     1      11.753   0.201   1.912  1.00  0.00    -0.344 N 
ATOM     47 2H11 UNL     1      11.728   1.219   1.969  1.00  0.00     0.176 HD
ATOM     48 1H11 UNL     1      12.244  -0.378   2.593  1.00  0.00     0.176 HD
ENDBRANCH  44  46
ENDBRANCH  41  43
ENDBRANCH  37  39
ENDBRANCH  35  36
ENDBRANCH  34  35
ENDBRANCH  33  34
BRANCH  33  49
HETATM   49  C21 UNL     1       5.225  -0.102   1.368  1.00  0.00     0.164 C 
BRANCH  49  50
HETATM   50  C22 UNL     1       5.788   1.237   1.065  1.00  0.00    -0.040 A 
HETATM   51  C23 UNL     1       5.206   2.207   0.296  1.00  0.00     0.009 A 
HETATM   52  C24 UNL     1       5.803   3.436   0.015  1.00  0.00     0.001 A 
HETATM   53  C25 UNL     1       7.043   3.736   0.525  1.00  0.00     0.000 A 
HETATM   54  C26 UNL     1       7.651   2.767   1.304  1.00  0.00     0.001 A 
HETATM   55  C27 UNL     1       7.077   1.572   1.582  1.00  0.00     0.009 A 
ENDBRANCH  49  50
ENDBRANCH  33  49
ENDBRANCH  30  31
ENDBRANCH  29  30
ENDBRANCH   1  29
TORSDOF 27
