REMARK  17 active torsions:
REMARK  status: ('A' for Active; 'I' for Inactive)
REMARK    1  A    between atoms: C5_14  and  C6_15 
REMARK    2  A    between atoms: C6_15  and  O1_16 
REMARK    3  A    between atoms: O1_16  and  C7_17 
REMARK    4  A    between atoms: C8_19  and  C9_20 
REMARK    5  A    between atoms: C9_20  and  O3_21 
REMARK    6  A    between atoms: C9_20  and  C10_23 
REMARK    7  A    between atoms: C11_25  and  C12_26 
REMARK    8  A    between atoms: C12_26  and  O5_27 
REMARK    9  A    between atoms: C13_29  and  O6_30 
REMARK   10  A    between atoms: C14_32  and  O7_33 
REMARK   11  A    between atoms: C15_35  and  O8_36 
REMARK   12  A    between atoms: C16_38  and  N5_39 
REMARK   13  A    between atoms: N7_48  and  N8_49 
REMARK   14  A    between atoms: N9_52  and  C21_53 
REMARK   15  A    between atoms: C22_54  and  O11_55 
REMARK   16  A    between atoms: C24_59  and  O13_60 
REMARK   17  A    between atoms: C25_62  and  O14_63 
ROOT
HETATM    1  C7  UNL     1       0.589  -1.252  -0.612  1.00  0.00     0.364 C 
HETATM    2  O2  UNL     1      -0.309  -0.604   0.224  1.00  0.00    -0.335 OA
HETATM    3  C8  UNL     1      -1.406  -1.427   0.426  1.00  0.00     0.197 C 
HETATM    4  C16 UNL     1      -1.022  -2.809   0.034  1.00  0.00     0.224 C 
HETATM    5  N7  UNL     1       0.121  -2.606  -0.813  1.00  0.00    -0.159 NA
ENDROOT
BRANCH   1   6
HETATM    6  O1  UNL     1       0.690  -0.539  -1.776  1.00  0.00    -0.340 OA
BRANCH   6   7
HETATM    7  C6  UNL     1       1.909  -0.018  -2.093  1.00  0.00     0.249 C 
BRANCH   7   8
HETATM    8  C5  UNL     1       2.375   0.925  -1.069  1.00  0.00     0.110 A 
HETATM    9  N4  UNL     1       1.765   2.081  -0.761  1.00  0.00    -0.338 N 
HETATM   10  C4  UNL     1       2.424   2.735   0.205  1.00  0.00     0.122 A 
ATOM     11  H4  UNL     1       0.911   2.418  -1.205  1.00  0.00     0.167 HD
HETATM   12  C1  UNL     1       2.197   3.941   0.847  1.00  0.00     0.131 A 
HETATM   13  C3  UNL     1       3.508   1.940   0.518  1.00  0.00     0.141 A 
HETATM   14  N1  UNL     1       1.175   4.627   0.508  1.00  0.00    -0.383 N 
HETATM   15  N2  UNL     1       3.066   4.314   1.786  1.00  0.00    -0.337 N 
ATOM     16  H12 UNL     1       1.008   5.515   0.981  1.00  0.00     0.157 HD
ATOM     17  H11 UNL     1       0.510   4.342  -0.211  1.00  0.00     0.157 HD
HETATM   18  C2  UNL     1       4.128   3.535   2.093  1.00  0.00     0.183 A 
ATOM     19  H2  UNL     1       2.929   5.197   2.278  1.00  0.00     0.168 HD
HETATM   20  N3  UNL     1       4.374   2.360   1.486  1.00  0.00    -0.336 N 
ATOM     21  H3  UNL     1       5.186   1.798   1.742  1.00  0.00     0.168 HD
HETATM   22  N9  UNL     1       3.451   0.851  -0.271  1.00  0.00    -0.308 N 
BRANCH  22  23
HETATM   23  C21 UNL     1       4.451  -0.223  -0.222  1.00  0.00     0.161 A 
HETATM   24  C22 UNL     1       5.837   0.333  -0.470  1.00  0.00     0.216 A 
HETATM   25  C23 UNL     1       6.631   0.041   0.738  1.00  0.00     0.188 A 
HETATM   26  O12 UNL     1       7.786   0.339   0.885  1.00  0.00    -0.292 OA
HETATM   27  C24 UNL     1       5.809  -0.669   1.743  1.00  0.00     0.221 A 
HETATM   28  C25 UNL     1       4.465  -0.900   1.111  1.00  0.00     0.180 A 
BRANCH  24  29
HETATM   29  O11 UNL     1       6.438  -0.176  -1.602  1.00  0.00    -0.386 OA
ATOM     30  H11 UNL     1       7.308   0.173  -1.758  1.00  0.00     0.210 HD
ENDBRANCH  24  29
BRANCH  27  31
HETATM   31  O13 UNL     1       6.445  -1.885   2.086  1.00  0.00    -0.385 OA
ATOM     32  H13 UNL     1       5.917  -2.341   2.731  1.00  0.00     0.210 HD
ENDBRANCH  27  31
BRANCH  28  33
HETATM   33  O14 UNL     1       3.443  -0.469   1.964  1.00  0.00    -0.390 OA
ATOM     34  H14 UNL     1       3.452  -0.899   2.811  1.00  0.00     0.210 HD
ENDBRANCH  28  33
ENDBRANCH  22  23
ENDBRANCH   7   8
ENDBRANCH   6   7
ENDBRANCH   1   6
BRANCH   5  35
HETATM   35  N8  UNL     1       1.119  -3.557  -0.510  1.00  0.00    -0.357 NA
ATOM     36  H82 UNL     1       1.930  -3.413  -1.111  1.00  0.00     0.171 HD
ATOM     37  H81 UNL     1       0.789  -4.512  -0.652  1.00  0.00     0.171 HD
ENDBRANCH   5  35
BRANCH   3  38
HETATM   38  C9  UNL     1      -2.538  -0.846  -0.381  1.00  0.00     0.182 C 
BRANCH  38  39
HETATM   39  O3  UNL     1      -2.178  -0.820  -1.757  1.00  0.00    -0.390 OA
ATOM     40  H3  UNL     1      -2.892  -0.454  -2.266  1.00  0.00     0.210 HD
ENDBRANCH  38  39
BRANCH  38  41
HETATM   41  C10 UNL     1      -2.826   0.609  -0.048  1.00  0.00     0.184 C 
HETATM   42  O4  UNL     1      -3.850   0.984  -0.920  1.00  0.00    -0.370 OA
HETATM   43  C11 UNL     1      -4.242   2.291  -0.767  1.00  0.00     0.177 C 
HETATM   44  C13 UNL     1      -4.656   2.627   0.647  1.00  0.00     0.180 C 
HETATM   45  C14 UNL     1      -3.709   2.096   1.671  1.00  0.00     0.180 C 
HETATM   46  C15 UNL     1      -3.442   0.632   1.336  1.00  0.00     0.181 C 
BRANCH  43  47
HETATM   47  C12 UNL     1      -3.195   3.286  -1.191  1.00  0.00     0.198 C 
BRANCH  47  48
HETATM   48  O5  UNL     1      -2.876   3.119  -2.526  1.00  0.00    -0.398 OA
ATOM     49  H5  UNL     1      -2.215   3.747  -2.794  1.00  0.00     0.209 HD
ENDBRANCH  47  48
ENDBRANCH  43  47
BRANCH  44  50
HETATM   50  O6  UNL     1      -5.918   2.103   0.881  1.00  0.00    -0.390 OA
ATOM     51  H6  UNL     1      -6.178   2.314   1.770  1.00  0.00     0.210 HD
ENDBRANCH  44  50
BRANCH  45  52
HETATM   52  O7  UNL     1      -4.283   2.138   2.930  1.00  0.00    -0.390 OA
ATOM     53  H7  UNL     1      -3.680   1.800   3.582  1.00  0.00     0.210 HD
ENDBRANCH  45  52
BRANCH  46  54
HETATM   54  O8  UNL     1      -4.704   0.036   1.217  1.00  0.00    -0.390 OA
ATOM     55  H8  UNL     1      -5.090   0.050   2.085  1.00  0.00     0.210 HD
ENDBRANCH  46  54
ENDBRANCH  38  41
ENDBRANCH   3  38
BRANCH   4  56
HETATM   56  N5  UNL     1      -2.016  -3.585  -0.626  1.00  0.00    -0.288 N 
HETATM   57  C17 UNL     1      -1.936  -3.894  -1.927  1.00  0.00     0.103 A 
HETATM   58  C18 UNL     1      -2.902  -4.648  -2.559  1.00  0.00     0.092 A 
HETATM   59  C19 UNL     1      -3.975  -5.083  -1.797  1.00  0.00     0.250 A 
HETATM   60  O9  UNL     1      -4.910  -5.775  -2.276  1.00  0.00    -0.268 OA
HETATM   61  N6  UNL     1      -4.035  -4.762  -0.494  1.00  0.00    -0.275 N 
HETATM   62  C20 UNL     1      -3.076  -4.035   0.057  1.00  0.00     0.330 A 
ATOM     63  H6  UNL     1      -4.822  -5.079   0.072  1.00  0.00     0.173 HD
HETATM   64  O10 UNL     1      -3.206  -3.772   1.299  1.00  0.00    -0.246 OA
ENDBRANCH   4  56
TORSDOF 17
