REMARK  19 active torsions:
REMARK  status: ('A' for Active; 'I' for Inactive)
REMARK    1  A    between atoms: C2_2  and  O1_3 
REMARK    2  A    between atoms: C4_7  and  C5_8 
REMARK    3  A    between atoms: C4_7  and  C6_11 
REMARK    4  A    between atoms: C5_8  and  O3_9 
REMARK    5  A    between atoms: C9_17  and  C10_18 
REMARK    6  A    between atoms: C10_18  and  O7_19 
REMARK    7  A    between atoms: C10_18  and  C11_21 
REMARK    8  A    between atoms: C11_21  and  C12_22 
REMARK    9  A    between atoms: C11_21  and  C13_25 
REMARK   10  A    between atoms: C12_22  and  O8_23 
REMARK   11  A    between atoms: C14_27  and  N1_28 
REMARK   12  A    between atoms: C18_36  and  C19_37 
REMARK   13  A    between atoms: C19_37  and  O12_38 
REMARK   14  A    between atoms: C19_37  and  O13_40 
REMARK   15  A    between atoms: C21_45  and  O14_46 
REMARK   16  A    between atoms: C22_48  and  O15_49 
REMARK   17  A    between atoms: C23_51  and  O16_52 
REMARK   18  A    between atoms: C24_54  and  O17_55 
REMARK   19  A    between atoms: C25_57  and  O18_58 
ROOT
HETATM    1  C11 UNL     1       0.596  -0.807  -0.197  1.00  0.00     0.072 C 
ENDROOT
BRANCH   1   2
HETATM    2  C10 UNL     1      -0.367   0.276  -0.471  1.00  0.00     0.158 C 
BRANCH   2   3
HETATM    3  C9  UNL     1      -1.709   0.202   0.189  1.00  0.00     0.182 C 
HETATM    4  O6  UNL     1      -2.360   1.436  -0.134  1.00  0.00    -0.380 OA
HETATM    5  C8  UNL     1      -3.460   1.647   0.701  1.00  0.00     0.178 C 
HETATM    6  C7  UNL     1      -4.430   0.523   0.592  1.00  0.00     0.083 C 
HETATM    7  C4  UNL     1      -5.882   0.927   0.558  1.00  0.00     0.142 C 
HETATM    8  C25 UNL     1      -4.019  -0.324  -0.581  1.00  0.00     0.157 C 
HETATM    9  C3  UNL     1      -6.663  -0.343   0.677  1.00  0.00     0.190 C 
HETATM   10  C2  UNL     1      -6.176  -1.601   0.051  1.00  0.00     0.179 C 
HETATM   11  O2  UNL     1      -7.715  -0.390   1.285  1.00  0.00    -0.293 OA
HETATM   12  C1  UNL     1      -7.291  -2.242  -0.769  1.00  0.00     0.063 C 
HETATM   13  C26 UNL     1      -4.979  -1.413  -0.787  1.00  0.00     0.205 C 
HETATM   14  O19 UNL     1      -4.734  -2.192  -1.722  1.00  0.00    -0.291 OA
HETATM   15  C24 UNL     1      -2.630  -0.883  -0.174  1.00  0.00     0.192 C 
BRANCH   7  16
HETATM   16  C5  UNL     1      -6.255   1.693  -0.660  1.00  0.00     0.193 C 
BRANCH  16  17
HETATM   17  O3  UNL     1      -7.604   2.019  -0.616  1.00  0.00    -0.399 OA
ATOM     18  H3  UNL     1      -7.842   2.509  -1.394  1.00  0.00     0.209 HD
ENDBRANCH  16  17
ENDBRANCH   7  16
BRANCH   7  19
HETATM   19  C6  UNL     1      -6.117   1.769   1.754  1.00  0.00     0.192 C 
HETATM   20  O4  UNL     1      -6.589   2.933   1.729  1.00  0.00    -0.647 OA
HETATM   21  O5  UNL     1      -5.791   1.233   2.990  1.00  0.00    -0.647 OA
ENDBRANCH   7  19
BRANCH  10  22
HETATM   22  O1  UNL     1      -5.927  -2.492   1.118  1.00  0.00    -0.374 OA
ATOM     23  H1  UNL     1      -5.233  -2.093   1.629  1.00  0.00     0.211 HD
ENDBRANCH  10  22
BRANCH   8  24
HETATM   24  O18 UNL     1      -3.777   0.415  -1.735  1.00  0.00    -0.379 OA
ATOM     25  H18 UNL     1      -3.517  -0.120  -2.476  1.00  0.00     0.211 HD
ENDBRANCH   8  24
BRANCH  15  26
HETATM   26  O17 UNL     1      -2.934  -1.597   1.020  1.00  0.00    -0.389 OA
ATOM     27  H17 UNL     1      -3.530  -2.299   0.785  1.00  0.00     0.210 HD
ENDBRANCH  15  26
ENDBRANCH   2   3
BRANCH   2  28
HETATM   28  O7  UNL     1       0.219   1.452   0.103  1.00  0.00    -0.392 OA
ATOM     29  H7  UNL     1       1.070   1.499  -0.316  1.00  0.00     0.210 HD
ENDBRANCH   2  28
ENDBRANCH   1   2
BRANCH   1  30
HETATM   30  C12 UNL     1       0.268  -2.193  -0.598  1.00  0.00     0.174 C 
BRANCH  30  31
HETATM   31  O8  UNL     1       0.077  -2.378  -1.967  1.00  0.00    -0.400 OA
ATOM     32  H8  UNL     1      -0.134  -3.268  -2.224  1.00  0.00     0.209 HD
ENDBRANCH  30  31
ENDBRANCH   1  30
BRANCH   1  33
HETATM   33  C13 UNL     1       2.018  -0.477  -0.603  1.00  0.00     0.164 C 
HETATM   34  O9  UNL     1       2.460   0.665   0.107  1.00  0.00    -0.355 OA
HETATM   35  C14 UNL     1       3.818   0.835   0.056  1.00  0.00     0.262 C 
HETATM   36  C21 UNL     1       4.401   0.621  -1.307  1.00  0.00     0.198 C 
HETATM   37  C22 UNL     1       3.344   0.660  -2.393  1.00  0.00     0.182 C 
HETATM   38  C23 UNL     1       2.249  -0.369  -2.068  1.00  0.00     0.179 C 
BRANCH  35  39
HETATM   39  N1  UNL     1       4.549   0.069   1.055  1.00  0.00    -0.297 N 
HETATM   40  C15 UNL     1       4.087  -0.777   1.975  1.00  0.00     0.188 A 
HETATM   41  N2  UNL     1       5.144  -1.234   2.662  1.00  0.00    -0.344 N 
HETATM   42  C16 UNL     1       6.268  -0.695   2.197  1.00  0.00     0.154 A 
ATOM     43  H2  UNL     1       5.093  -1.901   3.432  1.00  0.00     0.167 HD
HETATM   44  C17 UNL     1       7.619  -0.796   2.513  1.00  0.00     0.320 A 
HETATM   45  C20 UNL     1       5.874   0.137   1.169  1.00  0.00     0.146 A 
HETATM   46  O10 UNL     1       7.913  -1.571   3.460  1.00  0.00    -0.257 OA
HETATM   47  O11 UNL     1       8.475  -0.104   1.832  1.00  0.00    -0.255 OA
HETATM   48  C18 UNL     1       8.156   0.700   0.847  1.00  0.00     0.184 A 
HETATM   49  N3  UNL     1       6.858   0.821   0.515  1.00  0.00    -0.320 N 
ATOM     50  H3  UNL     1       6.601   1.444  -0.250  1.00  0.00     0.169 HD
BRANCH  48  51
HETATM   51  C19 UNL     1       9.218   1.464   0.110  1.00  0.00     0.331 C 
BRANCH  51  52
HETATM   52  O12 UNL     1       9.038   1.418  -1.255  1.00  0.00    -0.364 OA
ATOM     53  H12 UNL     1       9.710   1.901  -1.721  1.00  0.00     0.213 HD
ENDBRANCH  51  52
BRANCH  51  54
HETATM   54  O13 UNL     1      10.445   0.925   0.445  1.00  0.00    -0.364 OA
ATOM     55  H13 UNL     1      11.117   1.408  -0.021  1.00  0.00     0.213 HD
ENDBRANCH  51  54
ENDBRANCH  48  51
ENDBRANCH  35  39
BRANCH  36  56
HETATM   56  O14 UNL     1       5.014  -0.649  -1.365  1.00  0.00    -0.388 OA
ATOM     57  H14 UNL     1       5.384  -0.785  -2.229  1.00  0.00     0.210 HD
ENDBRANCH  36  56
BRANCH  37  58
HETATM   58  O15 UNL     1       2.848   1.927  -2.545  1.00  0.00    -0.390 OA
ATOM     59  H15 UNL     1       2.186   1.951  -3.226  1.00  0.00     0.210 HD
ENDBRANCH  37  58
BRANCH  38  60
HETATM   60  O16 UNL     1       2.779  -1.584  -2.572  1.00  0.00    -0.390 OA
ATOM     61  H16 UNL     1       2.927  -1.515  -3.508  1.00  0.00     0.210 HD
ENDBRANCH  38  60
ENDBRANCH   1  33
TORSDOF 19
