REMARK  17 active torsions:
REMARK  status: ('A' for Active; 'I' for Inactive)
REMARK    1  A    between atoms: N5_15  and  C6_16 
REMARK    2  A    between atoms: C7_18  and  C8_19 
REMARK    3  A    between atoms: C8_19  and  O2_20 
REMARK    4  A    between atoms: C9_22  and  N6_23 
REMARK    5  A    between atoms: N6_23  and  C10_25 
REMARK    6  A    between atoms: C10_25  and  C11_31 
REMARK    7  A    between atoms: N7_26  and  N8_28 
REMARK    8  A    between atoms: C12_33  and  N9_34 
REMARK    9  A    between atoms: C17_43  and  O6_44 
REMARK   10  A    between atoms: C18_46  and  O7_47 
REMARK   11  A    between atoms: C19_49  and  O8_50 
REMARK   12  A    between atoms: O8_50  and  C20_51 
REMARK   13  A    between atoms: C21_53  and  C22_54 
REMARK   14  A    between atoms: C22_54  and  O10_55 
REMARK   15  A    between atoms: C23_57  and  O11_58 
REMARK   16  A    between atoms: C24_60  and  O12_61 
REMARK   17  A    between atoms: C25_63  and  N11_64 
ROOT
HETATM    1  C6  UNL     1      -1.434   1.865  -0.544  1.00  0.00     0.262 C 
HETATM    2  O1  UNL     1      -0.442   2.519  -1.240  1.00  0.00    -0.354 OA
HETATM    3  C7  UNL     1       0.169   1.605  -2.078  1.00  0.00     0.173 C 
HETATM    4  C9  UNL     1       0.142   0.352  -1.264  1.00  0.00     0.147 C 
HETATM    5  C19 UNL     1      -1.372   0.407  -0.942  1.00  0.00     0.199 C 
ENDROOT
BRANCH   4   6
HETATM    6  N6  UNL     1       0.819   0.379  -0.013  1.00  0.00    -0.367 N 
ATOM      7  H6  UNL     1       0.240   0.241   0.815  1.00  0.00     0.161 HD
BRANCH   6   8
HETATM    8  C10 UNL     1       2.207   0.576   0.219  1.00  0.00     0.124 C 
HETATM    9  N7  UNL     1       2.534   1.573   0.963  1.00  0.00    -0.294 N 
ATOM     10  H7  UNL     1       3.533   1.705   1.121  1.00  0.00     0.187 HD
BRANCH   9  11
HETATM   11  N8  UNL     1       1.706   2.476   1.567  1.00  0.00    -0.344 N 
ATOM     12  H82 UNL     1       0.711   2.327   1.397  1.00  0.00     0.176 HD
ATOM     13  H81 UNL     1       1.965   3.267   2.157  1.00  0.00     0.176 HD
ENDBRANCH   9  11
BRANCH   8  14
HETATM   14  C11 UNL     1       3.272  -0.286  -0.328  1.00  0.00     0.224 C 
HETATM   15  O3  UNL     1       4.509   0.157   0.055  1.00  0.00    -0.348 OA
HETATM   16  C12 UNL     1       5.047  -0.686   0.993  1.00  0.00     0.264 C 
HETATM   17  C17 UNL     1       4.298  -1.978   0.977  1.00  0.00     0.199 C 
HETATM   18  C18 UNL     1       3.143  -1.727   0.060  1.00  0.00     0.187 C 
BRANCH  16  19
HETATM   19  N9  UNL     1       6.444  -0.963   0.659  1.00  0.00    -0.280 N 
HETATM   20  C13 UNL     1       6.878  -0.913  -0.623  1.00  0.00     0.104 A 
HETATM   21  C14 UNL     1       8.196  -1.177  -0.916  1.00  0.00     0.092 A 
HETATM   22  C15 UNL     1       9.037  -1.485   0.117  1.00  0.00     0.250 A 
HETATM   23  O4  UNL     1      10.266  -1.737  -0.104  1.00  0.00    -0.268 OA
HETATM   24  N10 UNL     1       8.604  -1.534   1.387  1.00  0.00    -0.275 N 
HETATM   25  C16 UNL     1       7.294  -1.268   1.645  1.00  0.00     0.331 A 
ATOM     26  H10 UNL     1       9.245  -1.766   2.145  1.00  0.00     0.173 HD
HETATM   27  O5  UNL     1       6.933  -1.326   2.866  1.00  0.00    -0.246 OA
ENDBRANCH  16  19
BRANCH  17  28
HETATM   28  O6  UNL     1       3.785  -2.244   2.257  1.00  0.00    -0.388 OA
ATOM     29  H6  UNL     1       3.309  -3.066   2.247  1.00  0.00     0.210 HD
ENDBRANCH  17  28
BRANCH  18  30
HETATM   30  O7  UNL     1       1.935  -2.031   0.671  1.00  0.00    -0.390 OA
ATOM     31  H7  UNL     1       1.853  -2.945   0.917  1.00  0.00     0.210 HD
ENDBRANCH  18  30
ENDBRANCH   8  14
ENDBRANCH   6   8
ENDBRANCH   4   6
BRANCH   3  32
HETATM   32  C8  UNL     1       1.435   2.031  -2.672  1.00  0.00     0.198 C 
BRANCH  32  33
HETATM   33  O2  UNL     1       1.174   3.194  -3.439  1.00  0.00    -0.398 OA
ATOM     34  H2  UNL     1       1.997   3.471  -3.825  1.00  0.00     0.209 HD
ENDBRANCH  32  33
ENDBRANCH   3  32
BRANCH   5  35
HETATM   35  O8  UNL     1      -1.684  -0.347   0.162  1.00  0.00    -0.347 OA
BRANCH  35  36
HETATM   36  C20 UNL     1      -2.686  -1.282  -0.076  1.00  0.00     0.294 C 
HETATM   37  O9  UNL     1      -3.817  -1.065   0.715  1.00  0.00    -0.349 OA
HETATM   38  C21 UNL     1      -4.808  -1.927   0.270  1.00  0.00     0.179 C 
HETATM   39  C23 UNL     1      -4.461  -3.377   0.543  1.00  0.00     0.180 C 
HETATM   40  C24 UNL     1      -3.107  -3.748   0.026  1.00  0.00     0.184 C 
HETATM   41  C25 UNL     1      -2.124  -2.639   0.289  1.00  0.00     0.269 C 
BRANCH  38  42
HETATM   42  C22 UNL     1      -6.136  -1.658   0.966  1.00  0.00     0.198 C 
BRANCH  42  43
HETATM   43  O10 UNL     1      -7.052  -2.586   0.434  1.00  0.00    -0.398 OA
ATOM     44  H10 UNL     1      -7.880  -2.418   0.868  1.00  0.00     0.209 HD
ENDBRANCH  42  43
ENDBRANCH  38  42
BRANCH  39  45
HETATM   45  O11 UNL     1      -4.596  -3.638   1.907  1.00  0.00    -0.390 OA
ATOM     46  H11 UNL     1      -4.379  -4.547   2.078  1.00  0.00     0.210 HD
ENDBRANCH  39  45
BRANCH  40  47
HETATM   47  O12 UNL     1      -2.641  -4.881   0.710  1.00  0.00    -0.391 OA
ATOM     48  H12 UNL     1      -1.781  -5.117   0.382  1.00  0.00     0.210 HD
ENDBRANCH  40  47
BRANCH  41  49
HETATM   49  N11 UNL     1      -1.806  -2.634   1.686  1.00  0.00    -0.068 N 
ATOM     50 3H11 UNL     1      -1.183  -1.869   1.944  1.00  0.00     0.275 HD
ATOM     51 2H11 UNL     1      -2.600  -2.368   2.268  1.00  0.00     0.275 HD
ATOM     52 1H11 UNL     1      -1.427  -3.549   1.932  1.00  0.00     0.275 HD
ENDBRANCH  41  49
ENDBRANCH  35  36
ENDBRANCH   5  35
BRANCH   1  53
HETATM   53  N5  UNL     1      -2.703   2.467  -0.826  1.00  0.00    -0.297 N 
HETATM   54  C3  UNL     1      -3.027   3.691  -0.365  1.00  0.00     0.142 A 
HETATM   55  N3  UNL     1      -2.417   4.627   0.380  1.00  0.00    -0.336 N 
HETATM   56  C4  UNL     1      -4.320   4.023  -0.791  1.00  0.00     0.122 A 
HETATM   57  C2  UNL     1      -2.928   5.800   0.730  1.00  0.00     0.183 A 
ATOM     58  H3  UNL     1      -1.474   4.417   0.707  1.00  0.00     0.168 HD
HETATM   59  N2  UNL     1      -4.185   6.095   0.302  1.00  0.00    -0.337 N 
HETATM   60  C1  UNL     1      -4.878   5.230  -0.445  1.00  0.00     0.131 A 
ATOM     61  H2  UNL     1      -4.605   6.990   0.555  1.00  0.00     0.168 HD
HETATM   62  N1  UNL     1      -6.057   5.538  -0.832  1.00  0.00    -0.383 N 
ATOM     63  H12 UNL     1      -6.471   6.434  -0.575  1.00  0.00     0.157 HD
ATOM     64  H11 UNL     1      -6.586   4.878  -1.402  1.00  0.00     0.157 HD
HETATM   65  N4  UNL     1      -4.719   2.955  -1.506  1.00  0.00    -0.346 N 
HETATM   66  C5  UNL     1      -3.750   2.014  -1.530  1.00  0.00     0.188 A 
ATOM     67  H4  UNL     1      -5.626   2.868  -1.965  1.00  0.00     0.167 HD
ENDBRANCH   1  53
TORSDOF 17
