REMARK  17 active torsions:
REMARK  status: ('A' for Active; 'I' for Inactive)
REMARK    1  A    between atoms: C2_2  and  O2_4 
REMARK    2  A    between atoms: O2_4  and  C3_5 
REMARK    3  A    between atoms: C4_6  and  O3_7 
REMARK    4  A    between atoms: C5_12  and  O4_13 
REMARK    5  A    between atoms: O4_13  and  C6_14 
REMARK    6  A    between atoms: C7_15  and  O5_16 
REMARK    7  A    between atoms: C8_18  and  O6_19 
REMARK    8  A    between atoms: C9_21  and  N2_22 
REMARK    9  A    between atoms: C10_26  and  N3_27 
REMARK   10  A    between atoms: C14_38  and  O9_39 
REMARK   11  A    between atoms: C15_41  and  O10_42 
REMARK   12  A    between atoms: C16_44  and  N6_45 
REMARK   13  A    between atoms: C17_52  and  C18_53 
REMARK   14  A    between atoms: C18_53  and  C19_54 
REMARK   15  A    between atoms: C18_53  and  S2_61 
REMARK   16  A    between atoms: C19_54  and  S1_55 
REMARK   17  A    between atoms: S1_55  and  C20_56 
ROOT
HETATM    1  C3  UNL     1       2.184  -1.494   1.701  1.00  0.00     0.215 C 
HETATM    2  C4  UNL     1       1.204  -0.608   2.412  1.00  0.00     0.353 C 
HETATM    3  N1  UNL     1      -0.128  -0.633   1.880  1.00  0.00    -0.018 N 
ATOM      4  H11 UNL     1      -0.696   0.104   2.297  1.00  0.00     0.283 HD
ATOM      5  H12 UNL     1      -0.635  -1.451   2.218  1.00  0.00     0.283 HD
HETATM    6  C5  UNL     1      -0.179  -0.561   0.434  1.00  0.00     0.355 C 
HETATM    7  C15 UNL     1       1.197  -0.123  -0.050  1.00  0.00     0.202 C 
HETATM    8  C16 UNL     1       2.125  -1.260   0.245  1.00  0.00     0.178 C 
ENDROOT
BRANCH   6   9
HETATM    9  O4  UNL     1      -1.220   0.188  -0.034  1.00  0.00    -0.346 OA
BRANCH   9  10
HETATM   10  C6  UNL     1      -2.155  -0.544  -0.774  1.00  0.00     0.186 C 
HETATM   11  C7  UNL     1      -2.342  -0.112  -2.171  1.00  0.00     0.180 C 
HETATM   12  C8  UNL     1      -3.530   0.746  -2.471  1.00  0.00     0.182 C 
HETATM   13  C9  UNL     1      -4.748   0.114  -1.835  1.00  0.00     0.239 C 
HETATM   14  C10 UNL     1      -4.505   0.269  -0.328  1.00  0.00     0.147 C 
HETATM   15  C14 UNL     1      -3.430  -0.721   0.018  1.00  0.00     0.174 C 
BRANCH  11  16
HETATM   16  O5  UNL     1      -2.415  -1.240  -3.022  1.00  0.00    -0.390 OA
ATOM     17  H5  UNL     1      -2.536  -0.962  -3.922  1.00  0.00     0.210 HD
ENDBRANCH  11  16
BRANCH  12  18
HETATM   18  O6  UNL     1      -3.680   0.794  -3.857  1.00  0.00    -0.391 OA
ATOM     19  H6  UNL     1      -4.434   1.339  -4.048  1.00  0.00     0.210 HD
ENDBRANCH  12  18
BRANCH  13  20
HETATM   20  N2  UNL     1      -5.986   0.681  -2.262  1.00  0.00    -0.070 N 
ATOM     21  H23 UNL     1      -5.988   1.690  -2.114  1.00  0.00     0.274 HD
ATOM     22  H22 UNL     1      -6.059   0.656  -3.279  1.00  0.00     0.274 HD
ATOM     23  H21 UNL     1      -6.807   0.255  -1.833  1.00  0.00     0.274 HD
ENDBRANCH  13  20
BRANCH  14  24
HETATM   24  N3  UNL     1      -5.709  -0.099   0.340  1.00  0.00    -0.362 N 
HETATM   25  C11 UNL     1      -6.580   0.671   0.846  1.00  0.00     0.175 A 
HETATM   26  N4  UNL     1      -7.756   0.180   1.496  1.00  0.00    -0.290 N 
HETATM   27  C13 UNL     1      -6.645   2.109   0.912  1.00  0.00     0.293 A 
HETATM   28  C12 UNL     1      -8.533   1.276   1.956  1.00  0.00     0.328 A 
ATOM     29  H4  UNL     1      -7.999  -0.804   1.611  1.00  0.00     0.172 HD
HETATM   30  O7  UNL     1      -9.634   1.249   2.574  1.00  0.00    -0.247 OA
HETATM   31  N5  UNL     1      -7.838   2.446   1.590  1.00  0.00    -0.272 N 
ATOM     32  H5  UNL     1      -8.150   3.397   1.786  1.00  0.00     0.174 HD
HETATM   33  O8  UNL     1      -5.827   2.935   0.471  1.00  0.00    -0.264 OA
ATOM     34  H3  UNL     1      -5.891  -1.099   0.420  1.00  0.00     0.161 HD
ENDBRANCH  14  24
BRANCH  15  35
HETATM   35  O9  UNL     1      -3.967  -1.994  -0.169  1.00  0.00    -0.391 OA
ATOM     36  H9  UNL     1      -4.768  -2.105   0.329  1.00  0.00     0.210 HD
ENDBRANCH  15  35
ENDBRANCH   9  10
ENDBRANCH   6   9
BRANCH   7  37
HETATM   37  O10 UNL     1       1.138   0.154  -1.423  1.00  0.00    -0.389 OA
ATOM     38  H10 UNL     1       1.996   0.427  -1.725  1.00  0.00     0.210 HD
ENDBRANCH   7  37
BRANCH   2  39
HETATM   39  O3  UNL     1       1.064  -1.018   3.767  1.00  0.00    -0.368 OA
ATOM     40  H3  UNL     1       0.443  -0.457   4.217  1.00  0.00     0.212 HD
ENDBRANCH   2  39
BRANCH   8  41
HETATM   41  N6  UNL     1       3.370  -1.228  -0.464  1.00  0.00    -0.252 N 
HETATM   42  N7  UNL     1       3.749  -2.125  -1.392  1.00  0.00    -0.224 N 
HETATM   43  N8  UNL     1       4.924  -1.851  -1.873  1.00  0.00    -0.227 N 
ATOM     44  H7  UNL     1       3.183  -2.922  -1.682  1.00  0.00     0.210 HD
HETATM   45  N9  UNL     1       5.335  -0.768  -1.266  1.00  0.00    -0.271 N 
ATOM     46  H8  UNL     1       5.428  -2.378  -2.586  1.00  0.00     0.210 HD
HETATM   47  C17 UNL     1       4.390  -0.365  -0.390  1.00  0.00     0.138 A 
ATOM     48  H9  UNL     1       6.228  -0.302  -1.429  1.00  0.00     0.190 HD
BRANCH  47  49
HETATM   49  C18 UNL     1       4.462   0.823   0.503  1.00  0.00     0.210 C 
BRANCH  49  50
HETATM   50  C19 UNL     1       4.433   2.031  -0.453  1.00  0.00     0.113 C 
BRANCH  50  51
HETATM   51  S1  UNL     1       5.854   1.885  -1.532  1.00  0.00    -0.096 SA
BRANCH  51  52
HETATM   52  C20 UNL     1       6.002   3.179  -2.709  1.00  0.00     0.147 C 
HETATM   53  N10 UNL     1       5.143   4.125  -2.749  1.00  0.00    -0.382 N 
ATOM     54 2H10 UNL     1       4.365   4.127  -2.090  1.00  0.00     0.157 HD
ATOM     55 1H10 UNL     1       5.229   4.877  -3.433  1.00  0.00     0.157 HD
HETATM   56  N11 UNL     1       7.073   3.176  -3.616  1.00  0.00    -0.075 NA
ENDBRANCH  51  52
ENDBRANCH  50  51
ENDBRANCH  49  50
BRANCH  49  57
HETATM   57  S2  UNL     1       6.050   0.914   1.321  1.00  0.00     0.114 S 
HETATM   58  O11 UNL     1       7.160   0.677   0.347  1.00  0.00    -0.594 OA
HETATM   59  O12 UNL     1       6.102  -0.102   2.456  1.00  0.00    -0.594 OA
HETATM   60  O13 UNL     1       6.283   2.409   2.035  1.00  0.00    -0.594 OA
ENDBRANCH  49  57
ENDBRANCH  47  49
ENDBRANCH   8  41
BRANCH   1  61
HETATM   61  O2  UNL     1       2.094  -2.843   2.086  1.00  0.00    -0.310 OA
BRANCH  61  62
HETATM   62  C2  UNL     1       3.057  -3.557   2.744  1.00  0.00     0.255 C 
HETATM   63  C1  UNL     1       2.881  -4.977   3.113  1.00  0.00     0.126 C 
HETATM   64  O1  UNL     1       4.126  -2.980   3.042  1.00  0.00    -0.266 OA
ENDBRANCH  61  62
ENDBRANCH   1  61
TORSDOF 17
