REMARK  15 active torsions:
REMARK  status: ('A' for Active; 'I' for Inactive)
REMARK    1  A    between atoms: N1_1  and  C1_4 
REMARK    2  A    between atoms: C2_7  and  C3_8 
REMARK    3  A    between atoms: N3_10  and  C5_11 
REMARK    4  A    between atoms: C6_13  and  C7_14 
REMARK    5  A    between atoms: C7_14  and  O2_15 
REMARK    6  A    between atoms: C8_17  and  O3_18 
REMARK    7  A    between atoms: C9_20  and  O4_21 
REMARK    8  A    between atoms: C10_23  and  O5_24 
REMARK    9  A    between atoms: N6_34  and  C13_35 
REMARK   10  A    between atoms: C13_35  and  C14_36 
REMARK   11  A    between atoms: C15_38  and  N7_39 
REMARK   12  A    between atoms: C17_44  and  N9_45 
REMARK   13  A    between atoms: C18_51  and  C19_52 
REMARK   14  A    between atoms: C19_52  and  C20_53 
REMARK   15  A    between atoms: C22_59  and  O11_60 
ROOT
HETATM    1  C1  UNL     1       0.544   1.401  -1.122  1.00  0.00     0.694 A 
HETATM    2  N2  UNL     1      -0.717   1.122  -0.752  1.00  0.00    -0.173 N 
ATOM      3  H2  UNL     1      -1.123   1.299   0.167  1.00  0.00     0.186 HD
HETATM    4  C2  UNL     1      -1.362   0.560  -1.818  1.00  0.00     0.153 A 
HETATM    5  N5  UNL     1      -0.439   0.530  -2.791  1.00  0.00    -0.268 N 
ATOM      6  H5  UNL     1      -0.612   0.162  -3.727  1.00  0.00     0.189 HD
HETATM    7  N6  UNL     1       0.723   1.032  -2.399  1.00  0.00    -0.119 N 
ENDROOT
BRANCH   7   8
HETATM    8  C13 UNL     1       1.938   1.123  -3.232  1.00  0.00     0.210 C 
BRANCH   8   9
HETATM    9  C14 UNL     1       2.656  -0.198  -3.076  1.00  0.00     0.236 C 
HETATM   10  O8  UNL     1       3.026  -0.489  -1.812  1.00  0.00    -0.345 OA
HETATM   11  C15 UNL     1       4.311  -0.288  -1.404  1.00  0.00     0.300 C 
HETATM   12  C22 UNL     1       5.375  -0.905  -2.251  1.00  0.00     0.270 C 
HETATM   13  N14 UNL     1       4.904  -1.093  -3.605  1.00  0.00    -0.329 N 
HETATM   14  C23 UNL     1       3.756  -0.390  -4.017  1.00  0.00     0.250 C 
ATOM     15  H14 UNL     1       5.391  -1.719  -4.246  1.00  0.00     0.165 HD
HETATM   16  O12 UNL     1       3.681   0.064  -5.180  1.00  0.00    -0.271 OA
BRANCH  11  17
HETATM   17  N7  UNL     1       4.373  -0.782  -0.018  1.00  0.00    -0.097 N 
HETATM   18  C16 UNL     1       3.369  -1.507   0.505  1.00  0.00     0.357 A 
HETATM   19  O9  UNL     1       2.379  -1.749  -0.226  1.00  0.00    -0.245 OA
HETATM   20  N8  UNL     1       3.397  -1.970   1.768  1.00  0.00    -0.139 N 
HETATM   21  C17 UNL     1       4.448  -1.714   2.548  1.00  0.00     0.716 A 
ATOM     22  H8  UNL     1       2.615  -2.516   2.129  1.00  0.00     0.189 HD
HETATM   23  N10 UNL     1       5.460  -0.998   2.061  1.00  0.00     0.092 N 
HETATM   24  N11 UNL     1       6.589  -0.601   2.573  1.00  0.00    -0.252 N 
HETATM   25  C21 UNL     1       5.420  -0.532   0.778  1.00  0.00     0.728 A 
HETATM   26  C18 UNL     1       7.297   0.112   1.670  1.00  0.00     0.121 A 
ATOM     27  H11 UNL     1       6.897  -0.801   3.525  1.00  0.00     0.190 HD
HETATM   28  N13 UNL     1       6.560   0.147   0.560  1.00  0.00    -0.176 N 
ATOM     29  H13 UNL     1       6.818   0.612  -0.311  1.00  0.00     0.185 HD
BRANCH  21  30
HETATM   30  N9  UNL     1       4.450  -2.176   3.773  1.00  0.00    -0.232 N 
ATOM     31  H92 UNL     1       3.675  -2.724   4.146  1.00  0.00     0.174 HD
ATOM     32  H91 UNL     1       5.254  -1.980   4.370  1.00  0.00     0.174 HD
ENDBRANCH  21  30
BRANCH  26  33
HETATM   33  C19 UNL     1       8.621   0.694   1.951  1.00  0.00     0.177 C 
BRANCH  33  34
HETATM   34  C20 UNL     1       8.426   2.052   2.520  1.00  0.00     0.238 C 
HETATM   35  N12 UNL     1       9.583   2.796   2.873  1.00  0.00    -0.062 NA
HETATM   36  O10 UNL     1       7.258   2.521   2.679  1.00  0.00    -0.276 OA
ENDBRANCH  33  34
ENDBRANCH  26  33
ENDBRANCH  11  17
BRANCH  12  37
HETATM   37  O11 UNL     1       6.493  -0.038  -2.402  1.00  0.00    -0.372 OA
ATOM     38  H11 UNL     1       7.170  -0.430  -2.941  1.00  0.00     0.212 HD
ENDBRANCH  12  37
ENDBRANCH   8   9
ENDBRANCH   7   8
BRANCH   1  39
HETATM   39  N1  UNL     1       1.465   1.944  -0.395  1.00  0.00    -0.233 N 
ATOM     40  H12 UNL     1       1.329   2.225   0.576  1.00  0.00     0.174 HD
ATOM     41  H11 UNL     1       2.422   2.156  -0.676  1.00  0.00     0.174 HD
ENDBRANCH   1  39
BRANCH   4  42
HETATM   42  C3  UNL     1      -2.744   0.106  -1.854  1.00  0.00     0.094 A 
HETATM   43  C4  UNL     1      -3.567   0.220  -0.761  1.00  0.00     0.119 A 
HETATM   44  N3  UNL     1      -4.861  -0.222  -0.833  1.00  0.00    -0.279 N 
HETATM   45  C11 UNL     1      -5.328  -0.765  -1.965  1.00  0.00     0.331 A 
HETATM   46  O6  UNL     1      -6.514  -1.173  -2.040  1.00  0.00    -0.246 OA
HETATM   47  N4  UNL     1      -4.546  -0.892  -3.058  1.00  0.00    -0.274 N 
HETATM   48  C12 UNL     1      -3.255  -0.455  -2.997  1.00  0.00     0.264 A 
ATOM     49  H4  UNL     1      -4.914  -1.307  -3.914  1.00  0.00     0.173 HD
HETATM   50  O7  UNL     1      -2.497  -0.557  -3.994  1.00  0.00    -0.267 OA
BRANCH  44  51
HETATM   51  C5  UNL     1      -5.701  -0.092   0.325  1.00  0.00     0.264 C 
HETATM   52  O1  UNL     1      -6.820  -0.885   0.188  1.00  0.00    -0.353 OA
HETATM   53  C6  UNL     1      -7.557  -0.999   1.351  1.00  0.00     0.179 C 
HETATM   54  C8  UNL     1      -7.833   0.251   2.069  1.00  0.00     0.180 C 
HETATM   55  C9  UNL     1      -6.929   1.406   1.792  1.00  0.00     0.182 C 
HETATM   56  C10 UNL     1      -6.217   1.331   0.474  1.00  0.00     0.198 C 
BRANCH  53  57
HETATM   57  C7  UNL     1      -6.897  -2.071   2.200  1.00  0.00     0.198 C 
BRANCH  57  58
HETATM   58  O2  UNL     1      -7.561  -2.274   3.405  1.00  0.00    -0.398 OA
ATOM     59  H2  UNL     1      -7.148  -2.945   3.936  1.00  0.00     0.209 HD
ENDBRANCH  57  58
ENDBRANCH  53  57
BRANCH  54  60
HETATM   60  O3  UNL     1      -9.156   0.697   1.880  1.00  0.00    -0.390 OA
ATOM     61  H3  UNL     1      -9.335   1.506   2.345  1.00  0.00     0.210 HD
ENDBRANCH  54  60
BRANCH  55  62
HETATM   62  O4  UNL     1      -5.931   1.522   2.786  1.00  0.00    -0.390 OA
ATOM     63  H4  UNL     1      -5.356   2.257   2.610  1.00  0.00     0.210 HD
ENDBRANCH  55  62
BRANCH  56  64
HETATM   64  O5  UNL     1      -7.152   1.557  -0.551  1.00  0.00    -0.388 OA
ATOM     65  H5  UNL     1      -7.474   2.446  -0.458  1.00  0.00     0.210 HD
ENDBRANCH  56  64
ENDBRANCH  44  51
ENDBRANCH   4  42
TORSDOF 15
