REMARK  2 active torsions:
REMARK  status: ('A' for Active; 'I' for Inactive)
REMARK    1  A    between atoms: C3_3  and  C4_4 
REMARK    2  A    between atoms: C4_4  and  N1_7 
REMARK       I    between atoms: N1_7  and  C7_9 
REMARK       I    between atoms: C7_9  and  N2_11 
ROOT
HETATM    1  C1  UNL     1       5.707   1.612   1.118  1.00  0.00     0.112 C 
HETATM    2  C2  UNL     1       4.611   0.769   0.634  1.00  0.00    -0.108 C 
HETATM    3  C3  UNL     1       3.705   0.063   0.214  1.00  0.00    -0.076 C 
ENDROOT
BRANCH   3   4
HETATM    4  C4  UNL     1       2.631  -0.778  -0.312  1.00  0.00     0.091 C 
HETATM    5  C5  UNL     1       2.881  -1.102  -1.784  1.00  0.00     0.053 C 
HETATM    6  C6  UNL     1       2.684  -2.100   0.439  1.00  0.00     0.053 C 
BRANCH   4   7
HETATM    7  N1  UNL     1       1.361  -0.151  -0.111  1.00  0.00    -0.324 N 
HETATM    8  C7  UNL     1       0.124  -0.728  -0.517  1.00  0.00     0.320 C 
HETATM    9  O1  UNL     1       0.089  -1.861  -1.096  1.00  0.00    -0.247 OA
HETATM   10  N2  UNL     1      -1.118  -0.081  -0.303  1.00  0.00    -0.328 N 
HETATM   11  C8  UNL     1      -0.978   1.198   0.359  1.00  0.00     0.158 C 
HETATM   12  C12 UNL     1      -2.287  -0.789  -0.770  1.00  0.00     0.092 C 
HETATM   13  C9  UNL     1      -2.255   1.951   0.510  1.00  0.00     0.292 C 
HETATM   14  N3  UNL     1      -3.445   1.182   0.431  1.00  0.00     0.090 N 
HETATM   15  C10 UNL     1      -3.941   0.985  -0.905  1.00  0.00     0.274 C 
HETATM   16  C14 UNL     1      -3.456   0.001   1.236  1.00  0.00     0.274 C 
HETATM   17  C11 UNL     1      -3.074   0.055  -1.716  1.00  0.00     0.055 C 
HETATM   18  C13 UNL     1      -3.185  -1.213   0.373  1.00  0.00     0.055 C 
ATOM     19  H1  UNL     1       1.340   0.759   0.348  1.00  0.00     0.166 HD
ENDBRANCH   4   7
ENDBRANCH   3   4
TORSDOF 2
