REMARK  5 active torsions:
REMARK  status: ('A' for Active; 'I' for Inactive)
REMARK    1  A    between atoms: C4_4  and  C5_5 
REMARK    2  A    between atoms: C6_6  and  C7_7 
REMARK    3  A    between atoms: C7_7  and  N1_8 
REMARK    4  A    between atoms: C7_7  and  C8_13 
REMARK    5  A    between atoms: C9_14  and  C10_15 
ROOT
HETATM    1  C1  UNL     1       8.463  -1.461   0.461  1.00  0.00     0.027 C 
HETATM    2  C2  UNL     1       7.287  -1.293   0.250  1.00  0.00    -0.025 C 
HETATM    3  C3  UNL     1       5.910  -1.085   0.012  1.00  0.00    -0.002 C 
HETATM    4  C4  UNL     1       4.735  -0.898  -0.172  1.00  0.00    -0.001 C 
ENDROOT
BRANCH   4   5
HETATM    5  C5  UNL     1       3.361  -0.674  -0.363  1.00  0.00    -0.007 C 
HETATM    6  C6  UNL     1       2.159  -0.473  -0.507  1.00  0.00    -0.032 C 
BRANCH   6   7
HETATM    7  C7  UNL     1       0.733  -0.213  -0.659  1.00  0.00     0.119 C 
BRANCH   7   8
HETATM    8  N1  UNL     1       0.269  -0.128  -1.800  1.00  0.00    -0.298 N 
HETATM    9  N2  UNL     1       0.205  -0.214  -3.069  1.00  0.00    -0.344 N 
ATOM     10  H22 UNL     1       1.137  -0.600  -3.220  1.00  0.00     0.176 HD
ATOM     11  H21 UNL     1      -0.178  -0.144  -4.012  1.00  0.00     0.176 HD
ATOM     12  H1  UNL     1      -0.653   0.258  -1.595  1.00  0.00     0.187 HD
ENDBRANCH   7   8
BRANCH   7  13
HETATM   13  C8  UNL     1      -0.056  -0.054   0.538  1.00  0.00     0.095 A 
HETATM   14  C9  UNL     1      -1.394   0.219   0.726  1.00  0.00     0.052 A 
HETATM   15  N3  UNL     1      -1.575   0.201   2.086  1.00  0.00    -0.300 N 
HETATM   16  N4  UNL     1      -0.466  -0.055   2.697  1.00  0.00    -0.266 N 
ATOM     17  H3  UNL     1      -2.467   0.368   2.553  1.00  0.00     0.186 HD
HETATM   18  C14 UNL     1       0.511  -0.223   1.820  1.00  0.00     0.275 A 
ATOM     19  H4  UNL     1      -0.359  -0.119   3.709  1.00  0.00     0.190 HD
HETATM   20  O1  UNL     1       1.724  -0.487   2.112  1.00  0.00    -0.266 OA
BRANCH  14  21
HETATM   21  C10 UNL     1      -2.426   0.506  -0.268  1.00  0.00    -0.006 C 
HETATM   22  C11 UNL     1      -2.219   1.711  -1.120  1.00  0.00     0.021 C 
HETATM   23  C12 UNL     1      -2.828  -0.668  -1.126  1.00  0.00     0.021 C 
HETATM   24  C13 UNL     1      -3.713   0.846   0.559  1.00  0.00     0.021 C 
ENDBRANCH  14  21
ENDBRANCH   7  13
ENDBRANCH   6   7
ENDBRANCH   4   5
TORSDOF 5
