REMARK  2 active torsions:
REMARK  status: ('A' for Active; 'I' for Inactive)
REMARK    1  A    between atoms: N1_1  and  N2_4 
REMARK       I    between atoms: C1_6  and  N4_8 
REMARK    2  A    between atoms: C6_13  and  C7_14 
ROOT
HETATM    1  N2  UNL     1       3.389   1.567  -0.809  1.00  0.00    -0.280 N 
ATOM      2  H2  UNL     1       2.710   2.272  -0.522  1.00  0.00     0.189 HD
HETATM    3  C1  UNL     1       3.324   0.379  -0.328  1.00  0.00     0.205 C 
HETATM    4  N3  UNL     1       4.320  -0.539  -0.791  1.00  0.00    -0.062 NA
HETATM    5  N4  UNL     1       2.331   0.016   0.596  1.00  0.00    -0.349 N 
HETATM    6  C2  UNL     1       1.588   0.868   1.500  1.00  0.00     0.131 C 
HETATM    7  C3  UNL     1       0.794  -0.195   2.215  1.00  0.00     0.012 C 
HETATM    8  C4  UNL     1       1.883  -1.264   2.411  1.00  0.00     0.032 C 
HETATM    9  C5  UNL     1       1.809  -1.286   0.870  1.00  0.00     0.092 C 
HETATM   10  C6  UNL     1       0.328  -1.089   1.095  1.00  0.00     0.019 C 
ENDROOT
BRANCH  10  11
HETATM   11  C7  UNL     1      -0.425  -0.431  -0.007  1.00  0.00    -0.003 A 
HETATM   12  C8  UNL     1      -0.847  -1.392  -1.071  1.00  0.00     0.010 A 
HETATM   13  C9  UNL     1      -2.300  -1.249  -0.671  1.00  0.00    -0.009 A 
HETATM   14  C10 UNL     1      -3.205  -0.701  -1.723  1.00  0.00     0.010 C 
HETATM   15  C15 UNL     1      -1.885  -0.271   0.371  1.00  0.00    -0.002 A 
HETATM   16  C11 UNL     1      -3.534   0.745  -1.551  1.00  0.00    -0.013 C 
HETATM   17  C12 UNL     1      -2.296   1.585  -1.257  1.00  0.00     0.010 C 
HETATM   18  C14 UNL     1      -3.942   1.031  -0.098  1.00  0.00     0.010 C 
HETATM   19  C13 UNL     1      -2.440   1.112   0.175  1.00  0.00    -0.009 C 
ENDBRANCH  10  11
BRANCH   1  20
HETATM   20  N1  UNL     1       4.384   1.892  -1.720  1.00  0.00    -0.343 N 
ATOM     21  H12 UNL     1       5.055   1.176  -1.997  1.00  0.00     0.176 HD
ATOM     22  H11 UNL     1       4.436   2.836  -2.102  1.00  0.00     0.176 HD
ENDBRANCH   1  20
TORSDOF 2
