REMARK  0 active torsions:
REMARK  status: ('A' for Active; 'I' for Inactive)
REMARK       I    between atoms: N2_11  and  C10_12 
ROOT
HETATM    1  C1  UNL     1      -3.593   0.499  -1.327  1.00  0.00     0.272 C 
HETATM    2  N1  UNL     1      -2.994   0.225  -0.032  1.00  0.00    -0.075 N 
HETATM    3  C2  UNL     1      -4.123  -0.161   0.842  1.00  0.00     0.272 C 
HETATM    4  C3  UNL     1      -2.480   1.409   0.542  1.00  0.00     0.236 C 
HETATM    5  C4  UNL     1      -1.615   2.266  -0.310  1.00  0.00     0.028 C 
HETATM    6  C5  UNL     1      -0.344   1.646  -0.774  1.00  0.00     0.002 C 
HETATM    7  C6  UNL     1       0.383   0.999   0.350  1.00  0.00     0.010 C 
HETATM    8  C7  UNL     1       0.305  -0.494   0.382  1.00  0.00    -0.036 C 
HETATM    9  C8  UNL     1       1.253  -0.930   1.516  1.00  0.00     0.029 C 
HETATM   10  C9  UNL     1       2.654  -0.490   1.291  1.00  0.00     0.126 C 
HETATM   11  N2  UNL     1       3.120  -0.716  -0.062  1.00  0.00    -0.356 N 
HETATM   12  C10 UNL     1       4.511  -0.821  -0.266  1.00  0.00     0.183 C 
HETATM   13  N3  UNL     1       5.149  -1.845   0.156  1.00  0.00    -0.374 N 
ATOM     14  H31 UNL     1       6.155  -1.921   0.008  1.00  0.00     0.158 HD
ATOM     15  H32 UNL     1       4.655  -2.592   0.644  1.00  0.00     0.158 HD
HETATM   16  N4  UNL     1       5.194   0.211  -0.940  1.00  0.00    -0.064 NA
HETATM   17  C11 UNL     1       2.241  -0.835  -1.176  1.00  0.00     0.126 C 
HETATM   18  C12 UNL     1       0.826  -1.151  -0.858  1.00  0.00     0.029 C 
HETATM   19  C13 UNL     1      -1.031  -1.042   0.784  1.00  0.00     0.037 C 
HETATM   20  C14 UNL     1      -2.138  -0.888  -0.160  1.00  0.00     0.237 C 
ENDROOT
TORSDOF 0
