REMARK  7 active torsions:
REMARK  status: ('A' for Active; 'I' for Inactive)
REMARK    1  A    between atoms: N1_1  and  C1_5 
REMARK    2  A    between atoms: C1_5  and  C2_6 
REMARK    3  A    between atoms: C2_6  and  C3_7 
REMARK    4  A    between atoms: C3_7  and  N2_8 
REMARK    5  A    between atoms: N2_8  and  C4_10 
REMARK    6  A    between atoms: C4_10  and  C5_11 
REMARK    7  A    between atoms: C7_13  and  N3_14 
ROOT
HETATM    1  C5  UNL     1      -1.164  -0.103   0.229  1.00  0.00     0.205 C 
HETATM    2  C6  UNL     1      -1.857  -0.634  -0.994  1.00  0.00     0.067 C 
HETATM    3  C7  UNL     1      -3.306  -0.192  -1.063  1.00  0.00     0.187 C 
HETATM    4  C8  UNL     1      -4.008  -0.306   0.273  1.00  0.00     0.060 C 
HETATM    5  C9  UNL     1      -3.136   0.175   1.420  1.00  0.00     0.235 C 
HETATM    6  N4  UNL     1      -2.018   0.900   0.827  1.00  0.00    -0.069 N 
ATOM      7  H41 UNL     1      -2.306   1.630   0.175  1.00  0.00     0.277 HD
ATOM      8  H42 UNL     1      -1.532   1.508   1.486  1.00  0.00     0.277 HD
ENDROOT
BRANCH   1   9
HETATM    9  C4  UNL     1       0.241   0.403  -0.043  1.00  0.00     0.146 C 
BRANCH   9  10
HETATM   10  N2  UNL     1       1.007  -0.689  -0.552  1.00  0.00    -0.419 N 
ATOM     11  H2  UNL     1       0.599  -1.612  -0.699  1.00  0.00     0.153 HD
BRANCH  10  12
HETATM   12  C3  UNL     1       2.374  -0.415  -0.843  1.00  0.00     0.115 C 
BRANCH  12  13
HETATM   13  C2  UNL     1       3.202  -0.150   0.394  1.00  0.00     0.046 C 
BRANCH  13  14
HETATM   14  C1  UNL     1       4.650   0.127  -0.009  1.00  0.00     0.231 C 
BRANCH  14  15
HETATM   15  N1  UNL     1       5.472   0.387   1.139  1.00  0.00    -0.079 N 
ATOM     16  H13 UNL     1       5.091   1.143   1.708  1.00  0.00     0.274 HD
ATOM     17  H12 UNL     1       5.412  -0.369   1.821  1.00  0.00     0.274 HD
ATOM     18  H11 UNL     1       6.438   0.572   0.870  1.00  0.00     0.274 HD
ENDBRANCH  14  15
ENDBRANCH  13  14
ENDBRANCH  12  13
ENDBRANCH  10  12
ENDBRANCH   9  10
ENDBRANCH   1   9
BRANCH   3  19
HETATM   19  N3  UNL     1      -3.422   1.142  -1.609  1.00  0.00    -0.075 N 
ATOM     20  H33 UNL     1      -2.851   1.810  -1.091  1.00  0.00     0.274 HD
ATOM     21  H32 UNL     1      -2.964   1.216  -2.517  1.00  0.00     0.274 HD
ATOM     22  H31 UNL     1      -4.397   1.439  -1.655  1.00  0.00     0.274 HD
ENDBRANCH   3  19
TORSDOF 7
