REMARK  7 active torsions:
REMARK  status: ('A' for Active; 'I' for Inactive)
REMARK    1  A    between atoms: C2_2  and  O1_3 
REMARK    2  A    between atoms: O1_3  and  C3_4 
REMARK    3  A    between atoms: C3_4  and  C4_5 
REMARK    4  A    between atoms: C4_5  and  C5_6 
REMARK    5  A    between atoms: C5_6  and  N1_7 
REMARK    6  A    between atoms: N1_7  and  C6_9 
REMARK    7  A    between atoms: C7_14  and  N4_15 
ROOT
HETATM    1  C6  UNL     1      -2.112  -1.037  -0.520  1.00  0.00     0.707 A 
HETATM    2  N2  UNL     1      -2.996  -0.990  -1.532  1.00  0.00    -0.117 N 
ATOM      3  H2  UNL     1      -2.919  -1.527  -2.396  1.00  0.00     0.206 HD
HETATM    4  N3  UNL     1      -3.972  -0.157  -1.254  1.00  0.00    -0.118 N 
ATOM      5  H3  UNL     1      -4.772   0.066  -1.846  1.00  0.00     0.206 HD
HETATM    6  C7  UNL     1      -3.710   0.343  -0.037  1.00  0.00     0.705 A 
HETATM    7  N5  UNL     1      -2.569  -0.192   0.422  1.00  0.00    -0.020 N 
ATOM      8  H5  UNL     1      -2.128   0.006   1.321  1.00  0.00     0.203 HD
ENDROOT
BRANCH   1   9
HETATM    9  N1  UNL     1      -1.021  -1.763  -0.465  1.00  0.00    -0.224 N 
ATOM     10  H1  UNL     1      -0.776  -2.370  -1.247  1.00  0.00     0.177 HD
BRANCH   9  11
HETATM   11  C5  UNL     1      -0.163  -1.706   0.701  1.00  0.00     0.140 C 
BRANCH  11  12
HETATM   12  C4  UNL     1       0.737  -0.496   0.654  1.00  0.00     0.046 C 
BRANCH  12  13
HETATM   13  C3  UNL     1       1.632  -0.486  -0.546  1.00  0.00     0.169 C 
BRANCH  13  14
HETATM   14  O1  UNL     1       2.443   0.609  -0.589  1.00  0.00    -0.391 OA
BRANCH  14  15
HETATM   15  C2  UNL     1       3.304   0.784   0.452  1.00  0.00     0.163 C 
HETATM   16  C1  UNL     1       4.108   2.057   0.196  1.00  0.00     0.033 C 
ENDBRANCH  14  15
ENDBRANCH  13  14
ENDBRANCH  12  13
ENDBRANCH  11  12
ENDBRANCH   9  11
ENDBRANCH   1   9
BRANCH   6  17
HETATM   17  N4  UNL     1      -4.444   1.194   0.573  1.00  0.00    -0.233 N 
ATOM     18  H42 UNL     1      -5.312   1.601   0.224  1.00  0.00     0.174 HD
ATOM     19  H41 UNL     1      -4.245   1.574   1.498  1.00  0.00     0.174 HD
ENDBRANCH   6  17
TORSDOF 7
