REMARK  6 active torsions:
REMARK  status: ('A' for Active; 'I' for Inactive)
REMARK    1  A    between atoms: N1_1  and  C1_5 
REMARK    2  A    between atoms: C1_5  and  C2_6 
REMARK    3  A    between atoms: C2_6  and  N2_7 
REMARK    4  A    between atoms: N2_7  and  C3_10 
REMARK    5  A    between atoms: C3_10  and  C4_11 
REMARK    6  A    between atoms: C4_11  and  N3_12 
ROOT
HETATM    1  C4  UNL     1      -0.859   1.004  -0.623  1.00  0.00     0.200 C 
HETATM    2  C5  UNL     1      -1.545   1.135  -1.987  1.00  0.00     0.223 C 
HETATM    3  O1  UNL     1      -1.926  -0.225  -2.188  1.00  0.00    -0.332 OA
HETATM    4  C6  UNL     1      -2.415  -0.655  -0.927  1.00  0.00     0.151 A 
HETATM    5  N4  UNL     1      -3.262  -1.507  -0.336  1.00  0.00    -0.346 N 
ATOM      6  H4  UNL     1      -3.862  -2.171  -0.825  1.00  0.00     0.167 HD
HETATM    7  C7  UNL     1      -3.203  -1.356   0.994  1.00  0.00     0.091 A 
HETATM    8  C8  UNL     1      -2.287  -0.371   1.273  1.00  0.00     0.031 A 
HETATM    9  C9  UNL     1      -1.795   0.066   0.060  1.00  0.00     0.034 A 
ENDROOT
BRANCH   1  10
HETATM   10  C3  UNL     1       0.453   0.315  -0.867  1.00  0.00     0.278 C 
BRANCH  10  11
HETATM   11  N2  UNL     1       1.201   0.060   0.343  1.00  0.00    -0.071 N 
ATOM     12  H22 UNL     1       0.669  -0.443   1.053  1.00  0.00     0.277 HD
ATOM     13  H21 UNL     1       1.381   0.898   0.895  1.00  0.00     0.277 HD
BRANCH  11  14
HETATM   14  C2  UNL     1       2.417  -0.635  -0.077  1.00  0.00     0.259 C 
BRANCH  14  15
HETATM   15  C1  UNL     1       3.336  -0.902   1.094  1.00  0.00     0.257 C 
BRANCH  15  16
HETATM   16  N1  UNL     1       3.768   0.321   1.747  1.00  0.00    -0.078 N 
ATOM     17  H13 UNL     1       4.198   0.962   1.080  1.00  0.00     0.274 HD
ATOM     18  H12 UNL     1       2.969   0.890   2.028  1.00  0.00     0.274 HD
ATOM     19  H11 UNL     1       4.388   0.141   2.537  1.00  0.00     0.274 HD
ENDBRANCH  15  16
ENDBRANCH  14  15
ENDBRANCH  11  14
ENDBRANCH  10  11
ENDBRANCH   1  10
BRANCH   1  20
HETATM   20  N3  UNL     1      -0.724   2.272   0.017  1.00  0.00    -0.062 N 
ATOM     21  H33 UNL     1      -0.195   2.184   0.885  1.00  0.00     0.275 HD
ATOM     22  H32 UNL     1      -0.091   2.876  -0.507  1.00  0.00     0.275 HD
ATOM     23  H31 UNL     1      -1.615   2.740   0.183  1.00  0.00     0.275 HD
ENDBRANCH   1  20
TORSDOF 6
