REMARK  8 active torsions:
REMARK  status: ('A' for Active; 'I' for Inactive)
REMARK    1  A    between atoms: N1_1  and  C1_5 
REMARK    2  A    between atoms: C1_5  and  C2_6 
REMARK    3  A    between atoms: C2_6  and  N2_7 
REMARK    4  A    between atoms: N2_7  and  C3_10 
REMARK    5  A    between atoms: C3_10  and  C4_11 
REMARK    6  A    between atoms: C8_15  and  N3_16 
REMARK    7  A    between atoms: C8_15  and  C9_20 
REMARK    8  A    between atoms: C9_20  and  N4_21 
ROOT
HETATM    1  C4  UNL     1      -0.596   0.879   0.343  1.00  0.00     0.054 C 
HETATM    2  C5  UNL     1      -1.214   1.333   1.648  1.00  0.00     0.001 A 
HETATM    3  C6  UNL     1      -2.470   1.961   1.906  1.00  0.00     0.013 A 
HETATM    4  C7  UNL     1      -2.486   1.213   0.700  1.00  0.00     0.028 A 
HETATM    5  C8  UNL     1      -1.761  -0.052   0.309  1.00  0.00     0.156 C 
ENDROOT
BRANCH   1   6
HETATM    6  C3  UNL     1       0.781   0.391   0.558  1.00  0.00     0.239 C 
BRANCH   6   7
HETATM    7  N2  UNL     1       1.485  -0.084  -0.613  1.00  0.00    -0.073 N 
ATOM      8  H22 UNL     1       1.339   0.515  -1.426  1.00  0.00     0.277 HD
ATOM      9  H21 UNL     1       1.078  -0.939  -0.993  1.00  0.00     0.277 HD
BRANCH   7  10
HETATM   10  C2  UNL     1       2.895  -0.238  -0.281  1.00  0.00     0.259 C 
BRANCH  10  11
HETATM   11  C1  UNL     1       3.728  -0.797  -1.382  1.00  0.00     0.257 C 
BRANCH  11  12
HETATM   12  N1  UNL     1       5.127  -0.820  -0.906  1.00  0.00    -0.078 N 
ATOM     13  H13 UNL     1       5.453   0.090  -0.582  1.00  0.00     0.274 HD
ATOM     14  H12 UNL     1       5.241  -1.322  -0.025  1.00  0.00     0.274 HD
ATOM     15  H11 UNL     1       5.697  -1.203  -1.660  1.00  0.00     0.274 HD
ENDBRANCH  11  12
ENDBRANCH  10  11
ENDBRANCH   7  10
ENDBRANCH   6   7
ENDBRANCH   1   6
BRANCH   5  16
HETATM   16  N3  UNL     1      -1.832  -1.160   1.194  1.00  0.00    -0.068 N 
ATOM     17  H33 UNL     1      -0.981  -1.711   1.082  1.00  0.00     0.275 HD
ATOM     18  H32 UNL     1      -1.731  -0.812   2.148  1.00  0.00     0.275 HD
ATOM     19  H31 UNL     1      -2.629  -1.797   1.171  1.00  0.00     0.275 HD
ENDBRANCH   5  16
BRANCH   5  20
HETATM   20  C9  UNL     1      -2.179  -0.500  -1.105  1.00  0.00     0.269 C 
BRANCH  20  21
HETATM   21  N4  UNL     1      -3.313  -1.390  -0.914  1.00  0.00    -0.077 N 
ATOM     22  H43 UNL     1      -3.123  -2.165  -0.279  1.00  0.00     0.274 HD
ATOM     23  H42 UNL     1      -4.073  -0.975  -0.375  1.00  0.00     0.274 HD
ATOM     24  H41 UNL     1      -3.590  -1.687  -1.850  1.00  0.00     0.274 HD
ENDBRANCH  20  21
ENDBRANCH   5  20
TORSDOF 8
