REMARK  6 active torsions:
REMARK  status: ('A' for Active; 'I' for Inactive)
REMARK    1  A    between atoms: C5_9  and  C6_10 
REMARK    2  A    between atoms: C6_10  and  N3_11 
REMARK    3  A    between atoms: N3_11  and  C7_14 
REMARK    4  A    between atoms: C7_14  and  C8_15 
REMARK    5  A    between atoms: C8_15  and  C9_16 
REMARK    6  A    between atoms: C9_16  and  N4_17 
ROOT
HETATM    1  C6  UNL     1      -0.042  -1.201  -0.997  1.00  0.00     0.269 C 
ENDROOT
BRANCH   1   2
HETATM    2  C5  UNL     1      -1.085  -0.222  -0.602  1.00  0.00     0.273 C 
HETATM    3  N1  UNL     1      -1.600  -0.406   0.725  1.00  0.00     0.093 N 
HETATM    4  C1  UNL     1      -2.209  -1.699   0.933  1.00  0.00     0.310 C 
HETATM    5  C2  UNL     1      -2.508   0.664   1.061  1.00  0.00     0.300 C 
HETATM    6  C3  UNL     1      -3.548   0.937   0.001  1.00  0.00     0.262 C 
HETATM    7  N2  UNL     1      -2.874   1.189  -1.245  1.00  0.00    -0.071 N 
HETATM    8  C4  UNL     1      -2.203  -0.060  -1.604  1.00  0.00     0.269 C 
ATOM      9  H22 UNL     1      -3.491   1.543  -1.976  1.00  0.00     0.277 HD
ATOM     10  H21 UNL     1      -2.246   1.992  -1.212  1.00  0.00     0.277 HD
ENDBRANCH   1   2
BRANCH   1  11
HETATM   11  N3  UNL     1       1.131  -1.169  -0.160  1.00  0.00    -0.073 N 
ATOM     12  H32 UNL     1       0.886  -1.310   0.820  1.00  0.00     0.277 HD
ATOM     13  H31 UNL     1       1.708  -1.997  -0.306  1.00  0.00     0.277 HD
BRANCH  11  14
HETATM   14  C7  UNL     1       1.906   0.041  -0.332  1.00  0.00     0.234 C 
BRANCH  14  15
HETATM   15  C8  UNL     1       3.081   0.005   0.617  1.00  0.00     0.055 C 
BRANCH  15  16
HETATM   16  C9  UNL     1       3.926   1.264   0.461  1.00  0.00     0.231 C 
BRANCH  16  17
HETATM   17  N4  UNL     1       5.048   1.252   1.365  1.00  0.00    -0.079 N 
ATOM     18  H43 UNL     1       4.750   1.117   2.331  1.00  0.00     0.274 HD
ATOM     19  H42 UNL     1       5.609   0.407   1.256  1.00  0.00     0.274 HD
ATOM     20  H41 UNL     1       5.613   2.094   1.261  1.00  0.00     0.274 HD
ENDBRANCH  16  17
ENDBRANCH  15  16
ENDBRANCH  14  15
ENDBRANCH  11  14
ENDBRANCH   1  11
TORSDOF 6
