REMARK  9 active torsions:
REMARK  status: ('A' for Active; 'I' for Inactive)
REMARK    1  A    between atoms: N1_1  and  C1_4 
REMARK    2  A    between atoms: C3_8  and  C4_9 
REMARK    3  A    between atoms: C4_9  and  C5_10 
REMARK    4  A    between atoms: C5_10  and  C6_11 
REMARK    5  A    between atoms: C6_11  and  N3_12 
REMARK    6  A    between atoms: N4_16  and  C7_17 
REMARK    7  A    between atoms: C7_17  and  C8_18 
REMARK    8  A    between atoms: C8_18  and  N5_19 
REMARK    9  A    between atoms: N5_19  and  N6_21 
ROOT
HETATM    1  C1  UNL     1      -1.945  -1.940  -1.004  1.00  0.00     0.682 A 
HETATM    2  N2  UNL     1      -1.214  -2.147  -2.088  1.00  0.00    -0.200 N 
ATOM      3  H2  UNL     1      -1.438  -2.777  -2.859  1.00  0.00     0.183 HD
HETATM    4  C2  UNL     1      -0.124  -1.373  -1.982  1.00  0.00     0.132 A 
HETATM    5  C3  UNL     1      -0.189  -0.684  -0.817  1.00  0.00     0.050 A 
HETATM    6  N4  UNL     1      -1.329  -1.045  -0.216  1.00  0.00    -0.152 N 
ENDROOT
BRANCH   5   7
HETATM    7  C4  UNL     1       0.829   0.280  -0.333  1.00  0.00     0.061 C 
BRANCH   7   8
HETATM    8  C5  UNL     1       1.888  -0.415   0.507  1.00  0.00     0.033 C 
BRANCH   8   9
HETATM    9  C6  UNL     1       2.925   0.584   0.997  1.00  0.00     0.230 C 
BRANCH   9  10
HETATM   10  N3  UNL     1       3.594   1.238  -0.090  1.00  0.00    -0.079 N 
ATOM     11  H33 UNL     1       4.006   0.561  -0.733  1.00  0.00     0.274 HD
ATOM     12  H32 UNL     1       2.927   1.677  -0.725  1.00  0.00     0.274 HD
ATOM     13  H31 UNL     1       4.289   1.908   0.239  1.00  0.00     0.274 HD
ENDBRANCH   9  10
ENDBRANCH   8   9
ENDBRANCH   7   8
ENDBRANCH   5   7
BRANCH   6  14
HETATM   14  C7  UNL     1      -1.844  -0.608   1.012  1.00  0.00     0.191 C 
BRANCH  14  15
HETATM   15  C8  UNL     1      -2.604   0.479   0.975  1.00  0.00    -0.008 C 
BRANCH  15  16
HETATM   16  N5  UNL     1      -3.150   1.628   0.962  1.00  0.00    -0.271 N 
ATOM     17  H5  UNL     1      -4.163   1.744   0.926  1.00  0.00     0.196 HD
BRANCH  16  18
HETATM   18  N6  UNL     1      -2.269   2.738   1.000  1.00  0.00    -0.338 N 
ATOM     19  H62 UNL     1      -1.258   2.606   1.036  1.00  0.00     0.177 HD
ATOM     20  H61 UNL     1      -2.707   3.659   0.990  1.00  0.00     0.177 HD
ENDBRANCH  16  18
ENDBRANCH  15  16
ENDBRANCH  14  15
ENDBRANCH   6  14
BRANCH   1  21
HETATM   21  N1  UNL     1      -3.089  -2.544  -0.785  1.00  0.00    -0.234 N 
ATOM     22  H12 UNL     1      -3.557  -3.224  -1.384  1.00  0.00     0.174 HD
ATOM     23  H11 UNL     1      -3.652  -2.384   0.050  1.00  0.00     0.174 HD
ENDBRANCH   1  21
TORSDOF 9
