REMARK  7 active torsions:
REMARK  status: ('A' for Active; 'I' for Inactive)
REMARK    1  A    between atoms: N1_1  and  C1_5 
REMARK    2  A    between atoms: C1_5  and  C2_6 
REMARK    3  A    between atoms: C2_6  and  N2_7 
REMARK    4  A    between atoms: N2_7  and  C3_10 
REMARK    5  A    between atoms: C7_14  and  C8_15 
REMARK    6  A    between atoms: C8_15  and  C9_16 
REMARK    7  A    between atoms: C9_16  and  N3_17 
ROOT
HETATM    1  C3  UNL     1       0.700   0.008   0.229  1.00  0.00     0.222 C 
HETATM    2  C4  UNL     1      -0.061  -0.958   1.163  1.00  0.00     0.217 C 
HETATM    3  C5  UNL     1      -0.187  -1.806  -0.080  1.00  0.00     0.044 C 
HETATM    4  C6  UNL     1      -0.391  -0.456  -0.749  1.00  0.00     0.051 C 
HETATM    5  C7  UNL     1      -1.621   0.050  -0.108  1.00  0.00     0.194 C 
HETATM    6  N4  UNL     1      -1.275  -0.214   1.313  1.00  0.00    -0.064 N 
ATOM      7  H41 UNL     1      -1.213   0.611   1.910  1.00  0.00     0.278 HD
ATOM      8  H42 UNL     1      -2.003  -0.668   1.865  1.00  0.00     0.278 HD
ENDROOT
BRANCH   1   9
HETATM    9  N2  UNL     1       2.019  -0.408  -0.123  1.00  0.00    -0.067 N 
ATOM     10  H22 UNL     1       2.054  -0.965  -0.977  1.00  0.00     0.277 HD
ATOM     11  H21 UNL     1       2.401  -1.116   0.504  1.00  0.00     0.277 HD
BRANCH   9  12
HETATM   12  C2  UNL     1       2.832   0.812  -0.189  1.00  0.00     0.260 C 
BRANCH  12  13
HETATM   13  C1  UNL     1       4.261   0.452  -0.587  1.00  0.00     0.257 C 
BRANCH  13  14
HETATM   14  N1  UNL     1       5.012   1.692  -0.636  1.00  0.00    -0.078 N 
ATOM     15  H13 UNL     1       4.590   2.392  -1.246  1.00  0.00     0.274 HD
ATOM     16  H12 UNL     1       4.960   2.227   0.231  1.00  0.00     0.274 HD
ATOM     17  H11 UNL     1       5.967   1.451  -0.902  1.00  0.00     0.274 HD
ENDBRANCH  13  14
ENDBRANCH  12  13
ENDBRANCH   9  12
ENDBRANCH   1   9
BRANCH   5  18
HETATM   18  C8  UNL     1      -2.859  -0.791  -0.340  1.00  0.00     0.060 C 
BRANCH  18  19
HETATM   19  C9  UNL     1      -4.013  -0.064   0.362  1.00  0.00     0.231 C 
BRANCH  19  20
HETATM   20  N3  UNL     1      -4.117   1.243  -0.319  1.00  0.00    -0.079 N 
ATOM     21  H33 UNL     1      -3.245   1.771  -0.333  1.00  0.00     0.274 HD
ATOM     22  H32 UNL     1      -4.228   1.173  -1.330  1.00  0.00     0.274 HD
ATOM     23  H31 UNL     1      -4.884   1.726   0.148  1.00  0.00     0.274 HD
ENDBRANCH  19  20
ENDBRANCH  18  19
ENDBRANCH   5  18
TORSDOF 7
