REMARK  7 active torsions:
REMARK  status: ('A' for Active; 'I' for Inactive)
REMARK    1  A    between atoms: C2_7  and  C3_8 
REMARK    2  A    between atoms: C3_8  and  C4_9 
REMARK    3  A    between atoms: C4_9  and  C5_10 
REMARK    4  A    between atoms: C5_10  and  N3_11 
REMARK    5  A    between atoms: N4_16  and  C7_17 
REMARK    6  A    between atoms: C7_17  and  C8_18 
REMARK    7  A    between atoms: C8_18  and  N5_19 
ROOT
HETATM    1  N1  UNL     1      -1.285  -3.028  -0.111  1.00  0.00    -0.371 N 
ATOM      2  H11 UNL     1      -2.191  -3.243  -0.527  1.00  0.00     0.159 HD
ATOM      3  H12 UNL     1      -0.726  -3.881  -0.074  1.00  0.00     0.159 HD
HETATM    4  C1  UNL     1      -0.909  -1.843   0.308  1.00  0.00     0.171 C 
HETATM    5  N2  UNL     1       0.367  -1.540   0.894  1.00  0.00    -0.356 N 
ATOM      6  H2  UNL     1       1.151  -2.177   1.036  1.00  0.00     0.163 HD
HETATM    7  C2  UNL     1       0.302  -0.137   1.239  1.00  0.00     0.102 C 
HETATM    8  C6  UNL     1      -0.676   0.397   0.218  1.00  0.00     0.151 C 
HETATM    9  N4  UNL     1      -1.689  -0.653   0.256  1.00  0.00    -0.350 N 
ENDROOT
BRANCH   7  10
HETATM   10  C3  UNL     1       1.645   0.529   1.184  1.00  0.00     0.028 C 
BRANCH  10  11
HETATM   11  C4  UNL     1       2.302   0.482  -0.157  1.00  0.00     0.029 C 
BRANCH  11  12
HETATM   12  C5  UNL     1       3.650   1.199  -0.016  1.00  0.00     0.230 C 
BRANCH  12  13
HETATM   13  N3  UNL     1       4.317   1.168  -1.302  1.00  0.00    -0.079 N 
ATOM     14  H33 UNL     1       4.412   0.223  -1.673  1.00  0.00     0.274 HD
ATOM     15  H32 UNL     1       3.743   1.554  -2.052  1.00  0.00     0.274 HD
ATOM     16  H31 UNL     1       5.214   1.645  -1.208  1.00  0.00     0.274 HD
ENDBRANCH  12  13
ENDBRANCH  11  12
ENDBRANCH  10  11
ENDBRANCH   7  10
BRANCH   9  17
HETATM   17  C7  UNL     1      -3.110  -0.596   0.246  1.00  0.00     0.153 C 
BRANCH  17  18
HETATM   18  C8  UNL     1      -3.710  -0.119  -1.058  1.00  0.00     0.249 C 
BRANCH  18  19
HETATM   19  N5  UNL     1      -3.290   1.209  -1.429  1.00  0.00    -0.078 N 
ATOM     20  H53 UNL     1      -3.482   1.872  -0.678  1.00  0.00     0.274 HD
ATOM     21  H52 UNL     1      -2.272   1.273  -1.454  1.00  0.00     0.274 HD
ATOM     22  H51 UNL     1      -3.695   1.531  -2.308  1.00  0.00     0.274 HD
ENDBRANCH  18  19
ENDBRANCH  17  18
ENDBRANCH   9  17
TORSDOF 7
