REMARK  7 active torsions:
REMARK  status: ('A' for Active; 'I' for Inactive)
REMARK    1  A    between atoms: N1_2  and  C2_3 
REMARK    2  A    between atoms: N1_2  and  C4_9 
REMARK    3  A    between atoms: C2_3  and  C3_4 
REMARK    4  A    between atoms: C3_4  and  N2_5 
REMARK    5  A    between atoms: C4_9  and  C5_10 
REMARK    6  A    between atoms: C5_10  and  N3_11 
REMARK    7  A    between atoms: N3_11  and  C6_13 
ROOT
HETATM    1  C5  UNL     1       0.406   1.111  -0.449  1.00  0.00     0.152 C 
ENDROOT
BRANCH   1   2
HETATM    2  C4  UNL     1      -1.094   1.166  -0.573  1.00  0.00     0.291 C 
BRANCH   2   3
HETATM    3  N1  UNL     1      -1.782   0.668   0.579  1.00  0.00     0.087 N 
HETATM    4  C1  UNL     1      -1.604   1.508   1.748  1.00  0.00     0.310 C 
BRANCH   3   5
HETATM    5  C2  UNL     1      -3.166   0.427   0.298  1.00  0.00     0.299 C 
BRANCH   5   6
HETATM    6  C3  UNL     1      -3.433  -0.465  -0.854  1.00  0.00     0.259 C 
BRANCH   6   7
HETATM    7  N2  UNL     1      -2.821  -1.768  -0.650  1.00  0.00    -0.078 N 
ATOM      8  H23 UNL     1      -1.823  -1.690  -0.456  1.00  0.00     0.274 HD
ATOM      9  H22 UNL     1      -3.116  -2.190   0.231  1.00  0.00     0.274 HD
ATOM     10  H21 UNL     1      -3.005  -2.382  -1.443  1.00  0.00     0.274 HD
ENDBRANCH   6   7
ENDBRANCH   5   6
ENDBRANCH   3   5
ENDBRANCH   2   3
ENDBRANCH   1   2
BRANCH   1  11
HETATM   11  N3  UNL     1       0.894  -0.238  -0.256  1.00  0.00    -0.361 N 
ATOM     12  H3  UNL     1       0.253  -1.030  -0.207  1.00  0.00     0.162 HD
BRANCH  11  13
HETATM   13  C6  UNL     1       2.317  -0.422  -0.135  1.00  0.00     0.171 C 
HETATM   14  N4  UNL     1       3.178   0.479   0.144  1.00  0.00    -0.361 N 
HETATM   15  C7  UNL     1       4.525  -0.046   0.189  1.00  0.00     0.142 C 
ATOM     16  H4  UNL     1       2.943   1.457   0.315  1.00  0.00     0.162 HD
HETATM   17  C8  UNL     1       4.414  -1.442  -0.333  1.00  0.00     0.142 C 
HETATM   18  N5  UNL     1       2.969  -1.660  -0.314  1.00  0.00    -0.361 N 
ATOM     19  H5  UNL     1       2.506  -2.563  -0.414  1.00  0.00     0.162 HD
ENDBRANCH  11  13
ENDBRANCH   1  11
TORSDOF 7
