REMARK  6 active torsions:
REMARK  status: ('A' for Active; 'I' for Inactive)
REMARK    1  A    between atoms: N1_1  and  C1_5 
REMARK    2  A    between atoms: C1_5  and  C2_6 
REMARK    3  A    between atoms: C2_6  and  C3_7 
REMARK    4  A    between atoms: C3_7  and  S1_8 
REMARK    5  A    between atoms: S1_8  and  C4_10 
REMARK    6  A    between atoms: C4_10  and  C5_11 
ROOT
HETATM    1  S1  UNL     1       0.557   0.238  -0.418  1.00  0.00     0.018 S 
HETATM    2  O1  UNL     1       0.756  -1.403  -0.706  1.00  0.00    -0.258 OA
ENDROOT
BRANCH   1   3
HETATM    3  C3  UNL     1      -1.112   0.659  -0.844  1.00  0.00     0.110 C 
BRANCH   3   4
HETATM    4  C2  UNL     1      -2.011  -0.177   0.037  1.00  0.00     0.040 C 
BRANCH   4   5
HETATM    5  C1  UNL     1      -3.440   0.160  -0.317  1.00  0.00     0.230 C 
BRANCH   5   6
HETATM    6  N1  UNL     1      -4.388  -0.588   0.471  1.00  0.00    -0.079 N 
ATOM      7  H13 UNL     1      -4.217  -1.591   0.399  1.00  0.00     0.274 HD
ATOM      8  H12 UNL     1      -4.216  -0.465   1.469  1.00  0.00     0.274 HD
ATOM      9  H11 UNL     1      -5.353  -0.360   0.232  1.00  0.00     0.274 HD
ENDBRANCH   5   6
ENDBRANCH   4   5
ENDBRANCH   3   4
ENDBRANCH   1   3
BRANCH   1  10
HETATM   10  C4  UNL     1       0.743   0.635   1.302  1.00  0.00     0.155 C 
BRANCH  10  11
HETATM   11  C5  UNL     1       2.146   0.313   1.768  1.00  0.00     0.197 A 
HETATM   12  N2  UNL     1       3.141   1.046   1.047  1.00  0.00    -0.343 N 
HETATM   13  C6  UNL     1       3.604   0.026   0.413  1.00  0.00     0.187 A 
ATOM     14  H2  UNL     1       3.395   2.034   1.038  1.00  0.00     0.164 HD
HETATM   15  N3  UNL     1       4.633  -0.163  -0.541  1.00  0.00    -0.064 NA
HETATM   16  N4  UNL     1       2.668  -0.820   1.057  1.00  0.00    -0.343 N 
ATOM     17  H4  UNL     1       2.454  -1.817   1.028  1.00  0.00     0.164 HD
ENDBRANCH  10  11
ENDBRANCH   1  10
TORSDOF 6
