REMARK  8 active torsions:
REMARK  status: ('A' for Active; 'I' for Inactive)
REMARK    1  A    between atoms: N1_1  and  C1_5 
REMARK    2  A    between atoms: C1_5  and  C2_6 
REMARK    3  A    between atoms: C2_6  and  C3_7 
REMARK    4  A    between atoms: C3_7  and  N2_8 
REMARK    5  A    between atoms: N2_8  and  C4_10 
REMARK    6  A    between atoms: C4_10  and  C5_11 
REMARK    7  A    between atoms: C5_11  and  N3_12 
REMARK    8  A    between atoms: C8_15  and  N4_16 
ROOT
HETATM    1  C4  UNL     1       0.712  -0.957  -0.891  1.00  0.00     0.098 C 
ENDROOT
BRANCH   1   2
HETATM    2  N2  UNL     1       1.217  -0.878   0.410  1.00  0.00    -0.378 N 
ATOM      3  H2  UNL     1       1.137  -1.672   1.046  1.00  0.00     0.164 HD
BRANCH   2   4
HETATM    4  C3  UNL     1       1.838   0.316   0.829  1.00  0.00     0.062 C 
BRANCH   4   5
HETATM    5  C2  UNL     1       3.157   0.633   0.177  1.00  0.00     0.072 C 
BRANCH   5   6
HETATM    6  C1  UNL     1       4.183  -0.452   0.441  1.00  0.00     0.234 C 
BRANCH   6   7
HETATM    7  N1  UNL     1       5.447  -0.130  -0.186  1.00  0.00    -0.079 N 
ATOM      8  H13 UNL     1       5.338   0.051  -1.184  1.00  0.00     0.274 HD
ATOM      9  H12 UNL     1       5.787   0.788   0.101  1.00  0.00     0.274 HD
ATOM     10  H11 UNL     1       6.137  -0.860  -0.008  1.00  0.00     0.274 HD
ENDBRANCH   6   7
ENDBRANCH   5   6
ENDBRANCH   4   5
ENDBRANCH   2   4
ENDBRANCH   1   2
BRANCH   1  11
HETATM   11  C5  UNL     1      -0.483  -0.156  -1.240  1.00  0.00     0.076 C 
BRANCH  11  12
HETATM   12  N3  UNL     1      -1.697  -0.360  -0.601  1.00  0.00    -0.289 NA
HETATM   13  C6  UNL     1      -1.968  -0.077   0.722  1.00  0.00     0.097 C 
HETATM   14  C7  UNL     1      -3.100   0.959   0.763  1.00  0.00     0.049 C 
HETATM   15  C8  UNL     1      -3.875   0.580  -0.477  1.00  0.00     0.198 C 
HETATM   16  C9  UNL     1      -2.778   0.185  -1.434  1.00  0.00     0.127 C 
BRANCH  15  17
HETATM   17  N4  UNL     1      -4.798  -0.519  -0.212  1.00  0.00    -0.074 N 
ATOM     18  H43 UNL     1      -4.316  -1.324   0.188  1.00  0.00     0.274 HD
ATOM     19  H42 UNL     1      -5.420  -0.305   0.567  1.00  0.00     0.274 HD
ATOM     20  H41 UNL     1      -5.321  -0.775  -1.049  1.00  0.00     0.274 HD
ENDBRANCH  15  17
ENDBRANCH  11  12
ENDBRANCH   1  11
TORSDOF 8
