REMARK  4 active torsions:
REMARK  status: ('A' for Active; 'I' for Inactive)
REMARK    1  A    between atoms: C3_3  and  C4_4 
REMARK    2  A    between atoms: C4_4  and  C5_5 
REMARK    3  A    between atoms: C6_6  and  O1_7 
REMARK    4  A    between atoms: O1_7  and  C7_8 
ROOT
HETATM    1  C5  UNL     1       1.102  -1.959   0.202  1.00  0.00     0.001 C 
HETATM    2  C6  UNL     1       0.338  -0.953  -0.127  1.00  0.00     0.131 C 
ENDROOT
BRANCH   2   3
HETATM    3  O1  UNL     1      -1.049  -1.079  -0.085  1.00  0.00    -0.358 OA
BRANCH   3   4
HETATM    4  C7  UNL     1      -1.941  -0.191  -0.687  1.00  0.00     0.127 C 
HETATM    5  C8  UNL     1      -3.350  -0.696  -0.399  1.00  0.00     0.032 C 
HETATM    6  C9  UNL     1      -4.105   0.550   0.045  1.00  0.00     0.002 C 
HETATM    7  C10 UNL     1      -3.010   1.257   0.854  1.00  0.00     0.002 C 
HETATM    8  C11 UNL     1      -1.859   1.199  -0.128  1.00  0.00     0.032 C 
ENDBRANCH   3   4
ENDBRANCH   2   3
BRANCH   1   9
HETATM    9  C4  UNL     1       2.565  -1.851   0.166  1.00  0.00     0.056 C 
BRANCH   9  10
HETATM   10  C3  UNL     1       3.050  -0.531  -0.268  1.00  0.00    -0.027 C 
HETATM   11  C2  UNL     1       3.806   0.202   0.518  1.00  0.00    -0.035 C 
HETATM   12  C1  UNL     1       4.288   1.530   0.069  1.00  0.00     0.036 C 
ENDBRANCH   9  10
ENDBRANCH   1   9
TORSDOF 4
