REMARK  6 active torsions:
REMARK  status: ('A' for Active; 'I' for Inactive)
REMARK    1  A    between atoms: C3_3  and  C4_4 
REMARK    2  A    between atoms: C4_4  and  C5_5 
REMARK    3  A    between atoms: C5_5  and  C6_7 
REMARK    4  A    between atoms: C6_7  and  C7_8 
REMARK    5  A    between atoms: C6_7  and  C9_10 
REMARK    6  A    between atoms: C9_10  and  C10_11 
ROOT
HETATM    1  C1  UNL     1       4.953  -1.520   0.803  1.00  0.00     0.012 C 
HETATM    2  C2  UNL     1       3.928  -1.421   0.186  1.00  0.00    -0.117 C 
HETATM    3  C3  UNL     1       2.665  -1.293  -0.545  1.00  0.00     0.100 C 
ENDROOT
BRANCH   3   4
HETATM    4  C4  UNL     1       1.773  -0.337   0.200  1.00  0.00     0.090 C 
BRANCH   4   5
HETATM    5  C5  UNL     1       0.470  -0.193  -0.536  1.00  0.00     0.132 C 
HETATM    6  O1  UNL     1       0.329  -0.823  -1.556  1.00  0.00    -0.298 OA
BRANCH   5   7
HETATM    7  C6  UNL     1      -0.555   0.690  -0.014  1.00  0.00     0.055 C 
BRANCH   7   8
HETATM    8  C7  UNL     1      -0.176   2.148  -0.257  1.00  0.00     0.007 C 
HETATM    9  C8  UNL     1      -1.247   3.061   0.289  1.00  0.00     0.006 C 
ENDBRANCH   7   8
BRANCH   7  10
HETATM   10  C9  UNL     1      -1.954   0.365  -0.278  1.00  0.00     0.011 C 
BRANCH  10  11
HETATM   11  C10 UNL     1      -2.514  -0.870   0.312  1.00  0.00    -0.004 C 
HETATM   12  C11 UNL     1      -1.920  -2.164  -0.074  1.00  0.00     0.005 C 
ENDBRANCH  10  11
ENDBRANCH   7  10
ENDBRANCH   5   7
ENDBRANCH   4   5
ENDBRANCH   3   4
TORSDOF 6
