REMARK  5 active torsions:
REMARK  status: ('A' for Active; 'I' for Inactive)
REMARK    1  A    between atoms: C2_2  and  C3_3 
REMARK    2  A    between atoms: C3_3  and  C4_4 
REMARK    3  A    between atoms: C4_4  and  C5_5 
REMARK    4  A    between atoms: C5_5  and  C6_7 
REMARK    5  A    between atoms: C6_7  and  C7_8 
ROOT
HETATM    1  C5  UNL     1       0.155  -0.647  -0.125  1.00  0.00     0.131 C 
HETATM    2  O1  UNL     1       0.029   0.463  -0.536  1.00  0.00    -0.298 OA
ENDROOT
BRANCH   1   3
HETATM    3  C4  UNL     1       1.440  -1.328   0.001  1.00  0.00     0.078 C 
BRANCH   3   4
HETATM    4  C3  UNL     1       2.632  -0.516  -0.362  1.00  0.00     0.007 C 
BRANCH   4   5
HETATM    5  C2  UNL     1       2.839   0.708   0.489  1.00  0.00    -0.004 C 
HETATM    6  C1  UNL     1       4.099   1.461   0.029  1.00  0.00     0.005 C 
ENDBRANCH   4   5
ENDBRANCH   3   4
ENDBRANCH   1   3
BRANCH   1   7
HETATM    7  C6  UNL     1      -1.099  -1.371   0.284  1.00  0.00     0.116 C 
BRANCH   7   8
HETATM    8  C7  UNL     1      -2.311  -0.497   0.073  1.00  0.00    -0.055 A 
HETATM    9  C8  UNL     1      -3.146  -0.120   1.020  1.00  0.00    -0.015 A 
HETATM   10  C9  UNL     1      -4.183   0.721   0.385  1.00  0.00     0.054 A 
HETATM   11  C10 UNL     1      -3.792   0.746  -1.038  1.00  0.00    -0.022 A 
HETATM   12  C11 UNL     1      -2.697   0.034  -1.224  1.00  0.00     0.003 A 
ENDBRANCH   7   8
ENDBRANCH   1   7
TORSDOF 5
