REMARK  6 active torsions:
REMARK  status: ('A' for Active; 'I' for Inactive)
REMARK    1  A    between atoms: C2_2  and  C3_3 
REMARK    2  A    between atoms: C3_3  and  C5_5 
REMARK    3  A    between atoms: C5_5  and  C6_6 
REMARK    4  A    between atoms: C6_6  and  C8_8 
REMARK    5  A    between atoms: C8_8  and  C9_9 
REMARK    6  A    between atoms: C9_9  and  C10_10 
ROOT
HETATM    1  C6  UNL     1       0.355  -0.803  -0.807  1.00  0.00    -0.083 C 
HETATM    2  C7  UNL     1      -0.272  -1.721  -1.918  1.00  0.00     0.043 C 
ENDROOT
BRANCH   1   3
HETATM    3  C5  UNL     1       1.271  -1.343  -0.162  1.00  0.00     0.009 C 
BRANCH   3   4
HETATM    4  C3  UNL     1       2.203  -1.143   0.894  1.00  0.00    -0.063 C 
HETATM    5  C4  UNL     1       3.062  -2.263   1.112  1.00  0.00     0.048 C 
BRANCH   4   6
HETATM    6  C2  UNL     1       2.502  -0.126   1.829  1.00  0.00    -0.004 C 
HETATM    7  C1  UNL     1       2.036   1.049   2.081  1.00  0.00     0.012 C 
ENDBRANCH   4   6
ENDBRANCH   3   4
ENDBRANCH   1   3
BRANCH   1   8
HETATM    8  C8  UNL     1      -0.232   0.510  -0.827  1.00  0.00     0.041 C 
BRANCH   8   9
HETATM    9  C9  UNL     1      -1.697   0.547  -0.437  1.00  0.00     0.082 C 
BRANCH   9  10
HETATM   10  C10 UNL     1      -2.238   1.929  -0.478  1.00  0.00     0.123 C 
HETATM   11  C11 UNL     1      -3.650   2.224  -0.137  1.00  0.00     0.091 C 
HETATM   12  O1  UNL     1      -1.518   2.852  -0.799  1.00  0.00    -0.298 OA
ENDBRANCH   9  10
ENDBRANCH   8   9
ENDBRANCH   1   8
TORSDOF 6
