REMARK  15 active torsions:
REMARK  status: ('A' for Active; 'I' for Inactive)
REMARK    1  A    between atoms: C2_2  and  N1_3 
REMARK    2  A    between atoms: N1_3  and  C3_6 
REMARK    3  A    between atoms: C5_8  and  N2_9 
REMARK    4  A    between atoms: C6_13  and  O1_14 
REMARK    5  A    between atoms: O1_14  and  C7_15 
REMARK    6  A    between atoms: C7_15  and  C8_16 
REMARK    7  A    between atoms: C9_18  and  S1_19 
REMARK    8  A    between atoms: S1_19  and  C10_20 
REMARK    9  A    between atoms: C12_22  and  N3_23 
REMARK   10  A    between atoms: C14_28  and  N4_29 
REMARK       I    between atoms: N4_29  and  C15_31 
REMARK   11  A    between atoms: C17_34  and  O4_35 
REMARK   12  A    between atoms: C18_37  and  N5_38 
REMARK   13  A    between atoms: C20_43  and  N6_44 
REMARK   14  A    between atoms: C21_49  and  C22_50 
REMARK   15  A    between atoms: C22_50  and  O6_51 
ROOT
HETATM    1  C8  UNL     1      -0.357  -2.476   0.129  1.00  0.00     0.177 C 
HETATM    2  O2  UNL     1       0.529  -1.470  -0.175  1.00  0.00    -0.364 OA
HETATM    3  C9  UNL     1       1.175  -0.903   0.891  1.00  0.00     0.214 C 
HETATM    4  C18 UNL     1       1.741  -1.814   1.886  1.00  0.00     0.224 C 
HETATM    5  C19 UNL     1       0.977  -3.113   2.051  1.00  0.00     0.072 C 
HETATM    6  C20 UNL     1      -0.410  -2.935   1.534  1.00  0.00     0.216 C 
ENDROOT
BRANCH   1   7
HETATM    7  C7  UNL     1      -1.731  -2.242  -0.465  1.00  0.00     0.205 C 
BRANCH   7   8
HETATM    8  O1  UNL     1      -2.321  -1.060  -0.033  1.00  0.00    -0.357 OA
BRANCH   8   9
HETATM    9  C6  UNL     1      -3.574  -0.865  -0.606  1.00  0.00     0.290 C 
HETATM   10  C5  UNL     1      -4.573  -0.801   0.513  1.00  0.00     0.240 C 
HETATM   11  C4  UNL     1      -5.917  -0.264   0.062  1.00  0.00     0.073 C 
HETATM   12  C3  UNL     1      -5.668   1.048  -0.598  1.00  0.00     0.219 C 
HETATM   13  C21 UNL     1      -4.697   0.818  -1.740  1.00  0.00     0.178 C 
HETATM   14  O5  UNL     1      -3.505   0.294  -1.352  1.00  0.00    -0.350 OA
BRANCH  10  15
HETATM   15  N2  UNL     1      -4.063  -0.016   1.620  1.00  0.00    -0.070 N 
ATOM     16  H23 UNL     1      -4.019   0.978   1.393  1.00  0.00     0.274 HD
ATOM     17  H22 UNL     1      -4.730   0.034   2.390  1.00  0.00     0.274 HD
ATOM     18  H21 UNL     1      -3.159  -0.377   1.923  1.00  0.00     0.274 HD
ENDBRANCH  10  15
BRANCH  12  19
HETATM   19  N1  UNL     1      -6.825   1.759  -1.041  1.00  0.00    -0.069 N 
ATOM     20  H12 UNL     1      -7.343   1.244  -1.753  1.00  0.00     0.277 HD
ATOM     21  H11 UNL     1      -6.582   2.578  -1.599  1.00  0.00     0.277 HD
BRANCH  19  22
HETATM   22  C2  UNL     1      -7.654   2.100   0.095  1.00  0.00     0.228 C 
HETATM   23  C1  UNL     1      -7.011   3.115   1.004  1.00  0.00     0.034 C 
ENDBRANCH  19  22
ENDBRANCH  12  19
BRANCH  13  24
HETATM   24  C22 UNL     1      -5.319   0.173  -2.938  1.00  0.00     0.198 C 
BRANCH  24  25
HETATM   25  O6  UNL     1      -5.586  -1.164  -2.826  1.00  0.00    -0.398 OA
ATOM     26  H6  UNL     1      -5.981  -1.574  -3.587  1.00  0.00     0.209 HD
ENDBRANCH  24  25
ENDBRANCH  13  24
ENDBRANCH   8   9
ENDBRANCH   7   8
ENDBRANCH   1   7
BRANCH   6  27
HETATM   27  N6  UNL     1      -1.234  -2.197   2.434  1.00  0.00    -0.072 N 
ATOM     28  H63 UNL     1      -0.965  -1.213   2.410  1.00  0.00     0.274 HD
ATOM     29  H62 UNL     1      -2.181  -2.145   2.059  1.00  0.00     0.274 HD
ATOM     30  H61 UNL     1      -1.271  -2.514   3.403  1.00  0.00     0.274 HD
ENDBRANCH   6  27
BRANCH   3  31
HETATM   31  S1  UNL     1       2.370   0.296   0.293  1.00  0.00    -0.128 SA
BRANCH  31  32
HETATM   32  C10 UNL     1       3.743  -0.363  -0.628  1.00  0.00     0.082 C 
HETATM   33  C11 UNL     1       4.742  -1.151   0.169  1.00  0.00     0.050 C 
HETATM   34  C12 UNL     1       6.174  -0.835  -0.287  1.00  0.00     0.186 C 
HETATM   35  C13 UNL     1       6.402   0.603   0.197  1.00  0.00     0.060 C 
HETATM   36  C14 UNL     1       5.485   1.477  -0.626  1.00  0.00     0.116 C 
HETATM   37  C17 UNL     1       4.449   0.728  -1.391  1.00  0.00     0.154 C 
BRANCH  34  38
HETATM   38  N3  UNL     1       7.095  -1.707   0.375  1.00  0.00    -0.075 N 
ATOM     39  H33 UNL     1       6.998  -1.669   1.390  1.00  0.00     0.274 HD
ATOM     40  H32 UNL     1       6.857  -2.690   0.241  1.00  0.00     0.274 HD
ATOM     41  H31 UNL     1       8.046  -1.497   0.072  1.00  0.00     0.274 HD
ENDBRANCH  34  38
BRANCH  36  42
HETATM   42  N4  UNL     1       6.379   2.171  -1.571  1.00  0.00    -0.354 N 
HETATM   43  C15 UNL     1       6.556   3.572  -1.486  1.00  0.00     0.214 C 
HETATM   44  C16 UNL     1       7.450   4.289  -2.422  1.00  0.00     0.117 C 
HETATM   45  O3  UNL     1       5.951   4.225  -0.607  1.00  0.00    -0.274 OA
ATOM     46  H4  UNL     1       6.872   1.639  -2.289  1.00  0.00     0.162 HD
ENDBRANCH  36  42
BRANCH  37  47
HETATM   47  O4  UNL     1       3.519   1.678  -1.868  1.00  0.00    -0.392 OA
ATOM     48  H4  UNL     1       3.964   2.366  -2.349  1.00  0.00     0.210 HD
ENDBRANCH  37  47
ENDBRANCH  31  32
ENDBRANCH   3  31
BRANCH   4  49
HETATM   49  N5  UNL     1       1.782  -1.186   3.197  1.00  0.00    -0.072 N 
ATOM     50  H53 UNL     1       2.280  -0.296   3.174  1.00  0.00     0.274 HD
ATOM     51  H52 UNL     1       0.864  -0.842   3.479  1.00  0.00     0.274 HD
ATOM     52  H51 UNL     1       2.177  -1.821   3.891  1.00  0.00     0.274 HD
ENDBRANCH   4  49
TORSDOF 15
