REMARK  12 active torsions:
REMARK  status: ('A' for Active; 'I' for Inactive)
REMARK    1  A    between atoms: C1_4  and  O1_5 
REMARK    2  A    between atoms: C1_4  and  C2_7 
REMARK    3  A    between atoms: C4_11  and  N2_12 
REMARK       I    between atoms: N2_12  and  C5_14 
REMARK    4  A    between atoms: C5_14  and  C6_16 
REMARK    5  A    between atoms: C7_18  and  N3_19 
REMARK    6  A    between atoms: C8_24  and  N5_25 
REMARK    7  A    between atoms: N6_27  and  C9_29 
REMARK    8  A    between atoms: C10_30  and  N7_31 
REMARK    9  A    between atoms: N7_31  and  C11_33 
REMARK   10  A    between atoms: C11_33  and  C12_34 
REMARK   11  A    between atoms: C11_33  and  C13_37 
REMARK   12  A    between atoms: C12_34  and  O5_35 
REMARK       I    between atoms: C13_37  and  N8_39 
ROOT
HETATM    1  N5  UNL     1       1.509  -0.913   0.457  1.00  0.00    -0.284 N 
ATOM      2  H5  UNL     1       2.008  -1.221   1.292  1.00  0.00     0.188 HD
HETATM    3  N6  UNL     1       0.651   0.009   0.549  1.00  0.00    -0.293 N 
ATOM      4  H6  UNL     1       0.482   0.421   1.467  1.00  0.00     0.187 HD
ENDROOT
BRANCH   1   5
HETATM    5  C8  UNL     1       1.799  -1.548  -0.833  1.00  0.00     0.145 A 
HETATM    6  C6  UNL     1       3.021  -1.422  -1.413  1.00  0.00     0.121 A 
HETATM    7  S1  UNL     1       2.775  -2.354  -2.874  1.00  0.00    -0.045 SA
HETATM    8  C7  UNL     1       1.163  -2.808  -2.609  1.00  0.00     0.144 A 
HETATM    9  N4  UNL     1       0.877  -2.245  -1.442  1.00  0.00    -0.321 N 
ATOM     10  H4  UNL     1      -0.048  -2.355  -1.027  1.00  0.00     0.169 HD
BRANCH   6  11
HETATM   11  C5  UNL     1       4.258  -0.741  -1.041  1.00  0.00     0.264 C 
HETATM   12  N2  UNL     1       4.372  -0.020   0.152  1.00  0.00    -0.327 N 
ATOM     13  H2  UNL     1       3.596   0.059   0.809  1.00  0.00     0.165 HD
HETATM   14  O4  UNL     1       5.234  -0.832  -1.852  1.00  0.00    -0.267 OA
BRANCH  12  15
HETATM   15  C4  UNL     1       5.685   0.625   0.409  1.00  0.00     0.263 C 
HETATM   16  C2  UNL     1       6.175   0.119   1.726  1.00  0.00     0.246 C 
HETATM   17  O2  UNL     1       6.572   1.235   2.411  1.00  0.00    -0.349 OA
HETATM   18  C3  UNL     1       6.242   2.351   1.694  1.00  0.00     0.341 C 
HETATM   19  O3  UNL     1       5.420   1.973   0.636  1.00  0.00    -0.340 OA
BRANCH  16  20
HETATM   20  C1  UNL     1       7.309  -0.822   1.542  1.00  0.00     0.143 C 
HETATM   21  N1  UNL     1       8.482  -0.568   1.990  1.00  0.00    -0.381 N 
ATOM     22  H12 UNL     1       9.261  -1.214   1.864  1.00  0.00     0.158 HD
ATOM     23  H11 UNL     1       8.655   0.304   2.490  1.00  0.00     0.158 HD
BRANCH  20  24
HETATM   24  O1  UNL     1       7.075  -2.000   0.866  1.00  0.00    -0.348 OA
ATOM     25  H1  UNL     1       6.205  -2.188   0.534  1.00  0.00     0.219 HD
ENDBRANCH  20  24
ENDBRANCH  16  20
ENDBRANCH  12  15
ENDBRANCH   6  11
BRANCH   8  26
HETATM   26  N3  UNL     1       0.383  -3.539  -3.371  1.00  0.00    -0.380 N 
ATOM     27  H32 UNL     1       0.603  -3.972  -4.268  1.00  0.00     0.158 HD
ATOM     28  H31 UNL     1      -0.587  -3.812  -3.212  1.00  0.00     0.158 HD
ENDBRANCH   8  26
ENDBRANCH   1   5
BRANCH   3  29
HETATM   29  C9  UNL     1      -0.096   0.506  -0.562  1.00  0.00     0.133 A 
HETATM   30  C10 UNL     1      -1.418   0.474  -0.949  1.00  0.00     0.116 A 
HETATM   31  C17 UNL     1      -1.150   1.192  -2.101  1.00  0.00     0.252 A 
HETATM   32  O7  UNL     1      -1.783   1.641  -3.091  1.00  0.00    -0.281 OA
HETATM   33  C18 UNL     1       0.173   1.226  -1.718  1.00  0.00     0.254 A 
HETATM   34  O8  UNL     1       1.253   1.686  -2.153  1.00  0.00    -0.281 OA
BRANCH  30  35
HETATM   35  N7  UNL     1      -2.609  -0.081  -0.386  1.00  0.00    -0.370 N 
ATOM     36  H7  UNL     1      -2.863  -1.035  -0.642  1.00  0.00     0.160 HD
BRANCH  35  37
HETATM   37  C11 UNL     1      -3.464   0.627   0.516  1.00  0.00     0.199 C 
BRANCH  37  38
HETATM   38  C12 UNL     1      -4.013   1.900  -0.101  1.00  0.00     0.198 C 
BRANCH  38  39
HETATM   39  O5  UNL     1      -4.760   1.647  -1.250  1.00  0.00    -0.398 OA
ATOM     40  H5  UNL     1      -5.104   2.444  -1.636  1.00  0.00     0.209 HD
ENDBRANCH  38  39
ENDBRANCH  37  38
BRANCH  37  41
HETATM   41  C13 UNL     1      -4.548  -0.273   0.964  1.00  0.00     0.260 C 
HETATM   42  O6  UNL     1      -4.607  -1.470   0.538  1.00  0.00    -0.270 OA
HETATM   43  N8  UNL     1      -5.533   0.216   1.882  1.00  0.00    -0.158 N 
HETATM   44  C14 UNL     1      -6.763   0.179   1.502  1.00  0.00     0.684 A 
ATOM     45  H8  UNL     1      -5.271   0.579   2.799  1.00  0.00     0.187 HD
HETATM   46  N9  UNL     1      -7.283  -0.258   0.346  1.00  0.00    -0.200 N 
HETATM   47  N10 UNL     1      -7.795   0.607   2.269  1.00  0.00    -0.200 N 
HETATM   48  C15 UNL     1      -8.627  -0.125   0.341  1.00  0.00     0.123 A 
ATOM     49  H9  UNL     1      -6.737  -0.640  -0.426  1.00  0.00     0.183 HD
HETATM   50  C16 UNL     1      -8.922   0.421   1.562  1.00  0.00     0.123 A 
ATOM     51  H10 UNL     1      -7.728   0.998   3.209  1.00  0.00     0.183 HD
ENDBRANCH  37  41
ENDBRANCH  35  37
ENDBRANCH  30  35
ENDBRANCH   3  29
TORSDOF 12
