REMARK  13 active torsions:
REMARK  status: ('A' for Active; 'I' for Inactive)
REMARK    1  A    between atoms: N1_1  and  C1_4 
REMARK    2  A    between atoms: C2_7  and  N3_8 
REMARK    3  A    between atoms: C3_13  and  N5_14 
REMARK       I    between atoms: N5_14  and  C4_16 
REMARK    4  A    between atoms: C4_16  and  C5_18 
REMARK    5  A    between atoms: N6_20  and  C7_21 
REMARK    6  A    between atoms: C7_21  and  C8_22 
REMARK    7  A    between atoms: C7_21  and  C17_39 
REMARK    8  A    between atoms: C8_22  and  C9_24 
REMARK    9  A    between atoms: C9_24  and  N7_25 
REMARK   10  A    between atoms: C11_27  and  N8_28 
REMARK   11  A    between atoms: C17_39  and  O3_40 
REMARK   12  A    between atoms: C17_39  and  O4_42 
REMARK   13  A    between atoms: C18_44  and  N11_45 
ROOT
HETATM    1  C5  UNL     1       2.742  -1.253  -0.012  1.00  0.00     0.120 A 
HETATM    2  C6  UNL     1       1.558  -1.868  -0.221  1.00  0.00     0.130 A 
HETATM    3  N6  UNL     1       0.885  -1.965   0.988  1.00  0.00    -0.305 N 
HETATM    4  C18 UNL     1       1.656  -1.416   1.911  1.00  0.00     0.253 A 
HETATM    5  N12 UNL     1       2.803  -0.982   1.274  1.00  0.00    -0.317 N 
ATOM      6  H12 UNL     1       3.585  -0.518   1.735  1.00  0.00     0.169 HD
ENDROOT
BRANCH   3   7
HETATM    7  C7  UNL     1      -0.393  -2.572   0.959  1.00  0.00     0.218 C 
BRANCH   7   8
HETATM    8  C8  UNL     1      -1.332  -1.446   0.502  1.00  0.00     0.173 C 
HETATM    9  O2  UNL     1      -1.816  -1.513  -0.598  1.00  0.00    -0.294 OA
BRANCH   8  10
HETATM   10  C9  UNL     1      -1.625  -0.319   1.387  1.00  0.00     0.227 C 
BRANCH  10  11
HETATM   11  N7  UNL     1      -2.453   0.680   0.749  1.00  0.00    -0.183 N 
HETATM   12  C10 UNL     1      -3.792   0.833   0.757  1.00  0.00     0.158 A 
HETATM   13  C11 UNL     1      -4.154   1.961   0.030  1.00  0.00     0.135 A 
HETATM   14  N9  UNL     1      -3.013   2.479  -0.414  1.00  0.00    -0.175 N 
HETATM   15  C16 UNL     1      -1.998   1.739  -0.000  1.00  0.00     0.679 A 
ATOM     16  H9  UNL     1      -2.933   3.319  -0.987  1.00  0.00     0.186 HD
HETATM   17  N10 UNL     1      -0.737   1.911  -0.227  1.00  0.00    -0.234 N 
ATOM     18 2H10 UNL     1       0.046   1.340   0.092  1.00  0.00     0.174 HD
ATOM     19 1H10 UNL     1      -0.399   2.697  -0.783  1.00  0.00     0.174 HD
BRANCH  13  20
HETATM   20  N8  UNL     1      -5.477   2.414  -0.149  1.00  0.00    -0.366 N 
HETATM   21  C12 UNL     1      -5.871   3.572  -0.928  1.00  0.00     0.124 C 
HETATM   22  C13 UNL     1      -7.048   3.032  -1.696  1.00  0.00     0.021 C 
HETATM   23  C14 UNL     1      -7.625   1.910  -0.841  1.00  0.00     0.021 C 
HETATM   24  C15 UNL     1      -6.712   1.874   0.380  1.00  0.00     0.124 C 
ENDBRANCH  13  20
ENDBRANCH  10  11
ENDBRANCH   8  10
ENDBRANCH   7   8
BRANCH   7  25
HETATM   25  C17 UNL     1      -0.996  -3.244   2.110  1.00  0.00     0.284 C 
BRANCH  25  26
HETATM   26  O3  UNL     1      -2.285  -3.793   1.672  1.00  0.00    -0.369 OA
ATOM     27  H3  UNL     1      -2.677  -4.229   2.419  1.00  0.00     0.212 HD
ENDBRANCH  25  26
BRANCH  25  28
HETATM   28  O4  UNL     1      -0.338  -4.362   2.595  1.00  0.00    -0.369 OA
ATOM     29  H4  UNL     1      -0.730  -4.798   3.342  1.00  0.00     0.212 HD
ENDBRANCH  25  28
ENDBRANCH   7  25
ENDBRANCH   3   7
BRANCH   4  30
HETATM   30  N11 UNL     1       1.492  -1.213   3.314  1.00  0.00    -0.079 N 
HETATM   31  O5  UNL     1       0.570  -1.476   4.026  1.00  0.00    -0.529 OA
HETATM   32  O6  UNL     1       2.571  -0.595   3.975  1.00  0.00    -0.529 OA
ENDBRANCH   4  30
BRANCH   1  33
HETATM   33  C4  UNL     1       3.776  -0.909  -1.046  1.00  0.00     0.287 C 
HETATM   34  N5  UNL     1       4.923  -0.211  -0.658  1.00  0.00    -0.153 N 
ATOM     35  H5  UNL     1       4.773   0.433   0.119  1.00  0.00     0.187 HD
HETATM   36  O1  UNL     1       3.553  -1.265  -2.222  1.00  0.00    -0.265 OA
BRANCH  34  37
HETATM   37  C3  UNL     1       6.103  -0.228  -1.086  1.00  0.00     0.714 A 
HETATM   38  N4  UNL     1       6.572  -0.976  -2.096  1.00  0.00    -0.021 N 
HETATM   39  C2  UNL     1       7.856  -0.935  -2.511  1.00  0.00     0.705 A 
ATOM     40  H4  UNL     1       5.927  -1.606  -2.573  1.00  0.00     0.203 HD
HETATM   41  N2  UNL     1       8.743  -0.117  -1.909  1.00  0.00    -0.022 N 
HETATM   42  C1  UNL     1       8.279   0.638  -0.892  1.00  0.00     0.705 A 
ATOM     43  H2  UNL     1       9.717  -0.071  -2.208  1.00  0.00     0.203 HD
HETATM   44  N13 UNL     1       7.004   0.593  -0.485  1.00  0.00    -0.021 N 
ATOM     45  H13 UNL     1       6.704   1.185   0.289  1.00  0.00     0.203 HD
BRANCH  39  46
HETATM   46  N3  UNL     1       8.278  -1.682  -3.507  1.00  0.00    -0.234 N 
ATOM     47  H32 UNL     1       9.248  -1.651  -3.821  1.00  0.00     0.174 HD
ATOM     48  H31 UNL     1       7.607  -2.301  -3.962  1.00  0.00     0.174 HD
ENDBRANCH  39  46
BRANCH  42  49
HETATM   49  N1  UNL     1       9.134   1.446  -0.315  1.00  0.00    -0.234 N 
ATOM     50  H12 UNL     1      10.105   1.480  -0.625  1.00  0.00     0.174 HD
ATOM     51  H11 UNL     1       8.783   2.017   0.454  1.00  0.00     0.174 HD
ENDBRANCH  42  49
ENDBRANCH  34  37
ENDBRANCH   1  33
TORSDOF 13
