REMARK  15 active torsions:
REMARK  status: ('A' for Active; 'I' for Inactive)
REMARK    1  A    between atoms: C2_2  and  S1_3 
REMARK    2  A    between atoms: S1_3  and  C3_4 
REMARK    3  A    between atoms: C3_4  and  C4_5 
REMARK    4  A    between atoms: C5_7  and  C6_8 
REMARK    5  A    between atoms: C7_10  and  O2_11 
REMARK    6  A    between atoms: O2_11  and  C8_12 
REMARK    7  A    between atoms: C9_14  and  O4_15 
REMARK    8  A    between atoms: O4_15  and  C10_16 
REMARK    9  A    between atoms: C11_17  and  N1_18 
REMARK   10  A    between atoms: C13_23  and  N2_24 
REMARK   11  A    between atoms: C15_29  and  N3_30 
REMARK   12  A    between atoms: C16_34  and  N4_35 
REMARK   13  A    between atoms: C18_40  and  N5_41 
REMARK   14  A    between atoms: C19_45  and  N6_46 
REMARK   15  A    between atoms: C21_51  and  N7_52 
ROOT
HETATM    1  C8  UNL     1      -0.452  -2.255  -0.593  1.00  0.00     0.294 C 
HETATM    2  O3  UNL     1      -1.040  -1.623   0.546  1.00  0.00    -0.327 OA
HETATM    3  C9  UNL     1      -2.421  -1.787   0.585  1.00  0.00     0.293 C 
HETATM    4  C16 UNL     1      -2.969  -2.528  -0.604  1.00  0.00     0.240 C 
HETATM    5  C17 UNL     1      -2.298  -3.852  -0.710  1.00  0.00     0.075 C 
HETATM    6  C18 UNL     1      -0.834  -3.696  -0.354  1.00  0.00     0.240 C 
ENDROOT
BRANCH   1   7
HETATM    7  O2  UNL     1       0.868  -2.014  -0.491  1.00  0.00    -0.349 OA
BRANCH   7   8
HETATM    8  C7  UNL     1       1.548  -1.335  -1.470  1.00  0.00     0.184 C 
HETATM    9  C5  UNL     1       1.855   0.009  -0.820  1.00  0.00     0.163 C 
HETATM   10  O1  UNL     1       2.411   0.969  -1.529  1.00  0.00    -0.374 OA
HETATM   11  C4  UNL     1       3.619   1.040  -2.024  1.00  0.00     0.161 C 
HETATM   12  C21 UNL     1       4.467  -0.200  -2.052  1.00  0.00     0.215 C 
HETATM   13  C20 UNL     1       3.716  -1.230  -2.777  1.00  0.00     0.070 C 
HETATM   14  C19 UNL     1       2.670  -2.017  -2.124  1.00  0.00     0.217 C 
BRANCH   9  15
HETATM   15  C6  UNL     1       2.346  -0.168   0.623  1.00  0.00     0.120 C 
HETATM   16  S2  UNL     1       2.039   1.355   1.552  1.00  0.00    -0.095 SA
ENDBRANCH   9  15
BRANCH  11  17
HETATM   17  C3  UNL     1       4.439   2.113  -1.340  1.00  0.00     0.108 C 
BRANCH  17  18
HETATM   18  S1  UNL     1       3.704   3.757  -1.509  1.00  0.00    -0.167 SA
BRANCH  18  19
HETATM   19  C2  UNL     1       4.766   4.948  -0.658  1.00  0.00     0.069 C 
HETATM   20  C1  UNL     1       6.112   5.080  -1.340  1.00  0.00     0.016 C 
ENDBRANCH  18  19
ENDBRANCH  17  18
ENDBRANCH  11  17
BRANCH  12  21
HETATM   21  N7  UNL     1       5.614   0.141  -2.925  1.00  0.00    -0.072 N 
ATOM     22  H73 UNL     1       5.344   0.478  -3.849  1.00  0.00     0.274 HD
ATOM     23  H72 UNL     1       6.118   0.980  -2.637  1.00  0.00     0.274 HD
ATOM     24  H71 UNL     1       6.190  -0.701  -2.944  1.00  0.00     0.274 HD
ENDBRANCH  12  21
BRANCH  14  25
HETATM   25  N6  UNL     1       2.117  -2.780  -3.277  1.00  0.00    -0.072 N 
ATOM     26  H63 UNL     1       1.366  -3.416  -3.010  1.00  0.00     0.274 HD
ATOM     27  H62 UNL     1       1.577  -2.198  -3.917  1.00  0.00     0.274 HD
ATOM     28  H61 UNL     1       2.897  -3.254  -3.732  1.00  0.00     0.274 HD
ENDBRANCH  14  25
ENDBRANCH   7   8
ENDBRANCH   1   7
BRANCH   6  29
HETATM   29  N5  UNL     1      -0.118  -4.667  -1.102  1.00  0.00    -0.070 N 
ATOM     30  H53 UNL     1      -0.184  -4.453  -2.097  1.00  0.00     0.274 HD
ATOM     31  H52 UNL     1       0.884  -4.547  -0.954  1.00  0.00     0.274 HD
ATOM     32  H51 UNL     1      -0.376  -5.641  -0.941  1.00  0.00     0.274 HD
ENDBRANCH   6  29
BRANCH   3  33
HETATM   33  O4  UNL     1      -2.965  -0.540   0.613  1.00  0.00    -0.350 OA
BRANCH  33  34
HETATM   34  C10 UNL     1      -3.668  -0.132   1.718  1.00  0.00     0.185 C 
HETATM   35  C11 UNL     1      -5.068   0.248   1.500  1.00  0.00     0.216 C 
HETATM   36  C12 UNL     1      -5.509   1.572   2.039  1.00  0.00     0.068 C 
HETATM   37  C13 UNL     1      -4.434   2.583   2.263  1.00  0.00     0.187 C 
HETATM   38  C14 UNL     1      -3.457   1.888   3.231  1.00  0.00     0.068 C 
HETATM   39  C15 UNL     1      -2.763   0.883   2.377  1.00  0.00     0.216 C 
BRANCH  35  40
HETATM   40  N1  UNL     1      -5.930  -0.713   2.238  1.00  0.00    -0.072 N 
ATOM     41  H13 UNL     1      -5.742  -1.683   1.987  1.00  0.00     0.274 HD
ATOM     42  H12 UNL     1      -5.689  -0.778   3.227  1.00  0.00     0.274 HD
ATOM     43  H11 UNL     1      -6.903  -0.449   2.086  1.00  0.00     0.274 HD
ENDBRANCH  35  40
BRANCH  37  44
HETATM   44  N2  UNL     1      -4.978   3.711   2.953  1.00  0.00    -0.075 N 
ATOM     45  H23 UNL     1      -5.785   4.106   2.470  1.00  0.00     0.274 HD
ATOM     46  H22 UNL     1      -5.444   3.445   3.820  1.00  0.00     0.274 HD
ATOM     47  H21 UNL     1      -4.243   4.402   3.106  1.00  0.00     0.274 HD
ENDBRANCH  37  44
BRANCH  39  48
HETATM   48  N3  UNL     1      -1.722   0.183   3.121  1.00  0.00    -0.072 N 
ATOM     49  H33 UNL     1      -2.106  -0.486   3.789  1.00  0.00     0.274 HD
ATOM     50  H32 UNL     1      -1.206  -0.476   2.538  1.00  0.00     0.274 HD
ATOM     51  H31 UNL     1      -1.111   0.868   3.566  1.00  0.00     0.274 HD
ENDBRANCH  39  48
ENDBRANCH  33  34
ENDBRANCH   3  33
BRANCH   4  52
HETATM   52  N4  UNL     1      -4.389  -2.792  -0.354  1.00  0.00    -0.070 N 
ATOM     53  H43 UNL     1      -4.551  -3.281   0.526  1.00  0.00     0.274 HD
ATOM     54  H42 UNL     1      -4.916  -1.946  -0.138  1.00  0.00     0.274 HD
ATOM     55  H41 UNL     1      -4.761  -3.294  -1.160  1.00  0.00     0.274 HD
ENDBRANCH   4  52
TORSDOF 15
