REMARK  14 active torsions:
REMARK  status: ('A' for Active; 'I' for Inactive)
REMARK    1  A    between atoms: C3_4  and  O2_5 
REMARK    2  A    between atoms: O2_5  and  C4_6 
REMARK    3  A    between atoms: C4_6  and  C5_7 
REMARK    4  A    between atoms: C8_10  and  N1_11 
REMARK    5  A    between atoms: C9_15  and  O3_16 
REMARK    6  A    between atoms: O3_16  and  C10_17 
REMARK    7  A    between atoms: C13_21  and  O4_22 
REMARK    8  A    between atoms: O4_22  and  C14_23 
REMARK    9  A    between atoms: C16_25  and  O5_26 
REMARK   10  A    between atoms: C16_25  and  C17_28 
REMARK   11  A    between atoms: C17_28  and  O6_32 
REMARK   12  A    between atoms: C19_36  and  N4_37 
REMARK   13  A    between atoms: C21_42  and  N5_43 
REMARK   14  A    between atoms: C23_48  and  N6_49 
ROOT
HETATM    1  C5  UNL     1      -2.402   0.778   0.227  1.00  0.00     0.012 C 
HETATM    2  C6  UNL     1      -1.493   1.540   1.206  1.00  0.00     0.009 C 
HETATM    3  C7  UNL     1      -1.319   0.660   2.409  1.00  0.00     0.036 C 
HETATM    4  C8  UNL     1      -1.143  -0.778   2.073  1.00  0.00     0.212 C 
HETATM    5  C9  UNL     1      -0.539  -0.866   0.655  1.00  0.00     0.153 C 
HETATM    6  C20 UNL     1      -1.550  -0.348  -0.331  1.00  0.00     0.041 C 
ENDROOT
BRANCH   5   7
HETATM    7  O3  UNL     1       0.651  -0.203   0.695  1.00  0.00    -0.371 OA
BRANCH   7   8
HETATM    8  C10 UNL     1       1.801  -0.930   0.568  1.00  0.00     0.199 C 
HETATM    9  C11 UNL     1       2.768  -0.568   1.630  1.00  0.00     0.053 C 
HETATM   10  N2  UNL     1       2.322  -0.221   2.969  1.00  0.00    -0.104 NA
HETATM   11  C12 UNL     1       4.077  -0.528   1.445  1.00  0.00     0.029 C 
HETATM   12  C13 UNL     1       4.775  -0.831   0.177  1.00  0.00     0.151 C 
HETATM   13  C18 UNL     1       3.811  -1.160  -0.899  1.00  0.00     0.072 C 
HETATM   14  C19 UNL     1       2.460  -0.482  -0.754  1.00  0.00     0.220 C 
BRANCH  12  15
HETATM   15  O4  UNL     1       5.604   0.220  -0.217  1.00  0.00    -0.352 OA
BRANCH  15  16
HETATM   16  C14 UNL     1       6.949  -0.165  -0.283  1.00  0.00     0.270 C 
HETATM   17  C15 UNL     1       7.857   0.718   0.582  1.00  0.00     0.138 C 
HETATM   18  C16 UNL     1       8.592   1.018  -0.676  1.00  0.00     0.235 C 
HETATM   19  O7  UNL     1       7.619   0.316  -1.391  1.00  0.00    -0.317 OA
BRANCH  18  20
HETATM   20  O5  UNL     1       8.648   2.381  -1.001  1.00  0.00    -0.359 OA
ATOM     21  H5  UNL     1       9.117   2.573  -1.804  1.00  0.00     0.213 HD
ENDBRANCH  18  20
BRANCH  18  22
HETATM   22  C17 UNL     1       9.924   0.416  -0.867  1.00  0.00     0.173 C 
HETATM   23  N3  UNL     1      10.532  -0.364  -0.057  1.00  0.00    -0.379 N 
ATOM     24  H32 UNL     1      10.040  -0.588   0.808  1.00  0.00     0.158 HD
ATOM     25  H31 UNL     1      11.454  -0.781  -0.189  1.00  0.00     0.158 HD
BRANCH  22  26
HETATM   26  O6  UNL     1      10.600   0.724  -2.057  1.00  0.00    -0.346 OA
ATOM     27  H6  UNL     1      11.458   0.336  -2.180  1.00  0.00     0.219 HD
ENDBRANCH  22  26
ENDBRANCH  18  22
ENDBRANCH  15  16
ENDBRANCH  12  15
BRANCH  14  28
HETATM   28  N4  UNL     1       1.683  -0.822  -1.904  1.00  0.00    -0.072 N 
ATOM     29  H43 UNL     1       1.473  -1.820  -1.921  1.00  0.00     0.274 HD
ATOM     30  H42 UNL     1       0.735  -0.454  -1.826  1.00  0.00     0.274 HD
ATOM     31  H41 UNL     1       2.118  -0.526  -2.778  1.00  0.00     0.274 HD
ENDBRANCH  14  28
ENDBRANCH   7   8
ENDBRANCH   5   7
BRANCH   4  32
HETATM   32  N1  UNL     1      -2.363  -1.558   2.146  1.00  0.00    -0.073 N 
ATOM     33  H13 UNL     1      -2.798  -1.456   3.063  1.00  0.00     0.274 HD
ATOM     34  H12 UNL     1      -3.089  -1.141   1.563  1.00  0.00     0.274 HD
ATOM     35  H11 UNL     1      -2.242  -2.544   1.916  1.00  0.00     0.274 HD
ENDBRANCH   4  32
BRANCH   1  36
HETATM   36  C4  UNL     1      -2.875   1.681  -0.865  1.00  0.00     0.175 C 
BRANCH  36  37
HETATM   37  O2  UNL     1      -3.707   1.078  -1.783  1.00  0.00    -0.359 OA
BRANCH  37  38
HETATM   38  C3  UNL     1      -4.903   0.606  -1.278  1.00  0.00     0.290 C 
HETATM   39  O1  UNL     1      -5.922   1.416  -1.845  1.00  0.00    -0.352 OA
HETATM   40  C2  UNL     1      -7.101   1.234  -1.126  1.00  0.00     0.151 C 
HETATM   41  C1  UNL     1      -7.018   1.984   0.200  1.00  0.00     0.042 C 
HETATM   42  C23 UNL     1      -7.462  -0.207  -0.948  1.00  0.00     0.214 C 
HETATM   43  C22 UNL     1      -6.640  -1.125  -1.797  1.00  0.00     0.073 C 
HETATM   44  C21 UNL     1      -5.180  -0.843  -1.622  1.00  0.00     0.240 C 
BRANCH  42  45
HETATM   45  N6  UNL     1      -7.399  -0.634   0.456  1.00  0.00    -0.072 N 
ATOM     46  H63 UNL     1      -6.484  -0.432   0.860  1.00  0.00     0.274 HD
ATOM     47  H62 UNL     1      -7.975  -0.036   1.048  1.00  0.00     0.274 HD
ATOM     48  H61 UNL     1      -7.645  -1.616   0.577  1.00  0.00     0.274 HD
ENDBRANCH  42  45
BRANCH  44  49
HETATM   49  N5  UNL     1      -4.424  -1.172  -2.817  1.00  0.00    -0.070 N 
ATOM     50  H53 UNL     1      -4.616  -0.538  -3.593  1.00  0.00     0.274 HD
ATOM     51  H52 UNL     1      -3.428  -0.972  -2.722  1.00  0.00     0.274 HD
ATOM     52  H51 UNL     1      -4.611  -2.148  -3.049  1.00  0.00     0.274 HD
ENDBRANCH  44  49
ENDBRANCH  37  38
ENDBRANCH  36  37
ENDBRANCH   1  36
TORSDOF 14
