REMARK  17 active torsions:
REMARK  status: ('A' for Active; 'I' for Inactive)
REMARK    1  A    between atoms: O1_2  and  C2_3 
REMARK    2  A    between atoms: C2_3  and  C3_4 
REMARK    3  A    between atoms: C3_4  and  C4_5 
REMARK    4  A    between atoms: C5_6  and  C6_7 
REMARK    5  A    between atoms: C5_6  and  C7_9 
REMARK    6  A    between atoms: C7_9  and  O3_10 
REMARK    7  A    between atoms: C7_9  and  O4_12 
REMARK    8  A    between atoms: O4_12  and  C8_13 
REMARK    9  A    between atoms: C8_13  and  C9_14 
REMARK   10  A    between atoms: C13_18  and  O5_19 
REMARK   11  A    between atoms: C14_21  and  O6_22 
REMARK   12  A    between atoms: C15_24  and  O7_25 
REMARK   13  A    between atoms: C16_27  and  O8_28 
REMARK   14  A    between atoms: C17_30  and  C18_31 
REMARK   15  A    between atoms: C18_31  and  O9_32 
REMARK   16  A    between atoms: C19_35  and  O11_36 
REMARK   17  A    between atoms: C24_42  and  O12_43 
ROOT
HETATM    1  C9  UNL     1      -2.044   0.937  -1.233  1.00  0.00     0.043 C 
HETATM    2  C10 UNL     1      -2.365   1.469  -2.600  1.00  0.00     0.024 C 
HETATM    3  C11 UNL     1      -2.686  -0.378  -0.973  1.00  0.00     0.029 C 
HETATM    4  C12 UNL     1      -2.886  -1.222  -2.223  1.00  0.00     0.014 C 
HETATM    5  C13 UNL     1      -4.058  -0.156  -0.366  1.00  0.00     0.154 C 
HETATM    6  C14 UNL     1      -3.901   0.420   1.002  1.00  0.00     0.190 C 
HETATM    7  C15 UNL     1      -2.817   1.425   1.137  1.00  0.00     0.171 C 
HETATM    8  C16 UNL     1      -3.435   2.692   1.762  1.00  0.00     0.192 C 
HETATM    9  C17 UNL     1      -3.780   3.489   0.532  1.00  0.00     0.180 C 
HETATM   10  O10 UNL     1      -3.598   2.677  -0.573  1.00  0.00    -0.341 OA
HETATM   11  C19 UNL     1      -2.412   2.003  -0.230  1.00  0.00     0.209 C 
ENDROOT
BRANCH   1  12
HETATM   12  C8  UNL     1      -0.509   0.822  -1.133  1.00  0.00     0.186 C 
BRANCH  12  13
HETATM   13  O4  UNL     1       0.028   0.005  -2.098  1.00  0.00    -0.356 OA
BRANCH  13  14
HETATM   14  C7  UNL     1       1.394  -0.115  -1.906  1.00  0.00     0.294 C 
BRANCH  14  15
HETATM   15  C5  UNL     1       1.823  -1.572  -1.937  1.00  0.00     0.030 C 
HETATM   16  C4  UNL     1       2.120  -2.139  -0.773  1.00  0.00    -0.009 C 
BRANCH  16  17
HETATM   17  C3  UNL     1       2.126  -1.523   0.529  1.00  0.00     0.068 C 
BRANCH  17  18
HETATM   18  C2  UNL     1       3.510  -1.425   1.186  1.00  0.00     0.089 C 
HETATM   19  C20 UNL     1       4.401  -0.708   0.222  1.00  0.00     0.041 C 
HETATM   20  C21 UNL     1       5.816  -0.705   0.688  1.00  0.00     0.003 C 
HETATM   21  C22 UNL     1       6.341  -2.124   0.624  1.00  0.00     0.003 C 
HETATM   22  C23 UNL     1       5.325  -3.181   0.854  1.00  0.00     0.035 C 
HETATM   23  C24 UNL     1       4.056  -2.802   1.495  1.00  0.00     0.153 C 
BRANCH  18  24
HETATM   24  O1  UNL     1       3.458  -0.774   2.392  1.00  0.00    -0.382 OA
HETATM   25  C1  UNL     1       2.986   0.502   2.431  1.00  0.00     0.202 C 
ENDBRANCH  18  24
BRANCH  23  26
HETATM   26  O12 UNL     1       4.252  -2.873   2.926  1.00  0.00    -0.393 OA
ATOM     27  H12 UNL     1       4.595  -3.738   3.120  1.00  0.00     0.210 HD
ENDBRANCH  23  26
ENDBRANCH  17  18
ENDBRANCH  16  17
BRANCH  15  28
HETATM   28  C6  UNL     1       1.847  -2.270  -3.165  1.00  0.00     0.270 C 
HETATM   29  O2  UNL     1       0.969  -2.530  -4.087  1.00  0.00    -0.302 OA
ENDBRANCH  15  28
ENDBRANCH  14  15
BRANCH  14  30
HETATM   30  O3  UNL     1       2.045   0.585  -2.943  1.00  0.00    -0.367 OA
ATOM     31  H3  UNL     1       1.777   1.496  -2.924  1.00  0.00     0.213 HD
ENDBRANCH  14  30
ENDBRANCH  13  14
ENDBRANCH  12  13
ENDBRANCH   1  12
BRANCH  11  32
HETATM   32  O11 UNL     1      -1.435   2.937  -0.012  1.00  0.00    -0.362 OA
ATOM     33  H11 UNL     1      -1.667   3.608   0.619  1.00  0.00     0.213 HD
ENDBRANCH  11  32
BRANCH   5  34
HETATM   34  O5  UNL     1      -4.710  -1.416  -0.276  1.00  0.00    -0.392 OA
ATOM     35  H5  UNL     1      -5.569  -1.277   0.104  1.00  0.00     0.210 HD
ENDBRANCH   5  34
BRANCH   7  36
HETATM   36  O7  UNL     1      -1.707   1.010   1.825  1.00  0.00    -0.379 OA
ATOM     37  H7  UNL     1      -1.013   1.653   1.911  1.00  0.00     0.211 HD
ENDBRANCH   7  36
BRANCH   6  38
HETATM   38  O6  UNL     1      -3.698  -0.608   1.937  1.00  0.00    -0.390 OA
ATOM     39  H6  UNL     1      -3.598  -0.241   2.808  1.00  0.00     0.210 HD
ENDBRANCH   6  38
BRANCH   8  40
HETATM   40  O8  UNL     1      -4.479   2.386   2.580  1.00  0.00    -0.390 OA
ATOM     41  H8  UNL     1      -4.860   3.167   2.965  1.00  0.00     0.210 HD
ENDBRANCH   8  40
BRANCH   9  42
HETATM   42  C18 UNL     1      -5.070   4.207   0.610  1.00  0.00     0.199 C 
BRANCH  42  43
HETATM   43  O9  UNL     1      -6.207   3.422   0.632  1.00  0.00    -0.398 OA
ATOM     44  H9  UNL     1      -7.036   3.883   0.682  1.00  0.00     0.209 HD
ENDBRANCH  42  43
ENDBRANCH   9  42
TORSDOF 17
