REMARK  10 active torsions:
REMARK  status: ('A' for Active; 'I' for Inactive)
REMARK    1  A    between atoms: N3_4  and  C2_6 
REMARK    2  A    between atoms: C2_6  and  C3_7 
REMARK    3  A    between atoms: C3_7  and  O1_8 
REMARK    4  A    between atoms: N4_12  and  C5_13 
REMARK    5  A    between atoms: C6_16  and  O3_17 
REMARK    6  A    between atoms: C7_19  and  C8_20 
REMARK    7  A    between atoms: C8_20  and  O4_21 
REMARK    8  A    between atoms: N6_23  and  N7_24 
REMARK    9  A    between atoms: C10_28  and  O5_29 
REMARK   10  A    between atoms: C11_31  and  O6_32 
ROOT
HETATM    1  C3  UNL     1      -1.575  -0.165   0.897  1.00  0.00     0.183 C 
HETATM    2  C4  UNL     1      -0.181   0.276   0.626  1.00  0.00     0.277 C 
HETATM    3  O2  UNL     1       0.171   1.422   1.002  1.00  0.00    -0.269 OA
HETATM    4  N4  UNL     1       0.789  -0.517  -0.038  1.00  0.00    -0.144 N 
HETATM    5  C9  UNL     1       0.463  -1.913  -0.236  1.00  0.00     0.185 C 
HETATM    6  C10 UNL     1      -0.954  -1.960  -0.764  1.00  0.00     0.169 C 
HETATM    7  C11 UNL     1      -1.889  -1.500   0.301  1.00  0.00     0.194 C 
ENDROOT
BRANCH   4   8
HETATM    8  C5  UNL     1       2.030   0.005  -0.497  1.00  0.00     0.710 A 
HETATM    9  N5  UNL     1       2.304   0.642  -1.651  1.00  0.00    -0.166 N 
HETATM   10  C6  UNL     1       3.577   0.996  -1.740  1.00  0.00     0.183 A 
ATOM     11  H5  UNL     1       1.610   0.830  -2.374  1.00  0.00     0.186 HD
HETATM   12  C7  UNL     1       4.181   0.567  -0.572  1.00  0.00     0.126 A 
HETATM   13  N6  UNL     1       3.226  -0.025   0.155  1.00  0.00    -0.090 N 
BRANCH  10  14
HETATM   14  O3  UNL     1       4.163   1.664  -2.802  1.00  0.00    -0.344 OA
ATOM     15  H3  UNL     1       5.076   1.918  -2.866  1.00  0.00     0.219 HD
ENDBRANCH  10  14
BRANCH  12  16
HETATM   16  C8  UNL     1       5.615   0.762  -0.260  1.00  0.00     0.228 C 
BRANCH  16  17
HETATM   17  O4  UNL     1       5.942   0.234   0.976  1.00  0.00    -0.395 OA
ATOM     18  H4  UNL     1       6.862   0.359   1.176  1.00  0.00     0.209 HD
ENDBRANCH  16  17
ENDBRANCH  12  16
BRANCH  13  19
HETATM   19  N7  UNL     1       3.421  -0.597   1.411  1.00  0.00    -0.324 N 
ATOM     20  H72 UNL     1       2.693  -1.048   1.965  1.00  0.00     0.178 HD
ATOM     21  H71 UNL     1       4.316  -0.619   1.899  1.00  0.00     0.178 HD
ENDBRANCH  13  19
ENDBRANCH   4   8
BRANCH   1  22
HETATM   22  C2  UNL     1      -2.458   0.874   0.237  1.00  0.00     0.172 C 
BRANCH  22  23
HETATM   23  N3  UNL     1      -3.859   0.633   0.377  1.00  0.00    -0.363 N 
HETATM   24  C1  UNL     1      -4.669   1.343  -0.317  1.00  0.00     0.197 C 
HETATM   25  N1  UNL     1      -4.195   2.343  -1.201  1.00  0.00    -0.067 NA
HETATM   26  N2  UNL     1      -6.059   1.128  -0.205  1.00  0.00    -0.067 NA
ATOM     27  H3  UNL     1      -4.206  -0.085   1.013  1.00  0.00     0.161 HD
ENDBRANCH  22  23
ENDBRANCH   1  22
BRANCH   1  28
HETATM   28  O1  UNL     1      -1.813  -0.237   2.270  1.00  0.00    -0.376 OA
ATOM     29  H1  UNL     1      -1.259  -0.889   2.684  1.00  0.00     0.211 HD
ENDBRANCH   1  28
BRANCH   6  30
HETATM   30  O5  UNL     1      -1.324  -3.260  -1.120  1.00  0.00    -0.391 OA
ATOM     31  H5  UNL     1      -2.214  -3.290  -1.452  1.00  0.00     0.210 HD
ENDBRANCH   6  30
BRANCH   7  32
HETATM   32  O6  UNL     1      -1.934  -2.490   1.291  1.00  0.00    -0.389 OA
ATOM     33  H6  UNL     1      -2.133  -3.338   0.912  1.00  0.00     0.210 HD
ENDBRANCH   7  32
TORSDOF 10
