REMARK  9 active torsions:
REMARK  status: ('A' for Active; 'I' for Inactive)
REMARK    1  A    between atoms: N1_1  and  C1_5 
REMARK    2  A    between atoms: C2_9  and  O1_10 
REMARK    3  A    between atoms: O1_10  and  N3_11 
REMARK       I    between atoms: N3_11  and  C3_13 
REMARK    4  A    between atoms: C3_13  and  C4_15 
REMARK    5  A    between atoms: C4_15  and  O3_16 
REMARK    6  A    between atoms: C5_19  and  C6_20 
REMARK    7  A    between atoms: C8_24  and  O7_25 
REMARK    8  A    between atoms: C8_24  and  C9_27 
REMARK    9  A    between atoms: C10_30  and  O10_31 
ROOT
HETATM    1  C4  UNL     1      -0.739  -0.203   0.270  1.00  0.00     0.283 C 
HETATM    2  O4  UNL     1      -0.936   1.195   0.262  1.00  0.00    -0.296 OA
HETATM    3  C5  UNL     1      -2.028   1.828  -0.302  1.00  0.00     0.149 C 
HETATM    4  C7  UNL     1      -3.083   1.093  -0.595  1.00  0.00     0.068 C 
HETATM    5  C8  UNL     1      -3.094  -0.363  -0.327  1.00  0.00     0.198 C 
HETATM    6  C10 UNL     1      -1.713  -0.878  -0.673  1.00  0.00     0.240 C 
ENDROOT
BRANCH   1   7
HETATM    7  C3  UNL     1       0.651  -0.562  -0.134  1.00  0.00     0.307 C 
HETATM    8  N3  UNL     1       1.445  -1.321   0.751  1.00  0.00    -0.225 N 
ATOM      9  H3  UNL     1       1.071  -1.618   1.652  1.00  0.00     0.197 HD
HETATM   10  O2  UNL     1       1.055  -0.166  -1.256  1.00  0.00    -0.265 OA
BRANCH   8  11
HETATM   11  O1  UNL     1       2.704  -1.651   0.395  1.00  0.00    -0.215 OA
BRANCH  11  12
HETATM   12  C2  UNL     1       3.405  -0.464   0.204  1.00  0.00     0.500 C 
HETATM   13  N2  UNL     1       4.186  -0.413  -1.013  1.00  0.00     0.029 N 
HETATM   14  C1  UNL     1       5.313  -0.194  -0.147  1.00  0.00     0.530 C 
ATOM     15  H22 UNL     1       3.958   0.226  -1.775  1.00  0.00     0.288 HD
ATOM     16  H21 UNL     1       4.170  -1.169  -1.697  1.00  0.00     0.288 HD
HETATM   17  O11 UNL     1       4.590  -0.532   0.972  1.00  0.00    -0.282 OA
BRANCH  14  18
HETATM   18  N1  UNL     1       5.772   1.178  -0.061  1.00  0.00    -0.027 N 
ATOM     19  H13 UNL     1       5.972   1.539  -0.994  1.00  0.00     0.279 HD
ATOM     20  H12 UNL     1       5.001   1.789   0.207  1.00  0.00     0.279 HD
ATOM     21  H11 UNL     1       6.571   1.333   0.553  1.00  0.00     0.279 HD
ENDBRANCH  14  18
ENDBRANCH  11  12
ENDBRANCH   8  11
ENDBRANCH   1   7
BRANCH   1  22
HETATM   22  O3  UNL     1      -1.030  -0.718   1.546  1.00  0.00    -0.356 OA
ATOM     23  H3  UNL     1      -1.915  -0.489   1.803  1.00  0.00     0.213 HD
ENDBRANCH   1  22
BRANCH   6  24
HETATM   24  O10 UNL     1      -1.604  -2.241  -0.622  1.00  0.00    -0.386 OA
ATOM     25  H10 UNL     1      -2.215  -2.664  -1.214  1.00  0.00     0.210 HD
ENDBRANCH   6  24
BRANCH   3  26
HETATM   26  C6  UNL     1      -2.010   3.283  -0.567  1.00  0.00     0.233 C 
HETATM   27  O5  UNL     1      -3.024   3.807  -1.078  1.00  0.00    -0.642 OA
HETATM   28  O6  UNL     1      -0.861   3.981  -0.229  1.00  0.00    -0.642 OA
ENDBRANCH   3  26
BRANCH   5  29
HETATM   29  O7  UNL     1      -3.339  -0.669   0.989  1.00  0.00    -0.373 OA
ATOM     30  H7  UNL     1      -3.346  -1.603   1.161  1.00  0.00     0.211 HD
ENDBRANCH   5  29
BRANCH   5  31
HETATM   31  C9  UNL     1      -4.103  -1.022  -1.183  1.00  0.00     0.216 C 
HETATM   32  O8  UNL     1      -4.050  -0.863  -2.426  1.00  0.00    -0.645 OA
HETATM   33  O9  UNL     1      -5.084  -1.799  -0.603  1.00  0.00    -0.645 OA
ENDBRANCH   5  31
TORSDOF 9
