REMARK  9 active torsions:
REMARK  status: ('A' for Active; 'I' for Inactive)
REMARK    1  A    between atoms: N1_1  and  C1_4 
REMARK    2  A    between atoms: C2_7  and  C3_8 
REMARK    3  A    between atoms: C3_8  and  O1_9 
REMARK    4  A    between atoms: C3_8  and  O2_11 
REMARK    5  A    between atoms: N4_20  and  N5_21 
REMARK       I    between atoms: N5_21  and  C7_23 
REMARK    6  A    between atoms: C7_23  and  C8_25 
REMARK    7  A    between atoms: C8_25  and  N6_26 
REMARK    8  A    between atoms: C8_25  and  C9_30 
REMARK    9  A    between atoms: C9_30  and  N7_31 
ROOT
HETATM    1  C1  UNL     1       2.051  -1.750  -1.137  1.00  0.00     0.677 A 
HETATM    2  N2  UNL     1       3.222  -1.172  -0.987  1.00  0.00    -0.190 N 
ATOM      3  H2  UNL     1       4.047  -1.630  -1.376  1.00  0.00     0.184 HD
HETATM    4  C2  UNL     1       3.382   0.033  -0.323  1.00  0.00     0.100 A 
HETATM    5  C4  UNL     1       2.222   0.587   0.174  1.00  0.00     0.107 A 
HETATM    6  C5  UNL     1       2.304   1.770   0.853  1.00  0.00     0.265 A 
HETATM    7  O3  UNL     1       3.370   2.354   1.027  1.00  0.00    -0.267 OA
HETATM    8  N3  UNL     1       1.206   2.339   1.358  1.00  0.00    -0.273 N 
ATOM      9  H3  UNL     1       1.275   3.223   1.862  1.00  0.00     0.173 HD
HETATM   10  C6  UNL     1      -0.001   1.741   1.200  1.00  0.00     0.350 A 
HETATM   11  O4  UNL     1      -0.994   2.343   1.707  1.00  0.00    -0.244 OA
HETATM   12  N4  UNL     1      -0.148   0.579   0.546  1.00  0.00    -0.184 N 
HETATM   13  C10 UNL     1       0.988  -0.031   0.011  1.00  0.00     0.165 A 
HETATM   14  N8  UNL     1       0.933  -1.188  -0.643  1.00  0.00    -0.174 N 
ATOM     15  H8  UNL     1       0.035  -1.654  -0.771  1.00  0.00     0.186 HD
ENDROOT
BRANCH  12  16
HETATM   16  N5  UNL     1      -1.343  -0.082   0.359  1.00  0.00    -0.256 N 
HETATM   17  C7  UNL     1      -2.638   0.196   0.772  1.00  0.00     0.269 C 
HETATM   18  O5  UNL     1      -3.008   1.157   1.439  1.00  0.00    -0.269 OA
ATOM     19  H5  UNL     1      -1.259  -0.939  -0.187  1.00  0.00     0.191 HD
BRANCH  17  20
HETATM   20  C8  UNL     1      -3.775  -0.757   0.390  1.00  0.00     0.301 C 
BRANCH  20  21
HETATM   21  N6  UNL     1      -4.996  -0.254   0.930  1.00  0.00    -0.065 N 
ATOM     22  H63 UNL     1      -4.941  -0.096   1.936  1.00  0.00     0.275 HD
ATOM     23  H62 UNL     1      -5.181   0.708   0.645  1.00  0.00     0.275 HD
ATOM     24  H61 UNL     1      -5.753  -0.889   0.676  1.00  0.00     0.275 HD
ENDBRANCH  20  21
BRANCH  20  25
HETATM   25  C9  UNL     1      -3.845  -0.891  -1.104  1.00  0.00     0.272 C 
BRANCH  25  26
HETATM   26  N7  UNL     1      -4.087   0.364  -1.770  1.00  0.00    -0.077 N 
ATOM     27  H73 UNL     1      -4.926   0.814  -1.405  1.00  0.00     0.274 HD
ATOM     28  H72 UNL     1      -3.393   1.060  -1.499  1.00  0.00     0.274 HD
ATOM     29  H71 UNL     1      -4.135   0.273  -2.785  1.00  0.00     0.274 HD
ENDBRANCH  25  26
ENDBRANCH  20  25
ENDBRANCH  17  20
ENDBRANCH  12  16
BRANCH   4  30
HETATM   30  C3  UNL     1       4.721   0.580  -0.254  1.00  0.00     0.306 C 
BRANCH  30  31
HETATM   31  O1  UNL     1       5.676  -0.382   0.171  1.00  0.00    -0.366 OA
ATOM     32  H1  UNL     1       6.554  -0.023   0.216  1.00  0.00     0.213 HD
ENDBRANCH  30  31
BRANCH  30  33
HETATM   33  O2  UNL     1       5.094   0.580  -1.676  1.00  0.00    -0.366 OA
ATOM     34  H2  UNL     1       5.972   0.939  -1.631  1.00  0.00     0.213 HD
ENDBRANCH  30  33
ENDBRANCH   4  30
BRANCH   1  35
HETATM   35  N1  UNL     1       1.999  -2.889  -1.781  1.00  0.00    -0.234 N 
ATOM     36  H12 UNL     1       2.847  -3.315  -2.156  1.00  0.00     0.174 HD
ATOM     37  H11 UNL     1       1.090  -3.338  -1.897  1.00  0.00     0.174 HD
ENDBRANCH   1  35
TORSDOF 9
