REMARK  5 active torsions:
REMARK  status: ('A' for Active; 'I' for Inactive)
REMARK    1  A    between atoms: C2_2  and  C3_3 
REMARK    2  A    between atoms: C3_3  and  C4_4 
REMARK    3  A    between atoms: C4_4  and  S1_5 
REMARK    4  A    between atoms: S1_5  and  C5_6 
REMARK    5  A    between atoms: C9_12  and  C10_13 
ROOT
HETATM    1  C5  UNL     1       1.784   0.894   1.347  1.00  0.00     0.001 A 
HETATM    2  C6  UNL     1       1.259   2.115   1.703  1.00  0.00     0.021 A 
HETATM    3  C7  UNL     1      -0.080   2.396   1.543  1.00  0.00     0.031 A 
HETATM    4  C8  UNL     1      -0.947   1.434   1.007  1.00  0.00     0.043 A 
HETATM    5  N1  UNL     1      -2.261   1.407   0.735  1.00  0.00    -0.355 N 
ATOM      6  H1  UNL     1      -2.902   2.183   0.900  1.00  0.00     0.166 HD
HETATM    7  C9  UNL     1      -2.618   0.221   0.216  1.00  0.00     0.043 A 
HETATM    8  C16 UNL     1      -1.477  -0.544   0.155  1.00  0.00     0.044 A 
HETATM    9  C17 UNL     1      -0.418   0.213   0.652  1.00  0.00    -0.006 A 
HETATM   10  C18 UNL     1       0.941  -0.055   0.822  1.00  0.00     0.032 A 
ENDROOT
BRANCH   7  11
HETATM   11  C10 UNL     1      -3.963  -0.203  -0.212  1.00  0.00    -0.009 A 
HETATM   12  C11 UNL     1      -5.044   0.647  -0.105  1.00  0.00     0.013 A 
HETATM   13  C12 UNL     1      -6.311   0.264  -0.503  1.00  0.00     0.001 A 
HETATM   14  C13 UNL     1      -6.537  -0.995  -1.025  1.00  0.00     0.000 A 
HETATM   15  C14 UNL     1      -5.446  -1.833  -1.126  1.00  0.00     0.001 A 
HETATM   16  C15 UNL     1      -4.169  -1.459  -0.729  1.00  0.00     0.013 A 
ENDBRANCH   7  11
BRANCH   1  17
HETATM   17  S1  UNL     1       3.510   0.486   1.536  1.00  0.00    -0.130 SA
BRANCH  17  18
HETATM   18  C4  UNL     1       4.452   0.923   0.044  1.00  0.00     0.079 C 
BRANCH  18  19
HETATM   19  C3  UNL     1       4.025   0.059  -1.133  1.00  0.00     0.010 C 
BRANCH  19  20
HETATM   20  C2  UNL     1       4.295  -1.394  -0.757  1.00  0.00    -0.004 C 
HETATM   21  C1  UNL     1       5.782  -1.579  -0.475  1.00  0.00     0.005 C 
ENDBRANCH  19  20
ENDBRANCH  18  19
ENDBRANCH  17  18
ENDBRANCH   1  17
TORSDOF 5
