REMARK  5 active torsions:
REMARK  status: ('A' for Active; 'I' for Inactive)
REMARK    1  A    between atoms: C2_2  and  C3_3 
REMARK    2  A    between atoms: C8_8  and  C9_9 
REMARK    3  A    between atoms: C9_9  and  N1_10 
REMARK    4  A    between atoms: N1_10  and  C10_12 
REMARK    5  A    between atoms: C15_17  and  C16_18 
ROOT
HETATM    1  C10 UNL     1       1.067  -1.576  -0.053  1.00  0.00     0.039 A 
HETATM    2  C11 UNL     1       0.637  -2.805  -0.390  1.00  0.00     0.030 A 
HETATM    3  C12 UNL     1       1.389  -3.673  -1.165  1.00  0.00     0.002 A 
HETATM    4  C13 UNL     1       2.675  -3.186  -1.581  1.00  0.00     0.001 A 
HETATM    5  C14 UNL     1       3.134  -1.947  -1.263  1.00  0.00     0.014 A 
HETATM    6  C15 UNL     1       2.288  -1.096  -0.463  1.00  0.00     0.001 A 
ENDROOT
BRANCH   1   7
HETATM    7  N1  UNL     1       0.182  -0.721   0.772  1.00  0.00    -0.385 N 
ATOM      8  H1  UNL     1       0.528   0.020   1.382  1.00  0.00     0.160 HD
BRANCH   7   9
HETATM    9  C9  UNL     1      -1.259  -1.049   0.624  1.00  0.00     0.159 C 
BRANCH   9  10
HETATM   10  C8  UNL     1      -2.072   0.107   1.064  1.00  0.00    -0.034 A 
HETATM   11  C3  UNL     1      -2.962   0.602   0.140  1.00  0.00    -0.051 A 
HETATM   12  C4  UNL     1      -3.771   1.640   0.467  1.00  0.00     0.007 A 
HETATM   13  C5  UNL     1      -3.664   2.177   1.758  1.00  0.00     0.001 A 
HETATM   14  C6  UNL     1      -2.791   1.688   2.679  1.00  0.00     0.001 A 
HETATM   15  C7  UNL     1      -1.964   0.613   2.315  1.00  0.00     0.009 A 
BRANCH  11  16
HETATM   16  C2  UNL     1      -3.020  -0.090  -1.180  1.00  0.00     0.034 C 
HETATM   17  C1  UNL     1      -3.873   0.552  -2.190  1.00  0.00     0.010 C 
ENDBRANCH  11  16
ENDBRANCH   9  10
ENDBRANCH   7   9
ENDBRANCH   1   7
BRANCH   6  18
HETATM   18  C16 UNL     1       2.826   0.175  -0.148  1.00  0.00    -0.024 A 
HETATM   19  C17 UNL     1       3.130   1.115  -1.122  1.00  0.00     0.012 A 
HETATM   20  C18 UNL     1       3.731   2.316  -0.708  1.00  0.00     0.001 A 
HETATM   21  C19 UNL     1       4.024   2.599   0.589  1.00  0.00     0.000 A 
HETATM   22  C20 UNL     1       3.701   1.635   1.534  1.00  0.00     0.001 A 
HETATM   23  C21 UNL     1       3.106   0.444   1.151  1.00  0.00     0.012 A 
ENDBRANCH   6  18
TORSDOF 5
