REMARK  5 active torsions:
REMARK  status: ('A' for Active; 'I' for Inactive)
REMARK    1  A    between atoms: C2_2  and  C3_3 
REMARK    2  A    between atoms: C6_6  and  C7_7 
REMARK    3  A    between atoms: C7_7  and  N1_8 
REMARK    4  A    between atoms: N1_8  and  C8_10 
REMARK    5  A    between atoms: C11_13  and  C12_14 
ROOT
HETATM    1  C8  UNL     1      -0.887   0.107  -0.131  1.00  0.00     0.028 A 
HETATM    2  C9  UNL     1      -1.670  -0.806   0.557  1.00  0.00     0.030 A 
HETATM    3  C10 UNL     1      -3.041  -0.720   0.475  1.00  0.00     0.014 A 
HETATM    4  C11 UNL     1      -3.677   0.246  -0.269  1.00  0.00    -0.026 A 
HETATM    5  C18 UNL     1      -2.868   1.139  -0.941  1.00  0.00     0.014 A 
HETATM    6  C19 UNL     1      -1.494   1.083  -0.883  1.00  0.00     0.030 A 
ENDROOT
BRANCH   1   7
HETATM    7  N1  UNL     1       0.526   0.063  -0.080  1.00  0.00    -0.386 N 
ATOM      8  H1  UNL     1       1.056   0.755  -0.610  1.00  0.00     0.160 HD
BRANCH   7   9
HETATM    9  C7  UNL     1       1.253  -0.925   0.695  1.00  0.00     0.158 C 
BRANCH   9  10
HETATM   10  C6  UNL     1       2.728  -0.728   0.555  1.00  0.00    -0.041 A 
HETATM   11  C5  UNL     1       3.423   0.110   1.401  1.00  0.00     0.009 A 
HETATM   12  C4  UNL     1       4.770   0.268   1.246  1.00  0.00     0.007 A 
HETATM   13  C3  UNL     1       5.464  -0.404   0.246  1.00  0.00    -0.059 A 
HETATM   14  C21 UNL     1       4.795  -1.248  -0.613  1.00  0.00     0.007 A 
HETATM   15  C20 UNL     1       3.434  -1.399  -0.447  1.00  0.00     0.009 A 
BRANCH  13  16
HETATM   16  C2  UNL     1       6.924  -0.254   0.052  1.00  0.00     0.034 C 
HETATM   17  C1  UNL     1       7.265   0.866  -0.893  1.00  0.00     0.010 C 
ENDBRANCH  13  16
ENDBRANCH   9  10
ENDBRANCH   7   9
ENDBRANCH   1   7
BRANCH   4  18
HETATM   18  C12 UNL     1      -5.136   0.308  -0.332  1.00  0.00    -0.026 A 
HETATM   19  C13 UNL     1      -5.891  -0.843  -0.250  1.00  0.00     0.012 A 
HETATM   20  C14 UNL     1      -7.278  -0.823  -0.306  1.00  0.00     0.001 A 
HETATM   21  C15 UNL     1      -7.880   0.415  -0.448  1.00  0.00     0.000 A 
HETATM   22  C16 UNL     1      -7.154   1.573  -0.531  1.00  0.00     0.001 A 
HETATM   23  C17 UNL     1      -5.779   1.519  -0.473  1.00  0.00     0.012 A 
ENDBRANCH   4  18
TORSDOF 5
