REMARK  5 active torsions:
REMARK  status: ('A' for Active; 'I' for Inactive)
REMARK    1  A    between atoms: C2_2  and  C3_3 
REMARK    2  A    between atoms: C2_2  and  C9_9 
REMARK    3  A    between atoms: C14_14  and  N1_15 
REMARK    4  A    between atoms: N1_15  and  C15_17 
REMARK    5  A    between atoms: C15_17  and  C16_18 
ROOT
HETATM    1  C9  UNL     1      -1.292   1.245  -1.518  1.00  0.00    -0.024 A 
HETATM    2  C10 UNL     1      -1.963   2.331  -2.079  1.00  0.00     0.010 A 
HETATM    3  C11 UNL     1      -1.481   3.617  -2.090  1.00  0.00     0.001 A 
HETATM    4  C12 UNL     1      -0.265   3.877  -1.519  1.00  0.00     0.002 A 
HETATM    5  C13 UNL     1       0.430   2.850  -0.957  1.00  0.00     0.029 A 
HETATM    6  C14 UNL     1      -0.083   1.540  -0.956  1.00  0.00     0.035 A 
ENDROOT
BRANCH   6   7
HETATM    7  N1  UNL     1       0.667   0.494  -0.352  1.00  0.00    -0.385 N 
ATOM      8  H1  UNL     1       0.313  -0.462  -0.323  1.00  0.00     0.160 HD
BRANCH   7   9
HETATM    9  C15 UNL     1       1.934   0.832   0.213  1.00  0.00     0.158 C 
BRANCH   9  10
HETATM   10  C16 UNL     1       2.699  -0.242   0.832  1.00  0.00    -0.041 A 
HETATM   11  C17 UNL     1       2.318  -1.552   0.990  1.00  0.00     0.009 A 
HETATM   12  C18 UNL     1       3.112  -2.505   1.589  1.00  0.00     0.001 A 
HETATM   13  C19 UNL     1       4.369  -2.166   2.073  1.00  0.00     0.000 A 
HETATM   14  C20 UNL     1       4.771  -0.860   1.926  1.00  0.00     0.001 A 
HETATM   15  C21 UNL     1       3.968   0.083   1.325  1.00  0.00     0.009 A 
ENDBRANCH   9  10
ENDBRANCH   7   9
ENDBRANCH   6   7
BRANCH   1  16
HETATM   16  C2  UNL     1      -1.918  -0.086  -1.581  1.00  0.00     0.050 C 
HETATM   17  C1  UNL     1      -1.203  -1.087  -2.404  1.00  0.00     0.020 C 
BRANCH  16  18
HETATM   18  C3  UNL     1      -2.319  -0.635  -0.265  1.00  0.00    -0.050 A 
HETATM   19  C4  UNL     1      -2.359  -1.981  -0.026  1.00  0.00     0.008 A 
HETATM   20  C5  UNL     1      -2.734  -2.480   1.223  1.00  0.00     0.001 A 
HETATM   21  C6  UNL     1      -3.075  -1.638   2.256  1.00  0.00     0.000 A 
HETATM   22  C7  UNL     1      -3.035  -0.279   2.017  1.00  0.00     0.001 A 
HETATM   23  C8  UNL     1      -2.665   0.207   0.783  1.00  0.00     0.008 A 
ENDBRANCH  16  18
ENDBRANCH   1  16
TORSDOF 5
