REMARK  6 active torsions:
REMARK  status: ('A' for Active; 'I' for Inactive)
REMARK    1  A    between atoms: O1_1  and  C1_3 
REMARK    2  A    between atoms: C3_5  and  C4_6 
REMARK    3  A    between atoms: C4_6  and  C5_7 
REMARK    4  A    between atoms: C5_7  and  C6_8 
REMARK    5  A    between atoms: C6_8  and  C7_9 
REMARK    6  A    between atoms: C7_9  and  C8_10 
ROOT
HETATM    1  C1  UNL     1      -3.888  -2.264   0.828  1.00  0.00     0.067 A 
HETATM    2  C2  UNL     1      -2.624  -2.153   0.286  1.00  0.00     0.044 A 
HETATM    3  C3  UNL     1      -2.143  -0.984  -0.232  1.00  0.00    -0.044 A 
HETATM    4  C14 UNL     1      -2.932   0.133  -0.221  1.00  0.00    -0.019 A 
HETATM    5  C15 UNL     1      -2.518   1.346  -0.733  1.00  0.00     0.013 A 
HETATM    6  C16 UNL     1      -3.344   2.470  -0.716  1.00  0.00     0.001 A 
HETATM    7  C17 UNL     1      -4.609   2.409  -0.186  1.00  0.00     0.001 A 
HETATM    8  C18 UNL     1      -5.026   1.200   0.325  1.00  0.00     0.012 A 
HETATM    9  C19 UNL     1      -4.225   0.078   0.318  1.00  0.00    -0.023 A 
HETATM   10  C20 UNL     1      -4.671  -1.124   0.830  1.00  0.00     0.048 A 
ENDROOT
BRANCH   3  11
HETATM   11  C4  UNL     1      -0.780  -0.932  -0.769  1.00  0.00     0.039 C 
BRANCH  11  12
HETATM   12  C5  UNL     1       0.137  -0.321   0.247  1.00  0.00     0.005 C 
BRANCH  12  13
HETATM   13  C6  UNL     1       1.547  -0.251  -0.304  1.00  0.00     0.005 C 
BRANCH  13  14
HETATM   14  C7  UNL     1       2.462   0.378   0.742  1.00  0.00     0.038 C 
BRANCH  14  15
HETATM   15  C8  UNL     1       3.822   0.428   0.158  1.00  0.00    -0.058 A 
HETATM   16  C9  UNL     1       4.203   1.535  -0.565  1.00  0.00     0.007 A 
HETATM   17  C10 UNL     1       5.484   1.579  -1.112  1.00  0.00     0.001 A 
HETATM   18  C11 UNL     1       6.362   0.506  -0.922  1.00  0.00     0.000 A 
HETATM   19  C12 UNL     1       5.975  -0.596  -0.199  1.00  0.00     0.001 A 
HETATM   20  C13 UNL     1       4.704  -0.619   0.333  1.00  0.00     0.007 A 
ENDBRANCH  14  15
ENDBRANCH  13  14
ENDBRANCH  12  13
ENDBRANCH  11  12
ENDBRANCH   3  11
BRANCH   1  21
HETATM   21  O1  UNL     1      -4.363  -3.455   1.349  1.00  0.00    -0.361 OA
ATOM     22  H1  UNL     1      -5.233  -3.531   1.722  1.00  0.00     0.217 HD
ENDBRANCH   1  21
TORSDOF 6
