REMARK  9 active torsions:
REMARK  status: ('A' for Active; 'I' for Inactive)
REMARK    1  A    between atoms: N1_1  and  N2_4 
REMARK    2  A    between atoms: N2_4  and  N3_6 
REMARK    3  A    between atoms: N3_6  and  C1_8 
REMARK    4  A    between atoms: C2_11  and  C3_12 
REMARK    5  A    between atoms: C3_12  and  N5_13 
REMARK    6  A    between atoms: C4_17  and  O1_18 
REMARK    7  A    between atoms: N6_20  and  N7_21 
REMARK    8  A    between atoms: C8_27  and  N9_28 
REMARK    9  A    between atoms: C9_34  and  N12_35 
ROOT
HETATM    1  C1  UNL     1      -2.126   1.083  -0.710  1.00  0.00     0.714 C 
HETATM    2  N4  UNL     1      -3.294   0.744  -1.177  1.00  0.00    -0.213 N 
ATOM      3  H4  UNL     1      -3.980   1.396  -1.557  1.00  0.00     0.178 HD
HETATM    4  C2  UNL     1      -3.480  -0.689  -1.080  1.00  0.00     0.175 C 
HETATM    5  C4  UNL     1      -2.104  -1.203  -0.855  1.00  0.00     0.284 C 
HETATM    6  N6  UNL     1      -1.416  -0.077  -0.251  1.00  0.00    -0.083 N 
ENDROOT
BRANCH   6   7
HETATM    7  N7  UNL     1      -0.299  -0.050   0.591  1.00  0.00    -0.230 N 
HETATM    8  C5  UNL     1      -0.323   0.151   1.925  1.00  0.00     0.209 A 
HETATM    9  N8  UNL     1       0.906   0.123   2.442  1.00  0.00    -0.335 N 
HETATM   10  C6  UNL     1       1.763  -0.101   1.429  1.00  0.00     0.133 A 
ATOM     11  H8  UNL     1       1.151   0.248   3.424  1.00  0.00     0.168 HD
HETATM   12  C7  UNL     1       1.002  -0.209   0.273  1.00  0.00     0.127 A 
HETATM   13  N13 UNL     1       3.174  -0.189   1.548  1.00  0.00    -0.333 N 
HETATM   14  C8  UNL     1       1.479  -0.478  -1.097  1.00  0.00     0.347 C 
HETATM   15  N10 UNL     1       2.937  -0.623  -1.101  1.00  0.00    -0.105 NA
HETATM   16  N11 UNL     1       3.569   0.521  -0.660  1.00  0.00    -0.092 NA
HETATM   17  C9  UNL     1       4.194   0.324   0.654  1.00  0.00     0.394 C 
ATOM     18  H13 UNL     1       3.517  -0.679   2.374  1.00  0.00     0.164 HD
BRANCH  14  19
HETATM   19  N9  UNL     1       1.168   0.546  -2.060  1.00  0.00    -0.054 N 
ATOM     20  H93 UNL     1       0.165   0.731  -2.066  1.00  0.00     0.276 HD
ATOM     21  H92 UNL     1       1.514   1.450  -1.738  1.00  0.00     0.276 HD
ATOM     22  H91 UNL     1       1.498   0.360  -3.007  1.00  0.00     0.276 HD
ENDBRANCH  14  19
BRANCH  17  23
HETATM   23  N12 UNL     1       5.307  -0.561   0.494  1.00  0.00    -0.043 N 
ATOM     24 3H12 UNL     1       5.048  -1.440   0.046  1.00  0.00     0.278 HD
ATOM     25 2H12 UNL     1       5.969  -0.236  -0.211  1.00  0.00     0.278 HD
ATOM     26 1H12 UNL     1       5.741  -0.698   1.407  1.00  0.00     0.278 HD
ENDBRANCH  17  23
ENDBRANCH   6   7
BRANCH   1  27
HETATM   27  N3  UNL     1      -1.618   2.411  -0.650  1.00  0.00    -0.117 N 
ATOM     28  H3  UNL     1      -1.361   2.900  -1.507  1.00  0.00     0.207 HD
BRANCH  27  29
HETATM   29  N2  UNL     1      -1.472   3.042   0.588  1.00  0.00    -0.235 N 
ATOM     30  H2  UNL     1      -2.125   2.859   1.350  1.00  0.00     0.208 HD
BRANCH  29  31
HETATM   31  N1  UNL     1      -0.508   3.845   0.738  1.00  0.00    -0.330 N 
ATOM     32  H12 UNL     1       0.137   4.017  -0.033  1.00  0.00     0.178 HD
ATOM     33  H11 UNL     1      -0.401   4.306   1.642  1.00  0.00     0.178 HD
ENDBRANCH  29  31
ENDBRANCH  27  29
ENDBRANCH   1  27
BRANCH   5  34
HETATM   34  O1  UNL     1      -2.001  -2.369  -0.144  1.00  0.00    -0.372 OA
ATOM     35  H1  UNL     1      -1.121  -2.698  -0.000  1.00  0.00     0.212 HD
ENDBRANCH   5  34
BRANCH   4  36
HETATM   36  C3  UNL     1      -4.496  -1.061  -0.047  1.00  0.00     0.259 C 
BRANCH  36  37
HETATM   37  N5  UNL     1      -4.213  -0.643   1.285  1.00  0.00    -0.077 N 
ATOM     38  H53 UNL     1      -3.293  -0.982   1.566  1.00  0.00     0.274 HD
ATOM     39  H52 UNL     1      -4.051   0.364   1.305  1.00  0.00     0.274 HD
ATOM     40  H51 UNL     1      -4.906  -0.897   1.989  1.00  0.00     0.274 HD
ENDBRANCH  36  37
ENDBRANCH   4  36
TORSDOF 9
