REMARK  6 active torsions:
REMARK  status: ('A' for Active; 'I' for Inactive)
REMARK       I    between atoms: C1_2  and  N2_4 
REMARK    1  A    between atoms: N2_4  and  N3_6 
REMARK    2  A    between atoms: N3_6  and  C2_7 
REMARK    3  A    between atoms: C8_23  and  C9_24 
REMARK    4  A    between atoms: C9_24  and  O3_25 
REMARK    5  A    between atoms: C9_24  and  C10_27 
REMARK    6  A    between atoms: C10_27  and  O4_28 
ROOT
HETATM    1  C2  UNL     1      -0.891   1.046   0.573  1.00  0.00     0.369 C 
HETATM    2  N4  UNL     1      -0.116   1.537  -0.563  1.00  0.00    -0.047 N 
ATOM      3  H41 UNL     1      -0.233   2.537  -0.724  1.00  0.00     0.279 HD
ATOM      4  H42 UNL     1      -0.477   1.216  -1.461  1.00  0.00     0.279 HD
HETATM    5  C3  UNL     1       1.236   1.164  -0.343  1.00  0.00     0.254 C 
HETATM    6  C4  UNL     1       2.309   2.081  -0.822  1.00  0.00     0.151 C 
HETATM    7  N5  UNL     1       3.585   1.436  -0.567  1.00  0.00    -0.351 N 
ATOM      8  H5  UNL     1       4.396   2.050  -0.491  1.00  0.00     0.163 HD
HETATM    9  C5  UNL     1       3.833   0.035  -0.410  1.00  0.00     0.262 C 
HETATM   10  N6  UNL     1       4.931  -0.390  -1.284  1.00  0.00    -0.049 NA
HETATM   11  N7  UNL     1       3.298  -0.776   0.298  1.00  0.00    -0.381 NA
HETATM   12  C6  UNL     1       2.724  -1.715   1.075  1.00  0.00     0.260 C 
HETATM   13  C7  UNL     1       1.734  -2.647   0.468  1.00  0.00     0.271 C 
HETATM   14  O2  UNL     1       2.293  -3.630  -0.160  1.00  0.00    -0.266 OA
HETATM   15  N8  UNL     1       0.325  -2.560   0.513  1.00  0.00    -0.341 N 
ATOM     16  H8  UNL     1      -0.138  -3.372   0.921  1.00  0.00     0.163 HD
HETATM   17  C8  UNL     1      -0.555  -1.530   0.085  1.00  0.00     0.189 C 
HETATM   18  C11 UNL     1      -0.648  -0.338   0.964  1.00  0.00     0.200 C 
HETATM   19  O5  UNL     1      -0.497  -0.590   2.151  1.00  0.00    -0.292 OA
ENDROOT
BRANCH   1  20
HETATM   20  N3  UNL     1      -2.292   1.395   0.475  1.00  0.00    -0.096 NA
BRANCH  20  21
HETATM   21  N2  UNL     1      -2.458   2.782   0.470  1.00  0.00    -0.256 N 
HETATM   22  C1  UNL     1      -3.735   3.394   0.363  1.00  0.00     0.344 C 
HETATM   23  N1  UNL     1      -3.907   4.800   0.357  1.00  0.00    -0.039 NA
HETATM   24  O1  UNL     1      -4.738   2.640   0.272  1.00  0.00    -0.250 OA
ATOM     25  H2  UNL     1      -1.633   3.376   0.546  1.00  0.00     0.186 HD
ENDBRANCH  20  21
ENDBRANCH   1  20
BRANCH  17  26
HETATM   26  C9  UNL     1      -1.988  -2.108   0.076  1.00  0.00     0.171 C 
BRANCH  26  27
HETATM   27  O3  UNL     1      -2.388  -2.544   1.320  1.00  0.00    -0.391 OA
ATOM     28  H3  UNL     1      -3.269  -2.899   1.314  1.00  0.00     0.210 HD
ENDBRANCH  26  27
BRANCH  26  29
HETATM   29  C10 UNL     1      -2.028  -3.296  -0.898  1.00  0.00     0.198 C 
BRANCH  29  30
HETATM   30  O4  UNL     1      -3.313  -3.812  -0.984  1.00  0.00    -0.398 OA
ATOM     31  H4  UNL     1      -3.338  -4.546  -1.586  1.00  0.00     0.209 HD
ENDBRANCH  29  30
ENDBRANCH  26  29
ENDBRANCH  17  26
TORSDOF 6
