REMARK  8 active torsions:
REMARK  status: ('A' for Active; 'I' for Inactive)
REMARK    1  A    between atoms: N1_1  and  N2_4 
REMARK    2  A    between atoms: C1_5  and  O1_6 
REMARK    3  A    between atoms: C2_8  and  O2_9 
REMARK    4  A    between atoms: C3_11  and  N3_12 
REMARK    5  A    between atoms: N6_25  and  C9_26 
REMARK    6  A    between atoms: C9_26  and  O6_27 
REMARK    7  A    between atoms: C10_29  and  O7_30 
REMARK    8  A    between atoms: C10_29  and  O8_32 
ROOT
HETATM    1  N3  UNL     1      -0.002  -0.236   0.067  1.00  0.00    -0.268 N 
HETATM    2  C4  UNL     1       0.034  -1.492   0.556  1.00  0.00     0.331 A 
HETATM    3  O3  UNL     1      -1.055  -2.067   0.789  1.00  0.00    -0.246 OA
HETATM    4  N4  UNL     1       1.167  -2.166   0.808  1.00  0.00    -0.273 N 
ATOM      5  H4  UNL     1       1.109  -3.115   1.178  1.00  0.00     0.173 HD
HETATM    6  C5  UNL     1       2.385  -1.620   0.584  1.00  0.00     0.280 A 
HETATM    7  O4  UNL     1       3.420  -2.292   0.836  1.00  0.00    -0.265 OA
HETATM    8  C6  UNL     1       2.403  -0.349   0.090  1.00  0.00     0.154 A 
HETATM    9  C7  UNL     1       1.234   0.310  -0.156  1.00  0.00     0.149 A 
HETATM   10  N5  UNL     1       1.571   1.515  -0.628  1.00  0.00    -0.292 N 
ATOM     11  H5  UNL     1       0.921   2.249  -0.908  1.00  0.00     0.172 HD
HETATM   12  C8  UNL     1       2.912   1.595  -0.671  1.00  0.00     0.330 A 
HETATM   13  O5  UNL     1       3.554   2.597  -1.066  1.00  0.00    -0.246 OA
HETATM   14  N6  UNL     1       3.436   0.442  -0.227  1.00  0.00    -0.269 N 
ENDROOT
BRANCH   1  15
HETATM   15  C3  UNL     1      -1.202   0.482  -0.201  1.00  0.00     0.216 C 
HETATM   16  C2  UNL     1      -2.121  -0.122  -1.221  1.00  0.00     0.199 C 
HETATM   17  C1  UNL     1      -3.413  -0.427  -0.470  1.00  0.00     0.271 C 
HETATM   18  N2  UNL     1      -3.342   0.227   0.781  1.00  0.00    -0.242 N 
HETATM   19  C10 UNL     1      -2.060   0.793   0.995  1.00  0.00     0.286 C 
BRANCH  16  20
HETATM   20  O2  UNL     1      -1.616  -1.204  -1.897  1.00  0.00    -0.389 OA
ATOM     21  H2  UNL     1      -0.811  -1.014  -2.365  1.00  0.00     0.210 HD
ENDBRANCH  16  20
BRANCH  17  22
HETATM   22  O1  UNL     1      -4.534   0.108  -1.153  1.00  0.00    -0.372 OA
ATOM     23  H1  UNL     1      -4.582  -0.332  -1.994  1.00  0.00     0.212 HD
ENDBRANCH  17  22
BRANCH  18  24
HETATM   24  N1  UNL     1      -3.968  -0.352   1.849  1.00  0.00    -0.340 N 
ATOM     25  H12 UNL     1      -4.890  -0.759   1.695  1.00  0.00     0.176 HD
ATOM     26  H11 UNL     1      -3.917   0.120   2.752  1.00  0.00     0.176 HD
ENDBRANCH  18  24
BRANCH  19  27
HETATM   27  O7  UNL     1      -2.264   2.189   1.155  1.00  0.00    -0.346 OA
ATOM     28  H7  UNL     1      -1.405   2.568   1.298  1.00  0.00     0.215 HD
ENDBRANCH  19  27
BRANCH  19  29
HETATM   29  O8  UNL     1      -1.467   0.401   2.208  1.00  0.00    -0.346 OA
ATOM     30  H8  UNL     1      -0.608   0.780   2.351  1.00  0.00     0.215 HD
ENDBRANCH  19  29
ENDBRANCH   1  15
BRANCH  14  31
HETATM   31  C9  UNL     1       4.861   0.161  -0.130  1.00  0.00     0.300 C 
BRANCH  31  32
HETATM   32  O6  UNL     1       5.304   0.553   1.127  1.00  0.00    -0.382 OA
ATOM     33  H6  UNL     1       6.234   0.370   1.190  1.00  0.00     0.211 HD
ENDBRANCH  31  32
ENDBRANCH  14  31
TORSDOF 8
