REMARK  1 active torsions:
REMARK  status: ('A' for Active; 'I' for Inactive)
REMARK    1  A    between atoms: C4_4  and  C5_5 
ROOT
HETATM    1  C5  UNL     1      -0.322   0.184   0.129  1.00  0.00     0.190 C 
HETATM    2  C6  UNL     1      -1.673   0.457   0.736  1.00  0.00     0.035 C 
HETATM    3  C7  UNL     1      -2.465   0.769  -0.543  1.00  0.00     0.029 C 
HETATM    4  C8  UNL     1      -1.929  -0.264  -1.483  1.00  0.00     0.233 C 
HETATM    5  N1  UNL     1      -0.704  -0.786  -0.905  1.00  0.00    -0.070 N 
ATOM      6  H11 UNL     1      -0.786  -1.743  -0.562  1.00  0.00     0.277 HD
ATOM      7  H12 UNL     1       0.030  -0.968  -1.590  1.00  0.00     0.277 HD
ENDROOT
BRANCH   1   8
HETATM    8  C4  UNL     1       0.663  -0.392   1.092  1.00  0.00     0.020 A 
HETATM    9  C2  UNL     1       2.020  -0.680   0.530  1.00  0.00    -0.012 A 
HETATM   10  C1  UNL     1       2.436  -0.153  -0.804  1.00  0.00     0.010 C 
HETATM   11  C3  UNL     1       1.815   0.381   1.604  1.00  0.00     0.011 A 
ENDBRANCH   1   8
TORSDOF 1
