REMARK  2 active torsions:
REMARK  status: ('A' for Active; 'I' for Inactive)
REMARK    1  A    between atoms: N1_1  and  C1_5 
REMARK    2  A    between atoms: C1_5  and  C2_6 
ROOT
HETATM    1  C2  UNL     1       0.787  -0.418   0.263  1.00  0.00     0.015 C 
HETATM    2  C3  UNL     1       0.165   0.847   0.808  1.00  0.00     0.011 C 
HETATM    3  C4  UNL     1      -1.315   0.560   0.862  1.00  0.00    -0.014 C 
HETATM    4  C5  UNL     1      -1.872   0.783  -0.520  1.00  0.00     0.005 C 
HETATM    5  C6  UNL     1      -1.071  -0.227  -1.321  1.00  0.00     0.005 C 
HETATM    6  C7  UNL     1      -0.384  -1.127  -0.324  1.00  0.00    -0.009 C 
HETATM    7  C8  UNL     1      -1.338  -0.976   0.878  1.00  0.00     0.010 C 
ENDROOT
BRANCH   1   8
HETATM    8  C1  UNL     1       1.926  -0.181  -0.650  1.00  0.00     0.234 C 
BRANCH   8   9
HETATM    9  N1  UNL     1       2.945   0.550   0.122  1.00  0.00    -0.079 N 
ATOM     10  H13 UNL     1       2.589   1.404   0.550  1.00  0.00     0.274 HD
ATOM     11  H12 UNL     1       3.213   0.076   0.984  1.00  0.00     0.274 HD
ATOM     12  H11 UNL     1       3.731   0.713  -0.508  1.00  0.00     0.274 HD
ENDBRANCH   8   9
ENDBRANCH   1   8
TORSDOF 2
