REMARK  1 active torsions:
REMARK  status: ('A' for Active; 'I' for Inactive)
REMARK    1  A    between atoms: C2_2  and  C3_3 
ROOT
HETATM    1  C3  UNL     1       0.700  -0.354  -0.316  1.00  0.00     0.186 C 
HETATM    2  C4  UNL     1      -0.194  -0.455  -1.504  1.00  0.00     0.035 C 
HETATM    3  C5  UNL     1      -1.596  -0.309  -0.942  1.00  0.00     0.034 C 
HETATM    4  C6  UNL     1      -1.360  -0.354   0.541  1.00  0.00     0.182 C 
HETATM    5  C7  UNL     1      -2.467   0.268   1.343  1.00  0.00     0.040 C 
HETATM    6  N1  UNL     1      -0.102   0.360   0.674  1.00  0.00    -0.067 N 
ATOM      7  H11 UNL     1      -0.151   1.372   0.560  1.00  0.00     0.278 HD
ATOM      8  H12 UNL     1       0.288   0.403   1.616  1.00  0.00     0.278 HD
ENDROOT
BRANCH   1   9
HETATM    9  C2  UNL     1       2.006   0.338  -0.590  1.00  0.00     0.028 C 
HETATM   10  C1  UNL     1       2.790   0.356   0.711  1.00  0.00     0.007 C 
ENDBRANCH   1   9
TORSDOF 1
