REMARK  3 active torsions:
REMARK  status: ('A' for Active; 'I' for Inactive)
REMARK    1  A    between atoms: N1_1  and  C1_5 
REMARK    2  A    between atoms: C1_5  and  C2_6 
REMARK    3  A    between atoms: C2_6  and  N2_7 
ROOT
HETATM    1  N2  UNL     1      -0.611   0.674  -0.300  1.00  0.00     0.108 N 
HETATM    2  C3  UNL     1       0.443   1.550   0.167  1.00  0.00     0.274 C 
HETATM    3  C4  UNL     1       1.497   0.854   0.968  1.00  0.00     0.030 C 
HETATM    4  C5  UNL     1       2.590   0.294   0.106  1.00  0.00     0.002 C 
HETATM    5  C6  UNL     1       2.240  -1.005  -0.561  1.00  0.00     0.003 C 
HETATM    6  C7  UNL     1       0.771  -1.365  -0.417  1.00  0.00     0.052 C 
HETATM    7  C8  UNL     1      -0.068  -0.341  -1.128  1.00  0.00     0.318 C 
HETATM    8 CL1  UNL     1      -1.277  -1.161  -2.153  1.00  0.00    -0.092 Cl
ENDROOT
BRANCH   1   9
HETATM    9  C2  UNL     1      -1.382   0.279   0.822  1.00  0.00     0.301 C 
BRANCH   9  10
HETATM   10  C1  UNL     1      -2.656  -0.454   0.522  1.00  0.00     0.259 C 
BRANCH  10  11
HETATM   11  N1  UNL     1      -3.550   0.254  -0.352  1.00  0.00    -0.078 N 
ATOM     12  H13 UNL     1      -3.751   1.183   0.019  1.00  0.00     0.274 HD
ATOM     13  H12 UNL     1      -3.074   0.512  -1.217  1.00  0.00     0.274 HD
ATOM     14  H11 UNL     1      -4.416  -0.244  -0.556  1.00  0.00     0.274 HD
ENDBRANCH  10  11
ENDBRANCH   9  10
ENDBRANCH   1   9
TORSDOF 3
