REMARK  2 active torsions:
REMARK  status: ('A' for Active; 'I' for Inactive)
REMARK    1  A    between atoms: C4_4  and  N1_5 
REMARK    2  A    between atoms: N1_5  and  C5_7 
ROOT
HETATM    1  C5  UNL     1       0.937   0.371  -0.176  1.00  0.00     0.083 C 
HETATM    2  C6  UNL     1       1.969   1.071  -1.004  1.00  0.00     0.069 C 
HETATM    3  C7  UNL     1       3.358   0.976  -0.498  1.00  0.00     0.057 C 
HETATM    4  N2  UNL     1       3.685  -0.133   0.304  1.00  0.00    -0.402 N 
ATOM      5  H2  UNL     1       4.633  -0.510   0.311  1.00  0.00     0.158 HD
HETATM    6  C8  UNL     1       2.670  -0.713   1.101  1.00  0.00     0.120 C 
HETATM    7  C9  UNL     1       1.468  -0.993   0.206  1.00  0.00     0.044 C 
ENDROOT
BRANCH   1   8
HETATM    8  N1  UNL     1      -0.287   0.326  -0.911  1.00  0.00    -0.413 N 
ATOM      9  H1  UNL     1      -0.385   0.759  -1.829  1.00  0.00     0.154 HD
BRANCH   8  10
HETATM   10  C4  UNL     1      -1.364  -0.364  -0.278  1.00  0.00     0.077 C 
HETATM   11  C3  UNL     1      -1.808   0.246   1.013  1.00  0.00     0.024 C 
HETATM   12  C2  UNL     1      -3.231  -0.324   1.128  1.00  0.00     0.002 C 
HETATM   13  C1  UNL     1      -3.755   0.073  -0.259  1.00  0.00     0.002 C 
HETATM   14  C10 UNL     1      -2.592  -0.280  -1.142  1.00  0.00     0.024 C 
ENDBRANCH   8  10
ENDBRANCH   1   8
TORSDOF 2
