REMARK  2 active torsions:
REMARK  status: ('A' for Active; 'I' for Inactive)
REMARK    1  A    between atoms: C4_4  and  N1_5 
REMARK    2  A    between atoms: N1_5  and  C5_7 
ROOT
HETATM    1  C5  UNL     1       1.017  -0.037  -1.073  1.00  0.00     0.094 C 
HETATM    2  C6  UNL     1       1.796   1.214  -0.696  1.00  0.00     0.028 C 
HETATM    3  C7  UNL     1       3.190   0.908  -0.254  1.00  0.00     0.021 C 
HETATM    4  C8  UNL     1       3.225  -0.104   0.849  1.00  0.00     0.114 C 
HETATM    5  N2  UNL     1       2.119  -0.979   0.922  1.00  0.00    -0.419 N 
ATOM      6  H2  UNL     1       1.843  -1.411   1.804  1.00  0.00     0.153 HD
HETATM    7  C9  UNL     1       1.402  -1.235  -0.287  1.00  0.00     0.138 C 
ENDROOT
BRANCH   1   8
HETATM    8  N1  UNL     1      -0.334   0.324  -1.122  1.00  0.00    -0.411 N 
ATOM      9  H1  UNL     1      -0.612   1.116  -1.702  1.00  0.00     0.154 HD
BRANCH   8  10
HETATM   10  C4  UNL     1      -1.318  -0.366  -0.401  1.00  0.00     0.077 C 
HETATM   11  C3  UNL     1      -1.401  -0.100   1.068  1.00  0.00     0.024 C 
HETATM   12  C2  UNL     1      -2.845  -0.513   1.354  1.00  0.00     0.002 C 
HETATM   13  C1  UNL     1      -3.580   0.213   0.265  1.00  0.00     0.002 C 
HETATM   14  C10 UNL     1      -2.655   0.167  -0.903  1.00  0.00     0.024 C 
ENDBRANCH   8  10
ENDBRANCH   1   8
TORSDOF 2
