REMARK  3 active torsions:
REMARK  status: ('A' for Active; 'I' for Inactive)
REMARK    1  A    between atoms: N1_1  and  C1_5 
REMARK    2  A    between atoms: C1_5  and  C2_6 
REMARK    3  A    between atoms: C2_6  and  C3_7 
ROOT
HETATM    1  C3  UNL     1      -0.311  -0.244   0.683  1.00  0.00     0.037 C 
HETATM    2  S1  UNL     1      -0.116  -0.288   2.481  1.00  0.00    -0.085 SA
HETATM    3  C4  UNL     1      -0.643   1.141   0.216  1.00  0.00     0.023 C 
HETATM    4  C5  UNL     1      -1.163   0.896  -1.191  1.00  0.00     0.003 C 
HETATM    5  C6  UNL     1      -2.116  -0.273  -0.935  1.00  0.00     0.022 C 
HETATM    6  C7  UNL     1      -1.627  -0.949   0.337  1.00  0.00     0.101 C 
HETATM    7 CL1  UNL     1      -1.391  -2.655  -0.014  1.00  0.00    -0.123 Cl
ENDROOT
BRANCH   1   8
HETATM    8  C2  UNL     1       0.826  -0.924   0.023  1.00  0.00     0.050 C 
BRANCH   8   9
HETATM    9  C1  UNL     1       2.189  -0.420   0.255  1.00  0.00     0.231 C 
BRANCH   9  10
HETATM   10  N1  UNL     1       2.356   0.925  -0.187  1.00  0.00    -0.079 N 
ATOM     11  H13 UNL     1       2.089   1.025  -1.166  1.00  0.00     0.274 HD
ATOM     12  H12 UNL     1       1.660   1.539   0.236  1.00  0.00     0.274 HD
ATOM     13  H11 UNL     1       3.301   1.274  -0.026  1.00  0.00     0.274 HD
ENDBRANCH   9  10
ENDBRANCH   8   9
ENDBRANCH   1   8
TORSDOF 3
