REMARK  8 active torsions:
REMARK  status: ('A' for Active; 'I' for Inactive)
REMARK    1  A    between atoms: C2_2  and  C4_4 
REMARK    2  A    between atoms: C5_8  and  C6_9 
REMARK       I    between atoms: C6_9  and  N2_11 
REMARK    3  A    between atoms: N2_11  and  N3_13 
REMARK       I    between atoms: N3_13  and  C7_15 
REMARK    4  A    between atoms: C7_15  and  C8_17 
REMARK    5  A    between atoms: C9_20  and  C10_21 
REMARK    6  A    between atoms: N7_26  and  C11_27 
REMARK    7  A    between atoms: C12_32  and  N10_33 
REMARK    8  A    between atoms: C13_38  and  N12_39 
ROOT
HETATM    1  C8  UNL     1      -3.161   0.782  -0.034  1.00  0.00     0.217 A 
HETATM    2  N4  UNL     1      -3.592   2.066  -0.180  1.00  0.00    -0.317 N 
ATOM      3  H4  UNL     1      -2.988   2.881  -0.285  1.00  0.00     0.169 HD
HETATM    4  C9  UNL     1      -4.943   2.093  -0.165  1.00  0.00     0.189 A 
HETATM    5  N6  UNL     1      -5.323   0.800  -0.006  1.00  0.00    -0.258 N 
ATOM      6  H6  UNL     1      -6.289   0.477   0.045  1.00  0.00     0.190 HD
HETATM    7  N7  UNL     1      -4.243   0.009   0.074  1.00  0.00    -0.060 N 
ENDROOT
BRANCH   1   8
HETATM    8  C7  UNL     1      -1.759   0.395  -0.035  1.00  0.00     0.306 C 
HETATM    9  N3  UNL     1      -0.733   1.357  -0.321  1.00  0.00    -0.260 N 
ATOM     10  H3  UNL     1      -1.006   2.319  -0.524  1.00  0.00     0.190 HD
HETATM   11  O3  UNL     1      -1.386  -0.768   0.205  1.00  0.00    -0.262 OA
BRANCH   9  12
HETATM   12  N2  UNL     1       0.626   1.028  -0.333  1.00  0.00    -0.262 N 
HETATM   13  C6  UNL     1       1.346   0.958   0.861  1.00  0.00     0.291 C 
HETATM   14  O2  UNL     1       0.672   1.203   1.930  1.00  0.00    -0.264 OA
ATOM     15  H2  UNL     1       1.094   0.838  -1.219  1.00  0.00     0.190 HD
BRANCH  13  16
HETATM   16  C5  UNL     1       2.747   0.642   1.009  1.00  0.00     0.159 A 
HETATM   17  N1  UNL     1       3.330   0.442   2.231  1.00  0.00    -0.253 N 
HETATM   18  O1  UNL     1       4.570   0.195   2.067  1.00  0.00    -0.239 OA
ATOM     19  H1  UNL     1       2.849   0.484   3.130  1.00  0.00     0.195 HD
HETATM   20  C4  UNL     1       4.908   0.206   0.813  1.00  0.00     0.115 A 
HETATM   21  C13 UNL     1       3.741   0.496   0.095  1.00  0.00     0.169 A 
BRANCH  20  22
HETATM   22  C2  UNL     1       6.207  -0.019   0.127  1.00  0.00     0.040 C 
HETATM   23  C1  UNL     1       7.353  -0.103   1.092  1.00  0.00     0.016 C 
HETATM   24  C3  UNL     1       6.232  -1.263  -0.715  1.00  0.00     0.016 C 
ENDBRANCH  20  22
BRANCH  21  25
HETATM   25  N12 UNL     1       3.648   0.641  -1.319  1.00  0.00    -0.110 N 
HETATM   26  O5  UNL     1       3.584  -0.284  -2.129  1.00  0.00    -0.532 OA
HETATM   27  O6  UNL     1       3.628   1.937  -1.841  1.00  0.00    -0.532 OA
ENDBRANCH  21  25
ENDBRANCH  13  16
ENDBRANCH   9  12
ENDBRANCH   1   8
BRANCH   7  28
HETATM   28  C11 UNL     1      -4.308  -1.402   0.235  1.00  0.00     0.735 A 
HETATM   29  N8  UNL     1      -3.813  -2.157   1.223  1.00  0.00    -0.115 N 
HETATM   30  N9  UNL     1      -4.078  -3.432   1.013  1.00  0.00    -0.117 N 
ATOM     31  H8  UNL     1      -3.301  -1.796   2.028  1.00  0.00     0.206 HD
HETATM   32  C12 UNL     1      -4.761  -3.553  -0.129  1.00  0.00     0.705 A 
ATOM     33  H9  UNL     1      -3.805  -4.202   1.624  1.00  0.00     0.206 HD
HETATM   34  N11 UNL     1      -4.902  -2.302  -0.608  1.00  0.00    -0.018 N 
ATOM     35  H11 UNL     1      -5.382  -2.060  -1.475  1.00  0.00     0.203 HD
BRANCH  32  36
HETATM   36  N10 UNL     1      -5.207  -4.656  -0.682  1.00  0.00    -0.233 N 
ATOM     37 2H10 UNL     1      -5.100  -5.603  -0.319  1.00  0.00     0.174 HD
ATOM     38 1H10 UNL     1      -5.728  -4.748  -1.554  1.00  0.00     0.174 HD
ENDBRANCH  32  36
ENDBRANCH   7  28
BRANCH   4  39
HETATM   39  C10 UNL     1      -5.793   3.279  -0.289  1.00  0.00     0.300 C 
HETATM   40  N5  UNL     1      -7.203   3.185  -0.368  1.00  0.00    -0.054 NA
HETATM   41  O4  UNL     1      -5.230   4.402  -0.325  1.00  0.00    -0.268 OA
ENDBRANCH   4  39
TORSDOF 8
