REMARK  10 active torsions:
REMARK  status: ('A' for Active; 'I' for Inactive)
REMARK    1  A    between atoms: C3_5  and  N2_6 
REMARK    2  A    between atoms: N3_9  and  C4_10 
REMARK    3  A    between atoms: C4_10  and  C5_11 
REMARK       I    between atoms: C5_11  and  N4_13 
REMARK    4  A    between atoms: N4_13  and  N5_15 
REMARK       I    between atoms: N5_15  and  C6_17 
REMARK    5  A    between atoms: C6_17  and  C7_19 
REMARK       I    between atoms: C7_19  and  N6_21 
REMARK    6  A    between atoms: N6_21  and  N7_23 
REMARK    7  A    between atoms: C8_25  and  C9_26 
REMARK    8  A    between atoms: C12_29  and  N8_30 
REMARK    9  A    between atoms: C15_35  and  O6_36 
REMARK   10  A    between atoms: C16_38  and  O7_39 
ROOT
HETATM    1  C5  UNL     1      -2.460   1.756  -1.137  1.00  0.00     0.255 C 
HETATM    2  O1  UNL     1      -2.433   2.861  -0.524  1.00  0.00    -0.270 OA
HETATM    3  N4  UNL     1      -1.381   0.882  -0.951  1.00  0.00    -0.266 N 
ATOM      4  H4  UNL     1      -1.375  -0.016  -1.435  1.00  0.00     0.190 HD
ENDROOT
BRANCH   3   5
HETATM    5  N5  UNL     1      -0.323   1.215  -0.122  1.00  0.00    -0.259 N 
HETATM    6  C6  UNL     1       0.597   0.263   0.373  1.00  0.00     0.329 C 
HETATM    7  O2  UNL     1       0.456  -0.944   0.050  1.00  0.00    -0.261 OA
ATOM      8  H5  UNL     1      -0.202   2.192   0.144  1.00  0.00     0.190 HD
BRANCH   6   9
HETATM    9  C7  UNL     1       1.676   0.679   1.234  1.00  0.00     0.329 C 
HETATM   10  O3  UNL     1       1.843   1.874   1.562  1.00  0.00    -0.261 OA
HETATM   11  N6  UNL     1       2.599  -0.288   1.742  1.00  0.00    -0.262 N 
ATOM     12  H6  UNL     1       2.479  -1.268   1.485  1.00  0.00     0.190 HD
BRANCH  11  13
HETATM   13  N7  UNL     1       3.618   0.053   2.546  1.00  0.00    -0.308 N 
HETATM   14  C8  UNL     1       4.848   0.097   2.586  1.00  0.00     0.118 C 
ATOM     15  H7  UNL     1       3.244   0.394   3.431  1.00  0.00     0.186 HD
BRANCH  14  16
HETATM   16  C9  UNL     1       5.791  -0.289   1.552  1.00  0.00    -0.019 A 
HETATM   17  C10 UNL     1       5.348  -0.788   0.335  1.00  0.00     0.015 A 
HETATM   18  C11 UNL     1       6.263  -1.147  -0.627  1.00  0.00     0.037 A 
HETATM   19  C12 UNL     1       7.613  -1.024  -0.413  1.00  0.00     0.102 A 
HETATM   20  C13 UNL     1       8.053  -0.528   0.797  1.00  0.00     0.037 A 
HETATM   21  C14 UNL     1       7.164  -0.165   1.768  1.00  0.00     0.015 A 
BRANCH  19  22
HETATM   22  N8  UNL     1       8.511  -1.409  -1.446  1.00  0.00    -0.116 N 
HETATM   23  O4  UNL     1       9.731  -1.280  -1.239  1.00  0.00    -0.532 OA
HETATM   24  O5  UNL     1       8.031  -1.902  -2.629  1.00  0.00    -0.532 OA
ENDBRANCH  19  22
ENDBRANCH  14  16
ENDBRANCH  11  13
ENDBRANCH   6   9
ENDBRANCH   3   5
BRANCH   1  25
HETATM   25  C4  UNL     1      -3.644   1.475  -2.009  1.00  0.00     0.254 C 
BRANCH  25  26
HETATM   26  N3  UNL     1      -4.746   0.905  -1.251  1.00  0.00    -0.151 N 
HETATM   27  C3  UNL     1      -5.692   1.683  -0.686  1.00  0.00     0.680 A 
HETATM   28  N1  UNL     1      -6.716   1.133   0.040  1.00  0.00    -0.193 N 
HETATM   29  C2  UNL     1      -6.848  -0.175   0.235  1.00  0.00     0.060 A 
ATOM     30  H1  UNL     1      -7.410   1.758   0.450  1.00  0.00     0.184 HD
HETATM   31  C1  UNL     1      -7.955  -0.778   1.023  1.00  0.00     0.072 C 
HETATM   32  C16 UNL     1      -5.899  -1.002  -0.329  1.00  0.00     0.140 A 
HETATM   33  C15 UNL     1      -4.870  -0.418  -1.061  1.00  0.00     0.194 A 
BRANCH  27  34
HETATM   34  N2  UNL     1      -5.708   2.945  -0.796  1.00  0.00    -0.234 N 
ATOM     35  H22 UNL     1      -6.423   3.533  -0.369  1.00  0.00     0.174 HD
ATOM     36  H21 UNL     1      -4.946   3.354  -1.336  1.00  0.00     0.174 HD
ENDBRANCH  27  34
BRANCH  32  37
HETATM   37  O7  UNL     1      -5.965  -2.376  -0.172  1.00  0.00    -0.355 OA
ATOM     38  H7  UNL     1      -5.311  -2.946  -0.560  1.00  0.00     0.218 HD
ENDBRANCH  32  37
BRANCH  33  39
HETATM   39  O6  UNL     1      -3.923  -1.282  -1.622  1.00  0.00    -0.344 OA
ATOM     40  H6  UNL     1      -4.011  -2.218  -1.488  1.00  0.00     0.219 HD
ENDBRANCH  33  39
ENDBRANCH  25  26
ENDBRANCH   1  25
TORSDOF 10
