REMARK  8 active torsions:
REMARK  status: ('A' for Active; 'I' for Inactive)
REMARK    1  A    between atoms: C2_3  and  C3_4 
REMARK    2  A    between atoms: C2_3  and  C7_21 
REMARK    3  A    between atoms: C4_9  and  C5_10 
REMARK    4  A    between atoms: C6_16  and  N6_17 
REMARK    5  A    between atoms: C7_21  and  N7_22 
REMARK    6  A    between atoms: C7_21  and  C14_36 
REMARK       I    between atoms: N7_22  and  C8_24 
REMARK       I    between atoms: C8_24  and  N8_26 
REMARK    7  A    between atoms: N8_26  and  N9_28 
REMARK    8  A    between atoms: N9_28  and  C9_29 
ROOT
HETATM    1  N1  UNL     1      -0.688  -3.641   1.510  1.00  0.00    -0.196 NA
HETATM    2  C1  UNL     1      -1.086  -2.602   1.258  1.00  0.00     0.075 C 
HETATM    3  C2  UNL     1      -1.572  -1.275   0.946  1.00  0.00     0.202 C 
ENDROOT
BRANCH   3   4
HETATM    4  C3  UNL     1      -3.046  -1.137   1.047  1.00  0.00     0.161 A 
HETATM    5  N2  UNL     1      -3.860  -1.799   1.919  1.00  0.00    -0.280 N 
HETATM    6  N3  UNL     1      -5.095  -1.405   1.698  1.00  0.00    -0.276 N 
ATOM      7  H2  UNL     1      -3.563  -2.479   2.619  1.00  0.00     0.189 HD
HETATM    8  C4  UNL     1      -5.113  -0.507   0.710  1.00  0.00     0.197 A 
ATOM      9  H3  UNL     1      -5.916  -1.736   2.205  1.00  0.00     0.189 HD
HETATM   10  O2  UNL     1      -3.846  -0.377   0.348  1.00  0.00    -0.274 OA
BRANCH   8  11
HETATM   11  C5  UNL     1      -6.256   0.193   0.138  1.00  0.00     0.154 A 
HETATM   12  N4  UNL     1      -6.180   1.095  -0.875  1.00  0.00    -0.234 N 
HETATM   13  O1  UNL     1      -7.372   1.537  -1.147  1.00  0.00    -0.155 OA
ATOM     14  H4  UNL     1      -5.323   1.381  -1.348  1.00  0.00     0.197 HD
HETATM   15  N5  UNL     1      -8.253   0.984  -0.376  1.00  0.00    -0.224 N 
HETATM   16  C6  UNL     1      -7.579   0.118   0.461  1.00  0.00     0.154 A 
ATOM     17  H5  UNL     1      -9.258   1.156  -0.385  1.00  0.00     0.198 HD
BRANCH  16  18
HETATM   18  N6  UNL     1      -8.117  -0.609   1.365  1.00  0.00    -0.382 N 
ATOM     19  H62 UNL     1      -7.619  -1.249   1.984  1.00  0.00     0.157 HD
ATOM     20  H61 UNL     1      -9.106  -0.665   1.607  1.00  0.00     0.157 HD
ENDBRANCH  16  18
ENDBRANCH   8  11
ENDBRANCH   3   4
BRANCH   3  21
HETATM   21  C7  UNL     1      -1.084  -0.792  -0.407  1.00  0.00     0.212 C 
BRANCH  21  22
HETATM   22  N7  UNL     1       0.373  -0.726  -0.419  1.00  0.00    -0.326 N 
HETATM   23  C8  UNL     1       1.075   0.492  -0.561  1.00  0.00     0.332 C 
HETATM   24  O3  UNL     1       0.379   1.547  -0.682  1.00  0.00    -0.246 OA
HETATM   25  N8  UNL     1       2.485   0.574  -0.571  1.00  0.00    -0.255 N 
ATOM     26  H8  UNL     1       3.039  -0.278  -0.480  1.00  0.00     0.187 HD
ATOM     27  H7  UNL     1       0.905  -1.591  -0.321  1.00  0.00     0.165 HD
BRANCH  25  28
HETATM   28  N9  UNL     1       3.120   1.783  -0.701  1.00  0.00    -0.122 NA
BRANCH  28  29
HETATM   29  C9  UNL     1       4.527   1.736  -0.362  1.00  0.00     0.199 C 
HETATM   30  C10 UNL     1       5.324   0.851  -1.254  1.00  0.00     0.035 C 
HETATM   31  C11 UNL     1       6.681   0.585  -0.690  1.00  0.00     0.029 C 
HETATM   32  C12 UNL     1       7.032   1.349   0.541  1.00  0.00     0.178 C 
HETATM   33  O4  UNL     1       6.008   1.245   1.516  1.00  0.00    -0.320 OA
HETATM   34  C13 UNL     1       4.705   1.219   1.042  1.00  0.00     0.280 C 
HETATM   35  O5  UNL     1       3.717   0.803   1.701  1.00  0.00    -0.263 OA
ENDBRANCH  28  29
ENDBRANCH  25  28
ENDBRANCH  21  22
BRANCH  21  36
HETATM   36  C14 UNL     1      -1.557  -1.659  -1.524  1.00  0.00     0.198 C 
HETATM   37  O6  UNL     1      -0.711  -2.208  -2.315  1.00  0.00    -0.646 OA
HETATM   38  O7  UNL     1      -2.878  -1.944  -1.800  1.00  0.00    -0.646 OA
ENDBRANCH  21  36
ENDBRANCH   3  21
TORSDOF 8
