REMARK  10 active torsions:
REMARK  status: ('A' for Active; 'I' for Inactive)
REMARK    1  A    between atoms: N1_1  and  C1_5 
REMARK    2  A    between atoms: C1_5  and  O1_6 
REMARK    3  A    between atoms: C1_5  and  C2_8 
REMARK    4  A    between atoms: C4_10  and  N2_11 
REMARK    5  A    between atoms: N2_11  and  N3_13 
REMARK    6  A    between atoms: C9_24  and  N6_25 
REMARK    7  A    between atoms: N6_25  and  N7_27 
REMARK    8  A    between atoms: C10_29  and  C11_30 
REMARK    9  A    between atoms: C13_32  and  N8_33 
REMARK   10  A    between atoms: C16_38  and  O6_39 
ROOT
HETATM    1  C2  UNL     1      -0.851  -0.263   1.775  1.00  0.00     0.085 A 
HETATM    2  C3  UNL     1      -2.149   0.172   1.637  1.00  0.00     0.080 A 
HETATM    3  C4  UNL     1      -2.512   1.183   0.783  1.00  0.00     0.138 A 
HETATM    4  N5  UNL     1      -1.531   1.756   0.061  1.00  0.00    -0.174 N 
ATOM      5  H5  UNL     1      -1.758   2.512  -0.585  1.00  0.00     0.186 HD
HETATM    6  C9  UNL     1      -0.233   1.338   0.182  1.00  0.00     0.698 A 
HETATM    7  N9  UNL     1       0.087   0.346   1.028  1.00  0.00    -0.190 N 
ATOM      8  H9  UNL     1       1.060   0.049   1.106  1.00  0.00     0.184 HD
ENDROOT
BRANCH   6   9
HETATM    9  N6  UNL     1       0.689   1.891  -0.514  1.00  0.00    -0.132 N 
ATOM     10  H6  UNL     1       0.427   2.643  -1.151  1.00  0.00     0.205 HD
BRANCH   9  11
HETATM   11  N7  UNL     1       2.024   1.523  -0.448  1.00  0.00    -0.297 N 
HETATM   12  C10 UNL     1       2.519   0.515  -1.057  1.00  0.00     0.122 C 
ATOM     13  H7  UNL     1       2.650   2.092   0.122  1.00  0.00     0.186 HD
BRANCH  12  14
HETATM   14  C11 UNL     1       3.937   0.237  -0.905  1.00  0.00     0.016 A 
HETATM   15  C12 UNL     1       4.474  -0.835  -1.551  1.00  0.00     0.051 A 
HETATM   16  C13 UNL     1       5.799  -1.146  -1.445  1.00  0.00     0.103 A 
HETATM   17  C14 UNL     1       6.608  -0.352  -0.665  1.00  0.00     0.039 A 
HETATM   18  C15 UNL     1       6.096   0.724  -0.010  1.00  0.00     0.040 A 
HETATM   19  C16 UNL     1       4.755   1.020  -0.130  1.00  0.00     0.077 A 
BRANCH  16  20
HETATM   20  N8  UNL     1       6.364  -2.258  -2.113  1.00  0.00    -0.116 N 
HETATM   21  O4  UNL     1       5.633  -2.971  -2.816  1.00  0.00    -0.532 OA
HETATM   22  O5  UNL     1       7.690  -2.574  -2.009  1.00  0.00    -0.532 OA
ENDBRANCH  16  20
BRANCH  19  23
HETATM   23  O6  UNL     1       4.180   2.100   0.512  1.00  0.00    -0.360 OA
ATOM     24  H6  UNL     1       4.746   2.642   1.049  1.00  0.00     0.217 HD
ENDBRANCH  19  23
ENDBRANCH  12  14
ENDBRANCH   9  11
ENDBRANCH   6   9
BRANCH   3  25
HETATM   25  N2  UNL     1      -3.854   1.599   0.668  1.00  0.00    -0.275 N 
ATOM     26  H2  UNL     1      -4.165   2.325   1.313  1.00  0.00     0.189 HD
BRANCH  25  27
HETATM   27  N3  UNL     1      -4.788   1.125  -0.226  1.00  0.00    -0.215 N 
HETATM   28  C5  UNL     1      -6.050   1.591  -0.244  1.00  0.00     0.127 A 
HETATM   29  C6  UNL     1      -7.007   1.146  -1.120  1.00  0.00     0.094 A 
HETATM   30  C7  UNL     1      -6.651   0.168  -2.030  1.00  0.00     0.250 A 
HETATM   31  O2  UNL     1      -7.491  -0.281  -2.863  1.00  0.00    -0.268 OA
HETATM   32  N4  UNL     1      -5.393  -0.270  -1.985  1.00  0.00    -0.274 N 
HETATM   33  C8  UNL     1      -4.453   0.177  -1.112  1.00  0.00     0.348 A 
ATOM     34  H4  UNL     1      -5.117  -0.991  -2.652  1.00  0.00     0.173 HD
HETATM   35  O3  UNL     1      -3.285  -0.336  -1.184  1.00  0.00    -0.245 OA
ENDBRANCH  25  27
ENDBRANCH   3  25
BRANCH   1  36
HETATM   36  C1  UNL     1      -0.455  -1.346   2.684  1.00  0.00     0.368 C 
BRANCH  36  37
HETATM   37  N1  UNL     1      -1.370  -2.472   2.630  1.00  0.00    -0.047 N 
ATOM     38  H13 UNL     1      -1.062  -3.233   3.235  1.00  0.00     0.277 HD
ATOM     39  H12 UNL     1      -2.256  -2.256   3.087  1.00  0.00     0.277 HD
ATOM     40  H11 UNL     1      -1.513  -2.791   1.672  1.00  0.00     0.277 HD
ENDBRANCH  36  37
BRANCH  36  41
HETATM   41  O1  UNL     1      -0.260  -0.910   3.994  1.00  0.00    -0.365 OA
ATOM     42  H1  UNL     1       0.339  -0.173   4.029  1.00  0.00     0.212 HD
ENDBRANCH  36  41
ENDBRANCH   1  36
TORSDOF 10
