REMARK  13 active torsions:
REMARK  status: ('A' for Active; 'I' for Inactive)
REMARK    1  A    between atoms: N1_1  and  C1_4 
REMARK    2  A    between atoms: C4_12  and  N4_13 
REMARK    3  A    between atoms: N4_13  and  C5_15 
REMARK    4  A    between atoms: C6_17  and  C7_18 
REMARK    5  A    between atoms: C7_18  and  O3_19 
REMARK    6  A    between atoms: C8_21  and  O4_22 
REMARK    7  A    between atoms: C9_24  and  O5_25 
REMARK    8  A    between atoms: C9_24  and  C10_27 
REMARK    9  A    between atoms: C10_27  and  O6_28 
REMARK   10  A    between atoms: C11_30  and  N5_31 
REMARK   11  A    between atoms: N5_31  and  N6_33 
REMARK   12  A    between atoms: N6_33  and  C12_35 
REMARK   13  A    between atoms: N9_41  and  N10_42 
ROOT
HETATM    1  C1  UNL     1       3.441  -3.244  -0.061  1.00  0.00     0.679 A 
HETATM    2  N2  UNL     1       2.590  -4.274   0.060  1.00  0.00    -0.154 N 
ATOM      3  H2  UNL     1       2.903  -5.240  -0.033  1.00  0.00     0.187 HD
HETATM    4  C2  UNL     1       1.306  -3.972   0.310  1.00  0.00     0.288 A 
HETATM    5  O1  UNL     1       0.427  -4.874   0.441  1.00  0.00    -0.265 OA
HETATM    6  C3  UNL     1       0.879  -2.659   0.439  1.00  0.00     0.133 A 
HETATM    7  N3  UNL     1      -0.309  -2.122   0.681  1.00  0.00    -0.334 N 
ATOM      8  H3  UNL     1      -1.158  -2.670   0.820  1.00  0.00     0.168 HD
HETATM    9  C4  UNL     1      -0.275  -0.774   0.724  1.00  0.00     0.135 A 
HETATM   10  C11 UNL     1       1.060  -0.452   0.487  1.00  0.00     0.122 A 
HETATM   11  C14 UNL     1       1.758  -1.623   0.313  1.00  0.00     0.113 A 
HETATM   12  N11 UNL     1       3.049  -1.947   0.060  1.00  0.00    -0.187 N 
ATOM     13  H11 UNL     1       3.740  -1.204  -0.042  1.00  0.00     0.184 HD
ENDROOT
BRANCH   9  14
HETATM   14  N4  UNL     1      -1.315   0.161   0.980  1.00  0.00    -0.345 N 
ATOM     15  H4  UNL     1      -1.044   1.144   1.007  1.00  0.00     0.163 HD
BRANCH  14  16
HETATM   16  C5  UNL     1      -2.691  -0.121   1.203  1.00  0.00     0.262 C 
HETATM   17  O2  UNL     1      -3.253   0.989   1.852  1.00  0.00    -0.353 OA
HETATM   18  C6  UNL     1      -4.035   1.678   0.982  1.00  0.00     0.179 C 
HETATM   19  C8  UNL     1      -4.342   0.831  -0.202  1.00  0.00     0.190 C 
HETATM   20  C9  UNL     1      -3.550  -0.426   0.053  1.00  0.00     0.150 C 
BRANCH  18  21
HETATM   21  C7  UNL     1      -3.362   2.970   0.493  1.00  0.00     0.198 C 
BRANCH  21  22
HETATM   22  O3  UNL     1      -3.073   3.828   1.525  1.00  0.00    -0.398 OA
ATOM     23  H3  UNL     1      -2.657   4.627   1.223  1.00  0.00     0.209 HD
ENDBRANCH  21  22
ENDBRANCH  18  21
BRANCH  19  24
HETATM   24  O4  UNL     1      -3.958   1.469  -1.378  1.00  0.00    -0.390 OA
ATOM     25  H4  UNL     1      -4.154   0.928  -2.134  1.00  0.00     0.210 HD
ENDBRANCH  19  24
BRANCH  20  26
HETATM   26  O5  UNL     1      -4.500  -1.393   0.478  1.00  0.00    -0.380 OA
ATOM     27  H5  UNL     1      -5.056  -1.590  -0.266  1.00  0.00     0.211 HD
ENDBRANCH  20  26
BRANCH  20  28
HETATM   28  C10 UNL     1      -2.947  -0.982  -1.187  1.00  0.00     0.209 C 
BRANCH  28  29
HETATM   29  O6  UNL     1      -1.977  -0.243  -1.795  1.00  0.00    -0.398 OA
ATOM     30  H6  UNL     1      -1.592  -0.598  -2.587  1.00  0.00     0.209 HD
ENDBRANCH  28  29
ENDBRANCH  20  28
ENDBRANCH  14  16
ENDBRANCH   9  14
BRANCH  10  31
HETATM   31  N5  UNL     1       1.595   0.852   0.435  1.00  0.00    -0.281 N 
ATOM     32  H5  UNL     1       0.939   1.619   0.585  1.00  0.00     0.188 HD
BRANCH  31  33
HETATM   33  N6  UNL     1       2.902   1.201   0.204  1.00  0.00    -0.128 N 
ATOM     34  H6  UNL     1       3.584   1.000   0.935  1.00  0.00     0.205 HD
BRANCH  33  35
HETATM   35  C12 UNL     1       3.370   1.824  -0.985  1.00  0.00     0.733 A 
HETATM   36  N7  UNL     1       2.585   2.140  -2.017  1.00  0.00    -0.128 N 
HETATM   37  N8  UNL     1       3.318   2.700  -2.956  1.00  0.00    -0.279 N 
ATOM     38  H7  UNL     1       1.580   1.974  -2.070  1.00  0.00     0.205 HD
HETATM   39  C13 UNL     1       4.587   2.750  -2.538  1.00  0.00     0.241 A 
ATOM     40  H8  UNL     1       2.975   3.040  -3.854  1.00  0.00     0.188 HD
HETATM   41  N9  UNL     1       4.604   2.195  -1.294  1.00  0.00    -0.085 N 
BRANCH  41  42
HETATM   42  N10 UNL     1       5.737   2.050  -0.498  1.00  0.00    -0.323 N 
ATOM     43 2H10 UNL     1       5.750   1.634   0.433  1.00  0.00     0.178 HD
ATOM     44 1H10 UNL     1       6.687   2.336  -0.736  1.00  0.00     0.178 HD
ENDBRANCH  41  42
ENDBRANCH  33  35
ENDBRANCH  31  33
ENDBRANCH  10  31
BRANCH   1  45
HETATM   45  N1  UNL     1       4.686  -3.486  -0.302  1.00  0.00    -0.234 N 
ATOM     46  H12 UNL     1       4.980  -4.459  -0.393  1.00  0.00     0.174 HD
ATOM     47  H11 UNL     1       5.333  -2.703  -0.394  1.00  0.00     0.174 HD
ENDBRANCH   1  45
TORSDOF 13
