REMARK  13 active torsions:
REMARK  status: ('A' for Active; 'I' for Inactive)
REMARK    1  A    between atoms: N2_5  and  N3_6 
REMARK    2  A    between atoms: C3_9  and  C4_10 
REMARK    3  A    between atoms: C4_10  and  O2_11 
REMARK    4  A    between atoms: C4_10  and  O3_13 
REMARK    5  A    between atoms: C6_18  and  C7_19 
REMARK    6  A    between atoms: C7_19  and  N5_20 
REMARK    7  A    between atoms: N6_22  and  N7_24 
REMARK    8  A    between atoms: N7_24  and  C8_26 
REMARK    9  A    between atoms: C8_26  and  C9_27 
REMARK   10  A    between atoms: C8_26  and  C10_30 
REMARK   11  A    between atoms: C10_30  and  O6_31 
REMARK   12  A    between atoms: C11_36  and  O7_37 
REMARK   13  A    between atoms: N9_39  and  N10_40 
ROOT
HETATM    1  N5  UNL     1      -0.815  -0.384  -2.174  1.00  0.00    -0.315 N 
ATOM      2  H5  UNL     1      -0.597  -0.573  -3.152  1.00  0.00     0.182 HD
HETATM    3  N6  UNL     1      -1.634  -1.120  -1.590  1.00  0.00    -0.250 N 
ATOM      4  H6  UNL     1      -2.049  -1.882  -2.127  1.00  0.00     0.207 HD
ENDROOT
BRANCH   1   5
HETATM    5  C7  UNL     1      -0.161   0.729  -1.519  1.00  0.00     0.217 C 
BRANCH   5   6
HETATM    6  C6  UNL     1       1.198   0.354  -1.063  1.00  0.00     0.102 A 
HETATM    7  N4  UNL     1       2.014   1.209  -0.425  1.00  0.00    -0.341 N 
HETATM    8  C5  UNL     1       3.167   0.578  -0.143  1.00  0.00     0.092 A 
ATOM      9  H4  UNL     1       1.795   2.178  -0.193  1.00  0.00     0.167 HD
HETATM   10  C3  UNL     1       4.343   0.924   0.478  1.00  0.00     0.120 A 
HETATM   11  C12 UNL     1       3.058  -0.725  -0.630  1.00  0.00     0.093 A 
HETATM   12  N2  UNL     1       5.383   0.088   0.642  1.00  0.00    -0.222 N 
HETATM   13  C2  UNL     1       5.286  -1.163   0.178  1.00  0.00     0.293 A 
HETATM   14  C1  UNL     1       4.132  -1.572  -0.455  1.00  0.00     0.145 A 
HETATM   15  O1  UNL     1       6.258  -1.960   0.326  1.00  0.00    -0.264 OA
HETATM   16  N1  UNL     1       4.064  -2.906  -0.934  1.00  0.00    -0.094 NA
HETATM   17  N11 UNL     1       1.840  -0.831  -1.188  1.00  0.00    -0.341 N 
ATOM     18  H11 UNL     1       1.461  -1.667  -1.633  1.00  0.00     0.167 HD
BRANCH  10  19
HETATM   19  C4  UNL     1       4.489   2.313   1.009  1.00  0.00     0.309 C 
BRANCH  19  20
HETATM   20  O2  UNL     1       3.350   2.711   1.699  1.00  0.00    -0.366 OA
ATOM     21  H2  UNL     1       3.443   3.594   2.037  1.00  0.00     0.213 HD
ENDBRANCH  19  20
BRANCH  19  22
HETATM   22  O3  UNL     1       4.789   3.153  -0.043  1.00  0.00    -0.366 OA
ATOM     23  H3  UNL     1       4.882   4.036   0.295  1.00  0.00     0.213 HD
ENDBRANCH  19  22
ENDBRANCH  10  19
BRANCH  12  24
HETATM   24  N3  UNL     1       6.546   0.492   1.276  1.00  0.00    -0.335 N 
ATOM     25  H32 UNL     1       7.335  -0.142   1.400  1.00  0.00     0.177 HD
ATOM     26  H31 UNL     1       6.620   1.446   1.630  1.00  0.00     0.177 HD
ENDBRANCH  12  24
ENDBRANCH   5   6
ENDBRANCH   1   5
BRANCH   3  27
HETATM   27  N7  UNL     1      -2.027  -0.981  -0.256  1.00  0.00    -0.301 N 
ATOM     28  H7  UNL     1      -1.350  -0.626   0.419  1.00  0.00     0.183 HD
BRANCH  27  29
HETATM   29  C8  UNL     1      -3.358  -1.321   0.209  1.00  0.00     0.282 C 
BRANCH  29  30
HETATM   30  C9  UNL     1      -3.598  -2.732  -0.063  1.00  0.00     0.204 C 
HETATM   31  O4  UNL     1      -2.714  -3.429  -0.614  1.00  0.00    -0.646 OA
HETATM   32  O5  UNL     1      -4.798  -3.336   0.278  1.00  0.00    -0.646 OA
ENDBRANCH  29  30
BRANCH  29  33
HETATM   33  C10 UNL     1      -4.314  -0.380  -0.445  1.00  0.00     0.342 C 
HETATM   34  N8  UNL     1      -3.992   0.997  -0.030  1.00  0.00     0.017 N 
HETATM   35  C11 UNL     1      -5.414   1.263   0.120  1.00  0.00     0.428 C 
ATOM     36  H82 UNL     1      -3.352   1.165   0.746  1.00  0.00     0.287 HD
ATOM     37  H81 UNL     1      -3.416   1.593  -0.625  1.00  0.00     0.287 HD
HETATM   38  N9  UNL     1      -5.598  -0.184   0.085  1.00  0.00    -0.122 NA
BRANCH  33  39
HETATM   39  O6  UNL     1      -4.301  -0.454  -1.834  1.00  0.00    -0.349 OA
ATOM     40  H6  UNL     1      -4.910   0.145  -2.250  1.00  0.00     0.214 HD
ENDBRANCH  33  39
BRANCH  35  41
HETATM   41  O7  UNL     1      -5.927   1.919  -0.973  1.00  0.00    -0.357 OA
ATOM     42  H7  UNL     1      -6.856   2.093  -0.875  1.00  0.00     0.213 HD
ENDBRANCH  35  41
BRANCH  38  43
HETATM   43  N10 UNL     1      -5.920  -0.741   1.314  1.00  0.00    -0.356 NA
ATOM     44 2H10 UNL     1      -6.049  -1.753   1.290  1.00  0.00     0.171 HD
ATOM     45 1H10 UNL     1      -6.854  -0.598   1.699  1.00  0.00     0.171 HD
ENDBRANCH  38  43
ENDBRANCH  29  33
ENDBRANCH  27  29
ENDBRANCH   3  27
TORSDOF 13
