REMARK  11 active torsions:
REMARK  status: ('A' for Active; 'I' for Inactive)
REMARK    1  A    between atoms: O1_2  and  C2_3 
REMARK    2  A    between atoms: C2_3  and  C3_5 
REMARK    3  A    between atoms: C4_7  and  N1_8 
REMARK       I    between atoms: N1_8  and  C5_10 
REMARK    4  A    between atoms: C5_10  and  C6_12 
REMARK    5  A    between atoms: C7_15  and  N3_16 
REMARK    6  A    between atoms: C8_21  and  N5_22 
REMARK    7  A    between atoms: C9_28  and  C10_29 
REMARK    8  A    between atoms: C10_29  and  O5_31 
REMARK    9  A    between atoms: O5_31  and  C11_32 
REMARK   10  A    between atoms: C11_32  and  C12_33 
REMARK   11  A    between atoms: C12_33  and  C13_34 
ROOT
HETATM    1  N1  UNL     1       2.436  -0.385  -0.604  1.00  0.00    -0.309 N 
ATOM      2  H1  UNL     1       3.239  -0.986  -0.420  1.00  0.00     0.170 HD
HETATM    3  C5  UNL     1       2.691   0.914  -1.034  1.00  0.00     0.292 C 
HETATM    4  O3  UNL     1       1.816   1.576  -1.633  1.00  0.00    -0.264 OA
ENDROOT
BRANCH   1   5
HETATM    5  C4  UNL     1       1.269  -0.884  -0.422  1.00  0.00     0.120 A 
HETATM    6  S1  UNL     1       0.878  -2.441   0.096  1.00  0.00    -0.057 SA
HETATM    7  C3  UNL     1      -0.840  -2.634   0.188  1.00  0.00     0.105 A 
HETATM    8  C9  UNL     1      -1.476  -1.477  -0.183  1.00  0.00     0.105 A 
HETATM    9  S2  UNL     1      -0.297  -0.271  -0.598  1.00  0.00    -0.057 SA
BRANCH   7  10
HETATM   10  C2  UNL     1      -1.429  -3.896   0.615  1.00  0.00     0.301 C 
HETATM   11  O2  UNL     1      -0.632  -4.863   0.924  1.00  0.00    -0.259 OA
BRANCH  10  12
HETATM   12  O1  UNL     1      -2.737  -4.216   0.739  1.00  0.00    -0.322 OA
HETATM   13  C1  UNL     1      -3.211  -5.478   1.166  1.00  0.00     0.213 C 
ENDBRANCH  10  12
ENDBRANCH   7  10
BRANCH   8  14
HETATM   14  C10 UNL     1      -2.887  -1.160  -0.268  1.00  0.00     0.301 C 
HETATM   15  O4  UNL     1      -3.774  -1.973  -0.004  1.00  0.00    -0.259 OA
BRANCH  14  16
HETATM   16  O5  UNL     1      -3.334   0.110  -0.659  1.00  0.00    -0.317 OA
BRANCH  16  17
HETATM   17  C11 UNL     1      -4.750   0.368  -0.723  1.00  0.00     0.189 C 
BRANCH  17  18
HETATM   18  C12 UNL     1      -5.023   1.766  -1.132  1.00  0.00     0.140 C 
BRANCH  18  19
HETATM   19  C13 UNL     1      -4.426   2.759  -0.182  1.00  0.00     0.174 C 
HETATM   20  O6  UNL     1      -3.169   2.687   0.046  1.00  0.00    -0.648 OA
HETATM   21  O7  UNL     1      -5.182   3.737   0.448  1.00  0.00    -0.648 OA
ENDBRANCH  18  19
ENDBRANCH  17  18
ENDBRANCH  16  17
ENDBRANCH  14  16
ENDBRANCH   8  14
ENDBRANCH   1   5
BRANCH   3  22
HETATM   22  C6  UNL     1       3.986   1.527  -0.796  1.00  0.00     0.204 A 
HETATM   23  N2  UNL     1       4.303   2.764  -1.194  1.00  0.00    -0.170 N 
HETATM   24  C7  UNL     1       5.508   3.279  -0.955  1.00  0.00     0.692 A 
ATOM     25  H2  UNL     1       3.609   3.323  -1.690  1.00  0.00     0.186 HD
HETATM   26  N4  UNL     1       6.449   2.559  -0.297  1.00  0.00    -0.023 N 
HETATM   27  C8  UNL     1       6.163   1.312   0.118  1.00  0.00     0.692 A 
ATOM     28  H4  UNL     1       7.369   2.961  -0.117  1.00  0.00     0.203 HD
HETATM   29  N6  UNL     1       4.965   0.828  -0.132  1.00  0.00    -0.170 N 
ATOM     30  H6  UNL     1       4.752  -0.118   0.185  1.00  0.00     0.186 HD
BRANCH  24  31
HETATM   31  N3  UNL     1       5.845   4.473  -1.328  1.00  0.00    -0.234 N 
ATOM     32  H32 UNL     1       5.137   5.015  -1.823  1.00  0.00     0.174 HD
ATOM     33  H31 UNL     1       6.768   4.867  -1.145  1.00  0.00     0.174 HD
ENDBRANCH  24  31
BRANCH  27  34
HETATM   34  N5  UNL     1       7.032   0.594   0.746  1.00  0.00    -0.234 N 
ATOM     35  H52 UNL     1       7.961   0.969   0.940  1.00  0.00     0.174 HD
ATOM     36  H51 UNL     1       6.815  -0.352   1.061  1.00  0.00     0.174 HD
ENDBRANCH  27  34
ENDBRANCH   3  22
TORSDOF 11
