REMARK  8 active torsions:
REMARK  status: ('A' for Active; 'I' for Inactive)
REMARK    1  A    between atoms: N1_1  and  C1_4 
REMARK    2  A    between atoms: C2_7  and  C3_8 
REMARK    3  A    between atoms: C3_8  and  C4_13 
REMARK    4  A    between atoms: N3_9  and  O1_11 
REMARK       I    between atoms: C4_13  and  N4_15 
REMARK    5  A    between atoms: N4_15  and  C5_17 
REMARK    6  A    between atoms: C7_21  and  C8_22 
REMARK    7  A    between atoms: C9_25  and  C10_26 
REMARK    8  A    between atoms: C10_26  and  N6_27 
ROOT
HETATM    1  C4  UNL     1       2.274  -0.234   0.331  1.00  0.00     0.273 C 
HETATM    2  O2  UNL     1       2.898   0.278   1.290  1.00  0.00    -0.266 OA
HETATM    3  N4  UNL     1       0.863  -0.218   0.449  1.00  0.00    -0.340 N 
ATOM      4  H4  UNL     1       0.273  -0.613  -0.284  1.00  0.00     0.163 HD
ENDROOT
BRANCH   3   5
HETATM    5  C5  UNL     1       0.271   0.378   1.647  1.00  0.00     0.211 C 
HETATM    6  C6  UNL     1      -0.769  -0.406   2.315  1.00  0.00     0.251 C 
HETATM    7  O3  UNL     1      -0.795  -1.391   3.128  1.00  0.00    -0.271 OA
HETATM    8  N5  UNL     1      -1.736   0.405   1.667  1.00  0.00    -0.293 N 
HETATM    9  C7  UNL     1      -3.112   0.560   1.253  1.00  0.00     0.120 C 
HETATM   10  C12 UNL     1      -0.773   1.439   1.386  1.00  0.00     0.187 C 
HETATM   11  C9  UNL     1      -3.374   0.820  -0.036  1.00  0.00    -0.013 C 
HETATM   12  C11 UNL     1      -2.238   0.890  -1.045  1.00  0.00     0.114 C 
HETATM   13  S1  UNL     1      -0.957   1.943  -0.329  1.00  0.00    -0.136 SA
BRANCH   9  14
HETATM   14  C8  UNL     1      -4.133   0.352   2.260  1.00  0.00     0.227 C 
HETATM   15  O4  UNL     1      -5.348   0.398   2.032  1.00  0.00    -0.643 OA
HETATM   16  O5  UNL     1      -3.770   0.080   3.572  1.00  0.00    -0.643 OA
ENDBRANCH   9  14
BRANCH  11  17
HETATM   17  C10 UNL     1      -4.703   1.003  -0.565  1.00  0.00     0.238 C 
BRANCH  17  18
HETATM   18  N6  UNL     1      -5.016  -0.016  -1.579  1.00  0.00    -0.151 N 
HETATM   19  O6  UNL     1      -4.159  -0.854  -1.838  1.00  0.00    -0.536 OA
HETATM   20  O7  UNL     1      -6.236   0.033  -2.169  1.00  0.00    -0.536 OA
ENDBRANCH  17  18
ENDBRANCH  11  17
ENDBRANCH   3   5
BRANCH   1  21
HETATM   21  C3  UNL     1       2.931  -0.801  -0.818  1.00  0.00     0.149 C 
HETATM   22  N3  UNL     1       2.319  -1.320  -1.792  1.00  0.00    -0.262 N 
ATOM     23  H3  UNL     1       2.966  -1.664  -2.502  1.00  0.00     0.194 HD
BRANCH  21  24
HETATM   24  C2  UNL     1       4.440  -0.832  -0.971  1.00  0.00     0.075 A 
HETATM   25  N2  UNL     1       5.269  -0.349  -0.079  1.00  0.00    -0.335 N 
HETATM   26  C1  UNL     1       6.587  -0.424  -0.308  1.00  0.00     0.142 A 
ATOM     27  H2  UNL     1       4.916   0.078   0.777  1.00  0.00     0.168 HD
HETATM   28  S2  UNL     1       6.680  -1.192  -1.813  1.00  0.00    -0.064 SA
HETATM   29  C13 UNL     1       5.010  -1.391  -2.098  1.00  0.00     0.085 A 
BRANCH  26  30
HETATM   30  N1  UNL     1       7.571   0.000   0.459  1.00  0.00    -0.380 N 
ATOM     31  H12 UNL     1       7.515   0.463   1.366  1.00  0.00     0.158 HD
ATOM     32  H11 UNL     1       8.574  -0.057   0.285  1.00  0.00     0.158 HD
ENDBRANCH  26  30
ENDBRANCH  21  24
BRANCH  22  33
HETATM   33  O1  UNL     1       1.088  -1.531  -2.127  1.00  0.00    -0.289 OA
ATOM     34  H1  UNL     1       0.627  -1.922  -2.860  1.00  0.00     0.244 HD
ENDBRANCH  22  33
ENDBRANCH   1  21
TORSDOF 8
