REMARK  10 active torsions:
REMARK  status: ('A' for Active; 'I' for Inactive)
REMARK    1  A    between atoms: C2_2  and  N1_3 
REMARK       I    between atoms: N1_3  and  C3_5 
REMARK    2  A    between atoms: C3_5  and  C4_7 
REMARK    3  A    between atoms: N3_10  and  C5_11 
REMARK    4  A    between atoms: C8_14  and  N4_15 
REMARK    5  A    between atoms: C9_18  and  N5_19 
REMARK    6  A    between atoms: C10_23  and  C11_24 
REMARK    7  A    between atoms: C11_24  and  N8_25 
REMARK    8  A    between atoms: N9_28  and  C12_30 
REMARK    9  A    between atoms: C13_31  and  C14_32 
REMARK   10  A    between atoms: C14_32  and  N10_33 
ROOT
HETATM    1  N8  UNL     1       2.872   0.674   2.122  1.00  0.00    -0.262 NA
HETATM    2  O2  UNL     1       3.056   0.862   3.346  1.00  0.00    -0.217 OA
ATOM      3  H2  UNL     1       3.113   1.031   4.279  1.00  0.00     0.261 HD
ENDROOT
BRANCH   1   4
HETATM    4  C11 UNL     1       2.799   0.457   0.921  1.00  0.00     0.243 C 
HETATM    5  N9  UNL     1       3.740  -0.055   0.111  1.00  0.00    -0.310 N 
ATOM      6  H9  UNL     1       3.279  -0.687  -0.544  1.00  0.00     0.170 HD
BRANCH   4   7
HETATM    7  C10 UNL     1       1.445   0.758   0.337  1.00  0.00     0.131 A 
HETATM    8  N7  UNL     1       0.967   1.892  -0.056  1.00  0.00    -0.277 N 
HETATM    9  N6  UNL     1      -0.327   1.693  -0.395  1.00  0.00    -0.014 NA
ATOM     10  H7  UNL     1       1.473   2.776  -0.102  1.00  0.00     0.184 HD
HETATM   11  N5  UNL     1      -0.668   0.411  -0.212  1.00  0.00    -0.236 N 
HETATM   12  C16 UNL     1       0.442  -0.204   0.247  1.00  0.00     0.062 A 
HETATM   13  C17 UNL     1       0.732  -1.603   0.566  1.00  0.00     0.072 C 
BRANCH  11  14
HETATM   14  C9  UNL     1      -1.962  -0.119  -0.424  1.00  0.00     0.133 A 
HETATM   15  C4  UNL     1      -2.869   0.249  -1.401  1.00  0.00     0.148 A 
HETATM   16  N2  UNL     1      -3.925  -0.485  -1.366  1.00  0.00    -0.289 N 
HETATM   17  N3  UNL     1      -3.746  -1.354  -0.356  1.00  0.00    -0.270 N 
ATOM     18  H2  UNL     1      -4.736  -0.421  -1.981  1.00  0.00     0.187 HD
HETATM   19  C8  UNL     1      -2.580  -1.163   0.254  1.00  0.00     0.147 A 
BRANCH  15  20
HETATM   20  C3  UNL     1      -2.725   1.588  -2.115  1.00  0.00     0.272 C 
HETATM   21  N1  UNL     1      -3.076   2.583  -1.229  1.00  0.00    -0.356 N 
ATOM     22  H1  UNL     1      -3.403   2.025  -0.440  1.00  0.00     0.162 HD
HETATM   23  O1  UNL     1      -2.339   1.668  -3.230  1.00  0.00    -0.266 OA
BRANCH  21  24
HETATM   24  C2  UNL     1      -3.266   3.864  -0.731  1.00  0.00     0.118 C 
HETATM   25  C1  UNL     1      -3.696   3.727   0.775  1.00  0.00     0.026 C 
ENDBRANCH  21  24
ENDBRANCH  15  20
BRANCH  17  26
HETATM   26  C5  UNL     1      -4.695  -2.372  -0.035  1.00  0.00     0.102 C 
HETATM   27  C6  UNL     1      -4.523  -3.363  -1.225  1.00  0.00     0.034 C 
HETATM   28  C7  UNL     1      -6.127  -1.925  -0.038  1.00  0.00     0.034 C 
ENDBRANCH  17  26
BRANCH  19  29
HETATM   29  N4  UNL     1      -2.215  -1.754   1.359  1.00  0.00    -0.382 N 
ATOM     30  H42 UNL     1      -2.669  -2.520   1.857  1.00  0.00     0.157 HD
ATOM     31  H41 UNL     1      -1.321  -1.607   1.827  1.00  0.00     0.157 HD
ENDBRANCH  19  29
ENDBRANCH  11  14
ENDBRANCH   4   7
BRANCH   5  32
HETATM   32  C12 UNL     1       4.938  -0.057  -0.146  1.00  0.00     0.151 A 
HETATM   33  C13 UNL     1       6.037   0.582   0.376  1.00  0.00     0.098 A 
HETATM   34  N11 UNL     1       7.138   0.125  -0.305  1.00  0.00    -0.285 N 
HETATM   35  N12 UNL     1       6.749  -0.749  -1.213  1.00  0.00    -0.239 N 
ATOM     36  H11 UNL     1       8.101   0.415  -0.136  1.00  0.00     0.188 HD
HETATM   37  N13 UNL     1       5.449  -0.884  -1.136  1.00  0.00    -0.265 N 
ATOM     38  H12 UNL     1       7.360  -1.239  -1.867  1.00  0.00     0.208 HD
HETATM   39  C15 UNL     1       4.627  -1.867  -1.846  1.00  0.00     0.181 C 
BRANCH  33  40
HETATM   40  C14 UNL     1       5.979   1.692   1.344  1.00  0.00     0.292 C 
BRANCH  40  41
HETATM   41  N10 UNL     1       7.005   1.440   2.415  1.00  0.00    -0.074 N 
ATOM     42 3H10 UNL     1       6.895   0.527   2.857  1.00  0.00     0.274 HD
ATOM     43 2H10 UNL     1       7.941   1.298   2.036  1.00  0.00     0.274 HD
ATOM     44 1H10 UNL     1       6.965   2.208   3.085  1.00  0.00     0.274 HD
ENDBRANCH  40  41
ENDBRANCH  33  40
ENDBRANCH   5  32
ENDBRANCH   1   4
TORSDOF 10
