REMARK  9 active torsions:
REMARK  status: ('A' for Active; 'I' for Inactive)
REMARK    1  A    between atoms: N1_2  and  C2_4 
REMARK    2  A    between atoms: C2_4  and  C3_5 
REMARK    3  A    between atoms: C2_4  and  C15_37 
REMARK    4  A    between atoms: C3_5  and  S1_6 
REMARK    5  A    between atoms: S1_6  and  C4_7 
REMARK    6  A    between atoms: C4_7  and  C5_8 
REMARK    7  A    between atoms: C6_11  and  C7_12 
REMARK    8  A    between atoms: C9_16  and  N4_17 
REMARK    9  A    between atoms: C10_22  and  N6_23 
ROOT
HETATM    1  C5  UNL     1      -0.869  -1.049  -0.428  1.00  0.00     0.070 A 
HETATM    2  N2  UNL     1      -1.640  -0.302   0.327  1.00  0.00    -0.339 N 
ATOM      3  H2  UNL     1      -1.210   0.226   1.086  1.00  0.00     0.167 HD
HETATM    4  C6  UNL     1      -2.958  -0.199   0.151  1.00  0.00     0.121 A 
HETATM    5  N7  UNL     1      -3.560  -0.920  -0.890  1.00  0.00    -0.340 N 
ATOM      6  H7  UNL     1      -4.567  -0.840  -1.033  1.00  0.00     0.167 HD
HETATM    7  C11 UNL     1      -2.845  -1.713  -1.702  1.00  0.00     0.069 A 
HETATM    8  C12 UNL     1      -3.404  -2.353  -2.776  1.00  0.00     0.107 A 
HETATM    9  C13 UNL     1      -2.521  -3.090  -3.624  1.00  0.00     0.261 A 
HETATM   10  O1  UNL     1      -3.060  -3.651  -4.597  1.00  0.00    -0.267 OA
HETATM   11  N8  UNL     1      -1.200  -3.146  -3.367  1.00  0.00    -0.266 N 
ATOM     12  H8  UNL     1      -0.581  -3.678  -3.979  1.00  0.00     0.190 HD
HETATM   13  N9  UNL     1      -0.709  -2.509  -2.320  1.00  0.00    -0.293 N 
ATOM     14  H9  UNL     1       0.292  -2.560  -2.133  1.00  0.00     0.187 HD
HETATM   15  C14 UNL     1      -1.507  -1.783  -1.479  1.00  0.00     0.102 A 
ENDROOT
BRANCH   1  16
HETATM   16  C4  UNL     1       0.573  -1.410  -0.427  1.00  0.00     0.077 C 
BRANCH  16  17
HETATM   17  S1  UNL     1       1.807  -0.440  -0.914  1.00  0.00    -0.133 SA
BRANCH  17  18
HETATM   18  C3  UNL     1       2.891   0.724  -0.452  1.00  0.00     0.139 C 
BRANCH  18  19
HETATM   19  C2  UNL     1       4.056   0.191   0.371  1.00  0.00     0.061 C 
BRANCH  19  20
HETATM   20  N1  UNL     1       3.861  -0.423   1.593  1.00  0.00    -0.394 N 
HETATM   21  C1  UNL     1       3.842  -1.869   1.602  1.00  0.00     0.146 C 
ATOM     22  H1  UNL     1       3.736   0.118   2.449  1.00  0.00     0.159 HD
ENDBRANCH  19  20
BRANCH  19  23
HETATM   23  C15 UNL     1       5.387   0.720   0.112  1.00  0.00     0.162 A 
HETATM   24  N10 UNL     1       6.500  -0.082   0.030  1.00  0.00    -0.267 N 
HETATM   25  N11 UNL     1       7.546   0.656  -0.201  1.00  0.00    -0.226 N 
ATOM     26  H10 UNL     1       6.505  -1.097   0.134  1.00  0.00     0.190 HD
HETATM   27  N12 UNL     1       7.167   1.894  -0.274  1.00  0.00    -0.225 N 
ATOM     28  H11 UNL     1       8.503   0.318  -0.307  1.00  0.00     0.210 HD
HETATM   29  N13 UNL     1       5.877   1.958  -0.091  1.00  0.00    -0.263 N 
ATOM     30  H12 UNL     1       7.780   2.691  -0.447  1.00  0.00     0.210 HD
HETATM   31  C16 UNL     1       5.038   3.157  -0.067  1.00  0.00     0.181 C 
ENDBRANCH  19  23
ENDBRANCH  18  19
ENDBRANCH  17  18
ENDBRANCH  16  17
ENDBRANCH   1  16
BRANCH   4  32
HETATM   32  C7  UNL     1      -3.887   0.623   0.925  1.00  0.00     0.068 A 
HETATM   33  C8  UNL     1      -4.779   1.368   0.070  1.00  0.00     0.125 A 
HETATM   34  N3  UNL     1      -5.752   2.157   0.584  1.00  0.00    -0.201 N 
HETATM   35  C9  UNL     1      -5.896   2.250   1.886  1.00  0.00     0.677 A 
ATOM     36  H3  UNL     1      -6.371   2.677  -0.038  1.00  0.00     0.183 HD
HETATM   37  N5  UNL     1      -5.071   1.542   2.740  1.00  0.00    -0.176 N 
HETATM   38  C10 UNL     1      -4.073   0.738   2.248  1.00  0.00     0.130 A 
ATOM     39  H5  UNL     1      -5.206   1.618   3.748  1.00  0.00     0.186 HD
BRANCH  35  40
HETATM   40  N4  UNL     1      -6.845   2.990   2.370  1.00  0.00    -0.234 N 
ATOM     41  H42 UNL     1      -7.454   3.512   1.740  1.00  0.00     0.174 HD
ATOM     42  H41 UNL     1      -6.957   3.062   3.381  1.00  0.00     0.174 HD
ENDBRANCH  35  40
BRANCH  38  43
HETATM   43  N6  UNL     1      -3.366   0.088   3.123  1.00  0.00    -0.384 N 
ATOM     44  H62 UNL     1      -2.624  -0.509   2.757  1.00  0.00     0.157 HD
ATOM     45  H61 UNL     1      -3.507   0.175   4.129  1.00  0.00     0.157 HD
ENDBRANCH  38  43
ENDBRANCH   4  32
TORSDOF 9
