REMARK  7 active torsions:
REMARK  status: ('A' for Active; 'I' for Inactive)
REMARK    1  A    between atoms: C2_3  and  C3_4 
REMARK    2  A    between atoms: C3_4  and  S1_5 
REMARK    3  A    between atoms: S1_5  and  C4_6 
REMARK    4  A    between atoms: C6_13  and  N4_14 
REMARK    5  A    between atoms: C8_18  and  N5_19 
REMARK       I    between atoms: N6_23  and  C10_24 
REMARK    6  A    between atoms: C11_29  and  C12_30 
REMARK    7  A    between atoms: C13_33  and  N9_34 
ROOT
HETATM    1  N1  UNL     1      -1.342  -3.068   1.664  1.00  0.00    -0.196 NA
HETATM    2  C1  UNL     1      -1.376  -2.164   0.961  1.00  0.00     0.074 C 
HETATM    3  C2  UNL     1      -1.445  -0.995   0.052  1.00  0.00     0.104 C 
HETATM    4  C9  UNL     1      -1.745   0.241   0.878  1.00  0.00     0.154 C 
HETATM    5  N6  UNL     1      -3.071   0.668   0.533  1.00  0.00    -0.337 N 
HETATM    6  C10 UNL     1      -3.822   1.612   1.257  1.00  0.00     0.184 C 
HETATM    7  N7  UNL     1      -3.271   2.741   1.542  1.00  0.00    -0.374 N 
ATOM      8  H71 UNL     1      -3.815   3.425   2.067  1.00  0.00     0.158 HD
ATOM      9  H72 UNL     1      -2.318   2.977   1.265  1.00  0.00     0.158 HD
HETATM   10  N8  UNL     1      -5.152   1.283   1.643  1.00  0.00    -0.064 NA
HETATM   11  C11 UNL     1      -3.538   0.003  -0.658  1.00  0.00     0.220 C 
HETATM   12  C13 UNL     1      -2.544  -1.140  -0.893  1.00  0.00     0.241 C 
ENDROOT
BRANCH   3  13
HETATM   13  C3  UNL     1      -0.063  -0.824  -0.510  1.00  0.00     0.109 C 
BRANCH  13  14
HETATM   14  S1  UNL     1       0.979  -0.542   0.953  1.00  0.00    -0.108 SA
BRANCH  14  15
HETATM   15  C4  UNL     1       2.686  -0.309   0.532  1.00  0.00     0.104 A 
HETATM   16  N2  UNL     1       3.134  -0.340  -0.731  1.00  0.00    -0.333 N 
HETATM   17  C5  UNL     1       4.458  -0.156  -1.018  1.00  0.00     0.133 A 
ATOM     18  H2  UNL     1       2.475  -0.504  -1.492  1.00  0.00     0.168 HD
HETATM   19  N3  UNL     1       4.880  -0.187  -2.237  1.00  0.00    -0.383 N 
HETATM   20  C6  UNL     1       5.400   0.070  -0.037  1.00  0.00     0.148 A 
ATOM     21  H32 UNL     1       4.183  -0.354  -2.963  1.00  0.00     0.157 HD
ATOM     22  H31 UNL     1       5.868  -0.050  -2.451  1.00  0.00     0.157 HD
HETATM   23  C7  UNL     1       4.953   0.105   1.267  1.00  0.00     0.079 A 
HETATM   24  C8  UNL     1       3.596  -0.086   1.540  1.00  0.00     0.138 A 
BRANCH  20  25
HETATM   25  N4  UNL     1       6.784   0.260  -0.363  1.00  0.00    -0.112 N 
HETATM   26  O1  UNL     1       7.301  -0.296  -1.335  1.00  0.00    -0.532 OA
HETATM   27  O2  UNL     1       7.540   1.075   0.423  1.00  0.00    -0.532 OA
ENDBRANCH  20  25
BRANCH  24  28
HETATM   28  N5  UNL     1       3.235  -0.032   2.917  1.00  0.00    -0.113 N 
HETATM   29  O3  UNL     1       2.104   0.400   3.207  1.00  0.00    -0.532 OA
HETATM   30  O4  UNL     1       4.099  -0.441   3.911  1.00  0.00    -0.532 OA
ENDBRANCH  24  28
ENDBRANCH  14  15
ENDBRANCH  13  14
ENDBRANCH   3  13
BRANCH  12  31
HETATM   31  N9  UNL     1      -2.206  -1.210  -2.285  1.00  0.00    -0.071 N 
ATOM     32  H93 UNL     1      -1.645  -0.397  -2.539  1.00  0.00     0.274 HD
ATOM     33  H92 UNL     1      -1.531  -1.960  -2.433  1.00  0.00     0.274 HD
ATOM     34  H91 UNL     1      -2.976  -1.312  -2.947  1.00  0.00     0.274 HD
ENDBRANCH  12  31
BRANCH  11  35
HETATM   35  C12 UNL     1      -3.632   0.889  -1.814  1.00  0.00     0.199 C 
HETATM   36  O5  UNL     1      -3.327   2.095  -1.725  1.00  0.00    -0.646 OA
HETATM   37  O6  UNL     1      -4.065   0.390  -3.023  1.00  0.00    -0.646 OA
ENDBRANCH  11  35
TORSDOF 7
