REMARK  7 active torsions:
REMARK  status: ('A' for Active; 'I' for Inactive)
REMARK    1  A    between atoms: C2_2  and  O1_3 
REMARK    2  A    between atoms: C2_2  and  C3_5 
REMARK    3  A    between atoms: C2_2  and  S1_14 
REMARK    4  A    between atoms: S1_14  and  C6_17 
REMARK    5  A    between atoms: C9_20  and  N4_21 
REMARK    6  A    between atoms: N4_21  and  C10_23 
REMARK    7  A    between atoms: C11_24  and  N5_25 
REMARK       I    between atoms: N5_25  and  C12_27 
ROOT
HETATM    1  C6  UNL     1      -0.451  -0.673   0.071  1.00  0.00     0.062 A 
HETATM    2  C7  UNL     1       0.315  -0.814   1.208  1.00  0.00     0.026 A 
HETATM    3  C8  UNL     1       1.670  -0.581   1.216  1.00  0.00     0.031 A 
HETATM    4  C9  UNL     1       2.357  -0.185   0.057  1.00  0.00     0.032 A 
HETATM    5  C15 UNL     1       1.597  -0.044  -1.075  1.00  0.00     0.031 A 
HETATM    6  C16 UNL     1       0.217  -0.285  -1.067  1.00  0.00     0.026 A 
ENDROOT
BRANCH   1   7
HETATM    7  S1  UNL     1      -2.161  -0.962   0.048  1.00  0.00     0.215 S 
HETATM    8  O2  UNL     1      -2.541  -1.476  -1.305  1.00  0.00    -0.219 OA
HETATM    9  O3  UNL     1      -2.515  -2.042   1.043  1.00  0.00    -0.219 OA
BRANCH   7  10
HETATM   10  C2  UNL     1      -3.123   0.451   0.404  1.00  0.00     0.221 C 
HETATM   11  C1  UNL     1      -2.887   1.578  -0.590  1.00  0.00     0.073 C 
BRANCH  10  12
HETATM   12  O1  UNL     1      -2.861   0.986   1.666  1.00  0.00    -0.368 OA
ATOM     13  H1  UNL     1      -3.008   0.282   2.287  1.00  0.00     0.212 HD
ENDBRANCH  10  12
BRANCH  10  14
HETATM   14  C3  UNL     1      -4.561   0.090   0.316  1.00  0.00     0.142 C 
HETATM   15  N1  UNL     1      -4.915  -1.104  -0.019  1.00  0.00    -0.290 N 
HETATM   16  N2  UNL     1      -6.227  -1.528  -0.126  1.00  0.00    -0.333 N 
ATOM     17  H1  UNL     1      -4.178  -1.781  -0.218  1.00  0.00     0.188 HD
HETATM   18  C4  UNL     1      -7.255  -0.800   0.558  1.00  0.00     0.159 C 
ATOM     19  H2  UNL     1      -6.460  -2.349  -0.685  1.00  0.00     0.180 HD
HETATM   20  C5  UNL     1      -6.981   0.682   0.489  1.00  0.00     0.142 C 
HETATM   21  N3  UNL     1      -5.597   1.026   0.593  1.00  0.00    -0.374 N 
ATOM     22  H3  UNL     1      -5.344   1.973   0.875  1.00  0.00     0.161 HD
ENDBRANCH  10  14
ENDBRANCH   7  10
ENDBRANCH   1   7
BRANCH   4  23
HETATM   23  N4  UNL     1       3.757   0.081   0.128  1.00  0.00    -0.351 N 
ATOM     24  H4  UNL     1       4.142   0.527   0.960  1.00  0.00     0.166 HD
BRANCH  23  25
HETATM   25  C10 UNL     1       4.611  -0.262  -0.929  1.00  0.00     0.119 A 
HETATM   26  C11 UNL     1       5.950   0.066  -1.166  1.00  0.00     0.122 A 
HETATM   27  C13 UNL     1       5.909  -0.701  -2.300  1.00  0.00     0.253 A 
HETATM   28  O5  UNL     1       6.757  -0.980  -3.182  1.00  0.00    -0.281 OA
HETATM   29  C14 UNL     1       4.577  -1.031  -2.070  1.00  0.00     0.253 A 
HETATM   30  O6  UNL     1       3.787  -1.755  -2.725  1.00  0.00    -0.281 OA
BRANCH  26  31
HETATM   31  N5  UNL     1       6.938   0.857  -0.514  1.00  0.00    -0.306 N 
HETATM   32  C12 UNL     1       7.788   0.275   0.464  1.00  0.00     0.333 C 
HETATM   33  N6  UNL     1       8.759   1.110   1.086  1.00  0.00    -0.040 NA
HETATM   34  O4  UNL     1       7.672  -0.928   0.754  1.00  0.00    -0.251 OA
ATOM     35  H5  UNL     1       7.036   1.845  -0.750  1.00  0.00     0.170 HD
ENDBRANCH  26  31
ENDBRANCH  23  25
ENDBRANCH   4  23
TORSDOF 7
