REMARK  5 active torsions:
REMARK  status: ('A' for Active; 'I' for Inactive)
REMARK    1  A    between atoms: C2_2  and  C3_3 
REMARK    2  A    between atoms: C3_3  and  O1_5 
REMARK    3  A    between atoms: C3_3  and  C11_14 
REMARK    4  A    between atoms: O1_5  and  C4_6 
REMARK    5  A    between atoms: C4_6  and  C5_8 
ROOT
HETATM    1  O1  UNL     1      -0.704   0.095  -0.365  1.00  0.00    -0.279 OA
ENDROOT
BRANCH   1   2
HETATM    2  C3  UNL     1      -2.112   0.147  -0.417  1.00  0.00     0.234 C 
HETATM    3  S1  UNL     1      -2.532   1.066  -1.948  1.00  0.00    -0.039 SA
BRANCH   2   4
HETATM    4  C2  UNL     1      -2.693   0.914   0.706  1.00  0.00     0.025 C 
HETATM    5  C1  UNL     1      -2.441   2.201   0.846  1.00  0.00     0.011 C 
ENDBRANCH   2   4
BRANCH   2   6
HETATM    6  C11 UNL     1      -2.722  -1.192  -0.552  1.00  0.00     0.226 C 
HETATM    7  O3  UNL     1      -1.991  -2.194  -0.606  1.00  0.00    -0.645 OA
HETATM    8  O4  UNL     1      -4.083  -1.310  -0.617  1.00  0.00    -0.645 OA
ENDBRANCH   2   6
ENDBRANCH   1   2
BRANCH   1   9
HETATM    9  C4  UNL     1       0.015  -0.451   0.685  1.00  0.00     0.295 C 
HETATM   10  O2  UNL     1      -0.635  -0.927   1.647  1.00  0.00    -0.259 OA
BRANCH   9  11
HETATM   11  C5  UNL     1       1.467  -0.441   0.613  1.00  0.00     0.039 A 
HETATM   12  C6  UNL     1       2.124   0.094  -0.465  1.00  0.00     0.017 A 
HETATM   13  C7  UNL     1       3.520   0.113  -0.553  1.00  0.00     0.001 A 
HETATM   14  C8  UNL     1       4.256  -0.416   0.462  1.00  0.00     0.000 A 
HETATM   15  C9  UNL     1       3.630  -0.965   1.567  1.00  0.00     0.001 A 
HETATM   16  C10 UNL     1       2.257  -0.969   1.624  1.00  0.00     0.017 A 
ENDBRANCH   9  11
ENDBRANCH   1   9
TORSDOF 5
