REMARK  5 active torsions:
REMARK  status: ('A' for Active; 'I' for Inactive)
REMARK    1  A    between atoms: O1_2  and  C2_3 
REMARK       I    between atoms: C2_3  and  N1_5 
REMARK    2  A    between atoms: N1_5  and  C3_7 
REMARK    3  A    between atoms: C3_7  and  C4_8 
REMARK    4  A    between atoms: C3_7  and  C8_15 
REMARK    5  A    between atoms: N2_11  and  O3_12 
ROOT
HETATM    1  C3  UNL     1       0.077   0.210   0.399  1.00  0.00     0.161 C 
ENDROOT
BRANCH   1   2
HETATM    2  N1  UNL     1       1.335  -0.189  -0.162  1.00  0.00    -0.324 N 
HETATM    3  C2  UNL     1       2.451  -0.477   0.657  1.00  0.00     0.360 C 
HETATM    4  O2  UNL     1       2.343  -0.384   1.904  1.00  0.00    -0.239 OA
ATOM      5  H1  UNL     1       1.427  -0.267  -1.175  1.00  0.00     0.165 HD
BRANCH   3   6
HETATM    6  O1  UNL     1       3.649  -0.859   0.081  1.00  0.00    -0.309 OA
HETATM    7  C1  UNL     1       4.751  -1.141   0.947  1.00  0.00     0.215 C 
ENDBRANCH   3   6
ENDBRANCH   1   2
BRANCH   1   8
HETATM    8  C4  UNL     1      -0.971  -0.743  -0.028  1.00  0.00    -0.011 A 
HETATM    9  C5  UNL     1      -1.164  -1.241  -1.303  1.00  0.00     0.030 A 
HETATM   10  C6  UNL     1      -2.240  -2.084  -1.243  1.00  0.00     0.123 A 
HETATM   11  N2  UNL     1      -2.730  -2.136   0.015  1.00  0.00    -0.247 N 
HETATM   12  C7  UNL     1      -1.956  -1.320   0.746  1.00  0.00     0.132 A 
BRANCH  11  13
HETATM   13  O3  UNL     1      -3.810  -2.874   0.476  1.00  0.00    -0.284 OA
ATOM     14  H3  UNL     1      -4.155  -2.911   1.361  1.00  0.00     0.245 HD
ENDBRANCH  11  13
ENDBRANCH   1   8
BRANCH   1  15
HETATM   15  C8  UNL     1      -0.305   1.594  -0.061  1.00  0.00     0.010 A 
HETATM   16  C9  UNL     1      -1.524   2.023  -0.508  1.00  0.00     0.017 A 
HETATM   17  C10 UNL     1      -1.635   3.304  -0.867  1.00  0.00     0.008 A 
HETATM   18  C11 UNL     1      -0.516   4.088  -0.758  1.00  0.00     0.050 A 
HETATM   19  S1  UNL     1       0.653   2.999  -0.156  1.00  0.00    -0.104 SA
ENDBRANCH   1  15
TORSDOF 5
