REMARK  6 active torsions:
REMARK  status: ('A' for Active; 'I' for Inactive)
REMARK    1  A    between atoms: N1_3  and  C1_4 
REMARK    2  A    between atoms: C1_4  and  N2_5 
REMARK    3  A    between atoms: C1_4  and  O3_15 
REMARK    4  A    between atoms: N2_5  and  N3_7 
REMARK    5  A    between atoms: C2_9  and  C3_10 
REMARK    6  A    between atoms: O3_15  and  C7_16 
ROOT
HETATM    1  O1  UNL     1      -1.607   0.137   3.180  1.00  0.00    -0.215 OA
ATOM      2  H1  UNL     1      -2.046   0.476   3.951  1.00  0.00     0.262 HD
HETATM    3  N1  UNL     1      -1.021  -0.318   2.167  1.00  0.00    -0.235 NA
ENDROOT
BRANCH   3   4
HETATM    4  C1  UNL     1      -0.467  -0.746   1.194  1.00  0.00     0.349 C 
BRANCH   4   5
HETATM    5  N2  UNL     1       0.587  -1.761   1.236  1.00  0.00    -0.251 N 
ATOM      6  H2  UNL     1       0.399  -2.715   1.543  1.00  0.00     0.191 HD
BRANCH   5   7
HETATM    7  N3  UNL     1       1.847  -1.364   0.840  1.00  0.00    -0.305 N 
HETATM    8  C2  UNL     1       2.131  -0.121   0.702  1.00  0.00     0.144 C 
ATOM      9  H3  UNL     1       2.562  -2.068   0.655  1.00  0.00     0.186 HD
BRANCH   8  10
HETATM   10  C3  UNL     1       3.474   0.235   0.284  1.00  0.00     0.091 A 
HETATM   11  C4  UNL     1       3.911   1.521   0.094  1.00  0.00     0.040 A 
HETATM   12  C5  UNL     1       5.233   1.473  -0.300  1.00  0.00     0.027 A 
HETATM   13  C6  UNL     1       5.544   0.125  -0.332  1.00  0.00     0.142 A 
HETATM   14  O2  UNL     1       4.470  -0.563   0.021  1.00  0.00    -0.321 OA
ENDBRANCH   8  10
ENDBRANCH   5   7
ENDBRANCH   4   5
BRANCH   4  15
HETATM   15  O3  UNL     1      -0.773  -0.310  -0.113  1.00  0.00    -0.266 OA
BRANCH  15  16
HETATM   16  C7  UNL     1      -2.064  -0.318  -0.589  1.00  0.00     0.080 A 
HETATM   17  C8  UNL     1      -3.145  -0.752   0.106  1.00  0.00     0.037 A 
HETATM   18  C9  UNL     1      -4.408  -0.713  -0.464  1.00  0.00     0.003 A 
HETATM   19  C10 UNL     1      -4.575  -0.235  -1.739  1.00  0.00     0.000 A 
HETATM   20  C11 UNL     1      -3.459   0.208  -2.446  1.00  0.00     0.003 A 
HETATM   21  C12 UNL     1      -2.210   0.177  -1.899  1.00  0.00     0.037 A 
ENDBRANCH  15  16
ENDBRANCH   4  15
ENDBRANCH   3   4
TORSDOF 6
