REMARK  7 active torsions:
REMARK  status: ('A' for Active; 'I' for Inactive)
REMARK    1  A    between atoms: O1_2  and  C2_3 
REMARK    2  A    between atoms: C7_8  and  O2_9 
REMARK    3  A    between atoms: C8_11  and  C9_12 
REMARK    4  A    between atoms: C10_15  and  C11_16 
REMARK    5  A    between atoms: C16_22  and  O5_23 
REMARK    6  A    between atoms: N2_25  and  C18_26 
REMARK    7  A    between atoms: C18_26  and  C20_28 
ROOT
HETATM    1  C2  UNL     1       4.245  -0.933  -0.508  1.00  0.00     0.103 A 
HETATM    2  C3  UNL     1       3.318  -0.014  -0.082  1.00  0.00     0.070 A 
HETATM    3  C4  UNL     1       1.968  -0.220  -0.307  1.00  0.00     0.050 A 
HETATM    4  C5  UNL     1       1.546  -1.358  -0.964  1.00  0.00     0.011 A 
HETATM    5  C6  UNL     1       2.445  -2.298  -1.404  1.00  0.00     0.054 A 
HETATM    6  C7  UNL     1       3.801  -2.057  -1.160  1.00  0.00     0.100 A 
HETATM    7  C8  UNL     1       0.173  -1.262  -1.027  1.00  0.00     0.071 A 
HETATM    8  C10 UNL     1      -0.225  -0.064  -0.402  1.00  0.00     0.089 A 
HETATM    9  N2  UNL     1       0.887   0.550   0.025  1.00  0.00    -0.328 N 
ENDROOT
BRANCH   8  10
HETATM   10  C11 UNL     1      -1.623   0.372  -0.241  1.00  0.00     0.137 A 
HETATM   11  O4  UNL     1      -2.300   1.176  -1.011  1.00  0.00    -0.310 OA
HETATM   12  C12 UNL     1      -3.514   1.355  -0.581  1.00  0.00     0.059 A 
HETATM   13  C13 UNL     1      -4.584   2.215  -1.208  1.00  0.00     0.077 C 
HETATM   14  C14 UNL     1      -3.666   0.618   0.560  1.00  0.00     0.004 A 
HETATM   15  C15 UNL     1      -4.900   0.508   1.414  1.00  0.00     0.054 C 
HETATM   16  C16 UNL     1      -2.451  -0.019   0.787  1.00  0.00     0.112 A 
BRANCH  16  17
HETATM   17  O5  UNL     1      -2.210  -0.854   1.853  1.00  0.00    -0.352 OA
HETATM   18  C17 UNL     1      -2.441  -2.217   1.860  1.00  0.00     0.210 C 
ENDBRANCH  16  17
ENDBRANCH   8  10
BRANCH   7  19
HETATM   19  C9  UNL     1      -0.779  -2.179  -1.632  1.00  0.00     0.268 C 
HETATM   20  N1  UNL     1      -0.355  -3.407  -2.182  1.00  0.00    -0.057 NA
HETATM   21  O3  UNL     1      -2.003  -1.908  -1.684  1.00  0.00    -0.271 OA
ENDBRANCH   7  19
BRANCH   9  22
HETATM   22  C18 UNL     1       0.973   1.817   0.709  1.00  0.00     0.187 C 
HETATM   23  C19 UNL     1       0.134   1.926   1.949  1.00  0.00     0.044 C 
BRANCH  22  24
HETATM   24  C20 UNL     1       0.790   2.963  -0.219  1.00  0.00     0.196 C 
HETATM   25  O6  UNL     1       0.642   2.768  -1.447  1.00  0.00    -0.646 OA
HETATM   26  O7  UNL     1       0.778   4.266   0.241  1.00  0.00    -0.646 OA
ENDBRANCH  22  24
ENDBRANCH   9  22
BRANCH   6  27
HETATM   27  O2  UNL     1       4.703  -3.009  -1.606  1.00  0.00    -0.358 OA
ATOM     28  H2  UNL     1       4.396  -3.787  -2.057  1.00  0.00     0.217 HD
ENDBRANCH   6  27
BRANCH   1  29
HETATM   29  O1  UNL     1       5.584  -0.739  -0.291  1.00  0.00    -0.353 OA
HETATM   30  C1  UNL     1       6.127   0.370   0.360  1.00  0.00     0.210 C 
ENDBRANCH   1  29
TORSDOF 7
