REMARK  8 active torsions:
REMARK  status: ('A' for Active; 'I' for Inactive)
REMARK    1  A    between atoms: C6_7  and  C7_8 
REMARK    2  A    between atoms: C7_8  and  O2_9 
REMARK    3  A    between atoms: C12_15  and  C13_16 
REMARK    4  A    between atoms: C14_17  and  C15_18 
REMARK    5  A    between atoms: C15_18  and  C16_22 
REMARK    6  A    between atoms: C16_22  and  O3_23 
REMARK    7  A    between atoms: O3_23  and  C17_24 
REMARK       I    between atoms: C17_24  and  N2_26 
REMARK    8  A    between atoms: C20_29  and  O5_30 
ROOT
HETATM    1  C13 UNL     1      -1.394  -2.292  -0.356  1.00  0.00    -0.015 C 
HETATM    2  C14 UNL     1      -0.258  -2.825  -0.060  1.00  0.00     0.023 C 
ENDROOT
BRANCH   2   3
HETATM    3  C15 UNL     1       1.057  -2.278   0.107  1.00  0.00     0.027 C 
HETATM    4  N1  UNL     1       2.026  -3.125   0.422  1.00  0.00    -0.401 N 
ATOM      5  H12 UNL     1       1.736  -4.098   0.520  1.00  0.00     0.156 HD
ATOM      6  H11 UNL     1       2.961  -2.736   0.541  1.00  0.00     0.156 HD
BRANCH   3   7
HETATM    7  C16 UNL     1       1.475  -0.873  -0.035  1.00  0.00     0.237 C 
BRANCH   7   8
HETATM    8  O3  UNL     1       2.876  -0.723   0.255  1.00  0.00    -0.298 OA
BRANCH   8   9
HETATM    9  C17 UNL     1       3.433   0.544   0.169  1.00  0.00     0.363 C 
HETATM   10  O4  UNL     1       2.689   1.496  -0.158  1.00  0.00    -0.238 OA
HETATM   11  N2  UNL     1       4.824   0.743   0.448  1.00  0.00    -0.328 N 
HETATM   12  C18 UNL     1       5.374   2.080   0.348  1.00  0.00     0.130 C 
HETATM   13  C22 UNL     1       5.698  -0.335   0.825  1.00  0.00     0.130 C 
HETATM   14  C19 UNL     1       6.577   2.057  -0.589  1.00  0.00     0.051 C 
HETATM   15  C20 UNL     1       7.558   1.002  -0.156  1.00  0.00     0.121 C 
HETATM   16  C21 UNL     1       6.885  -0.342  -0.123  1.00  0.00     0.051 C 
BRANCH  15  17
HETATM   17  O5  UNL     1       8.206   1.308   1.030  1.00  0.00    -0.395 OA
ATOM     18  H5  UNL     1       8.826   0.642   1.303  1.00  0.00     0.210 HD
ENDBRANCH  15  17
ENDBRANCH   8   9
ENDBRANCH   7   8
ENDBRANCH   3   7
ENDBRANCH   2   3
BRANCH   1  19
HETATM   19  C12 UNL     1      -1.762  -0.924  -0.634  1.00  0.00     0.047 C 
HETATM   20  C2  UNL     1      -2.399  -0.779  -2.005  1.00  0.00    -0.081 C 
HETATM   21  C1  UNL     1      -2.747  -1.811  -2.742  1.00  0.00     0.015 C 
HETATM   22  C3  UNL     1      -2.606   0.618  -2.464  1.00  0.00     0.036 C 
HETATM   23  C4  UNL     1      -2.391   1.515  -1.263  1.00  0.00     0.037 C 
HETATM   24  C5  UNL     1      -3.166   1.002  -0.094  1.00  0.00     0.131 C 
HETATM   25  O1  UNL     1      -4.531   1.120  -0.410  1.00  0.00    -0.378 OA
HETATM   26  C10 UNL     1      -2.805  -0.379   0.338  1.00  0.00    -0.007 C 
HETATM   27  C6  UNL     1      -5.268   0.912   0.761  1.00  0.00     0.145 C 
HETATM   28  C8  UNL     1      -5.132  -0.551   1.107  1.00  0.00     0.035 C 
HETATM   29  C9  UNL     1      -4.047  -1.241   0.325  1.00  0.00     0.015 C 
HETATM   30  C11 UNL     1      -2.223  -0.432   1.736  1.00  0.00     0.019 C 
BRANCH  27  31
HETATM   31  C7  UNL     1      -6.724   1.242   0.409  1.00  0.00     0.196 C 
BRANCH  31  32
HETATM   32  O2  UNL     1      -7.553   1.065   1.522  1.00  0.00    -0.398 OA
ATOM     33  H2  UNL     1      -8.455   1.269   1.304  1.00  0.00     0.209 HD
ENDBRANCH  31  32
ENDBRANCH  27  31
ENDBRANCH   1  19
TORSDOF 8
