REMARK  11 active torsions:
REMARK  status: ('A' for Active; 'I' for Inactive)
REMARK    1  A    between atoms: C2_2  and  O1_4 
REMARK    2  A    between atoms: O1_4  and  C4_5 
REMARK       I    between atoms: C4_5  and  N1_7 
REMARK    3  A    between atoms: N1_7  and  C5_9 
REMARK    4  A    between atoms: C5_9  and  C7_11 
REMARK    5  A    between atoms: C7_11  and  O4_13 
REMARK    6  A    between atoms: O4_13  and  C8_14 
REMARK    7  A    between atoms: C8_14  and  C9_15 
REMARK    8  A    between atoms: C11_17  and  C12_18 
REMARK    9  A    between atoms: C13_23  and  C14_24 
REMARK   10  A    between atoms: C14_24  and  O8_26 
REMARK   11  A    between atoms: O8_26  and  C15_27 
ROOT
HETATM    1  C9  UNL     1      -1.239  -0.304  -0.726  1.00  0.00     0.001 A 
HETATM    2  C10 UNL     1      -0.415   0.625  -1.319  1.00  0.00     0.048 A 
HETATM    3  C11 UNL     1      -1.209   1.714  -1.636  1.00  0.00     0.111 A 
HETATM    4  N2  UNL     1      -2.461   1.430  -1.241  1.00  0.00    -0.345 N 
ATOM      5  H2  UNL     1      -3.256   2.060  -1.353  1.00  0.00     0.166 HD
HETATM    6  C13 UNL     1      -2.533   0.233  -0.690  1.00  0.00     0.117 A 
ENDROOT
BRANCH   1   7
HETATM    7  C8  UNL     1      -0.908  -1.641  -0.230  1.00  0.00     0.220 C 
BRANCH   7   8
HETATM    8  O4  UNL     1       0.455  -1.940  -0.335  1.00  0.00    -0.315 OA
BRANCH   8   9
HETATM    9  C7  UNL     1       1.491  -1.303   0.301  1.00  0.00     0.281 C 
HETATM   10  O3  UNL     1       1.229  -0.352   1.079  1.00  0.00    -0.263 OA
BRANCH   9  11
HETATM   11  C5  UNL     1       2.915  -1.729   0.079  1.00  0.00     0.182 C 
HETATM   12  C6  UNL     1       3.065  -3.168   0.475  1.00  0.00     0.043 C 
BRANCH  11  13
HETATM   13  N1  UNL     1       3.824  -0.932   0.846  1.00  0.00    -0.323 N 
HETATM   14  C4  UNL     1       4.813  -0.151   0.206  1.00  0.00     0.361 C 
HETATM   15  O2  UNL     1       4.914  -0.139  -1.035  1.00  0.00    -0.238 OA
ATOM     16  H1  UNL     1       3.757  -0.928   1.864  1.00  0.00     0.165 HD
BRANCH  14  17
HETATM   17  O1  UNL     1       5.673   0.605   0.966  1.00  0.00    -0.299 OA
BRANCH  17  18
HETATM   18  C2  UNL     1       6.695   1.419   0.426  1.00  0.00     0.125 C 
HETATM   19  C1  UNL     1       8.072   0.943   0.833  1.00  0.00     0.040 C 
HETATM   20  C3  UNL     1       6.512   2.868   0.760  1.00  0.00     0.040 C 
ENDBRANCH  17  18
ENDBRANCH  14  17
ENDBRANCH  11  13
ENDBRANCH   9  11
ENDBRANCH   8   9
ENDBRANCH   7   8
ENDBRANCH   1   7
BRANCH   6  21
HETATM   21  C14 UNL     1      -3.704  -0.406  -0.153  1.00  0.00     0.311 C 
HETATM   22  O7  UNL     1      -3.713  -1.557   0.363  1.00  0.00    -0.258 OA
BRANCH  21  23
HETATM   23  O8  UNL     1      -4.960   0.231  -0.167  1.00  0.00    -0.306 OA
BRANCH  23  24
HETATM   24  C15 UNL     1      -6.113  -0.382   0.354  1.00  0.00     0.060 C 
HETATM   25  C16 UNL     1      -7.265   0.585   0.170  1.00  0.00     0.046 C 
HETATM   26  C17 UNL     1      -6.454  -1.671  -0.349  1.00  0.00     0.046 C 
HETATM   27  C18 UNL     1      -6.006  -0.672   1.833  1.00  0.00     0.046 C 
ENDBRANCH  23  24
ENDBRANCH  21  23
ENDBRANCH   6  21
BRANCH   3  28
HETATM   28  C12 UNL     1      -0.733   2.930  -2.283  1.00  0.00     0.226 C 
HETATM   29  O5  UNL     1       0.471   3.077  -2.606  1.00  0.00    -0.643 OA
HETATM   30  O6  UNL     1      -1.608   3.968  -2.559  1.00  0.00    -0.643 OA
ENDBRANCH   3  28
TORSDOF 11
