REMARK  10 active torsions:
REMARK  status: ('A' for Active; 'I' for Inactive)
REMARK    1  A    between atoms: C2_2  and  O1_3 
REMARK    2  A    between atoms: O1_3  and  C3_4 
REMARK    3  A    between atoms: C3_4  and  C4_6 
REMARK    4  A    between atoms: C5_8  and  N1_9 
REMARK    5  A    between atoms: N1_9  and  C6_11 
REMARK    6  A    between atoms: C6_11  and  C7_12 
REMARK    7  A    between atoms: C7_12  and  N2_13 
REMARK    8  A    between atoms: N2_13  and  C8_15 
REMARK    9  A    between atoms: C11_22  and  O3_23 
REMARK   10  A    between atoms: C15_31  and  C16_32 
ROOT
HETATM    1  C7  UNL     1      -1.295  -1.939   1.383  1.00  0.00     0.141 C 
ENDROOT
BRANCH   1   2
HETATM    2  C6  UNL     1      -0.789  -2.564   0.078  1.00  0.00     0.141 C 
BRANCH   2   3
HETATM    3  N1  UNL     1       0.561  -3.012   0.189  1.00  0.00    -0.369 N 
ATOM      4  H1  UNL     1       0.730  -3.970   0.495  1.00  0.00     0.161 HD
BRANCH   3   5
HETATM    5  C5  UNL     1       1.592  -2.254  -0.082  1.00  0.00     0.145 A 
HETATM    6  S1  UNL     1       3.240  -2.660   0.007  1.00  0.00    -0.046 SA
HETATM    7  C4  UNL     1       3.897  -1.148  -0.495  1.00  0.00     0.106 A 
HETATM    8  C15 UNL     1       2.758  -0.410  -0.704  1.00  0.00     0.034 A 
HETATM    9  N5  UNL     1       1.611  -0.987  -0.490  1.00  0.00    -0.339 N 
ATOM     10  H5  UNL     1       0.740  -0.476  -0.633  1.00  0.00     0.168 HD
BRANCH   7  11
HETATM   11  C3  UNL     1       5.313  -0.781  -0.649  1.00  0.00     0.302 C 
HETATM   12  O2  UNL     1       6.165  -1.662  -0.389  1.00  0.00    -0.259 OA
BRANCH  11  13
HETATM   13  O1  UNL     1       5.745   0.452  -1.056  1.00  0.00    -0.317 OA
BRANCH  13  14
HETATM   14  C2  UNL     1       7.130   0.779  -1.197  1.00  0.00     0.174 C 
HETATM   15  C1  UNL     1       7.770   0.590   0.155  1.00  0.00     0.034 C 
ENDBRANCH  13  14
ENDBRANCH  11  13
ENDBRANCH   7  11
BRANCH   8  16
HETATM   16  C16 UNL     1       2.867   1.041  -1.168  1.00  0.00     0.054 C 
HETATM   17  C17 UNL     1       3.253   1.953  -0.052  1.00  0.00     0.011 C 
ENDBRANCH   8  16
ENDBRANCH   3   5
ENDBRANCH   2   3
ENDBRANCH   1   2
BRANCH   1  18
HETATM   18  N2  UNL     1      -2.629  -1.526   1.198  1.00  0.00    -0.373 N 
ATOM     19  H2  UNL     1      -3.341  -2.198   1.483  1.00  0.00     0.161 HD
BRANCH  18  20
HETATM   20  C8  UNL     1      -3.065  -0.435   0.726  1.00  0.00     0.134 A 
HETATM   21  N3  UNL     1      -2.291   0.575   0.297  1.00  0.00    -0.285 N 
HETATM   22  N4  UNL     1      -2.894   1.645  -0.167  1.00  0.00    -0.309 N 
ATOM     23  H3  UNL     1      -1.273   0.513   0.330  1.00  0.00     0.188 HD
HETATM   24  C9  UNL     1      -4.205   1.814  -0.249  1.00  0.00     0.122 A 
ATOM     25  H4  UNL     1      -2.303   2.410  -0.492  1.00  0.00     0.186 HD
HETATM   26  C10 UNL     1      -5.086   0.801   0.181  1.00  0.00     0.036 A 
HETATM   27  C11 UNL     1      -6.428   0.808   0.169  1.00  0.00     0.091 A 
HETATM   28  C14 UNL     1      -4.467  -0.313   0.664  1.00  0.00     0.065 A 
HETATM   29  C12 UNL     1      -7.068  -0.308   0.646  1.00  0.00     0.014 A 
HETATM   30  C13 UNL     1      -8.553  -0.559   0.745  1.00  0.00     0.059 C 
HETATM   31  S2  UNL     1      -5.768  -1.325   1.091  1.00  0.00    -0.087 SA
BRANCH  27  32
HETATM   32  O3  UNL     1      -7.219   1.893  -0.303  1.00  0.00    -0.359 OA
ATOM     33  H3  UNL     1      -8.169   1.898  -0.311  1.00  0.00     0.217 HD
ENDBRANCH  27  32
ENDBRANCH  18  20
ENDBRANCH   1  18
TORSDOF 10
