REMARK  8 active torsions:
REMARK  status: ('A' for Active; 'I' for Inactive)
REMARK    1  A    between atoms: O1_2  and  C2_3 
REMARK    2  A    between atoms: C7_8  and  O2_9 
REMARK    3  A    between atoms: C8_11  and  O3_12 
REMARK    4  A    between atoms: C10_15  and  C11_16 
REMARK    5  A    between atoms: C12_17  and  C13_18 
REMARK    6  A    between atoms: C15_22  and  O6_23 
REMARK    7  A    between atoms: C17_25  and  O7_26 
REMARK    8  A    between atoms: C19_28  and  O8_29 
ROOT
HETATM    1  C2  UNL     1       4.885  -1.996   0.244  1.00  0.00     0.103 A 
HETATM    2  C3  UNL     1       4.425  -0.863  -0.375  1.00  0.00     0.077 A 
HETATM    3  C4  UNL     1       3.082  -0.499  -0.265  1.00  0.00     0.087 A 
HETATM    4  C5  UNL     1       2.209  -1.260   0.459  1.00  0.00     0.013 A 
HETATM    5  C6  UNL     1       2.695  -2.398   1.073  1.00  0.00     0.052 A 
HETATM    6  C7  UNL     1       4.013  -2.775   0.977  1.00  0.00     0.099 A 
HETATM    7  C8  UNL     1       0.852  -0.627   0.447  1.00  0.00     0.211 A 
HETATM    8  C9  UNL     1       1.035   0.533  -0.423  1.00  0.00     0.087 A 
HETATM    9  C10 UNL     1       0.200   1.460  -0.874  1.00  0.00     0.051 C 
HETATM   10  O9  UNL     1       2.390   0.564  -0.785  1.00  0.00    -0.311 OA
ENDROOT
BRANCH   9  11
HETATM   11  C11 UNL     1      -1.219   1.555  -0.589  1.00  0.00     0.020 A 
HETATM   12  C12 UNL     1      -1.714   2.220   0.526  1.00  0.00     0.056 A 
HETATM   13  C14 UNL     1      -3.093   2.257   0.754  1.00  0.00     0.059 A 
HETATM   14  C15 UNL     1      -4.010   1.665  -0.077  1.00  0.00     0.105 A 
HETATM   15  C17 UNL     1      -3.516   1.014  -1.176  1.00  0.00     0.136 A 
HETATM   16  C19 UNL     1      -2.135   0.955  -1.438  1.00  0.00     0.115 A 
BRANCH  12  17
HETATM   17  C13 UNL     1      -0.858   2.953   1.412  1.00  0.00     0.210 C 
HETATM   18  O4  UNL     1      -1.349   3.512   2.418  1.00  0.00    -0.644 OA
HETATM   19  O5  UNL     1       0.495   3.067   1.192  1.00  0.00    -0.644 OA
ENDBRANCH  12  17
BRANCH  14  20
HETATM   20  O6  UNL     1      -5.386   1.719   0.181  1.00  0.00    -0.353 OA
HETATM   21  C16 UNL     1      -5.817   2.414   1.343  1.00  0.00     0.210 C 
ENDBRANCH  14  20
BRANCH  15  22
HETATM   22  O7  UNL     1      -4.379   0.390  -2.068  1.00  0.00    -0.351 OA
HETATM   23  C18 UNL     1      -4.729  -0.967  -1.829  1.00  0.00     0.210 C 
ENDBRANCH  15  22
BRANCH  16  24
HETATM   24  O8  UNL     1      -1.681   0.296  -2.559  1.00  0.00    -0.352 OA
HETATM   25  C20 UNL     1      -1.423  -1.072  -2.561  1.00  0.00     0.210 C 
ENDBRANCH  16  24
ENDBRANCH   9  11
BRANCH   7  26
HETATM   26  O3  UNL     1       0.516  -0.236   1.751  1.00  0.00    -0.384 OA
ATOM     27  H3  UNL     1      -0.345   0.166   1.743  1.00  0.00     0.211 HD
ENDBRANCH   7  26
BRANCH   6  28
HETATM   28  O2  UNL     1       4.485  -3.928   1.605  1.00  0.00    -0.358 OA
ATOM     29  H2  UNL     1       3.885  -4.464   2.110  1.00  0.00     0.217 HD
ENDBRANCH   6  28
BRANCH   1  30
HETATM   30  O1  UNL     1       6.215  -2.343   0.125  1.00  0.00    -0.353 OA
HETATM   31  C1  UNL     1       7.132  -1.588  -0.604  1.00  0.00     0.210 C 
ENDBRANCH   1  30
TORSDOF 8
