REMARK  13 active torsions:
REMARK  status: ('A' for Active; 'I' for Inactive)
REMARK    1  A    between atoms: C2_2  and  C3_3 
REMARK    2  A    between atoms: C2_2  and  C11_11 
REMARK    3  A    between atoms: C3_3  and  C4_4 
REMARK    4  A    between atoms: C4_4  and  C5_5 
REMARK    5  A    between atoms: C11_11  and  N1_12 
REMARK    6  A    between atoms: C11_11  and  C16_23 
REMARK    7  A    between atoms: N1_12  and  C12_14 
REMARK    8  A    between atoms: C12_14  and  C13_15 
REMARK    9  A    between atoms: C13_15  and  C14_16 
REMARK       I    between atoms: C14_16  and  N2_18 
REMARK   10  A    between atoms: C16_23  and  C19_26 
REMARK       I    between atoms: C19_26  and  N5_28 
REMARK   11  A    between atoms: N5_28  and  C20_30 
REMARK   12  A    between atoms: C20_30  and  C21_31 
REMARK   13  A    between atoms: C21_31  and  C22_32 
ROOT
HETATM    1  C11 UNL     1      -0.292   0.376  -0.645  1.00  0.00     0.028 C 
ENDROOT
BRANCH   1   2
HETATM    2  C2  UNL     1      -1.011  -0.774  -1.201  1.00  0.00    -0.044 C 
HETATM    3  C1  UNL     1      -1.246  -0.727  -2.503  1.00  0.00     0.021 C 
BRANCH   2   4
HETATM    4  C3  UNL     1      -1.510  -1.943  -0.499  1.00  0.00     0.044 C 
BRANCH   4   5
HETATM    5  C4  UNL     1      -2.239  -2.887  -1.426  1.00  0.00     0.043 C 
BRANCH   5   6
HETATM    6  C5  UNL     1      -2.752  -4.075  -0.693  1.00  0.00    -0.058 A 
HETATM    7  C6  UNL     1      -4.011  -4.040  -0.148  1.00  0.00     0.007 A 
HETATM    8  C7  UNL     1      -4.531  -5.126   0.548  1.00  0.00     0.001 A 
HETATM    9  C8  UNL     1      -3.749  -6.258   0.685  1.00  0.00     0.000 A 
HETATM   10  C9  UNL     1      -2.493  -6.301   0.144  1.00  0.00     0.001 A 
HETATM   11  C10 UNL     1      -1.998  -5.207  -0.544  1.00  0.00     0.007 A 
ENDBRANCH   5   6
ENDBRANCH   4   5
ENDBRANCH   2   4
ENDBRANCH   1   2
BRANCH   1  12
HETATM   12  N1  UNL     1      -1.172   1.354  -0.155  1.00  0.00    -0.391 N 
ATOM     13  H1  UNL     1      -1.164   2.277  -0.590  1.00  0.00     0.159 HD
BRANCH  12  14
HETATM   14  C12 UNL     1      -2.056   1.123   0.898  1.00  0.00     0.129 C 
BRANCH  14  15
HETATM   15  C13 UNL     1      -2.820   2.458   1.115  1.00  0.00     0.122 C 
BRANCH  15  16
HETATM   16  C14 UNL     1      -3.785   2.310   2.218  1.00  0.00     0.225 C 
HETATM   17  O1  UNL     1      -3.870   1.203   2.806  1.00  0.00    -0.273 OA
HETATM   18  N2  UNL     1      -4.597   3.371   2.613  1.00  0.00    -0.304 N 
HETATM   19  C15 UNL     1      -4.680   4.551   2.161  1.00  0.00     0.203 C 
ATOM     20  H2  UNL     1      -5.225   3.164   3.390  1.00  0.00     0.171 HD
HETATM   21  N3  UNL     1      -5.622   5.453   2.770  1.00  0.00    -0.066 NA
HETATM   22  N4  UNL     1      -3.918   5.074   1.091  1.00  0.00    -0.066 NA
ENDBRANCH  15  16
ENDBRANCH  14  15
ENDBRANCH  12  14
ENDBRANCH   1  12
BRANCH   1  23
HETATM   23  C16 UNL     1       0.939   0.087   0.167  1.00  0.00     0.076 C 
HETATM   24  C17 UNL     1       1.456   1.477   0.599  1.00  0.00     0.032 C 
HETATM   25  C18 UNL     1       0.724  -0.666   1.432  1.00  0.00     0.032 C 
BRANCH  23  26
HETATM   26  C19 UNL     1       2.041  -0.474  -0.656  1.00  0.00     0.231 C 
HETATM   27  O2  UNL     1       2.484  -1.614  -0.405  1.00  0.00    -0.272 OA
HETATM   28  N5  UNL     1       2.662   0.194  -1.745  1.00  0.00    -0.360 N 
ATOM     29  H5  UNL     1       2.322   1.128  -1.973  1.00  0.00     0.162 HD
BRANCH  28  30
HETATM   30  C20 UNL     1       3.710  -0.322  -2.540  1.00  0.00     0.127 C 
BRANCH  30  31
HETATM   31  C21 UNL     1       4.991  -0.655  -1.866  1.00  0.00     0.058 C 
BRANCH  31  32
HETATM   32  C22 UNL     1       5.679   0.464  -1.201  1.00  0.00    -0.057 A 
HETATM   33  C23 UNL     1       5.430   0.701   0.128  1.00  0.00     0.007 A 
HETATM   34  C24 UNL     1       6.039   1.748   0.831  1.00  0.00     0.001 A 
HETATM   35  C25 UNL     1       6.911   2.551   0.153  1.00  0.00     0.000 A 
HETATM   36  C26 UNL     1       7.164   2.317  -1.177  1.00  0.00     0.001 A 
HETATM   37  C27 UNL     1       6.561   1.288  -1.859  1.00  0.00     0.007 A 
ENDBRANCH  31  32
ENDBRANCH  30  31
ENDBRANCH  28  30
ENDBRANCH  23  26
ENDBRANCH   1  23
TORSDOF 13
