REMARK  14 active torsions:
REMARK  status: ('A' for Active; 'I' for Inactive)
REMARK    1  A    between atoms: C2_2  and  C3_3 
REMARK       I    between atoms: C3_3  and  N1_5 
REMARK    2  A    between atoms: N1_5  and  C4_7 
REMARK    3  A    between atoms: C4_7  and  C5_8 
REMARK    4  A    between atoms: C4_7  and  C22_33 
REMARK    5  A    between atoms: C5_8  and  C6_9 
REMARK    6  A    between atoms: C6_9  and  N2_10 
REMARK    7  A    between atoms: C6_9  and  C21_30 
REMARK    8  A    between atoms: N2_10  and  C7_12 
REMARK    9  A    between atoms: C7_12  and  C8_16 
REMARK   10  A    between atoms: C8_16  and  N4_17 
REMARK   11  A    between atoms: N4_17  and  C10_19 
REMARK   12  A    between atoms: N4_17  and  C18_27 
REMARK   13  A    between atoms: C10_19  and  C11_20 
REMARK   14  A    between atoms: C11_20  and  C12_21 
ROOT
HETATM    1  N2  UNL     1      -0.659   1.227   0.168  1.00  0.00    -0.344 N 
ATOM      2  H2  UNL     1      -0.431   1.560  -0.769  1.00  0.00     0.167 HD
ENDROOT
BRANCH   1   3
HETATM    3  C6  UNL     1      -1.895   1.677   0.787  1.00  0.00     0.078 C 
BRANCH   3   4
HETATM    4  C5  UNL     1      -2.868   0.595   1.051  1.00  0.00     0.092 C 
BRANCH   4   5
HETATM    5  C4  UNL     1      -3.345  -0.220  -0.086  1.00  0.00     0.123 C 
BRANCH   5   6
HETATM    6  N1  UNL     1      -4.281  -1.216   0.495  1.00  0.00    -0.349 N 
HETATM    7  C3  UNL     1      -4.077  -2.590   0.325  1.00  0.00     0.240 C 
HETATM    8  O1  UNL     1      -3.061  -2.955  -0.344  1.00  0.00    -0.269 OA
ATOM      9  H1  UNL     1      -5.088  -0.892   1.028  1.00  0.00     0.163 HD
BRANCH   7  10
HETATM   10  C2  UNL     1      -4.988  -3.557   0.891  1.00  0.00     0.064 C 
HETATM   11  C1  UNL     1      -6.030  -3.191   1.576  1.00  0.00     0.017 C 
ENDBRANCH   7  10
ENDBRANCH   5   6
BRANCH   5  12
HETATM   12  C22 UNL     1      -4.105   0.446  -1.141  1.00  0.00    -0.035 A 
HETATM   13  C23 UNL     1      -5.406   0.810  -0.962  1.00  0.00     0.009 A 
HETATM   14  C24 UNL     1      -6.126   1.433  -1.975  1.00  0.00     0.001 A 
HETATM   15  C25 UNL     1      -5.526   1.692  -3.182  1.00  0.00     0.000 A 
HETATM   16  C26 UNL     1      -4.220   1.333  -3.380  1.00  0.00     0.001 A 
HETATM   17  C27 UNL     1      -3.508   0.706  -2.349  1.00  0.00     0.009 A 
ENDBRANCH   5  12
ENDBRANCH   4   5
ENDBRANCH   3   4
BRANCH   3  18
HETATM   18  C21 UNL     1      -2.417   2.930   0.219  1.00  0.00     0.277 C 
HETATM   19  N5  UNL     1      -3.577   3.555   0.743  1.00  0.00    -0.056 NA
HETATM   20  O2  UNL     1      -1.863   3.524  -0.763  1.00  0.00    -0.270 OA
ENDBRANCH   3  18
ENDBRANCH   1   3
BRANCH   1  21
HETATM   21  C7  UNL     1       0.238   0.347   0.812  1.00  0.00     0.101 C 
HETATM   22  N3  UNL     1       0.067   0.196   2.105  1.00  0.00    -0.387 N 
ATOM     23  H32 UNL     1      -0.687   0.705   2.566  1.00  0.00     0.157 HD
ATOM     24  H31 UNL     1       0.715  -0.440   2.570  1.00  0.00     0.157 HD
BRANCH  21  25
HETATM   25  C8  UNL     1       1.324  -0.387   0.147  1.00  0.00     0.312 C 
BRANCH  25  26
HETATM   26  N4  UNL     1       2.452   0.363  -0.275  1.00  0.00    -0.060 N 
HETATM   27  C9  UNL     1       2.369   1.685   0.389  1.00  0.00     0.273 C 
BRANCH  26  28
HETATM   28  C10 UNL     1       3.743  -0.139   0.139  1.00  0.00     0.242 C 
BRANCH  28  29
HETATM   29  C11 UNL     1       3.783  -1.300   1.044  1.00  0.00     0.066 C 
BRANCH  29  30
HETATM   30  C12 UNL     1       5.206  -1.681   1.392  1.00  0.00    -0.057 A 
HETATM   31  C13 UNL     1       5.836  -1.133   2.488  1.00  0.00     0.007 A 
HETATM   32  C14 UNL     1       7.148  -1.474   2.821  1.00  0.00     0.001 A 
HETATM   33  C15 UNL     1       7.812  -2.380   2.025  1.00  0.00     0.000 A 
HETATM   34  C16 UNL     1       7.209  -2.946   0.922  1.00  0.00     0.001 A 
HETATM   35  C17 UNL     1       5.899  -2.587   0.614  1.00  0.00     0.007 A 
ENDBRANCH  29  30
ENDBRANCH  28  29
ENDBRANCH  26  28
BRANCH  26  36
HETATM   36  C18 UNL     1       2.533   0.618  -1.695  1.00  0.00     0.182 C 
HETATM   37  C19 UNL     1       1.612  -0.176  -2.553  1.00  0.00     0.040 C 
HETATM   38  C20 UNL     1       2.366   2.070  -2.078  1.00  0.00     0.040 C 
ENDBRANCH  26  36
ENDBRANCH  25  26
ENDBRANCH  21  25
ENDBRANCH   1  21
TORSDOF 14
