REMARK  16 active torsions:
REMARK  status: ('A' for Active; 'I' for Inactive)
REMARK    1  A    between atoms: C2_2  and  C3_3 
REMARK    2  A    between atoms: C3_3  and  N1_4 
REMARK    3  A    between atoms: N1_4  and  C5_6 
REMARK    4  A    between atoms: N1_4  and  C8_9 
REMARK    5  A    between atoms: C5_6  and  C6_7 
REMARK    6  A    between atoms: C8_9  and  C9_10 
REMARK    7  A    between atoms: C9_10  and  C10_11 
REMARK    8  A    between atoms: C10_11  and  N2_12 
REMARK       I    between atoms: N2_12  and  C11_14 
REMARK    9  A    between atoms: C11_14  and  C12_16 
REMARK   10  A    between atoms: C12_16  and  C13_17 
REMARK   11  A    between atoms: C12_16  and  N3_24 
REMARK   12  A    between atoms: C13_17  and  C14_18 
REMARK       I    between atoms: N3_24  and  C20_26 
REMARK   13  A    between atoms: C20_26  and  C21_28 
REMARK   14  A    between atoms: C21_28  and  N4_29 
REMARK   15  A    between atoms: C21_28  and  C22_33 
REMARK   16  A    between atoms: C22_33  and  C23_34 
ROOT
HETATM    1  C12 UNL     1       0.162  -0.485  -0.498  1.00  0.00     0.180 C 
ENDROOT
BRANCH   1   2
HETATM    2  C11 UNL     1      -0.754   0.610  -0.899  1.00  0.00     0.240 C 
HETATM    3  N2  UNL     1      -2.067   0.371  -1.374  1.00  0.00    -0.359 N 
ATOM      4  H2  UNL     1      -2.422  -0.582  -1.454  1.00  0.00     0.162 HD
HETATM    5  O1  UNL     1      -0.300   1.796  -0.795  1.00  0.00    -0.271 OA
BRANCH   3   6
HETATM    6  C10 UNL     1      -2.896   1.495  -1.743  1.00  0.00     0.124 C 
BRANCH   6   7
HETATM    7  C9  UNL     1      -4.248   1.088  -2.224  1.00  0.00     0.048 C 
BRANCH   7   8
HETATM    8  C8  UNL     1      -5.104   0.324  -1.305  1.00  0.00     0.239 C 
BRANCH   8   9
HETATM    9  N1  UNL     1      -5.540   0.852  -0.083  1.00  0.00    -0.065 N 
HETATM   10  C4  UNL     1      -5.246   2.196   0.260  1.00  0.00     0.273 C 
BRANCH   9  11
HETATM   11  C3  UNL     1      -5.128  -0.025   1.033  1.00  0.00     0.264 C 
BRANCH  11  12
HETATM   12  C2  UNL     1      -5.985  -1.232   1.123  1.00  0.00    -0.009 C 
HETATM   13  C1  UNL     1      -5.505  -2.468   1.008  1.00  0.00     0.008 C 
ENDBRANCH  11  12
ENDBRANCH   9  11
BRANCH   9  14
HETATM   14  C5  UNL     1      -7.023   0.755  -0.090  1.00  0.00     0.264 C 
BRANCH  14  15
HETATM   15  C6  UNL     1      -7.611   1.895  -0.856  1.00  0.00    -0.009 C 
HETATM   16  C7  UNL     1      -8.447   2.773  -0.333  1.00  0.00     0.008 C 
ENDBRANCH  14  15
ENDBRANCH   9  14
ENDBRANCH   8   9
ENDBRANCH   7   8
ENDBRANCH   6   7
ENDBRANCH   3   6
ENDBRANCH   1   2
BRANCH   1  17
HETATM   17  C13 UNL     1      -0.500  -1.201   0.678  1.00  0.00     0.073 C 
BRANCH  17  18
HETATM   18  C14 UNL     1       0.323  -2.319   1.162  1.00  0.00    -0.056 A 
HETATM   19  C15 UNL     1       1.267  -2.107   2.155  1.00  0.00     0.007 A 
HETATM   20  C16 UNL     1       2.058  -3.148   2.625  1.00  0.00     0.001 A 
HETATM   21  C17 UNL     1       1.917  -4.407   2.112  1.00  0.00     0.000 A 
HETATM   22  C18 UNL     1       0.983  -4.643   1.121  1.00  0.00     0.001 A 
HETATM   23  C19 UNL     1       0.207  -3.598   0.667  1.00  0.00     0.007 A 
ENDBRANCH  17  18
ENDBRANCH   1  17
BRANCH   1  24
HETATM   24  N3  UNL     1       1.405   0.076  -0.061  1.00  0.00    -0.346 N 
HETATM   25  C20 UNL     1       2.675  -0.361  -0.511  1.00  0.00     0.249 C 
HETATM   26  O2  UNL     1       2.718  -1.295  -1.341  1.00  0.00    -0.271 OA
ATOM     27  H3  UNL     1       1.374   0.838   0.617  1.00  0.00     0.163 HD
BRANCH  25  28
HETATM   28  C21 UNL     1       3.947   0.234  -0.046  1.00  0.00     0.278 C 
BRANCH  28  29
HETATM   29  N4  UNL     1       3.739   1.334   0.863  1.00  0.00    -0.066 N 
ATOM     30  H43 UNL     1       3.131   2.042   0.451  1.00  0.00     0.275 HD
ATOM     31  H42 UNL     1       3.154   1.055   1.651  1.00  0.00     0.275 HD
ATOM     32  H41 UNL     1       4.616   1.744   1.184  1.00  0.00     0.275 HD
ENDBRANCH  28  29
BRANCH  28  33
HETATM   33  C22 UNL     1       4.760   0.677  -1.231  1.00  0.00     0.083 C 
BRANCH  33  34
HETATM   34  C23 UNL     1       6.040   1.286  -0.818  1.00  0.00    -0.028 A 
HETATM   35  C24 UNL     1       6.360   2.621  -0.830  1.00  0.00     0.096 A 
HETATM   36  N5  UNL     1       7.639   2.775  -0.379  1.00  0.00    -0.365 N 
HETATM   37  C25 UNL     1       8.144   1.562  -0.078  1.00  0.00     0.042 A 
ATOM     38  H5  UNL     1       8.132   3.663  -0.285  1.00  0.00     0.165 HD
HETATM   39  C26 UNL     1       9.377   1.158   0.412  1.00  0.00     0.030 A 
HETATM   40  C30 UNL     1       7.156   0.641  -0.350  1.00  0.00    -0.002 A 
HETATM   41  C27 UNL     1       9.643  -0.178   0.640  1.00  0.00     0.002 A 
HETATM   42  C28 UNL     1       8.657  -1.098   0.369  1.00  0.00     0.001 A 
HETATM   43  C29 UNL     1       7.428  -0.684  -0.121  1.00  0.00     0.014 A 
ENDBRANCH  33  34
ENDBRANCH  28  33
ENDBRANCH  25  28
ENDBRANCH   1  24
TORSDOF 16
