REMARK  14 active torsions:
REMARK  status: ('A' for Active; 'I' for Inactive)
REMARK    1  A    between atoms: C2_2  and  C3_3 
REMARK    2  A    between atoms: C3_3  and  C4_4 
REMARK    3  A    between atoms: C4_4  and  N1_5 
REMARK       I    between atoms: N1_5  and  C5_7 
REMARK    4  A    between atoms: C5_7  and  C6_9 
REMARK    5  A    between atoms: C6_9  and  C8_11 
REMARK    6  A    between atoms: C6_9  and  C26_35 
REMARK    7  A    between atoms: C8_11  and  C9_12 
REMARK       I    between atoms: C9_12  and  N2_14 
REMARK    8  A    between atoms: N2_14  and  C10_16 
REMARK    9  A    between atoms: C10_16  and  C11_17 
REMARK   10  A    between atoms: C10_16  and  C22_28 
REMARK   11  A    between atoms: C11_17  and  C12_18 
REMARK       I    between atoms: C22_28  and  N3_30 
REMARK   12  A    between atoms: N3_30  and  C23_32 
REMARK   13  A    between atoms: C23_32  and  C24_33 
REMARK   14  A    between atoms: C26_35  and  C27_36 
ROOT
HETATM    1  C9  UNL     1      -0.257  -0.277   0.548  1.00  0.00     0.219 C 
HETATM    2  O2  UNL     1      -0.542  -0.295  -0.688  1.00  0.00    -0.274 OA
HETATM    3  N2  UNL     1      -1.159   0.398   1.410  1.00  0.00    -0.347 N 
ATOM      4  H2  UNL     1      -0.971   0.438   2.412  1.00  0.00     0.163 HD
ENDROOT
BRANCH   3   5
HETATM    5  C10 UNL     1      -2.355   1.036   0.868  1.00  0.00     0.180 C 
BRANCH   5   6
HETATM    6  C11 UNL     1      -3.606   0.481   1.510  1.00  0.00     0.074 C 
BRANCH   6   7
HETATM    7  C12 UNL     1      -3.802  -0.954   1.319  1.00  0.00    -0.045 A 
HETATM    8  C13 UNL     1      -3.453  -1.874   2.310  1.00  0.00     0.008 A 
HETATM    9  C14 UNL     1      -3.583  -3.223   2.194  1.00  0.00     0.001 A 
HETATM   10  C15 UNL     1      -4.089  -3.747   1.035  1.00  0.00     0.012 A 
HETATM   11  C16 UNL     1      -4.453  -2.892   0.017  1.00  0.00    -0.025 A 
HETATM   12  C17 UNL     1      -4.970  -3.452  -1.143  1.00  0.00     0.012 A 
HETATM   13  C21 UNL     1      -4.309  -1.523   0.164  1.00  0.00    -0.020 A 
HETATM   14  C18 UNL     1      -5.359  -2.634  -2.192  1.00  0.00     0.001 A 
HETATM   15  C19 UNL     1      -5.212  -1.272  -2.033  1.00  0.00     0.001 A 
HETATM   16  C20 UNL     1      -4.694  -0.734  -0.868  1.00  0.00     0.013 A 
ENDBRANCH   6   7
ENDBRANCH   5   6
BRANCH   5  17
HETATM   17  C22 UNL     1      -2.208   2.492   1.115  1.00  0.00     0.241 C 
HETATM   18  O3  UNL     1      -1.198   2.975   1.688  1.00  0.00    -0.271 OA
HETATM   19  N3  UNL     1      -3.230   3.389   0.698  1.00  0.00    -0.356 N 
ATOM     20  H3  UNL     1      -4.058   3.019   0.231  1.00  0.00     0.162 HD
BRANCH  19  21
HETATM   21  C23 UNL     1      -3.123   4.813   0.920  1.00  0.00     0.149 C 
BRANCH  21  22
HETATM   22  C24 UNL     1      -1.908   5.372   0.229  1.00  0.00    -0.018 C 
HETATM   23  C25 UNL     1      -0.951   5.977   0.910  1.00  0.00     0.008 C 
ENDBRANCH  21  22
ENDBRANCH  19  21
ENDBRANCH   5  17
ENDBRANCH   3   5
BRANCH   1  24
HETATM   24  C8  UNL     1       0.952  -0.919   1.112  1.00  0.00     0.122 C 
BRANCH  24  25
HETATM   25  C6  UNL     1       1.819  -1.538   0.031  1.00  0.00     0.051 C 
HETATM   26  C7  UNL     1       0.947  -2.584  -0.648  1.00  0.00     0.026 C 
BRANCH  25  27
HETATM   27  C5  UNL     1       2.260  -0.498  -0.909  1.00  0.00     0.226 C 
HETATM   28  N1  UNL     1       3.140   0.514  -0.473  1.00  0.00    -0.360 N 
ATOM     29  H1  UNL     1       3.456   0.503   0.497  1.00  0.00     0.162 HD
HETATM   30  O1  UNL     1       1.900  -0.432  -2.129  1.00  0.00    -0.273 OA
BRANCH  28  31
HETATM   31  C4  UNL     1       3.610   1.561  -1.341  1.00  0.00     0.126 C 
BRANCH  31  32
HETATM   32  C3  UNL     1       4.534   2.504  -0.615  1.00  0.00     0.046 C 
BRANCH  32  33
HETATM   33  C2  UNL     1       5.036   3.587  -1.464  1.00  0.00    -0.035 C 
HETATM   34  C1  UNL     1       4.799   4.854  -1.170  1.00  0.00     0.007 C 
ENDBRANCH  32  33
ENDBRANCH  31  32
ENDBRANCH  28  31
ENDBRANCH  25  27
BRANCH  25  35
HETATM   35  C26 UNL     1       2.981  -2.210   0.655  1.00  0.00     0.076 C 
BRANCH  35  36
HETATM   36  C27 UNL     1       3.905  -2.916  -0.229  1.00  0.00     0.010 A 
HETATM   37  C28 UNL     1       5.088  -3.477   0.286  1.00  0.00     0.026 A 
HETATM   38  C29 UNL     1       5.741  -4.085  -0.753  1.00  0.00     0.019 A 
HETATM   39  C30 UNL     1       4.997  -3.916  -1.888  1.00  0.00     0.088 A 
HETATM   40  N4  UNL     1       3.897  -3.207  -1.533  1.00  0.00    -0.369 N 
ATOM     41  H4  UNL     1       3.158  -2.931  -2.179  1.00  0.00     0.165 HD
ENDBRANCH  35  36
ENDBRANCH  25  35
ENDBRANCH  24  25
ENDBRANCH   1  24
TORSDOF 14
