REMARK  18 active torsions:
REMARK  status: ('A' for Active; 'I' for Inactive)
REMARK    1  A    between atoms: C3_3  and  N1_4 
REMARK       I    between atoms: C4_6  and  N2_7 
REMARK       I    between atoms: C4_6  and  N6_28 
REMARK    2  A    between atoms: N2_7  and  C5_9 
REMARK    3  A    between atoms: C5_9  and  C6_10 
REMARK    4  A    between atoms: C6_10  and  N3_11 
REMARK    5  A    between atoms: N3_11  and  C8_13 
REMARK    6  A    between atoms: N3_11  and  C11_16 
REMARK    7  A    between atoms: C11_16  and  C12_17 
REMARK    8  A    between atoms: C12_17  and  C13_18 
REMARK    9  A    between atoms: C13_18  and  N4_19 
REMARK   10  A    between atoms: N4_19  and  C14_21 
REMARK   11  A    between atoms: C14_21  and  N5_23 
REMARK   12  A    between atoms: N5_23  and  C15_25 
REMARK   13  A    between atoms: C15_25  and  C16_26 
REMARK   14  A    between atoms: N6_28  and  C18_30 
REMARK   15  A    between atoms: C22_34  and  C23_35 
REMARK   16  A    between atoms: C23_35  and  C24_36 
REMARK   17  A    between atoms: C24_36  and  C25_37 
REMARK   18  A    between atoms: C25_37  and  C26_38 
ROOT
HETATM    1  C1  UNL     1       3.105  -5.703   1.064  1.00  0.00     0.014 C 
HETATM    2  C2  UNL     1       3.095  -4.675   0.434  1.00  0.00    -0.097 C 
HETATM    3  C3  UNL     1       3.107  -3.390  -0.327  1.00  0.00     0.231 C 
ENDROOT
BRANCH   3   4
HETATM    4  N1  UNL     1       1.893  -2.697  -0.099  1.00  0.00    -0.216 N 
HETATM    5  C4  UNL     1       1.722  -1.482   0.288  1.00  0.00     0.675 C 
HETATM    6  N2  UNL     1       0.410  -0.976   0.467  1.00  0.00    -0.225 N 
HETATM    7  N6  UNL     1       2.873  -0.693   0.527  1.00  0.00    -0.192 N 
ATOM      8  H2  UNL     1       0.168  -0.649   1.402  1.00  0.00     0.177 HD
ATOM      9  H6  UNL     1       3.080  -0.387   1.478  1.00  0.00     0.184 HD
ATOM     10  H1  UNL     1       1.041  -3.233  -0.264  1.00  0.00     0.178 HD
BRANCH   6  11
HETATM   11  C5  UNL     1      -0.607  -0.878  -0.531  1.00  0.00     0.166 C 
BRANCH  11  12
HETATM   12  C6  UNL     1      -1.983  -0.566  -0.047  1.00  0.00     0.258 C 
BRANCH  12  13
HETATM   13  N3  UNL     1      -2.613  -1.501   0.800  1.00  0.00    -0.059 N 
HETATM   14  C7  UNL     1      -2.151  -1.379   2.164  1.00  0.00     0.273 C 
BRANCH  13  15
HETATM   15  C8  UNL     1      -2.364  -2.879   0.446  1.00  0.00     0.329 C 
HETATM   16  C9  UNL     1      -2.571  -3.800   1.564  1.00  0.00    -0.089 C 
HETATM   17  C10 UNL     1      -2.738  -4.583   2.477  1.00  0.00     0.013 C 
ENDBRANCH  13  15
BRANCH  13  18
HETATM   18  C11 UNL     1      -4.048  -1.194   0.854  1.00  0.00     0.243 C 
BRANCH  18  19
HETATM   19  C12 UNL     1      -4.884  -1.927  -0.082  1.00  0.00     0.072 C 
BRANCH  19  20
HETATM   20  C13 UNL     1      -6.354  -1.737  -0.090  1.00  0.00     0.065 C 
BRANCH  20  21
HETATM   21  N4  UNL     1      -6.884  -0.458  -0.335  1.00  0.00    -0.347 N 
ATOM     22  H4  UNL     1      -7.216  -0.311  -1.288  1.00  0.00     0.167 HD
BRANCH  21  23
HETATM   23  C14 UNL     1      -7.032   0.654   0.518  1.00  0.00     0.171 C 
HETATM   24  S1  UNL     1      -6.711   0.613   2.107  1.00  0.00    -0.041 SA
BRANCH  23  25
HETATM   25  N5  UNL     1      -7.569   1.866  -0.027  1.00  0.00    -0.367 N 
ATOM     26  H5  UNL     1      -7.687   2.685   0.570  1.00  0.00     0.161 HD
BRANCH  25  27
HETATM   27  C15 UNL     1      -7.939   1.928  -1.408  1.00  0.00     0.121 C 
BRANCH  27  28
HETATM   28  C16 UNL     1      -8.452   3.351  -1.683  1.00  0.00     0.015 C 
HETATM   29  C17 UNL     1      -7.316   4.296  -1.353  1.00  0.00     0.006 C 
ENDBRANCH  27  28
ENDBRANCH  25  27
ENDBRANCH  23  25
ENDBRANCH  21  23
ENDBRANCH  20  21
ENDBRANCH  19  20
ENDBRANCH  18  19
ENDBRANCH  13  18
ENDBRANCH  12  13
ENDBRANCH  11  12
ENDBRANCH   6  11
BRANCH   7  30
HETATM   30  C18 UNL     1       3.744  -0.319  -0.526  1.00  0.00     0.049 A 
HETATM   31  C19 UNL     1       3.494  -0.493  -1.866  1.00  0.00     0.030 A 
HETATM   32  C20 UNL     1       4.401  -0.158  -2.868  1.00  0.00     0.003 A 
HETATM   33  C21 UNL     1       5.619   0.379  -2.465  1.00  0.00     0.007 A 
HETATM   34  C22 UNL     1       5.923   0.576  -1.144  1.00  0.00    -0.056 A 
HETATM   35  C28 UNL     1       4.994   0.230  -0.201  1.00  0.00     0.037 A 
BRANCH  34  36
HETATM   36  C23 UNL     1       7.265   1.131  -0.757  1.00  0.00     0.038 C 
BRANCH  36  37
HETATM   37  C24 UNL     1       7.180   2.626  -0.835  1.00  0.00     0.005 C 
BRANCH  37  38
HETATM   38  C25 UNL     1       8.445   3.313  -0.434  1.00  0.00    -0.000 C 
BRANCH  38  39
HETATM   39  C26 UNL     1       8.738   2.974   1.022  1.00  0.00    -0.005 C 
HETATM   40  C27 UNL     1       7.612   3.426   1.917  1.00  0.00     0.005 C 
ENDBRANCH  38  39
ENDBRANCH  37  38
ENDBRANCH  36  37
ENDBRANCH  34  36
ENDBRANCH   7  30
ENDBRANCH   3   4
TORSDOF 18
