REMARK  17 active torsions:
REMARK  status: ('A' for Active; 'I' for Inactive)
REMARK    1  A    between atoms: C3_3  and  C4_4 
REMARK    2  A    between atoms: C5_5  and  C6_6 
REMARK    3  A    between atoms: C6_6  and  N1_7 
REMARK    4  A    between atoms: C11_12  and  C12_13 
REMARK    5  A    between atoms: C12_13  and  N2_14 
REMARK    6  A    between atoms: C12_13  and  C27_39 
REMARK       I    between atoms: N2_14  and  C13_16 
REMARK    7  A    between atoms: C13_16  and  C14_18 
REMARK    8  A    between atoms: C14_18  and  C15_19 
REMARK    9  A    between atoms: C15_19  and  C16_20 
REMARK   10  A    between atoms: C16_20  and  C17_21 
REMARK   11  A    between atoms: C17_21  and  C18_22 
REMARK   12  A    between atoms: C18_22  and  N3_23 
REMARK       I    between atoms: N3_23  and  C19_25 
REMARK       I    between atoms: C19_25  and  N5_29 
REMARK   13  A    between atoms: N5_29  and  C20_31 
REMARK   14  A    between atoms: C20_31  and  C21_32 
REMARK   15  A    between atoms: C21_32  and  N6_33 
REMARK   16  A    between atoms: N6_33  and  C23_35 
REMARK   17  A    between atoms: N6_33  and  C25_37 
ROOT
HETATM    1  C14 UNL     1       1.175   1.361   2.104  1.00  0.00     0.103 C 
ENDROOT
BRANCH   1   2
HETATM    2  C13 UNL     1       2.383   0.818   1.500  1.00  0.00     0.218 C 
HETATM    3  N2  UNL     1       3.679   0.956   1.978  1.00  0.00    -0.351 N 
ATOM      4  H2  UNL     1       3.824   1.489   2.835  1.00  0.00     0.163 HD
HETATM    5  O1  UNL     1       2.251   0.143   0.419  1.00  0.00    -0.274 OA
BRANCH   3   6
HETATM    6  C12 UNL     1       4.865   0.367   1.305  1.00  0.00     0.138 C 
BRANCH   6   7
HETATM    7  C11 UNL     1       5.862   1.376   1.021  1.00  0.00     0.035 A 
HETATM    8  N1  UNL     1       6.197   1.603  -0.273  1.00  0.00    -0.347 N 
HETATM    9  C7  UNL     1       7.164   2.522  -0.596  1.00  0.00     0.092 A 
HETATM   10  C8  UNL     1       7.831   3.248   0.347  1.00  0.00     0.017 A 
HETATM   11  C9  UNL     1       7.494   3.024   1.658  1.00  0.00     0.003 A 
HETATM   12  C10 UNL     1       6.535   2.112   1.982  1.00  0.00     0.027 A 
BRANCH   8  13
HETATM   13  C6  UNL     1       5.565   0.988  -1.426  1.00  0.00     0.222 C 
BRANCH  13  14
HETATM   14  C5  UNL     1       6.212  -0.240  -1.850  1.00  0.00    -0.082 C 
HETATM   15  C4  UNL     1       6.725  -1.271  -2.213  1.00  0.00    -0.077 C 
BRANCH  15  16
HETATM   16  C3  UNL     1       7.303  -2.507  -2.648  1.00  0.00     0.060 C 
HETATM   17  C2  UNL     1       8.562  -2.847  -2.445  1.00  0.00    -0.022 C 
HETATM   18  C1  UNL     1       9.444  -1.890  -1.719  1.00  0.00     0.036 C 
ENDBRANCH  15  16
ENDBRANCH  13  14
ENDBRANCH   8  13
ENDBRANCH   6   7
BRANCH   6  19
HETATM   19  C27 UNL     1       5.193  -0.789   2.190  1.00  0.00     0.006 C 
HETATM   20  C28 UNL     1       5.565  -0.490   3.604  1.00  0.00     0.012 C 
HETATM   21  C29 UNL     1       6.113  -1.827   1.576  1.00  0.00     0.012 C 
ENDBRANCH   6  19
ENDBRANCH   3   6
ENDBRANCH   1   2
BRANCH   1  22
HETATM   22  C15 UNL     1      -0.120   0.989   1.490  1.00  0.00     0.009 C 
BRANCH  22  23
HETATM   23  C16 UNL     1      -0.437  -0.463   1.485  1.00  0.00     0.002 C 
BRANCH  23  24
HETATM   24  C17 UNL     1      -1.780  -0.760   0.852  1.00  0.00     0.020 C 
BRANCH  24  25
HETATM   25  C18 UNL     1      -2.932  -0.095   1.561  1.00  0.00     0.138 C 
BRANCH  25  26
HETATM   26  N3  UNL     1      -4.152  -0.475   0.865  1.00  0.00    -0.227 N 
HETATM   27  C19 UNL     1      -4.425  -0.013  -0.451  1.00  0.00     0.667 C 
HETATM   28  N4  UNL     1      -3.966   1.122  -0.847  1.00  0.00    -0.235 N 
HETATM   29  N5  UNL     1      -5.207  -0.773  -1.376  1.00  0.00    -0.225 N 
ATOM     30  H42 UNL     1      -3.408   1.664  -0.187  1.00  0.00     0.174 HD
ATOM     31  H41 UNL     1      -4.162   1.454  -1.791  1.00  0.00     0.174 HD
ATOM     32  H5  UNL     1      -5.231  -1.786  -1.263  1.00  0.00     0.177 HD
ATOM     33  H3  UNL     1      -4.824  -1.085   1.331  1.00  0.00     0.177 HD
BRANCH  29  34
HETATM   34  C20 UNL     1      -5.965  -0.195  -2.460  1.00  0.00     0.166 C 
BRANCH  34  35
HETATM   35  C21 UNL     1      -7.118   0.620  -2.039  1.00  0.00     0.257 C 
BRANCH  35  36
HETATM   36  N6  UNL     1      -8.165   0.042  -1.305  1.00  0.00    -0.070 N 
HETATM   37  C22 UNL     1      -8.292   0.764  -0.024  1.00  0.00     0.272 C 
BRANCH  36  38
HETATM   38  C23 UNL     1      -9.454   0.332  -1.970  1.00  0.00     0.232 C 
HETATM   39  C24 UNL     1      -9.652  -0.476  -3.211  1.00  0.00     0.035 C 
ENDBRANCH  36  38
BRANCH  36  40
HETATM   40  C25 UNL     1      -8.125  -1.341  -1.017  1.00  0.00     0.232 C 
HETATM   41  C26 UNL     1      -7.846  -1.722   0.406  1.00  0.00     0.035 C 
ENDBRANCH  36  40
ENDBRANCH  35  36
ENDBRANCH  34  35
ENDBRANCH  29  34
ENDBRANCH  25  26
ENDBRANCH  24  25
ENDBRANCH  23  24
ENDBRANCH  22  23
ENDBRANCH   1  22
TORSDOF 17
