REMARK  3 active torsions:
REMARK  status: ('A' for Active; 'I' for Inactive)
REMARK    1  A    between atoms: C2_2  and  N1_3 
REMARK    2  A    between atoms: C2_2  and  C3_7 
REMARK    3  A    between atoms: C5_9  and  N2_10 
ROOT
HETATM    1  C3  UNL     1      -0.175   0.095  -0.247  1.00  0.00     0.116 C 
HETATM    2  C4  UNL     1       0.743  -0.711   0.634  1.00  0.00     0.070 C 
HETATM    3  C5  UNL     1       2.100  -0.075   0.335  1.00  0.00     0.276 C 
HETATM    4  C6  UNL     1       1.930   0.332  -1.090  1.00  0.00     0.248 C 
HETATM    5  O1  UNL     1       2.826   0.774  -1.883  1.00  0.00    -0.271 OA
HETATM    6  N3  UNL     1       0.575   0.160  -1.486  1.00  0.00    -0.353 N 
ATOM      7  H3  UNL     1       0.210   0.096  -2.436  1.00  0.00     0.163 HD
ENDROOT
BRANCH   1   8
HETATM    8  C2  UNL     1      -1.524  -0.552  -0.425  1.00  0.00     0.202 C 
HETATM    9  C1  UNL     1      -2.134  -0.671   0.973  1.00  0.00     0.042 C 
BRANCH   8  10
HETATM   10  N1  UNL     1      -2.325   0.317  -1.265  1.00  0.00    -0.073 N 
ATOM     11  H13 UNL     1      -3.298   0.013  -1.303  1.00  0.00     0.274 HD
ATOM     12  H12 UNL     1      -2.466   1.232  -0.836  1.00  0.00     0.274 HD
ATOM     13  H11 UNL     1      -1.918   0.396  -2.197  1.00  0.00     0.274 HD
ENDBRANCH   8  10
ENDBRANCH   1   8
BRANCH   3  14
HETATM   14  N2  UNL     1       2.271   1.023   1.224  1.00  0.00    -0.066 N 
ATOM     15  H23 UNL     1       1.502   1.692   1.180  1.00  0.00     0.275 HD
ATOM     16  H22 UNL     1       2.165   0.759   2.204  1.00  0.00     0.275 HD
ATOM     17  H21 UNL     1       3.177   1.448   1.024  1.00  0.00     0.275 HD
ENDBRANCH   3  14
TORSDOF 3
