REMARK  3 active torsions:
REMARK  status: ('A' for Active; 'I' for Inactive)
REMARK    1  A    between atoms: O1_2  and  C2_3 
REMARK    2  A    between atoms: C2_3  and  C3_4 
REMARK    3  A    between atoms: C4_7  and  N2_8 
ROOT
HETATM    1  C3  UNL     1       0.022  -0.272  -0.353  1.00  0.00     0.138 A 
HETATM    2  N1  UNL     1      -0.402   0.820  -1.057  1.00  0.00    -0.176 N 
ATOM      3  H1  UNL     1       0.165   1.376  -1.697  1.00  0.00     0.185 HD
HETATM    4  C4  UNL     1      -1.688   1.034  -0.762  1.00  0.00     0.692 A 
HETATM    5  N3  UNL     1      -2.024   0.071   0.116  1.00  0.00    -0.129 N 
ATOM      6  H3  UNL     1      -2.952  -0.026   0.527  1.00  0.00     0.206 HD
HETATM    7  N4  UNL     1      -1.025  -0.724   0.380  1.00  0.00    -0.268 N 
HETATM    8  C5  UNL     1      -0.954  -1.884   1.265  1.00  0.00     0.180 C 
ENDROOT
BRANCH   1   9
HETATM    9  C2  UNL     1       1.394  -0.843  -0.400  1.00  0.00     0.245 C 
BRANCH   9  10
HETATM   10  O1  UNL     1       2.237  -0.340   0.556  1.00  0.00    -0.389 OA
HETATM   11  C1  UNL     1       2.382   1.032   0.422  1.00  0.00     0.202 C 
ENDBRANCH   9  10
ENDBRANCH   1   9
BRANCH   4  12
HETATM   12  N2  UNL     1      -2.494   1.964  -1.200  1.00  0.00    -0.233 N 
ATOM     13  H22 UNL     1      -2.239   2.694  -1.865  1.00  0.00     0.174 HD
ATOM     14  H21 UNL     1      -3.475   2.127  -0.975  1.00  0.00     0.174 HD
ENDBRANCH   4  12
TORSDOF 3
