REMARK  4 active torsions:
REMARK  status: ('A' for Active; 'I' for Inactive)
REMARK    1  A    between atoms: C5_7  and  N2_8 
REMARK    2  A    between atoms: N2_8  and  C6_10 
REMARK    3  A    between atoms: C6_10  and  C7_11 
REMARK    4  A    between atoms: C7_11  and  N3_12 
ROOT
HETATM    1  C1  UNL     1       3.884  -1.199  -0.446  1.00  0.00     0.089 C 
HETATM    2  C2  UNL     1       2.691  -0.323  -0.350  1.00  0.00     0.078 A 
HETATM    3  N1  UNL     1       2.825   1.026  -0.310  1.00  0.00    -0.356 N 
ATOM      4  H1  UNL     1       3.753   1.448  -0.346  1.00  0.00     0.166 HD
HETATM    5  C3  UNL     1       1.728   1.812  -0.222  1.00  0.00     0.093 A 
HETATM    6  C4  UNL     1       0.505   1.222  -0.176  1.00  0.00     0.065 A 
HETATM    7  C5  UNL     1       0.351  -0.170  -0.216  1.00  0.00     0.103 A 
HETATM    8  N4  UNL     1       1.479  -0.897  -0.304  1.00  0.00    -0.333 N 
ATOM      9  H4  UNL     1       1.411  -1.914  -0.337  1.00  0.00     0.168 HD
ENDROOT
BRANCH   7  10
HETATM   10  N2  UNL     1      -0.810  -0.730  -0.172  1.00  0.00    -0.375 N 
ATOM     11  H2  UNL     1      -0.910  -1.745  -0.202  1.00  0.00     0.161 HD
BRANCH  10  12
HETATM   12  C6  UNL     1      -1.972   0.140  -0.078  1.00  0.00     0.148 C 
BRANCH  12  13
HETATM   13  C7  UNL     1      -3.241  -0.653   0.122  1.00  0.00     0.249 C 
BRANCH  13  14
HETATM   14  N3  UNL     1      -4.332   0.319   0.202  1.00  0.00    -0.078 N 
ATOM     15  H33 UNL     1      -4.185   1.032   0.916  1.00  0.00     0.274 HD
ATOM     16  H32 UNL     1      -4.372   0.948  -0.600  1.00  0.00     0.274 HD
ATOM     17  H31 UNL     1      -5.189  -0.217   0.337  1.00  0.00     0.274 HD
ENDBRANCH  13  14
ENDBRANCH  12  13
ENDBRANCH  10  12
ENDBRANCH   7  10
TORSDOF 4
