REMARK  6 active torsions:
REMARK  status: ('A' for Active; 'I' for Inactive)
REMARK    1  A    between atoms: C1_2  and  C2_3 
REMARK    2  A    between atoms: C1_2  and  N2_10 
REMARK    3  A    between atoms: C2_3  and  C3_4 
REMARK    4  A    between atoms: C3_4  and  C4_5 
REMARK    5  A    between atoms: C4_5  and  N1_6 
REMARK    6  A    between atoms: N2_10  and  C7_12 
ROOT
HETATM    1  S1  UNL     1       0.127   0.122  -1.974  1.00  0.00    -0.066 SA
HETATM    2  C1  UNL     1       0.368  -0.496  -0.481  1.00  0.00     0.073 C 
ENDROOT
BRANCH   2   3
HETATM    3  C2  UNL     1       1.767  -0.980  -0.222  1.00  0.00     0.071 C 
BRANCH   3   4
HETATM    4  C3  UNL     1       2.360  -0.225   0.936  1.00  0.00     0.027 C 
BRANCH   4   5
HETATM    5  C4  UNL     1       3.767  -0.665   1.251  1.00  0.00     0.137 C 
BRANCH   5   6
HETATM    6  N1  UNL     1       4.674  -0.472   0.132  1.00  0.00    -0.328 N 
HETATM    7  C5  UNL     1       5.447   0.523  -0.261  1.00  0.00     0.107 A 
HETATM    8  C6  UNL     1       5.941  -0.105  -1.363  1.00  0.00     0.086 A 
HETATM    9  S2  UNL     1       5.065  -1.499  -1.096  1.00  0.00    -0.023 SA
ENDBRANCH   5   6
ENDBRANCH   4   5
ENDBRANCH   3   4
ENDBRANCH   2   3
BRANCH   2  10
HETATM   10  N2  UNL     1      -0.618  -0.598   0.515  1.00  0.00    -0.380 N 
ATOM     11  H2  UNL     1      -0.321  -1.016   1.397  1.00  0.00     0.160 HD
BRANCH  10  12
HETATM   12  C7  UNL     1      -1.971  -0.193   0.446  1.00  0.00     0.082 C 
HETATM   13  C8  UNL     1      -2.128   1.286   0.272  1.00  0.00     0.025 C 
HETATM   14  C9  UNL     1      -3.543   1.764   0.391  1.00  0.00     0.002 C 
HETATM   15  C10 UNL     1      -4.558   0.887  -0.270  1.00  0.00     0.000 C 
HETATM   16  C11 UNL     1      -4.221  -0.553  -0.322  1.00  0.00     0.002 C 
HETATM   17  C12 UNL     1      -2.772  -0.854  -0.652  1.00  0.00     0.025 C 
ENDBRANCH  10  12
ENDBRANCH   2  10
TORSDOF 6
