REMARK  5 active torsions:
REMARK  status: ('A' for Active; 'I' for Inactive)
REMARK    1  A    between atoms: C2_2  and  C3_3 
REMARK    2  A    between atoms: C3_3  and  C4_4 
REMARK    3  A    between atoms: C4_4  and  S1_5 
REMARK    4  A    between atoms: S1_5  and  C5_6 
REMARK    5  A    between atoms: C6_9  and  C7_10 
ROOT
HETATM    1  C5  UNL     1       0.474  -0.940   0.430  1.00  0.00     0.142 A 
HETATM    2  N1  UNL     1      -0.534  -0.536   1.064  1.00  0.00    -0.365 N 
ATOM      3  H1  UNL     1      -0.359   0.195   1.753  1.00  0.00     0.162 HD
HETATM    4  C6  UNL     1      -1.891  -0.965   0.947  1.00  0.00     0.096 A 
HETATM    5  C12 UNL     1      -2.126  -2.073  -0.021  1.00  0.00     0.128 A 
HETATM    6  C13 UNL     1      -0.939  -2.483  -0.787  1.00  0.00     0.225 A 
HETATM    7  O1  UNL     1      -1.088  -3.343  -1.684  1.00  0.00    -0.273 OA
HETATM    8  N2  UNL     1       0.340  -1.947  -0.544  1.00  0.00    -0.308 N 
ATOM      9  H2  UNL     1       1.152  -2.281  -1.063  1.00  0.00     0.171 HD
ENDROOT
BRANCH   1  10
HETATM   10  S1  UNL     1       2.079  -0.223   0.778  1.00  0.00    -0.094 SA
BRANCH  10  11
HETATM   11  C4  UNL     1       3.358  -0.994  -0.285  1.00  0.00     0.082 C 
BRANCH  11  12
HETATM   12  C3  UNL     1       4.681  -0.347   0.058  1.00  0.00     0.010 C 
BRANCH  12  13
HETATM   13  C2  UNL     1       4.518   1.147  -0.235  1.00  0.00    -0.004 C 
HETATM   14  C1  UNL     1       5.809   1.867   0.085  1.00  0.00     0.005 C 
ENDBRANCH  12  13
ENDBRANCH  11  12
ENDBRANCH  10  11
ENDBRANCH   1  10
BRANCH   4  15
HETATM   15  C7  UNL     1      -2.757   0.237   0.745  1.00  0.00     0.009 C 
HETATM   16  C8  UNL     1      -2.442   1.037  -0.469  1.00  0.00     0.007 C 
HETATM   17  C9  UNL     1      -3.667   1.928  -0.628  1.00  0.00     0.000 C 
HETATM   18  C10 UNL     1      -4.721   1.379   0.290  1.00  0.00     0.000 C 
HETATM   19  C11 UNL     1      -4.215  -0.040   0.612  1.00  0.00     0.007 C 
ENDBRANCH   4  15
TORSDOF 5
