REMARK  6 active torsions:
REMARK  status: ('A' for Active; 'I' for Inactive)
REMARK       I    between atoms: C1_2  and  N1_3 
REMARK    1  A    between atoms: C1_2  and  O3_11 
REMARK    2  A    between atoms: N1_3  and  C2_5 
REMARK    3  A    between atoms: O3_11  and  C7_12 
REMARK    4  A    between atoms: C7_12  and  C8_13 
REMARK    5  A    between atoms: C8_13  and  C9_14 
REMARK    6  A    between atoms: C9_14  and  C10_15 
ROOT
HETATM    1  O1  UNL     1       1.210  -0.357   0.528  1.00  0.00    -0.239 OA
HETATM    2  C1  UNL     1       0.866   0.274   1.558  1.00  0.00     0.360 C 
HETATM    3  N1  UNL     1       1.712   1.360   1.994  1.00  0.00    -0.332 N 
ATOM      4  H1  UNL     1       1.451   1.886   2.828  1.00  0.00     0.165 HD
ENDROOT
BRANCH   2   5
HETATM    5  O3  UNL     1      -0.274  -0.081   2.215  1.00  0.00    -0.304 OA
BRANCH   5   6
HETATM    6  C7  UNL     1      -1.136  -1.122   1.836  1.00  0.00     0.180 C 
BRANCH   6   7
HETATM    7  C8  UNL     1      -1.744  -0.911   0.488  1.00  0.00     0.027 C 
BRANCH   7   8
HETATM    8  C9  UNL     1      -2.675  -2.031   0.079  1.00  0.00     0.007 C 
BRANCH   8   9
HETATM    9  C10 UNL     1      -3.222  -1.713  -1.271  1.00  0.00    -0.014 C 
HETATM   10  C11 UNL     1      -2.191  -1.571  -2.343  1.00  0.00     0.004 C 
HETATM   11  C12 UNL     1      -3.063  -1.524  -3.603  1.00  0.00     0.000 C 
HETATM   12  C13 UNL     1      -4.346  -2.244  -3.254  1.00  0.00     0.000 C 
HETATM   13  C14 UNL     1      -4.139  -2.770  -1.826  1.00  0.00     0.004 C 
ENDBRANCH   8   9
ENDBRANCH   7   8
ENDBRANCH   6   7
ENDBRANCH   5   6
ENDBRANCH   2   5
BRANCH   3  14
HETATM   14  C2  UNL     1       2.900   1.718   1.294  1.00  0.00     0.090 C 
HETATM   15  C3  UNL     1       2.848   3.185   0.895  1.00  0.00     0.051 C 
HETATM   16  C4  UNL     1       3.973   3.406  -0.098  1.00  0.00     0.169 C 
HETATM   17  O2  UNL     1       4.910   2.394  -0.002  1.00  0.00    -0.391 OA
HETATM   18  C5  UNL     1       5.294   2.145   1.314  1.00  0.00     0.169 C 
HETATM   19  C6  UNL     1       4.153   1.557   2.132  1.00  0.00     0.051 C 
ENDBRANCH   3  14
TORSDOF 6
