REMARK  2 active torsions:
REMARK  status: ('A' for Active; 'I' for Inactive)
REMARK    1  A    between atoms: N1_2  and  C4_5 
REMARK    2  A    between atoms: C4_5  and  C5_6 
ROOT
HETATM    1  C5  UNL     1       1.252  -0.600   0.395  1.00  0.00     0.213 C 
HETATM    2  C6  UNL     1       1.473   0.452   1.461  1.00  0.00     0.062 C 
HETATM    3  C7  UNL     1       2.961   0.352   1.166  1.00  0.00     0.235 C 
HETATM    4  N2  UNL     1       2.572  -0.232  -0.128  1.00  0.00    -0.069 N 
ATOM      5  H21 UNL     1       2.635   0.336  -0.973  1.00  0.00     0.277 HD
ATOM      6  H22 UNL     1       3.161  -0.949  -0.551  1.00  0.00     0.277 HD
ENDROOT
BRANCH   1   7
HETATM    7  C4  UNL     1       0.203  -0.320  -0.614  1.00  0.00     0.269 C 
BRANCH   7   8
HETATM    8  N1  UNL     1      -1.124  -0.138  -0.128  1.00  0.00    -0.077 N 
HETATM    9  C1  UNL     1      -1.551   1.208  -0.514  1.00  0.00     0.271 C 
HETATM   10  C2  UNL     1      -1.307  -0.285   1.273  1.00  0.00     0.271 C 
HETATM   11  C3  UNL     1      -2.082  -1.042  -0.787  1.00  0.00     0.271 C 
ENDBRANCH   7   8
ENDBRANCH   1   7
TORSDOF 2
