REMARK  1 active torsions:
REMARK  status: ('A' for Active; 'I' for Inactive)
REMARK    1  A    between atoms: C3_3  and  N1_4 
ROOT
HETATM    1  C1  UNL     1      -3.294   1.475   0.540  1.00  0.00     0.013 C 
HETATM    2  C2  UNL     1      -2.453   0.887  -0.083  1.00  0.00    -0.089 C 
HETATM    3  C3  UNL     1      -1.454   0.170  -0.832  1.00  0.00     0.331 C 
ENDROOT
BRANCH   3   4
HETATM    4  N1  UNL     1      -0.296  -0.166  -0.068  1.00  0.00    -0.036 N 
HETATM    5  C4  UNL     1      -0.594  -1.367   0.708  1.00  0.00     0.275 C 
HETATM    6  C5  UNL     1       0.814  -0.390  -0.982  1.00  0.00     0.267 C 
HETATM    7  C6  UNL     1       2.050   0.121  -0.294  1.00  0.00     0.262 C 
HETATM    8  N2  UNL     1       1.584   0.495   1.014  1.00  0.00    -0.049 N 
HETATM    9  C7  UNL     1       0.168   0.847   0.816  1.00  0.00     0.468 C 
ATOM     10  H22 UNL     1       1.740  -0.215   1.730  1.00  0.00     0.279 HD
ATOM     11  H21 UNL     1       2.137   1.228   1.458  1.00  0.00     0.279 HD
ENDBRANCH   3   4
TORSDOF 1
