REMARK  0 active torsions:
REMARK  status: ('A' for Active; 'I' for Inactive)
ROOT
HETATM    1  C1  UNL     1      -2.272  -0.078  -0.025  1.00  0.00     0.056 A 
HETATM    2  C2  UNL     1      -1.142  -0.705  -0.817  1.00  0.00     0.241 A 
HETATM    3  N1  UNL     1      -0.149  -0.083   0.015  1.00  0.00    -0.042 N 
HETATM    4  C3  UNL     1      -1.186   0.546   0.818  1.00  0.00     0.241 A 
HETATM    5  C4  UNL     1       0.677   0.829  -0.737  1.00  0.00     0.267 C 
HETATM    6  C5  UNL     1       2.057   0.708  -0.161  1.00  0.00     0.262 C 
HETATM    7  N2  UNL     1       2.072  -0.549   0.522  1.00  0.00    -0.049 N 
ATOM      8  H21 UNL     1       2.618  -0.519   1.383  1.00  0.00     0.279 HD
ATOM      9  H22 UNL     1       2.622  -1.254   0.031  1.00  0.00     0.279 HD
HETATM   10  C6  UNL     1       0.720  -0.965   0.744  1.00  0.00     0.467 C 
ENDROOT
TORSDOF 0
