REMARK  20 active torsions:
REMARK  status: ('A' for Active; 'I' for Inactive)
REMARK    1  A    between atoms: N2_3  and  C2_5 
REMARK    2  A    between atoms: C2_5  and  C3_6 
REMARK    3  A    between atoms: C3_6  and  C4_7 
REMARK    4  A    between atoms: C4_7  and  C5_8 
REMARK    5  A    between atoms: C5_8  and  C6_9 
REMARK    6  A    between atoms: C6_9  and  N3_10 
REMARK    7  A    between atoms: C7_15  and  C8_16 
REMARK    8  A    between atoms: C8_16  and  O1_17 
REMARK    9  A    between atoms: C8_16  and  C9_19 
REMARK   10  A    between atoms: C9_19  and  O2_20 
REMARK   11  A    between atoms: C9_19  and  C10_22 
REMARK   12  A    between atoms: C10_22  and  N6_23 
REMARK       I    between atoms: N6_23  and  C11_25 
REMARK   13  A    between atoms: C11_25  and  C12_27 
REMARK   14  A    between atoms: C12_27  and  S1_28 
REMARK   15  A    between atoms: S1_28  and  C13_29 
REMARK   16  A    between atoms: C14_32  and  N8_33 
REMARK   17  A    between atoms: N8_33  and  N9_35 
REMARK   18  A    between atoms: C15_38  and  N11_39 
REMARK   19  A    between atoms: C16_43  and  N12_44 
REMARK   20  A    between atoms: C17_49  and  N14_50 
ROOT
HETATM    1  N1  UNL     1     -10.220   5.067   0.207  1.00  0.00    -0.172 NA
HETATM    2  C1  UNL     1      -9.332   4.386  -0.102  1.00  0.00     0.177 C 
HETATM    3  N2  UNL     1      -8.265   3.558  -0.485  1.00  0.00    -0.329 N 
ATOM      4  H2  UNL     1      -7.555   3.920  -1.121  1.00  0.00     0.171 HD
ENDROOT
BRANCH   3   5
HETATM    5  C2  UNL     1      -8.153   2.190   0.010  1.00  0.00     0.131 C 
BRANCH   5   6
HETATM    6  C3  UNL     1      -6.916   1.513  -0.553  1.00  0.00     0.020 C 
BRANCH   6   7
HETATM    7  C4  UNL     1      -6.910   0.113   0.025  1.00  0.00     0.003 C 
BRANCH   7   8
HETATM    8  C5  UNL     1      -5.759  -0.726  -0.414  1.00  0.00     0.024 C 
BRANCH   8   9
HETATM    9  C6  UNL     1      -4.404  -0.183  -0.046  1.00  0.00     0.171 C 
BRANCH   9  10
HETATM   10  N3  UNL     1      -3.415  -1.145  -0.563  1.00  0.00    -0.218 N 
HETATM   11  N4  UNL     1      -2.823  -1.161  -1.731  1.00  0.00    -0.225 N 
HETATM   12  N5  UNL     1      -2.001  -2.182  -1.842  1.00  0.00    -0.270 N 
ATOM     13  H4  UNL     1      -2.980  -0.468  -2.463  1.00  0.00     0.210 HD
HETATM   14  C7  UNL     1      -2.072  -2.858  -0.675  1.00  0.00     0.145 A 
ATOM     15  H5  UNL     1      -1.424  -2.417  -2.650  1.00  0.00     0.190 HD
HETATM   16  N16 UNL     1      -2.946  -2.196   0.086  1.00  0.00    -0.268 N 
ATOM     17  H16 UNL     1      -3.214  -2.463   1.033  1.00  0.00     0.190 HD
BRANCH  14  18
HETATM   18  C8  UNL     1      -1.384  -4.081  -0.260  1.00  0.00     0.218 C 
BRANCH  18  19
HETATM   19  O1  UNL     1      -1.398  -5.027  -1.327  1.00  0.00    -0.385 OA
ATOM     20  H1  UNL     1      -0.951  -5.821  -1.058  1.00  0.00     0.210 HD
ENDBRANCH  18  19
BRANCH  18  21
HETATM   21  C9  UNL     1       0.044  -3.963   0.147  1.00  0.00     0.172 C 
BRANCH  21  22
HETATM   22  O2  UNL     1       0.389  -5.331   0.501  1.00  0.00    -0.391 OA
ATOM     23  H2  UNL     1       1.300  -5.256   0.761  1.00  0.00     0.210 HD
ENDBRANCH  21  22
BRANCH  21  24
HETATM   24  C10 UNL     1       0.311  -3.209   1.404  1.00  0.00     0.157 C 
BRANCH  24  25
HETATM   25  N6  UNL     1       0.080  -1.800   1.230  1.00  0.00    -0.358 N 
HETATM   26  C11 UNL     1       0.821  -1.037   0.304  1.00  0.00     0.227 C 
HETATM   27  O3  UNL     1       1.702  -1.572  -0.388  1.00  0.00    -0.273 OA
ATOM     28  H6  UNL     1      -0.638  -1.341   1.791  1.00  0.00     0.162 HD
BRANCH  26  29
HETATM   29  C12 UNL     1       0.542   0.409   0.162  1.00  0.00     0.185 C 
BRANCH  29  30
HETATM   30  S1  UNL     1       1.649   1.188  -1.041  1.00  0.00    -0.084 SA
BRANCH  30  31
HETATM   31  C13 UNL     1       3.314   1.201  -0.419  1.00  0.00     0.175 A 
HETATM   32  N7  UNL     1       4.317   1.679  -1.199  1.00  0.00    -0.168 N 
HETATM   33  C14 UNL     1       5.596   1.707  -0.795  1.00  0.00     0.715 A 
ATOM     34  H7  UNL     1       4.089   2.031  -2.129  1.00  0.00     0.186 HD
HETATM   35  N13 UNL     1       5.850   1.230   0.447  1.00  0.00    -0.021 N 
HETATM   36  C17 UNL     1       4.875   0.753   1.235  1.00  0.00     0.692 A 
ATOM     37  H13 UNL     1       6.810   1.234   0.793  1.00  0.00     0.203 HD
HETATM   38  N15 UNL     1       3.588   0.732   0.810  1.00  0.00    -0.170 N 
ATOM     39  H15 UNL     1       2.846   0.369   1.408  1.00  0.00     0.186 HD
BRANCH  33  40
HETATM   40  N8  UNL     1       6.536   2.168  -1.561  1.00  0.00    -0.108 N 
ATOM     41  H8  UNL     1       6.340   2.526  -2.496  1.00  0.00     0.208 HD
BRANCH  40  42
HETATM   42  N9  UNL     1       7.873   2.147  -1.019  1.00  0.00    -0.156 N 
HETATM   43  N10 UNL     1       8.373   3.119  -0.358  1.00  0.00    -0.256 N 
HETATM   44  C15 UNL     1       9.619   3.016   0.108  1.00  0.00     0.162 A 
ATOM     45  H10 UNL     1       7.827   3.963  -0.189  1.00  0.00     0.191 HD
HETATM   46  S2  UNL     1      10.074   1.461  -0.433  1.00  0.00    -0.014 SA
HETATM   47  C16 UNL     1       8.617   1.057  -1.223  1.00  0.00     0.185 A 
BRANCH  44  48
HETATM   48  N11 UNL     1      10.311   3.893   0.804  1.00  0.00    -0.378 N 
ATOM     49 2H11 UNL     1      10.039   4.822   1.127  1.00  0.00     0.158 HD
ATOM     50 1H11 UNL     1      11.264   3.814   1.160  1.00  0.00     0.158 HD
ENDBRANCH  44  48
BRANCH  47  51
HETATM   51  N12 UNL     1       8.289  -0.043  -1.873  1.00  0.00    -0.377 N 
ATOM     52 2H12 UNL     1       7.418  -0.285  -2.345  1.00  0.00     0.158 HD
ATOM     53 1H12 UNL     1       8.857  -0.876  -2.029  1.00  0.00     0.158 HD
ENDBRANCH  47  51
ENDBRANCH  40  42
ENDBRANCH  33  40
BRANCH  36  54
HETATM   54  N14 UNL     1       5.106   0.298   2.415  1.00  0.00    -0.234 N 
ATOM     55 2H14 UNL     1       6.074   0.314   2.735  1.00  0.00     0.174 HD
ATOM     56 1H14 UNL     1       4.365  -0.065   3.014  1.00  0.00     0.174 HD
ENDBRANCH  36  54
ENDBRANCH  30  31
ENDBRANCH  29  30
ENDBRANCH  26  29
ENDBRANCH  24  25
ENDBRANCH  21  24
ENDBRANCH  18  21
ENDBRANCH  14  18
ENDBRANCH   9  10
ENDBRANCH   8   9
ENDBRANCH   7   8
ENDBRANCH   6   7
ENDBRANCH   5   6
ENDBRANCH   3   5
TORSDOF 20
