REMARK  18 active torsions:
REMARK  status: ('A' for Active; 'I' for Inactive)
REMARK    1  A    between atoms: N3_7  and  C2_8 
REMARK    2  A    between atoms: C2_8  and  C3_9 
REMARK    3  A    between atoms: C3_9  and  O1_10 
REMARK    4  A    between atoms: C3_9  and  N4_12 
REMARK    5  A    between atoms: N4_12  and  C4_15 
REMARK    6  A    between atoms: C4_15  and  C5_16 
REMARK    7  A    between atoms: C10_21  and  C11_22 
REMARK    8  A    between atoms: C11_22  and  N5_23 
REMARK    9  A    between atoms: N5_23  and  C12_26 
REMARK   10  A    between atoms: C12_26  and  C13_27 
REMARK   11  A    between atoms: C13_27  and  O2_28 
REMARK   12  A    between atoms: O2_28  and  S1_29 
REMARK   13  A    between atoms: S1_29  and  C14_32 
REMARK   14  A    between atoms: C14_32  and  S2_33 
REMARK   15  A    between atoms: S2_33  and  C15_34 
REMARK   16  A    between atoms: N7_36  and  C16_38 
REMARK   17  A    between atoms: C16_38  and  C17_39 
REMARK   18  A    between atoms: C17_39  and  O5_40 
ROOT
HETATM    1  C5  UNL     1      -3.587   0.470  -2.823  1.00  0.00     0.061 A 
HETATM    2  C6  UNL     1      -3.184   1.719  -3.246  1.00  0.00     0.029 A 
HETATM    3  C7  UNL     1      -1.871   2.129  -3.064  1.00  0.00     0.004 A 
HETATM    4  C8  UNL     1      -1.000   1.257  -2.458  1.00  0.00     0.034 A 
HETATM    5  C9  UNL     1      -1.446  -0.013  -2.039  1.00  0.00     0.083 A 
HETATM    6  C10 UNL     1      -0.804  -1.020  -1.311  1.00  0.00     0.081 A 
HETATM    7  N8  UNL     1      -1.754  -1.953  -1.100  1.00  0.00    -0.286 N 
ATOM      8  H8  UNL     1      -1.630  -2.829  -0.593  1.00  0.00     0.188 HD
HETATM    9  N9  UNL     1      -2.878  -1.535  -1.666  1.00  0.00    -0.235 N 
ATOM     10  H9  UNL     1      -3.757  -2.052  -1.663  1.00  0.00     0.209 HD
HETATM   11  N10 UNL     1      -2.701  -0.361  -2.232  1.00  0.00    -0.243 N 
ENDROOT
BRANCH   1  12
HETATM   12  C4  UNL     1      -5.014   0.009  -2.823  1.00  0.00     0.294 C 
BRANCH  12  13
HETATM   13  N4  UNL     1      -5.809   1.115  -2.289  1.00  0.00    -0.042 N 
ATOM     14  H42 UNL     1      -6.009   1.808  -3.010  1.00  0.00     0.280 HD
ATOM     15  H41 UNL     1      -5.258   1.695  -1.656  1.00  0.00     0.280 HD
BRANCH  13  16
HETATM   16  C3  UNL     1      -7.003   0.661  -1.664  1.00  0.00     0.339 C 
BRANCH  16  17
HETATM   17  C2  UNL     1      -6.531  -0.093  -0.390  1.00  0.00     0.214 C 
BRANCH  17  18
HETATM   18  N3  UNL     1      -7.643  -0.241   0.496  1.00  0.00    -0.249 N 
HETATM   19  N2  UNL     1      -8.152   0.753   1.263  1.00  0.00    -0.260 N 
HETATM   20  C1  UNL     1      -9.219   0.216   1.892  1.00  0.00     0.239 A 
ATOM     21  H2  UNL     1      -7.802   1.707   1.348  1.00  0.00     0.191 HD
HETATM   22  N1  UNL     1      -9.915   0.960   2.700  1.00  0.00    -0.364 N 
HETATM   23  O6  UNL     1      -9.314  -1.015   1.512  1.00  0.00    -0.245 OA
ATOM     24  H12 UNL     1      -9.840   1.932   3.000  1.00  0.00     0.159 HD
ATOM     25  H11 UNL     1     -10.721   0.554   3.175  1.00  0.00     0.159 HD
HETATM   26  C18 UNL     1      -8.382  -1.338   0.666  1.00  0.00     0.242 A 
HETATM   27  N11 UNL     1      -8.215  -2.485   0.112  1.00  0.00    -0.364 N 
ATOM     28 2H11 UNL     1      -7.483  -2.739  -0.552  1.00  0.00     0.159 HD
ATOM     29 1H11 UNL     1      -8.780  -3.324   0.242  1.00  0.00     0.159 HD
ENDBRANCH  17  18
ENDBRANCH  16  17
BRANCH  16  30
HETATM   30  O1  UNL     1      -7.959   0.036  -2.355  1.00  0.00    -0.368 OA
ATOM     31  H1  UNL     1      -8.248   0.497  -3.134  1.00  0.00     0.212 HD
ENDBRANCH  16  30
ENDBRANCH  13  16
ENDBRANCH  12  13
ENDBRANCH   1  12
BRANCH   6  32
HETATM   32  C11 UNL     1       0.636  -1.030  -1.037  1.00  0.00     0.293 C 
BRANCH  32  33
HETATM   33  N5  UNL     1       0.775  -0.832   0.454  1.00  0.00    -0.068 N 
ATOM     34  H52 UNL     1       0.189  -0.082   0.821  1.00  0.00     0.277 HD
ATOM     35  H51 UNL     1       0.368  -1.588   1.004  1.00  0.00     0.277 HD
BRANCH  33  36
HETATM   36  C12 UNL     1       2.151  -0.639   0.696  1.00  0.00     0.260 C 
BRANCH  36  37
HETATM   37  C13 UNL     1       2.422   0.035   2.061  1.00  0.00     0.217 C 
BRANCH  37  38
HETATM   38  O2  UNL     1       3.688   0.176   2.103  1.00  0.00    -0.274 OA
BRANCH  38  39
HETATM   39  S1  UNL     1       4.748   0.822   3.025  1.00  0.00     0.274 S 
HETATM   40  O3  UNL     1       4.004   1.216   4.370  1.00  0.00    -0.198 OA
HETATM   41  O4  UNL     1       5.478   2.022   2.578  1.00  0.00    -0.198 OA
BRANCH  39  42
HETATM   42  C14 UNL     1       5.982  -0.413   3.534  1.00  0.00     0.252 C 
BRANCH  42  43
HETATM   43  S2  UNL     1       7.593   0.359   3.587  1.00  0.00    -0.080 SA
BRANCH  43  44
HETATM   44  C15 UNL     1       8.209   0.533   1.898  1.00  0.00     0.151 C 
HETATM   45  N6  UNL     1       7.754   1.518   1.016  1.00  0.00    -0.075 NA
HETATM   46  N7  UNL     1       9.067  -0.325   1.481  1.00  0.00    -0.371 N 
ATOM     47  H7  UNL     1       9.352  -1.059   2.129  1.00  0.00     0.161 HD
BRANCH  46  48
HETATM   48  C16 UNL     1       9.659  -0.332   0.169  1.00  0.00     0.147 C 
BRANCH  48  49
HETATM   49  C17 UNL     1      11.058  -0.963   0.344  1.00  0.00     0.183 C 
BRANCH  49  50
HETATM   50  O5  UNL     1      11.771  -0.239   1.254  1.00  0.00    -0.399 OA
ATOM     51  H5  UNL     1      12.631  -0.627   1.362  1.00  0.00     0.209 HD
ENDBRANCH  49  50
ENDBRANCH  48  49
ENDBRANCH  46  48
ENDBRANCH  43  44
ENDBRANCH  42  43
ENDBRANCH  39  42
ENDBRANCH  38  39
ENDBRANCH  37  38
ENDBRANCH  36  37
ENDBRANCH  33  36
ENDBRANCH  32  33
ENDBRANCH   6  32
TORSDOF 18
