REMARK  23 active torsions:
REMARK  status: ('A' for Active; 'I' for Inactive)
REMARK    1  A    between atoms: N1_2  and  C2_3 
REMARK    2  A    between atoms: N1_2  and  C14_46 
REMARK    3  A    between atoms: C2_3  and  C3_4 
REMARK    4  A    between atoms: C3_4  and  O1_5 
REMARK    5  A    between atoms: C4_7  and  C5_8 
REMARK    6  A    between atoms: C5_8  and  N2_9 
REMARK    7  A    between atoms: C5_8  and  C6_15 
REMARK    8  A    between atoms: N2_9  and  N3_11 
REMARK    9  A    between atoms: N3_11  and  N4_12 
REMARK   10  A    between atoms: C6_15  and  N5_16 
REMARK   11  A    between atoms: C6_15  and  C11_32 
REMARK   12  A    between atoms: N5_16  and  O2_17 
REMARK   13  A    between atoms: O2_17  and  C7_18 
REMARK   14  A    between atoms: C7_18  and  C8_19 
REMARK   15  A    between atoms: C8_19  and  O3_20 
REMARK   16  A    between atoms: C8_19  and  C9_22 
REMARK   17  A    between atoms: C9_22  and  N6_23 
REMARK   18  A    between atoms: C9_22  and  C10_27 
REMARK   19  A    between atoms: C10_27  and  O4_28 
REMARK   20  A    between atoms: C10_27  and  O5_30 
REMARK   21  A    between atoms: C12_37  and  O6_38 
REMARK   22  A    between atoms: C13_40  and  N9_41 
REMARK   23  A    between atoms: C14_46  and  C15_47 
ROOT
HETATM    1  C6  UNL     1      -2.446   0.435  -0.302  1.00  0.00     0.204 C 
ENDROOT
BRANCH   1   2
HETATM    2  C5  UNL     1      -1.278   1.006   0.502  1.00  0.00     0.168 C 
BRANCH   2   3
HETATM    3  C4  UNL     1       0.002   0.930  -0.195  1.00  0.00     0.036 C 
HETATM    4  C3  UNL     1       1.094   0.587   0.447  1.00  0.00     0.070 C 
BRANCH   4   5
HETATM    5  C2  UNL     1       2.427   0.497  -0.227  1.00  0.00     0.335 C 
BRANCH   5   6
HETATM    6  N1  UNL     1       2.903  -0.842  -0.098  1.00  0.00     0.095 N 
HETATM    7  C1  UNL     1       3.245  -1.229   1.230  1.00  0.00     0.310 C 
BRANCH   6   8
HETATM    8  C14 UNL     1       3.850  -1.231  -1.101  1.00  0.00     0.330 C 
BRANCH   8   9
HETATM    9  C15 UNL     1       5.193  -0.682  -0.907  1.00  0.00     0.053 A 
HETATM   10  C16 UNL     1       6.158  -0.949  -1.856  1.00  0.00     0.115 A 
HETATM   11  N11 UNL     1       7.423  -0.467  -1.729  1.00  0.00    -0.364 N 
HETATM   12  C17 UNL     1       7.779   0.285  -0.679  1.00  0.00     0.049 A 
ATOM     13  H11 UNL     1       8.115  -0.682  -2.447  1.00  0.00     0.165 HD
HETATM   14  C18 UNL     1       6.814   0.558   0.279  1.00  0.00     0.035 A 
HETATM   15  C21 UNL     1       9.123   0.844  -0.470  1.00  0.00     0.173 C 
HETATM   16  N12 UNL     1       5.567   0.074   0.141  1.00  0.00    -0.359 N 
HETATM   17  C19 UNL     1       7.257   1.392   1.428  1.00  0.00     0.078 C 
ATOM     18  H12 UNL     1       4.876   0.289   0.860  1.00  0.00     0.165 HD
HETATM   19  C20 UNL     1       8.580   0.767   1.889  1.00  0.00     0.120 C 
HETATM   20  N13 UNL     1       9.590   0.827   0.880  1.00  0.00    -0.416 N 
ATOM     21  H13 UNL     1      10.583   0.856   1.110  1.00  0.00     0.153 HD
ENDBRANCH   8   9
ENDBRANCH   6   8
ENDBRANCH   5   6
ENDBRANCH   4   5
BRANCH   4  22
HETATM   22  O1  UNL     1       1.007   0.297   1.800  1.00  0.00    -0.363 OA
ATOM     23  H1  UNL     1       0.161   0.354   2.228  1.00  0.00     0.217 HD
ENDBRANCH   4  22
ENDBRANCH   2   3
BRANCH   2  24
HETATM   24  N2  UNL     1      -1.550   2.429   0.744  1.00  0.00    -0.242 N 
ATOM     25  H2  UNL     1      -1.885   2.726   1.660  1.00  0.00     0.197 HD
BRANCH  24  26
HETATM   26  N3  UNL     1      -1.380   3.272  -0.143  1.00  0.00    -0.248 NA
BRANCH  26  27
HETATM   27  N4  UNL     1      -1.449   3.932  -1.171  1.00  0.00    -0.261 N 
ATOM     28  H42 UNL     1      -2.182   3.348  -1.573  1.00  0.00     0.193 HD
ATOM     29  H41 UNL     1      -1.309   4.628  -1.903  1.00  0.00     0.193 HD
ENDBRANCH  26  27
ENDBRANCH  24  26
ENDBRANCH   2  24
ENDBRANCH   1   2
BRANCH   1  30
HETATM   30  N5  UNL     1      -3.616   0.596   0.538  1.00  0.00    -0.086 NA
BRANCH  30  31
HETATM   31  O2  UNL     1      -4.736   0.139  -0.024  1.00  0.00    -0.283 OA
BRANCH  31  32
HETATM   32  C7  UNL     1      -5.805   0.339   0.816  1.00  0.00     0.229 C 
BRANCH  32  33
HETATM   33  C8  UNL     1      -7.119  -0.140   0.284  1.00  0.00     0.179 C 
BRANCH  33  34
HETATM   34  O3  UNL     1      -8.097   0.130   1.239  1.00  0.00    -0.391 OA
ATOM     35  H3  UNL     1      -8.931  -0.174   0.901  1.00  0.00     0.210 HD
ENDBRANCH  33  34
BRANCH  33  36
HETATM   36  C9  UNL     1      -7.531   0.487  -1.005  1.00  0.00     0.268 C 
BRANCH  36  37
HETATM   37  N6  UNL     1      -6.587   0.273  -2.075  1.00  0.00    -0.068 N 
ATOM     38  H63 UNL     1      -5.655   0.586  -1.803  1.00  0.00     0.275 HD
ATOM     39  H62 UNL     1      -6.402  -0.722  -2.200  1.00  0.00     0.275 HD
ATOM     40  H61 UNL     1      -6.869   0.702  -2.957  1.00  0.00     0.275 HD
ENDBRANCH  36  37
BRANCH  36  41
HETATM   41  C10 UNL     1      -7.893   1.950  -0.852  1.00  0.00     0.286 C 
BRANCH  41  42
HETATM   42  O4  UNL     1      -8.803   2.143   0.186  1.00  0.00    -0.369 OA
ATOM     43  H4  UNL     1      -9.030   3.060   0.282  1.00  0.00     0.212 HD
ENDBRANCH  41  42
BRANCH  41  44
HETATM   44  O5  UNL     1      -6.807   2.762  -0.626  1.00  0.00    -0.369 OA
ATOM     45  H5  UNL     1      -7.034   3.679  -0.530  1.00  0.00     0.212 HD
ENDBRANCH  41  44
ENDBRANCH  36  41
ENDBRANCH  33  36
ENDBRANCH  32  33
ENDBRANCH  31  32
ENDBRANCH  30  31
ENDBRANCH   1  30
BRANCH   1  46
HETATM   46  C11 UNL     1      -2.214  -0.964  -0.684  1.00  0.00     0.122 A 
HETATM   47  N7  UNL     1      -1.899  -1.326  -1.944  1.00  0.00    -0.285 N 
HETATM   48  N8  UNL     1      -1.686  -2.551  -2.336  1.00  0.00    -0.276 N 
ATOM     49  H7  UNL     1      -1.822  -0.587  -2.642  1.00  0.00     0.188 HD
HETATM   50  C12 UNL     1      -1.785  -3.532  -1.424  1.00  0.00     0.200 A 
ATOM     51  H8  UNL     1      -1.451  -2.758  -3.307  1.00  0.00     0.189 HD
HETATM   52  C13 UNL     1      -2.103  -3.241  -0.122  1.00  0.00     0.153 A 
HETATM   53  N10 UNL     1      -2.310  -1.974   0.222  1.00  0.00    -0.326 N 
ATOM     54  H10 UNL     1      -2.547  -1.754   1.189  1.00  0.00     0.169 HD
BRANCH  50  55
HETATM   55  O6  UNL     1      -1.570  -4.860  -1.781  1.00  0.00    -0.342 OA
ATOM     56  H6  UNL     1      -1.640  -5.554  -1.136  1.00  0.00     0.219 HD
ENDBRANCH  50  55
BRANCH  52  57
HETATM   57  N9  UNL     1      -2.196  -4.188   0.742  1.00  0.00    -0.382 N 
ATOM     58  H92 UNL     1      -2.037  -5.160   0.478  1.00  0.00     0.157 HD
ATOM     59  H91 UNL     1      -2.433  -3.972   1.710  1.00  0.00     0.157 HD
ENDBRANCH  52  57
ENDBRANCH   1  46
TORSDOF 23
