REMARK  12 active torsions:
REMARK  status: ('A' for Active; 'I' for Inactive)
REMARK       I    between atoms: N1_4  and  C4_5 
REMARK    1  A    between atoms: C4_5  and  C5_7 
REMARK    2  A    between atoms: C9_11  and  C10_12 
REMARK    3  A    between atoms: C10_12  and  C11_13 
REMARK    4  A    between atoms: C15_20  and  C16_21 
REMARK    5  A    between atoms: C16_21  and  C17_22 
REMARK    6  A    between atoms: C17_22  and  C18_23 
REMARK    7  A    between atoms: C18_23  and  N3_24 
REMARK    8  A    between atoms: C23_34  and  C24_35 
REMARK       I    between atoms: C24_35  and  N7_37 
REMARK    9  A    between atoms: N7_37  and  C25_39 
REMARK   10  A    between atoms: C25_39  and  C26_40 
REMARK   11  A    between atoms: C26_40  and  C27_41 
REMARK   12  A    between atoms: C27_41  and  N8_42 
ROOT
HETATM    1  C5  UNL     1      -0.682  -0.560  -0.329  1.00  0.00     0.180 C 
HETATM    2  C6  UNL     1      -0.449   0.634  -1.246  1.00  0.00     0.037 C 
HETATM    3  C7  UNL     1      -1.825   1.341  -1.272  1.00  0.00     0.029 C 
HETATM    4  C8  UNL     1      -2.689   0.117  -1.258  1.00  0.00     0.101 C 
HETATM    5  C9  UNL     1      -4.174   0.400  -1.218  1.00  0.00     0.101 C 
HETATM    6  C14 UNL     1      -4.350   0.958   0.175  1.00  0.00     0.228 C 
HETATM    7  O2  UNL     1      -4.277   2.176   0.352  1.00  0.00    -0.273 OA
HETATM    8  N2  UNL     1      -4.597   0.109   1.311  1.00  0.00    -0.322 N 
ATOM      9  H2  UNL     1      -5.296   0.434   1.979  1.00  0.00     0.169 HD
HETATM   10  C15 UNL     1      -3.960  -1.157   1.607  1.00  0.00     0.099 C 
HETATM   11  C20 UNL     1      -2.806  -1.447   0.760  1.00  0.00     0.271 C 
HETATM   12  O3  UNL     1      -2.306  -2.593   0.934  1.00  0.00    -0.266 OA
HETATM   13  N6  UNL     1      -2.153  -0.669  -0.216  1.00  0.00    -0.328 N 
ENDROOT
BRANCH   1  14
HETATM   14  C4  UNL     1      -0.054  -0.180   0.963  1.00  0.00     0.243 C 
HETATM   15  N1  UNL     1       1.309  -0.002   1.166  1.00  0.00    -0.346 N 
HETATM   16  C3  UNL     1       1.811   0.368   2.466  1.00  0.00     0.160 C 
HETATM   17  C21 UNL     1       2.280  -0.174   0.107  1.00  0.00     0.127 C 
HETATM   18  C2  UNL     1       3.297   0.523   2.500  1.00  0.00    -0.058 C 
HETATM   19  C1  UNL     1       3.795   1.581   3.119  1.00  0.00     0.017 C 
HETATM   20  C23 UNL     1       4.091  -0.531   1.837  1.00  0.00     0.109 C 
HETATM   21  C22 UNL     1       3.445  -0.991   0.571  1.00  0.00     0.038 C 
HETATM   22  O1  UNL     1      -0.840  -0.012   1.935  1.00  0.00    -0.271 OA
BRANCH  20  23
HETATM   23  C24 UNL     1       5.474  -0.001   1.589  1.00  0.00     0.226 C 
HETATM   24  O4  UNL     1       6.389  -0.670   2.125  1.00  0.00    -0.273 OA
HETATM   25  N7  UNL     1       5.641   1.140   0.817  1.00  0.00    -0.360 N 
ATOM     26  H7  UNL     1       4.780   1.574   0.483  1.00  0.00     0.162 HD
BRANCH  25  27
HETATM   27  C25 UNL     1       6.835   1.784   0.429  1.00  0.00     0.124 C 
BRANCH  27  28
HETATM   28  C26 UNL     1       7.732   1.123  -0.553  1.00  0.00     0.047 C 
BRANCH  28  29
HETATM   29  C27 UNL     1       8.287  -0.208  -0.269  1.00  0.00     0.237 C 
BRANCH  29  30
HETATM   30  N8  UNL     1       9.210  -0.657  -1.317  1.00  0.00    -0.079 N 
HETATM   31  C28 UNL     1       9.567   0.397  -2.215  1.00  0.00     0.271 C 
HETATM   32  C29 UNL     1      10.419  -1.209  -0.720  1.00  0.00     0.271 C 
HETATM   33  C30 UNL     1       8.575  -1.734  -2.043  1.00  0.00     0.271 C 
ENDBRANCH  29  30
ENDBRANCH  28  29
ENDBRANCH  27  28
ENDBRANCH  25  27
ENDBRANCH  20  23
ENDBRANCH   1  14
BRANCH   5  34
HETATM   34  C10 UNL     1      -4.515   1.341  -2.301  1.00  0.00     0.020 C 
BRANCH  34  35
HETATM   35  C11 UNL     1      -5.949   1.670  -2.483  1.00  0.00    -0.022 C 
HETATM   36  C12 UNL     1      -6.144   2.664  -3.640  1.00  0.00     0.009 C 
HETATM   37  C13 UNL     1      -6.794   2.024  -1.334  1.00  0.00     0.009 C 
ENDBRANCH  34  35
ENDBRANCH   5  34
BRANCH  10  38
HETATM   38  C16 UNL     1      -4.846  -2.275   1.957  1.00  0.00     0.010 C 
BRANCH  38  39
HETATM   39  C17 UNL     1      -5.871  -2.782   1.041  1.00  0.00     0.049 C 
BRANCH  39  40
HETATM   40  C18 UNL     1      -6.956  -1.853   0.608  1.00  0.00     0.126 C 
BRANCH  40  41
HETATM   41  N3  UNL     1      -7.714  -1.291   1.675  1.00  0.00    -0.367 N 
HETATM   42  C19 UNL     1      -8.944  -1.444   1.949  1.00  0.00     0.196 C 
HETATM   43  N4  UNL     1      -9.475  -0.752   3.101  1.00  0.00    -0.067 NA
HETATM   44  N5  UNL     1      -9.869  -2.236   1.241  1.00  0.00    -0.067 NA
ATOM     45  H3  UNL     1      -7.196  -0.680   2.307  1.00  0.00     0.161 HD
ENDBRANCH  40  41
ENDBRANCH  39  40
ENDBRANCH  38  39
ENDBRANCH  10  38
TORSDOF 12
