REMARK  14 active torsions:
REMARK  status: ('A' for Active; 'I' for Inactive)
REMARK    1  A    between atoms: N1_2  and  C4_5 
REMARK    2  A    between atoms: C4_5  and  C5_6 
REMARK    3  A    between atoms: C5_6  and  N2_7 
REMARK    4  A    between atoms: C7_9  and  C8_10 
REMARK    5  A    between atoms: C8_10  and  C9_11 
REMARK    6  A    between atoms: C9_11  and  C10_12 
REMARK    7  A    between atoms: C13_15  and  N3_16 
REMARK       I    between atoms: N3_16  and  C14_18 
REMARK    8  A    between atoms: C16_28  and  N8_29 
REMARK    9  A    between atoms: N8_29  and  C17_30 
REMARK   10  A    between atoms: N8_29  and  C18_32 
REMARK   11  A    between atoms: C18_32  and  C19_33 
REMARK   12  A    between atoms: C22_36  and  C23_37 
REMARK   13  A    between atoms: C23_37  and  N9_38 
REMARK   14  A    between atoms: C27_42  and  C28_43 
ROOT
HETATM    1  N2  UNL     1      -2.032  -1.882  -0.730  1.00  0.00    -0.300 N 
HETATM    2  C6  UNL     1      -2.652  -0.751  -0.324  1.00  0.00     0.117 A 
HETATM    3  C7  UNL     1      -2.162   0.495  -0.569  1.00  0.00    -0.037 A 
HETATM    4  C15 UNL     1      -0.973   0.617  -1.266  1.00  0.00     0.058 A 
HETATM    5  C16 UNL     1      -0.345  -0.532  -1.678  1.00  0.00     0.125 A 
HETATM    6  N12 UNL     1      -0.901  -1.725  -1.392  1.00  0.00    -0.283 N 
ATOM      7  H12 UNL     1      -0.415  -2.564  -1.708  1.00  0.00     0.188 HD
ENDROOT
BRANCH   5   8
HETATM    8  N8  UNL     1       0.869  -0.450  -2.419  1.00  0.00    -0.306 N 
BRANCH   8   9
HETATM    9  C17 UNL     1       1.261   0.719  -3.087  1.00  0.00     0.357 C 
HETATM   10  O1  UNL     1       2.344   0.788  -3.739  1.00  0.00    -0.283 OA
ENDBRANCH   8   9
BRANCH   8  11
HETATM   11  C18 UNL     1       1.707  -1.626  -2.501  1.00  0.00     0.171 C 
BRANCH  11  12
HETATM   12  C19 UNL     1       2.804  -1.617  -1.501  1.00  0.00    -0.040 A 
HETATM   13  C20 UNL     1       4.108  -1.823  -1.947  1.00  0.00     0.009 A 
HETATM   14  C21 UNL     1       5.150  -1.811  -1.046  1.00  0.00     0.009 A 
HETATM   15  C22 UNL     1       4.948  -1.598   0.309  1.00  0.00    -0.040 A 
HETATM   16  C30 UNL     1       3.657  -1.395   0.749  1.00  0.00     0.009 A 
HETATM   17  C31 UNL     1       2.598  -1.409  -0.177  1.00  0.00     0.009 A 
BRANCH  15  18
HETATM   18  C23 UNL     1       6.099  -1.584   1.255  1.00  0.00     0.166 C 
BRANCH  18  19
HETATM   19  N9  UNL     1       6.545  -0.202   1.453  1.00  0.00    -0.361 N 
HETATM   20  C24 UNL     1       6.000   0.506   2.462  1.00  0.00     0.090 A 
HETATM   21  C25 UNL     1       6.387   1.812   2.680  1.00  0.00     0.018 A 
HETATM   22  C26 UNL     1       7.340   2.413   1.866  1.00  0.00     0.017 A 
HETATM   23  C27 UNL     1       7.891   1.669   0.831  1.00  0.00     0.020 A 
HETATM   24  C29 UNL     1       7.470   0.371   0.656  1.00  0.00     0.105 A 
BRANCH  23  25
HETATM   25  C28 UNL     1       8.890   2.299  -0.030  1.00  0.00     0.121 C 
HETATM   26  N10 UNL     1       9.278   3.502   0.131  1.00  0.00    -0.387 N 
ATOM     27 2H10 UNL     1       8.872   4.042   0.895  1.00  0.00     0.157 HD
ATOM     28 1H10 UNL     1       9.975   3.942  -0.470  1.00  0.00     0.157 HD
HETATM   29  N11 UNL     1       9.453   1.550  -1.090  1.00  0.00    -0.082 NA
ENDBRANCH  23  25
ENDBRANCH  18  19
ENDBRANCH  15  18
ENDBRANCH  11  12
ENDBRANCH   8  11
ENDBRANCH   5   8
BRANCH   3  30
HETATM   30  C8  UNL     1      -2.923   1.689  -0.100  1.00  0.00     0.046 C 
BRANCH  30  31
HETATM   31  C9  UNL     1      -3.850   2.177  -1.199  1.00  0.00     0.063 C 
BRANCH  31  32
HETATM   32  C10 UNL     1      -4.635   3.360  -0.780  1.00  0.00     0.026 A 
HETATM   33  C11 UNL     1      -4.211   4.664  -0.932  1.00  0.00     0.030 A 
HETATM   34  C12 UNL     1      -5.011   5.727  -0.531  1.00  0.00     0.052 A 
HETATM   35  C13 UNL     1      -6.241   5.487   0.027  1.00  0.00     0.122 A 
HETATM   36  N6  UNL     1      -6.624   4.198   0.162  1.00  0.00    -0.285 N 
HETATM   37  N7  UNL     1      -5.863   3.191  -0.220  1.00  0.00    -0.303 N 
ATOM     38  H6  UNL     1      -7.535   3.997   0.574  1.00  0.00     0.188 HD
ATOM     39  H7  UNL     1      -6.211   2.241  -0.089  1.00  0.00     0.186 HD
BRANCH  35  40
HETATM   40  N3  UNL     1      -7.023   6.461   0.418  1.00  0.00    -0.316 N 
HETATM   41  C14 UNL     1      -8.275   6.175   0.981  1.00  0.00     0.187 C 
HETATM   42  N4  UNL     1      -8.438   6.157   2.246  1.00  0.00    -0.373 N 
HETATM   43  N5  UNL     1      -9.375   5.892   0.135  1.00  0.00    -0.064 NA
ATOM     44  H42 UNL     1      -7.646   6.361   2.855  1.00  0.00     0.158 HD
ATOM     45  H41 UNL     1      -9.349   5.949   2.656  1.00  0.00     0.158 HD
ATOM     46  H3  UNL     1      -6.721   7.430   0.313  1.00  0.00     0.170 HD
ENDBRANCH  35  40
ENDBRANCH  31  32
ENDBRANCH  30  31
ENDBRANCH   3  30
BRANCH   1  47
HETATM   47  C5  UNL     1      -2.546  -3.207  -0.465  1.00  0.00     0.176 C 
BRANCH  47  48
HETATM   48  C4  UNL     1      -2.030  -3.754   0.847  1.00  0.00     0.257 C 
BRANCH  48  49
HETATM   49  N1  UNL     1      -2.547  -5.081   1.114  1.00  0.00    -0.077 N 
HETATM   50  C1  UNL     1      -2.423  -5.391   2.540  1.00  0.00     0.271 C 
HETATM   51  C2  UNL     1      -1.800  -6.097   0.385  1.00  0.00     0.271 C 
HETATM   52  C3  UNL     1      -3.929  -5.231   0.765  1.00  0.00     0.271 C 
ENDBRANCH  48  49
ENDBRANCH  47  48
ENDBRANCH   1  47
TORSDOF 14
