REMARK  17 active torsions:
REMARK  status: ('A' for Active; 'I' for Inactive)
REMARK    1  A    between atoms: C7_8  and  C9_10 
REMARK    2  A    between atoms: C10_11  and  C11_12 
REMARK    3  A    between atoms: C11_12  and  C12_13 
REMARK       I    between atoms: C12_13  and  N2_15 
REMARK    4  A    between atoms: N2_15  and  C13_17 
REMARK    5  A    between atoms: C13_17  and  C14_18 
REMARK       I    between atoms: C14_18  and  N3_20 
REMARK    6  A    between atoms: C21_32  and  C22_33 
REMARK    7  A    between atoms: C22_33  and  C23_34 
REMARK    8  A    between atoms: C23_34  and  C24_35 
REMARK    9  A    between atoms: C24_35  and  N6_36 
REMARK   10  A    between atoms: N6_36  and  C25_38 
REMARK   11  A    between atoms: C25_38  and  O3_39 
REMARK   12  A    between atoms: C25_38  and  C26_41 
REMARK   13  A    between atoms: C26_41  and  C27_42 
REMARK   14  A    between atoms: C27_42  and  C28_43 
REMARK   15  A    between atoms: C28_43  and  N7_44 
REMARK   16  A    between atoms: N7_44  and  C30_46 
REMARK   17  A    between atoms: C30_46  and  C31_47 
ROOT
HETATM    1  C1  UNL     1      -1.960  -4.821   0.779  1.00  0.00     0.016 C 
HETATM    2  C2  UNL     1      -1.712  -3.781  -0.272  1.00  0.00     0.041 A 
HETATM    3  C3  UNL     1      -0.475  -3.546  -0.564  1.00  0.00     0.005 A 
HETATM    4  C4  UNL     1       0.052  -3.041  -0.386  1.00  0.00     0.200 A 
HETATM    5  N1  UNL     1       0.184  -2.077   0.299  1.00  0.00    -0.038 N 
HETATM    6  C5  UNL     1       0.816  -2.119   1.615  1.00  0.00     0.245 C 
HETATM    7  C6  UNL     1       2.153  -1.476   1.263  1.00  0.00     0.043 C 
HETATM    8  C7  UNL     1       1.798  -0.548   0.090  1.00  0.00    -0.000 C 
HETATM    9  C8  UNL     1       2.446  -1.043  -1.173  1.00  0.00     0.021 C 
HETATM   10  C20 UNL     1       0.256  -0.705   0.001  1.00  0.00     0.257 C 
HETATM   11  C21 UNL     1      -1.453  -2.326   0.736  1.00  0.00     0.225 A 
ENDROOT
BRANCH  11  12
HETATM   12  C22 UNL     1      -2.230  -1.339   0.203  1.00  0.00     0.005 C 
BRANCH  12  13
HETATM   13  C23 UNL     1      -3.718  -1.329   0.222  1.00  0.00    -0.009 C 
BRANCH  13  14
HETATM   14  C24 UNL     1      -4.593  -2.310  -0.370  1.00  0.00     0.148 C 
BRANCH  14  15
HETATM   15  N6  UNL     1      -6.046  -2.063  -0.241  1.00  0.00    -0.368 N 
ATOM     16  H6  UNL     1      -6.577  -1.932  -1.102  1.00  0.00     0.161 HD
BRANCH  15  17
HETATM   17  C25 UNL     1      -6.743  -1.995   0.954  1.00  0.00     0.135 C 
BRANCH  17  18
HETATM   18  O3  UNL     1      -6.000  -2.143   2.016  1.00  0.00    -0.346 OA
ATOM     19  H3  UNL     1      -6.478  -2.096   2.836  1.00  0.00     0.219 HD
ENDBRANCH  17  18
BRANCH  17  20
HETATM   20  C26 UNL     1      -8.130  -1.801   1.209  1.00  0.00     0.053 C 
BRANCH  20  21
HETATM   21  C27 UNL     1      -9.194  -1.664   0.507  1.00  0.00    -0.003 C 
BRANCH  21  22
HETATM   22  C28 UNL     1      -9.467  -1.644  -0.930  1.00  0.00     0.144 C 
BRANCH  22  23
HETATM   23  N7  UNL     1     -10.063  -0.387  -1.316  1.00  0.00    -0.405 N 
HETATM   24  C29 UNL     1     -10.385  -0.269  -2.699  1.00  0.00     0.144 C 
BRANCH  23  25
HETATM   25  C30 UNL     1     -10.971   0.188  -0.392  1.00  0.00     0.216 C 
BRANCH  25  26
HETATM   26  C31 UNL     1     -12.230  -0.544  -0.186  1.00  0.00     0.248 C 
HETATM   27  N8  UNL     1     -13.164   0.017   0.732  1.00  0.00    -0.061 NA
HETATM   28  O4  UNL     1     -12.543  -1.614  -0.749  1.00  0.00    -0.275 OA
ENDBRANCH  25  26
ENDBRANCH  23  25
ENDBRANCH  22  23
ENDBRANCH  21  22
ENDBRANCH  20  21
ENDBRANCH  17  20
ENDBRANCH  15  17
ENDBRANCH  14  15
ENDBRANCH  13  14
ENDBRANCH  12  13
ENDBRANCH  11  12
BRANCH   8  29
HETATM   29  C9  UNL     1       2.206   0.807   0.454  1.00  0.00    -0.019 C 
HETATM   30  C10 UNL     1       2.822   1.640  -0.395  1.00  0.00    -0.021 C 
BRANCH  30  31
HETATM   31  C11 UNL     1       3.247   3.021  -0.038  1.00  0.00     0.129 C 
BRANCH  31  32
HETATM   32  C12 UNL     1       4.732   3.077  -0.233  1.00  0.00     0.221 C 
HETATM   33  O1  UNL     1       5.353   2.053  -0.649  1.00  0.00    -0.273 OA
HETATM   34  N2  UNL     1       5.476   4.256   0.036  1.00  0.00    -0.352 N 
ATOM     35  H2  UNL     1       5.004   5.099   0.364  1.00  0.00     0.162 HD
BRANCH  34  36
HETATM   36  C13 UNL     1       6.894   4.251  -0.157  1.00  0.00     0.227 C 
BRANCH  36  37
HETATM   37  C14 UNL     1       7.632   3.313   0.702  1.00  0.00     0.256 C 
HETATM   38  O2  UNL     1       6.962   2.637   1.542  1.00  0.00    -0.270 OA
HETATM   39  N3  UNL     1       9.040   3.094   0.673  1.00  0.00    -0.258 N 
HETATM   40  C15 UNL     1       9.485   2.136   1.618  1.00  0.00     0.163 C 
HETATM   41  N5  UNL     1       9.649   3.914  -0.322  1.00  0.00    -0.284 N 
HETATM   42  C16 UNL     1      10.422   1.012   1.077  1.00  0.00     0.102 C 
HETATM   43  C17 UNL     1      11.050   1.534  -0.056  1.00  0.00    -0.174 C 
HETATM   44  C18 UNL     1      11.548   2.244  -1.179  1.00  0.00     0.157 C 
HETATM   45  C19 UNL     1      10.805   3.599  -1.114  1.00  0.00     0.100 C 
HETATM   46  N4  UNL     1      11.269   4.540  -1.838  1.00  0.00    -0.387 N 
ATOM     47  H42 UNL     1      12.090   4.316  -2.400  1.00  0.00     0.157 HD
ATOM     48  H41 UNL     1      10.779   5.434  -1.795  1.00  0.00     0.157 HD
ATOM     49  H5  UNL     1       9.217   4.823  -0.489  1.00  0.00     0.188 HD
ENDBRANCH  36  37
ENDBRANCH  34  36
ENDBRANCH  31  32
ENDBRANCH  30  31
ENDBRANCH   8  29
TORSDOF 17
