REMARK  5 active torsions:
REMARK  status: ('A' for Active; 'I' for Inactive)
REMARK    1  A    between atoms: N1_14  and  C12_15 
REMARK    2  A    between atoms: C12_15  and  C13_16 
REMARK    3  A    between atoms: C21_24  and  C22_25 
REMARK    4  A    between atoms: N4_32  and  C24_33 
REMARK    5  A    between atoms: C29_38  and  C30_39 
ROOT
HETATM    1  C1  UNL     1      -2.596  -4.370   0.420  1.00  0.00     0.025 C 
HETATM    2  C2  UNL     1      -3.531  -3.511   0.384  1.00  0.00    -0.020 A 
HETATM    3  C3  UNL     1      -4.981  -3.856   0.327  1.00  0.00    -0.013 A 
HETATM    4  C4  UNL     1      -5.545  -5.123   0.292  1.00  0.00     0.013 A 
HETATM    5  C5  UNL     1      -6.906  -5.249   0.244  1.00  0.00     0.001 A 
HETATM    6  C6  UNL     1      -7.772  -4.154   0.238  1.00  0.00     0.001 A 
HETATM    7  C7  UNL     1      -7.166  -2.911   0.272  1.00  0.00     0.015 A 
HETATM    8  C8  UNL     1      -5.792  -2.766   0.318  1.00  0.00     0.010 A 
HETATM    9  C9  UNL     1      -4.899  -1.622   0.359  1.00  0.00     0.099 A 
HETATM   10  O1  UNL     1      -4.976  -0.327   0.399  1.00  0.00    -0.302 OA
HETATM   11  C10 UNL     1      -3.774   0.194   0.455  1.00  0.00     0.156 A 
HETATM   12  C11 UNL     1      -3.363   1.495   0.525  1.00  0.00     0.287 A 
HETATM   13  O2  UNL     1      -4.146   2.458   0.548  1.00  0.00    -0.264 OA
HETATM   14  N1  UNL     1      -2.026   1.796   0.570  1.00  0.00    -0.286 N 
HETATM   15  C19 UNL     1      -1.085   0.805   0.533  1.00  0.00     0.054 A 
HETATM   16  C20 UNL     1       0.262   1.120   0.532  1.00  0.00     0.042 A 
HETATM   17  C21 UNL     1       1.242   0.133   0.450  1.00  0.00    -0.012 A 
HETATM   18  C32 UNL     1       0.785  -1.141   0.370  1.00  0.00     0.012 A 
HETATM   19  C33 UNL     1      -0.581  -1.505   0.375  1.00  0.00     0.015 A 
HETATM   20  C34 UNL     1      -1.513  -0.536   0.463  1.00  0.00     0.005 A 
HETATM   21  C35 UNL     1      -2.848  -0.846   0.436  1.00  0.00     0.030 A 
HETATM   22  C36 UNL     1      -3.561  -2.029   0.387  1.00  0.00     0.023 A 
ENDROOT
BRANCH  17  23
HETATM   23  C22 UNL     1       2.635   0.542   0.536  1.00  0.00     0.242 C 
HETATM   24  N2  UNL     1       2.760   1.116   1.911  1.00  0.00    -0.339 N 
HETATM   25  C23 UNL     1       3.386   0.127   2.697  1.00  0.00     0.188 C 
ATOM     26  H2  UNL     1       2.454   2.039   2.219  1.00  0.00     0.164 HD
HETATM   27  S1  UNL     1       3.456   0.141   4.338  1.00  0.00    -0.039 SA
HETATM   28  N3  UNL     1       3.943  -0.838   1.823  1.00  0.00    -0.271 N 
HETATM   29  N4  UNL     1       3.664  -0.418   0.467  1.00  0.00    -0.261 N 
ATOM     30  H3  UNL     1       4.450  -1.679   2.100  1.00  0.00     0.189 HD
BRANCH  29  31
HETATM   31  C24 UNL     1       4.468  -0.978  -0.555  1.00  0.00     0.060 A 
HETATM   32  C25 UNL     1       4.166  -2.162  -1.170  1.00  0.00     0.032 A 
HETATM   33  C26 UNL     1       4.937  -2.754  -2.153  1.00  0.00     0.002 A 
HETATM   34  C27 UNL     1       6.084  -2.119  -2.562  1.00  0.00     0.001 A 
HETATM   35  C28 UNL     1       6.432  -0.926  -1.988  1.00  0.00     0.009 A 
HETATM   36  C29 UNL     1       5.642  -0.347  -0.983  1.00  0.00    -0.030 A 
BRANCH  36  37
HETATM   37  C30 UNL     1       6.034   0.926  -0.366  1.00  0.00     0.036 C 
HETATM   38  C31 UNL     1       7.541   1.029  -0.272  1.00  0.00     0.010 C 
ENDBRANCH  36  37
ENDBRANCH  29  31
ENDBRANCH  17  23
BRANCH  14  39
HETATM   39  C12 UNL     1      -1.661   3.135   0.890  1.00  0.00     0.112 C 
BRANCH  39  40
HETATM   40  C13 UNL     1      -1.764   4.152  -0.130  1.00  0.00    -0.020 A 
HETATM   41  C14 UNL     1      -1.474   5.465   0.334  1.00  0.00     0.013 A 
HETATM   42  C15 UNL     1      -1.600   6.542  -0.488  1.00  0.00     0.001 A 
HETATM   43  C16 UNL     1      -2.005   6.382  -1.771  1.00  0.00     0.000 A 
HETATM   44  C17 UNL     1      -2.297   5.139  -2.285  1.00  0.00     0.001 A 
HETATM   45  C18 UNL     1      -2.162   4.039  -1.429  1.00  0.00     0.013 A 
ENDBRANCH  39  40
ENDBRANCH  14  39
TORSDOF 5
