REMARK  5 active torsions:
REMARK  status: ('A' for Active; 'I' for Inactive)
REMARK    1  A    between atoms: C3_3  and  C4_4 
REMARK    2  A    between atoms: C13_15  and  C14_16 
REMARK       I    between atoms: C14_16  and  N2_18 
REMARK    3  A    between atoms: N2_18  and  N3_19 
REMARK    4  A    between atoms: C15_21  and  C16_22 
REMARK    5  A    between atoms: C26_34  and  O2_35 
ROOT
HETATM    1  C4  UNL     1       3.795  -1.339  -0.189  1.00  0.00    -0.023 A 
HETATM    2  C5  UNL     1       3.883  -2.738  -0.143  1.00  0.00     0.012 A 
HETATM    3  C6  UNL     1       2.903  -3.484  -0.718  1.00  0.00     0.002 A 
HETATM    4  C7  UNL     1       1.806  -2.871  -1.357  1.00  0.00     0.012 A 
HETATM    5  C8  UNL     1       1.684  -1.520  -1.420  1.00  0.00    -0.024 A 
HETATM    6  C9  UNL     1       0.668  -0.738  -2.083  1.00  0.00    -0.006 A 
HETATM    7  C10 UNL     1       1.170   0.029  -3.201  1.00  0.00     0.030 A 
HETATM    8  C11 UNL     1       0.283   0.756  -3.906  1.00  0.00     0.088 A 
HETATM    9  N1  UNL     1      -1.025   0.802  -3.628  1.00  0.00    -0.374 N 
ATOM     10  H1  UNL     1      -1.652   1.370  -4.197  1.00  0.00     0.164 HD
HETATM   11  C12 UNL     1      -1.517   0.075  -2.566  1.00  0.00     0.106 A 
HETATM   12  C13 UNL     1      -0.621  -0.698  -1.794  1.00  0.00     0.075 A 
HETATM   13  C29 UNL     1       2.717  -0.759  -0.813  1.00  0.00     0.024 A 
ENDROOT
BRANCH  12  14
HETATM   14  C14 UNL     1      -1.243  -1.380  -0.606  1.00  0.00     0.348 C 
HETATM   15  O1  UNL     1      -0.618  -2.436  -0.210  1.00  0.00    -0.249 OA
HETATM   16  N2  UNL     1      -2.316  -0.943  -0.039  1.00  0.00    -0.282 NA
BRANCH  16  17
HETATM   17  N3  UNL     1      -3.492  -0.469   0.588  1.00  0.00    -0.242 N 
HETATM   18  C15 UNL     1      -4.543  -0.285  -0.124  1.00  0.00     0.134 C 
ATOM     19  H3  UNL     1      -3.504  -0.277   1.590  1.00  0.00     0.201 HD
BRANCH  18  20
HETATM   20  C16 UNL     1      -5.867   0.169   0.197  1.00  0.00     0.007 A 
HETATM   21  C17 UNL     1      -6.836   0.313  -0.829  1.00  0.00     0.003 A 
HETATM   22  C18 UNL     1      -6.503   0.118  -2.138  1.00  0.00     0.014 A 
HETATM   23  C22 UNL     1      -8.136   0.666  -0.524  1.00  0.00     0.043 A 
HETATM   24  C19 UNL     1      -7.423   0.254  -3.193  1.00  0.00     0.001 A 
HETATM   25  C20 UNL     1      -8.699   0.595  -2.897  1.00  0.00     0.002 A 
HETATM   26  C21 UNL     1      -9.049   0.800  -1.568  1.00  0.00     0.030 A 
HETATM   27  N4  UNL     1      -8.475   0.870   0.732  1.00  0.00    -0.355 N 
HETATM   28  C23 UNL     1      -7.630   0.762   1.765  1.00  0.00     0.044 A 
ATOM     29  H4  UNL     1      -9.442   1.126   0.930  1.00  0.00     0.166 HD
HETATM   30  C24 UNL     1      -8.050   0.971   3.071  1.00  0.00     0.033 A 
HETATM   31  C28 UNL     1      -6.307   0.409   1.508  1.00  0.00     0.006 A 
HETATM   32  C25 UNL     1      -7.192   0.840   4.136  1.00  0.00     0.039 A 
HETATM   33  C26 UNL     1      -5.889   0.496   3.912  1.00  0.00     0.066 A 
HETATM   34  C27 UNL     1      -5.468   0.285   2.589  1.00  0.00     0.051 A 
BRANCH  33  35
HETATM   35  O2  UNL     1      -4.949   0.338   4.929  1.00  0.00    -0.361 OA
ATOM     36  H2  UNL     1      -4.043   0.099   4.773  1.00  0.00     0.217 HD
ENDBRANCH  33  35
ENDBRANCH  18  20
ENDBRANCH  16  17
ENDBRANCH  12  14
BRANCH   1  37
HETATM   37  C3  UNL     1       4.883  -0.543   0.332  1.00  0.00    -0.003 A 
HETATM   38  C2  UNL     1       5.803  -0.045  -0.617  1.00  0.00     0.018 A 
HETATM   39  C1  UNL     1       5.539  -0.387  -2.023  1.00  0.00     0.069 C 
HETATM   40  N5  UNL     1       6.863   0.701  -0.257  1.00  0.00    -0.354 N 
HETATM   41  C36 UNL     1       7.042   0.971   1.046  1.00  0.00     0.044 A 
HETATM   42  C37 UNL     1       7.790   1.195  -1.254  1.00  0.00     0.156 C 
HETATM   43  C31 UNL     1       6.192   0.523   2.038  1.00  0.00    -0.008 A 
HETATM   44  C35 UNL     1       8.130   1.731   1.469  1.00  0.00     0.030 A 
HETATM   45  C30 UNL     1       5.098  -0.248   1.652  1.00  0.00     0.028 A 
HETATM   46  C32 UNL     1       6.357   0.781   3.361  1.00  0.00     0.014 A 
HETATM   47  C33 UNL     1       7.455   1.545   3.769  1.00  0.00     0.001 A 
HETATM   48  C34 UNL     1       8.335   2.016   2.830  1.00  0.00     0.002 A 
ENDBRANCH   1  37
TORSDOF 5
