REMARK  9 active torsions:
REMARK  status: ('A' for Active; 'I' for Inactive)
REMARK       I    between atoms: C1_2  and  N1_3 
REMARK    1  A    between atoms: C1_2  and  C25_39 
REMARK    2  A    between atoms: N1_3  and  C2_5 
REMARK    3  A    between atoms: C4_7  and  C5_8 
REMARK    4  A    between atoms: N2_20  and  C17_21 
REMARK    5  A    between atoms: C17_21  and  O2_22 
REMARK    6  A    between atoms: C17_21  and  N3_24 
REMARK    7  A    between atoms: N3_24  and  C18_26 
REMARK    8  A    between atoms: C18_26  and  C19_27 
REMARK    9  A    between atoms: C29_43  and  C30_44 
ROOT
HETATM    1  C5  UNL     1       1.478   0.963  -2.412  1.00  0.00     0.004 A 
HETATM    2  C6  UNL     1       1.932   2.128  -3.062  1.00  0.00     0.015 A 
HETATM    3  C7  UNL     1       3.239   2.487  -3.055  1.00  0.00     0.003 A 
HETATM    4  C8  UNL     1       4.121   1.657  -2.376  1.00  0.00     0.031 A 
HETATM    5  C9  UNL     1       3.728   0.514  -1.728  1.00  0.00     0.055 A 
HETATM    6  C10 UNL     1       2.373   0.157  -1.746  1.00  0.00     0.016 A 
HETATM    7  C11 UNL     1       2.224  -1.020  -1.027  1.00  0.00     0.005 A 
HETATM    8  C12 UNL     1       1.104  -1.760  -0.749  1.00  0.00     0.014 A 
HETATM    9  C13 UNL     1       1.271  -2.923   0.025  1.00  0.00     0.001 A 
HETATM   10  C14 UNL     1       2.492  -3.304   0.482  1.00  0.00     0.002 A 
HETATM   11  C15 UNL     1       3.583  -2.504   0.162  1.00  0.00     0.031 A 
HETATM   12  C16 UNL     1       3.499  -1.352  -0.591  1.00  0.00     0.054 A 
HETATM   13  N2  UNL     1       4.396  -0.447  -1.003  1.00  0.00    -0.276 N 
ENDROOT
BRANCH   1  14
HETATM   14  C4  UNL     1       0.054   0.684  -2.493  1.00  0.00     0.047 A 
HETATM   15  C3  UNL     1      -0.829   1.280  -1.621  1.00  0.00     0.079 A 
HETATM   16  C2  UNL     1      -2.206   1.071  -1.675  1.00  0.00     0.110 A 
HETATM   17  N6  UNL     1      -2.622   0.236  -2.649  1.00  0.00    -0.338 N 
HETATM   18  C24 UNL     1      -1.749  -0.339  -3.494  1.00  0.00     0.182 A 
ATOM     19  H6  UNL     1      -3.618   0.037  -2.746  1.00  0.00     0.168 HD
HETATM   20  N5  UNL     1      -0.420  -0.138  -3.443  1.00  0.00    -0.352 N 
ATOM     21  H5  UNL     1       0.207  -0.595  -4.105  1.00  0.00     0.166 HD
BRANCH  16  22
HETATM   22  N1  UNL     1      -2.999   1.651  -0.840  1.00  0.00    -0.309 N 
HETATM   23  C1  UNL     1      -4.384   1.536  -0.777  1.00  0.00     0.257 C 
HETATM   24  O1  UNL     1      -5.095   2.071  -1.664  1.00  0.00    -0.267 OA
ATOM     25  H1  UNL     1      -2.563   2.262  -0.149  1.00  0.00     0.170 HD
BRANCH  23  26
HETATM   26  C25 UNL     1      -5.035   0.810   0.289  1.00  0.00     0.033 A 
HETATM   27  C26 UNL     1      -4.242   0.220   1.260  1.00  0.00     0.017 A 
HETATM   28  C27 UNL     1      -4.845  -0.462   2.267  1.00  0.00     0.002 A 
HETATM   29  C28 UNL     1      -6.215  -0.579   2.346  1.00  0.00     0.012 A 
HETATM   30  C29 UNL     1      -7.027   0.009   1.377  1.00  0.00    -0.025 A 
HETATM   31  C36 UNL     1      -6.414   0.691   0.370  1.00  0.00     0.029 A 
BRANCH  30  32
HETATM   32  C30 UNL     1      -8.467  -0.143   1.509  1.00  0.00    -0.026 A 
HETATM   33  C31 UNL     1      -8.950  -1.295   2.083  1.00  0.00     0.012 A 
HETATM   34  C32 UNL     1     -10.325  -1.501   2.240  1.00  0.00     0.001 A 
HETATM   35  C33 UNL     1     -11.214  -0.559   1.825  1.00  0.00     0.000 A 
HETATM   36  C34 UNL     1     -10.745   0.605   1.247  1.00  0.00     0.001 A 
HETATM   37  C35 UNL     1      -9.378   0.804   1.093  1.00  0.00     0.012 A 
ENDBRANCH  30  32
ENDBRANCH  23  26
ENDBRANCH  16  22
ENDBRANCH   1  14
BRANCH  13  38
HETATM   38  C17 UNL     1       5.785  -0.394  -0.776  1.00  0.00     0.225 C 
BRANCH  38  39
HETATM   39  O2  UNL     1       6.451   0.625  -1.245  1.00  0.00    -0.332 OA
ATOM     40  H2  UNL     1       7.388   0.661  -1.092  1.00  0.00     0.221 HD
ENDBRANCH  38  39
BRANCH  38  41
HETATM   41  N3  UNL     1       6.611  -1.295  -0.101  1.00  0.00    -0.350 N 
ATOM     42  H3  UNL     1       6.230  -2.143   0.318  1.00  0.00     0.163 HD
BRANCH  41  43
HETATM   43  C18 UNL     1       8.063  -0.982  -0.010  1.00  0.00     0.180 C 
BRANCH  43  44
HETATM   44  C19 UNL     1       8.319   0.058   1.008  1.00  0.00     0.026 A 
HETATM   45  C20 UNL     1       9.628   0.463   1.159  1.00  0.00     0.027 A 
HETATM   46  C21 UNL     1       9.910   1.430   2.100  1.00  0.00     0.003 A 
HETATM   47  C22 UNL     1       8.899   1.972   2.867  1.00  0.00     0.017 A 
HETATM   48  C23 UNL     1       7.598   1.544   2.691  1.00  0.00     0.088 A 
HETATM   49  N4  UNL     1       7.356   0.602   1.767  1.00  0.00    -0.368 N 
ATOM     50  H4  UNL     1       6.396   0.285   1.636  1.00  0.00     0.165 HD
ENDBRANCH  43  44
ENDBRANCH  41  43
ENDBRANCH  38  41
ENDBRANCH  13  38
TORSDOF 9
