REMARK  6 active torsions:
REMARK  status: ('A' for Active; 'I' for Inactive)
REMARK    1  A    between atoms: C5_5  and  S1_6 
REMARK    2  A    between atoms: S1_6  and  N1_9 
REMARK    3  A    between atoms: C6_11  and  N2_13 
REMARK    4  A    between atoms: C9_18  and  C10_19 
REMARK    5  A    between atoms: C18_28  and  C19_29 
REMARK    6  A    between atoms: C22_32  and  C23_33 
ROOT
HETATM    1  N2  UNL     1       0.501  -0.134  -2.306  1.00  0.00    -0.297 N 
HETATM    2  C7  UNL     1       1.065   1.134  -2.246  1.00  0.00     0.148 C 
HETATM    3  S3  UNL     1       2.405   1.768  -1.824  1.00  0.00    -0.052 SA
HETATM    4  S4  UNL     1      -0.336   2.219  -2.826  1.00  0.00    -0.062 SA
HETATM    5  C8  UNL     1      -1.450   1.200  -1.822  1.00  0.00     0.014 C 
HETATM    6  C9  UNL     1      -2.326   1.673  -1.075  1.00  0.00     0.027 C 
HETATM    7  C18 UNL     1      -0.952  -0.140  -2.105  1.00  0.00     0.167 C 
ENDROOT
BRANCH   1   8
HETATM    8  C6  UNL     1       1.145  -1.365  -2.556  1.00  0.00     0.170 C 
HETATM    9  N1  UNL     1       2.343  -1.924  -2.791  1.00  0.00    -0.259 N 
ATOM     10  H1  UNL     1       2.222  -2.924  -2.950  1.00  0.00     0.181 HD
HETATM   11  S2  UNL     1      -0.046  -2.683  -2.650  1.00  0.00    -0.012 SA
BRANCH   9  12
HETATM   12  S1  UNL     1       3.961  -1.541  -2.912  1.00  0.00     0.264 S 
HETATM   13  O1  UNL     1       4.163  -0.511  -4.065  1.00  0.00    -0.200 OA
HETATM   14  O2  UNL     1       4.792  -2.733  -3.468  1.00  0.00    -0.200 OA
BRANCH  12  15
HETATM   15  C5  UNL     1       4.817  -0.947  -1.528  1.00  0.00     0.080 A 
HETATM   16  C4  UNL     1       4.713  -1.593  -0.296  1.00  0.00     0.026 A 
HETATM   17  C3  UNL     1       5.448  -1.185   0.777  1.00  0.00     0.008 A 
HETATM   18  C2  UNL     1       6.316  -0.134   0.709  1.00  0.00    -0.062 A 
HETATM   19  C1  UNL     1       7.087   0.271   1.905  1.00  0.00     0.048 C 
HETATM   20  C29 UNL     1       6.457   0.548  -0.504  1.00  0.00     0.008 A 
HETATM   21  C28 UNL     1       5.706   0.112  -1.557  1.00  0.00     0.026 A 
ENDBRANCH  12  15
ENDBRANCH   9  12
ENDBRANCH   1   8
BRANCH   7  22
HETATM   22  C19 UNL     1      -1.256  -0.957  -0.894  1.00  0.00    -0.030 A 
HETATM   23  C20 UNL     1      -2.433  -1.718  -0.872  1.00  0.00     0.010 A 
HETATM   24  C21 UNL     1      -2.738  -2.476   0.230  1.00  0.00     0.008 A 
HETATM   25  C22 UNL     1      -1.942  -2.544   1.357  1.00  0.00    -0.055 A 
HETATM   26  C26 UNL     1      -0.784  -1.790   1.327  1.00  0.00     0.008 A 
HETATM   27  C27 UNL     1      -0.460  -1.016   0.217  1.00  0.00     0.010 A 
BRANCH  25  28
HETATM   28  C23 UNL     1      -2.337  -3.399   2.501  1.00  0.00     0.010 C 
HETATM   29  C24 UNL     1      -1.235  -4.223   3.074  1.00  0.00     0.015 C 
HETATM   30  C25 UNL     1      -3.084  -2.593   3.571  1.00  0.00     0.015 C 
ENDBRANCH  25  28
ENDBRANCH   7  22
BRANCH   6  31
HETATM   31  C10 UNL     1      -2.639   2.999  -0.847  1.00  0.00    -0.016 A 
HETATM   32  C11 UNL     1      -3.612   2.979   0.059  1.00  0.00     0.113 A 
HETATM   33  C12 UNL     1      -4.581   2.450   0.984  1.00  0.00     0.045 A 
HETATM   34  N3  UNL     1      -3.911   4.132   0.055  1.00  0.00    -0.410 NA
HETATM   35  C13 UNL     1      -5.400   3.504   1.465  1.00  0.00     0.006 A 
HETATM   36  C14 UNL     1      -5.202   4.972   0.990  1.00  0.00     0.040 A 
HETATM   37  C15 UNL     1      -4.256   5.284   0.088  1.00  0.00     0.085 A 
HETATM   38  C16 UNL     1      -3.175   5.536  -0.920  1.00  0.00     0.077 A 
HETATM   39  C17 UNL     1      -2.392   4.433  -1.382  1.00  0.00     0.049 A 
ENDBRANCH   6  31
TORSDOF 6
