REMARK  6 active torsions:
REMARK  status: ('A' for Active; 'I' for Inactive)
REMARK    1  A    between atoms: S1_2  and  C1_4 
REMARK    2  A    between atoms: S1_2  and  C7_10 
REMARK    3  A    between atoms: C14_17  and  O3_18 
REMARK    4  A    between atoms: C14_17  and  C15_20 
REMARK    5  A    between atoms: C18_23  and  C19_24 
REMARK    6  A    between atoms: C30_37  and  C31_38 
ROOT
HETATM    1  C7  UNL     1       3.488  -0.818  -0.406  1.00  0.00     0.072 A 
HETATM    2  C8  UNL     1       4.297  -1.133  -1.493  1.00  0.00     0.024 A 
HETATM    3  C9  UNL     1       4.260  -0.427  -2.677  1.00  0.00     0.004 A 
HETATM    4  C10 UNL     1       3.371   0.631  -2.747  1.00  0.00     0.030 A 
HETATM    5  C11 UNL     1       2.552   0.967  -1.678  1.00  0.00     0.040 A 
HETATM    6  C12 UNL     1       2.596   0.261  -0.511  1.00  0.00    -0.006 A 
HETATM    7  C13 UNL     1       1.781   0.521   0.688  1.00  0.00     0.092 C 
HETATM    8  C14 UNL     1       0.746   1.616   0.514  1.00  0.00     0.132 C 
HETATM    9  C30 UNL     1       1.253   2.610  -0.429  1.00  0.00     0.060 C 
HETATM   10  N2  UNL     1       1.644   2.081  -1.731  1.00  0.00    -0.356 N 
ATOM     11  H2  UNL     1       1.301   2.470  -2.609  1.00  0.00     0.166 HD
ENDROOT
BRANCH   8  12
HETATM   12  O3  UNL     1       0.759   2.283   1.785  1.00  0.00    -0.378 OA
ATOM     13  H3  UNL     1       0.111   2.969   1.676  1.00  0.00     0.211 HD
ENDBRANCH   8  12
BRANCH   8  14
HETATM   14  C15 UNL     1      -0.572   1.048   0.426  1.00  0.00    -0.018 A 
HETATM   15  C16 UNL     1      -0.990   0.353   1.577  1.00  0.00     0.011 A 
HETATM   16  C17 UNL     1      -2.218  -0.240   1.691  1.00  0.00     0.013 A 
HETATM   17  C18 UNL     1      -3.121  -0.178   0.653  1.00  0.00    -0.026 A 
HETATM   18  C28 UNL     1      -2.731   0.497  -0.484  1.00  0.00     0.013 A 
HETATM   19  C29 UNL     1      -1.477   1.093  -0.583  1.00  0.00     0.011 A 
BRANCH  17  20
HETATM   20  C19 UNL     1      -4.448  -0.780   0.714  1.00  0.00    -0.025 A 
HETATM   21  C20 UNL     1      -5.136  -0.898   1.921  1.00  0.00     0.014 A 
HETATM   22  C21 UNL     1      -6.400  -1.429   1.996  1.00  0.00     0.031 A 
HETATM   23  C22 UNL     1      -7.036  -1.868   0.872  1.00  0.00     0.042 A 
HETATM   24  N1  UNL     1      -8.274  -2.379   0.958  1.00  0.00    -0.365 N 
HETATM   25  C26 UNL     1      -6.363  -1.757  -0.336  1.00  0.00    -0.009 A 
HETATM   26  C23 UNL     1      -8.918  -2.809  -0.137  1.00  0.00     0.088 A 
ATOM     27  H1  UNL     1      -8.731  -2.441   1.868  1.00  0.00     0.165 HD
HETATM   28  C24 UNL     1      -8.309  -2.729  -1.375  1.00  0.00     0.018 A 
HETATM   29  C25 UNL     1      -7.036  -2.202  -1.453  1.00  0.00     0.015 A 
HETATM   30  C27 UNL     1      -5.074  -1.216  -0.418  1.00  0.00     0.026 A 
ENDBRANCH  17  20
ENDBRANCH   8  14
BRANCH   9  31
HETATM   31  C31 UNL     1       0.697   3.953  -0.442  1.00  0.00    -0.010 A 
HETATM   32  C32 UNL     1       0.977   4.878   0.575  1.00  0.00     0.013 A 
HETATM   33  C33 UNL     1       0.489   6.162   0.563  1.00  0.00     0.001 A 
HETATM   34  C34 UNL     1      -0.307   6.590  -0.472  1.00  0.00     0.000 A 
HETATM   35  C35 UNL     1      -0.598   5.709  -1.479  1.00  0.00     0.001 A 
HETATM   36  C36 UNL     1      -0.097   4.417  -1.448  1.00  0.00     0.013 A 
ENDBRANCH   9  31
BRANCH   1  37
HETATM   37  S1  UNL     1       3.622  -1.782   1.047  1.00  0.00     0.207 S 
HETATM   38  O1  UNL     1       2.358  -2.564   1.316  1.00  0.00    -0.217 OA
HETATM   39  O2  UNL     1       3.993  -0.959   2.254  1.00  0.00    -0.217 OA
BRANCH  37  40
HETATM   40  C1  UNL     1       4.892  -2.960   0.866  1.00  0.00     0.064 A 
HETATM   41  C2  UNL     1       4.605  -4.232   0.470  1.00  0.00     0.024 A 
HETATM   42  C3  UNL     1       5.603  -5.200   0.318  1.00  0.00     0.002 A 
HETATM   43  C4  UNL     1       6.915  -4.855   0.574  1.00  0.00     0.000 A 
HETATM   44  C5  UNL     1       7.211  -3.580   0.970  1.00  0.00     0.002 A 
HETATM   45  C6  UNL     1       6.220  -2.647   1.115  1.00  0.00     0.024 A 
ENDBRANCH  37  40
ENDBRANCH   1  37
TORSDOF 6
