REMARK  6 active torsions:
REMARK  status: ('A' for Active; 'I' for Inactive)
REMARK    1  A    between atoms: C2_2  and  C3_3 
REMARK    2  A    between atoms: C3_3  and  C4_4 
REMARK    3  A    between atoms: C4_4  and  C5_5 
REMARK    4  A    between atoms: C5_5  and  N1_6 
REMARK    5  A    between atoms: N1_6  and  C6_8 
REMARK    6  A    between atoms: C8_17  and  N5_18 
ROOT
HETATM    1  C6  UNL     1       1.209  -0.785   0.385  1.00  0.00     0.707 A 
HETATM    2  N2  UNL     1       1.104   0.437   0.939  1.00  0.00    -0.022 N 
ATOM      3  H2  UNL     1       0.199   0.724   1.311  1.00  0.00     0.203 HD
HETATM    4  C7  UNL     1       2.133   1.300   1.027  1.00  0.00     0.705 A 
HETATM    5  N3  UNL     1       1.988   2.461   1.567  1.00  0.00    -0.234 N 
ATOM      6  H31 UNL     1       2.768   3.115   1.634  1.00  0.00     0.174 HD
ATOM      7  H32 UNL     1       1.093   2.770   1.947  1.00  0.00     0.174 HD
HETATM    8  N4  UNL     1       3.332   0.886   0.517  1.00  0.00    -0.022 N 
ATOM      9  H4  UNL     1       4.135   1.513   0.564  1.00  0.00     0.203 HD
HETATM   10  C8  UNL     1       3.477  -0.313  -0.039  1.00  0.00     0.706 A 
HETATM   11  N6  UNL     1       2.429  -1.142  -0.106  1.00  0.00    -0.022 N 
ATOM     12  H6  UNL     1       2.546  -2.061  -0.534  1.00  0.00     0.203 HD
ENDROOT
BRANCH   1  13
HETATM   13  N1  UNL     1       0.250  -1.607   0.296  1.00  0.00    -0.225 N 
ATOM     14  H1  UNL     1       0.443  -2.507  -0.144  1.00  0.00     0.177 HD
BRANCH  13  15
HETATM   15  C5  UNL     1      -1.088  -1.375   0.765  1.00  0.00     0.138 C 
BRANCH  15  16
HETATM   16  C4  UNL     1      -1.891  -0.749  -0.354  1.00  0.00     0.020 C 
BRANCH  16  17
HETATM   17  C3  UNL     1      -3.319  -0.474   0.068  1.00  0.00     0.001 C 
BRANCH  17  18
HETATM   18  C2  UNL     1      -4.027   0.143  -1.106  1.00  0.00    -0.004 C 
HETATM   19  C1  UNL     1      -5.466   0.472  -0.831  1.00  0.00     0.005 C 
ENDBRANCH  17  18
ENDBRANCH  16  17
ENDBRANCH  15  16
ENDBRANCH  13  15
ENDBRANCH   1  13
BRANCH  10  20
HETATM   20  N5  UNL     1       4.605  -0.681  -0.509  1.00  0.00    -0.229 N 
HETATM   21  C9  UNL     1       5.746   0.205  -0.443  1.00  0.00     0.165 C 
ATOM     22  H5  UNL     1       4.702  -1.604  -0.933  1.00  0.00     0.177 HD
ENDBRANCH  10  20
TORSDOF 6
