REMARK  5 active torsions:
REMARK  status: ('A' for Active; 'I' for Inactive)
REMARK    1  A    between atoms: C2_2  and  C3_3 
REMARK    2  A    between atoms: C3_3  and  C4_4 
REMARK    3  A    between atoms: C4_4  and  C5_5 
REMARK    4  A    between atoms: C5_5  and  N1_6 
REMARK    5  A    between atoms: C7_11  and  N3_12 
ROOT
HETATM    1  N1  UNL     1      -0.176  -0.978  -0.358  1.00  0.00    -0.354 N 
ATOM      2  H1  UNL     1       0.109  -1.800  -0.890  1.00  0.00     0.166 HD
HETATM    3  C6  UNL     1      -1.402  -0.781  -0.461  1.00  0.00     0.143 A 
HETATM    4  N2  UNL     1      -2.109  -1.668  -1.236  1.00  0.00    -0.175 N 
ATOM      5  H2  UNL     1      -1.639  -2.446  -1.699  1.00  0.00     0.186 HD
HETATM    6  C7  UNL     1      -3.420  -1.489  -1.369  1.00  0.00     0.677 A 
HETATM    7  N4  UNL     1      -4.085  -0.480  -0.779  1.00  0.00    -0.195 N 
ATOM      8  H4  UNL     1      -5.092  -0.400  -0.922  1.00  0.00     0.184 HD
HETATM    9  C8  UNL     1      -3.460   0.427  -0.005  1.00  0.00     0.047 A 
HETATM   10  C9  UNL     1      -4.169   1.544   0.654  1.00  0.00     0.070 C 
HETATM   11  C10 UNL     1      -2.086   0.251   0.142  1.00  0.00     0.111 A 
HETATM   12  C11 UNL     1      -1.431   1.229   0.972  1.00  0.00     0.105 C 
HETATM   13  N5  UNL     1      -0.925   2.028   1.645  1.00  0.00    -0.191 NA
ENDROOT
BRANCH   1  14
HETATM   14  C5  UNL     1       0.925  -0.387   0.284  1.00  0.00     0.062 C 
BRANCH  14  15
HETATM   15  C4  UNL     1       2.189  -1.141  -0.122  1.00  0.00     0.044 C 
BRANCH  15  16
HETATM   16  C3  UNL     1       3.432  -0.599   0.514  1.00  0.00     0.005 C 
BRANCH  16  17
HETATM   17  C2  UNL     1       3.615   0.833   0.113  1.00  0.00    -0.004 C 
HETATM   18  C1  UNL     1       4.871   1.436   0.725  1.00  0.00     0.005 C 
ENDBRANCH  16  17
ENDBRANCH  15  16
ENDBRANCH  14  15
ENDBRANCH   1  14
BRANCH   6  19
HETATM   19  N3  UNL     1      -4.138  -2.310  -2.099  1.00  0.00    -0.234 N 
ATOM     20  H32 UNL     1      -3.634  -3.075  -2.547  1.00  0.00     0.174 HD
ATOM     21  H31 UNL     1      -5.144  -2.173  -2.201  1.00  0.00     0.174 HD
ENDBRANCH   6  19
TORSDOF 5
