REMARK  4 active torsions:
REMARK  status: ('A' for Active; 'I' for Inactive)
REMARK    1  A    between atoms: C2_2  and  C3_3 
REMARK    2  A    between atoms: C3_3  and  N1_4 
REMARK    3  A    between atoms: C5_9  and  N3_10 
REMARK    4  A    between atoms: C6_15  and  C7_16 
ROOT
HETATM    1  N1  UNL     1       2.381  -0.412  -0.609  1.00  0.00    -0.351 N 
ATOM      2  H1  UNL     1       3.018  -1.167  -0.356  1.00  0.00     0.166 HD
HETATM    3  C4  UNL     1       1.297  -0.827  -0.297  1.00  0.00     0.143 A 
HETATM    4  N2  UNL     1       1.187  -2.075   0.264  1.00  0.00    -0.175 N 
ATOM      5  H2  UNL     1       2.041  -2.616   0.399  1.00  0.00     0.186 HD
HETATM    6  C5  UNL     1       0.035  -2.621   0.642  1.00  0.00     0.677 A 
HETATM    7  N4  UNL     1      -1.128  -1.929   0.475  1.00  0.00    -0.194 N 
ATOM      8  H4  UNL     1      -2.011  -2.349   0.764  1.00  0.00     0.184 HD
HETATM    9  C6  UNL     1      -1.122  -0.703  -0.065  1.00  0.00     0.055 A 
HETATM   10  C11 UNL     1       0.115  -0.161  -0.450  1.00  0.00     0.112 A 
HETATM   11  C12 UNL     1       0.068   1.167  -1.009  1.00  0.00     0.105 C 
HETATM   12  N5  UNL     1       0.007   2.237  -1.444  1.00  0.00    -0.191 NA
ENDROOT
BRANCH   9  13
HETATM   13  C7  UNL     1      -2.372   0.060  -0.296  1.00  0.00     0.042 A 
HETATM   14  C8  UNL     1      -3.594  -0.452   0.474  1.00  0.00     0.016 A 
HETATM   15  C9  UNL     1      -3.026   0.914   0.685  1.00  0.00    -0.008 A 
HETATM   16  C10 UNL     1      -3.747   2.128   0.090  1.00  0.00     0.011 C 
ENDBRANCH   9  13
BRANCH   1  17
HETATM   17  C3  UNL     1       3.199   0.553  -1.129  1.00  0.00     0.089 C 
BRANCH  17  18
HETATM   18  C2  UNL     1       3.879   1.256   0.035  1.00  0.00     0.007 C 
HETATM   19  C1  UNL     1       5.191   1.282   0.175  1.00  0.00     0.012 C 
ENDBRANCH  17  18
ENDBRANCH   1  17
BRANCH   6  20
HETATM   20  N3  UNL     1      -0.052  -3.817   1.177  1.00  0.00    -0.234 N 
ATOM     21  H32 UNL     1       0.818  -4.335   1.302  1.00  0.00     0.174 HD
ATOM     22  H31 UNL     1      -0.936  -4.236   1.467  1.00  0.00     0.174 HD
ENDBRANCH   6  20
TORSDOF 4
