REMARK  5 active torsions:
REMARK  status: ('A' for Active; 'I' for Inactive)
REMARK    1  A    between atoms: N3_8  and  C3_10 
REMARK    2  A    between atoms: C7_14  and  S1_15 
REMARK    3  A    between atoms: S1_15  and  C8_16 
REMARK    4  A    between atoms: C8_16  and  C9_17 
REMARK    5  A    between atoms: C9_17  and  N4_18 
ROOT
HETATM    1  N1  UNL     1      -0.006  -3.798   1.324  1.00  0.00    -0.371 N 
ATOM      2  H11 UNL     1       0.758  -4.368   1.688  1.00  0.00     0.159 HD
ATOM      3  H12 UNL     1      -0.816  -4.417   1.334  1.00  0.00     0.159 HD
HETATM    4  C1  UNL     1       0.056  -2.571   0.942  1.00  0.00     0.175 C 
HETATM    5  N2  UNL     1      -1.016  -1.771   0.431  1.00  0.00    -0.316 N 
ATOM      6  H2  UNL     1      -1.978  -2.086   0.307  1.00  0.00     0.170 HD
HETATM    7  C2  UNL     1      -0.532  -0.466   0.122  1.00  0.00     0.113 C 
HETATM    8  N3  UNL     1      -1.236   0.600  -0.052  1.00  0.00    -0.373 N 
ATOM      9  H3  UNL     1      -0.787   1.489  -0.271  1.00  0.00     0.161 HD
HETATM   10  C7  UNL     1       0.967  -0.586   0.041  1.00  0.00     0.214 C 
HETATM   11  N5  UNL     1       1.192  -1.703   0.928  1.00  0.00    -0.342 N 
ATOM     12  H5  UNL     1       2.043  -1.852   1.470  1.00  0.00     0.164 HD
ENDROOT
BRANCH  10  13
HETATM   13  S1  UNL     1       1.683   0.949   0.645  1.00  0.00    -0.134 SA
BRANCH  13  14
HETATM   14  C8  UNL     1       3.480   0.930   0.598  1.00  0.00     0.103 C 
BRANCH  14  15
HETATM   15  C9  UNL     1       3.943   0.877  -0.842  1.00  0.00     0.239 C 
BRANCH  15  16
HETATM   16  N4  UNL     1       5.381   0.860  -0.956  1.00  0.00    -0.079 N 
ATOM     17  H43 UNL     1       5.798   1.650  -0.464  1.00  0.00     0.274 HD
ATOM     18  H42 UNL     1       5.784   0.098  -0.412  1.00  0.00     0.274 HD
ATOM     19  H41 UNL     1       5.693   0.824  -1.926  1.00  0.00     0.274 HD
ENDBRANCH  15  16
ENDBRANCH  14  15
ENDBRANCH  13  14
ENDBRANCH  10  13
BRANCH   8  20
HETATM   20  C3  UNL     1      -2.655   0.512   0.067  1.00  0.00     0.082 C 
HETATM   21  C4  UNL     1      -3.401   0.255  -1.249  1.00  0.00     0.025 C 
HETATM   22  C5  UNL     1      -4.523   1.115  -0.649  1.00  0.00     0.004 C 
HETATM   23  C6  UNL     1      -3.409   1.822   0.134  1.00  0.00     0.025 C 
ENDBRANCH   8  20
TORSDOF 5
