REMARK  13 active torsions:
REMARK  status: ('A' for Active; 'I' for Inactive)
REMARK    1  A    between atoms: N1_1  and  C1_4 
REMARK    2  A    between atoms: C2_10  and  S1_11 
REMARK    3  A    between atoms: S1_11  and  C3_12 
REMARK    4  A    between atoms: N7_22  and  C8_23 
REMARK    5  A    between atoms: C8_23  and  C9_24 
REMARK       I    between atoms: C9_24  and  N8_26 
REMARK    6  A    between atoms: N9_29  and  C11_30 
REMARK    7  A    between atoms: N11_34  and  C13_36 
REMARK    8  A    between atoms: C13_36  and  C14_37 
REMARK    9  A    between atoms: C14_37  and  N12_38 
REMARK   10  A    between atoms: C19_49  and  C20_50 
REMARK   11  A    between atoms: C20_50  and  O5_51 
REMARK   12  A    between atoms: C21_53  and  O6_54 
REMARK   13  A    between atoms: C23_57  and  C24_58 
ROOT
HETATM    1  C9  UNL     1       2.397   0.786  -1.069  1.00  0.00     0.248 C 
HETATM    2  O2  UNL     1       2.237  -0.193  -1.833  1.00  0.00    -0.271 OA
HETATM    3  N8  UNL     1       1.236   1.444  -0.534  1.00  0.00    -0.253 N 
HETATM    4  C10 UNL     1      -0.118   1.114  -0.797  1.00  0.00     0.334 C 
HETATM    5  O3  UNL     1      -0.535   0.290  -1.656  1.00  0.00    -0.246 OA
HETATM    6  N9  UNL     1      -0.967   1.861   0.066  1.00  0.00    -0.280 N 
HETATM    7  C22 UNL     1      -0.106   2.478   1.046  1.00  0.00     0.170 C 
HETATM    8  C23 UNL     1       1.227   2.566   0.360  1.00  0.00     0.205 C 
ENDROOT
BRANCH   6   9
HETATM    9  C11 UNL     1      -2.370   1.958  -0.029  1.00  0.00     0.161 C 
HETATM   10  N10 UNL     1      -3.101   0.821   0.164  1.00  0.00    -0.173 N 
HETATM   11  C12 UNL     1      -4.424   0.606   0.222  1.00  0.00     0.682 C 
ATOM     12  H10 UNL     1      -2.537  -0.020   0.287  1.00  0.00     0.186 HD
HETATM   13  N11 UNL     1      -4.898  -0.575   0.332  1.00  0.00    -0.224 N 
HETATM   14  N14 UNL     1      -5.426   1.538   0.175  1.00  0.00    -0.156 N 
ATOM     15  H11 UNL     1      -5.915  -0.646   0.368  1.00  0.00     0.177 HD
HETATM   16  C18 UNL     1      -5.345   2.872   0.056  1.00  0.00     0.270 C 
ATOM     17  H14 UNL     1      -6.372   1.163   0.240  1.00  0.00     0.187 HD
HETATM   18  O4  UNL     1      -6.408   3.492  -0.101  1.00  0.00    -0.267 OA
HETATM   19  C19 UNL     1      -4.189   3.644   0.090  1.00  0.00     0.070 C 
HETATM   20  C21 UNL     1      -2.932   3.205  -0.316  1.00  0.00     0.124 C 
BRANCH  13  21
HETATM   21  C13 UNL     1      -4.185  -1.804   0.410  1.00  0.00     0.168 C 
BRANCH  21  22
HETATM   22  C14 UNL     1      -5.034  -2.932   0.938  1.00  0.00     0.294 C 
BRANCH  22  23
HETATM   23  N12 UNL     1      -6.192  -3.219   0.147  1.00  0.00     0.117 N 
HETATM   24  C15 UNL     1      -7.185  -2.187   0.177  1.00  0.00     0.302 C 
HETATM   25  C16 UNL     1      -8.526  -2.915   0.091  1.00  0.00     0.264 C 
HETATM   26  N13 UNL     1      -8.225  -4.133   0.812  1.00  0.00    -0.047 N 
HETATM   27  C17 UNL     1      -6.829  -4.434   0.552  1.00  0.00     0.502 C 
ATOM     28 2H13 UNL     1      -8.448  -4.079   1.806  1.00  0.00     0.279 HD
ATOM     29 1H13 UNL     1      -8.853  -4.903   0.583  1.00  0.00     0.279 HD
ENDBRANCH  22  23
ENDBRANCH  21  22
ENDBRANCH  13  21
BRANCH  19  30
HETATM   30  C20 UNL     1      -4.317   5.028   0.584  1.00  0.00     0.211 C 
BRANCH  30  31
HETATM   31  O5  UNL     1      -3.084   5.647   0.598  1.00  0.00    -0.396 OA
ATOM     32  H5  UNL     1      -3.166   6.538   0.916  1.00  0.00     0.209 HD
ENDBRANCH  30  31
ENDBRANCH  19  30
BRANCH  20  33
HETATM   33  O6  UNL     1      -2.145   4.018  -1.055  1.00  0.00    -0.356 OA
ATOM     34  H6  UNL     1      -2.527   4.866  -1.250  1.00  0.00     0.218 HD
ENDBRANCH  20  33
ENDBRANCH   6   9
BRANCH   8  35
HETATM   35  C24 UNL     1       1.387   3.812  -0.440  1.00  0.00     0.256 C 
HETATM   36  N15 UNL     1       1.414   5.086   0.178  1.00  0.00    -0.060 NA
HETATM   37  O7  UNL     1       1.505   3.770  -1.690  1.00  0.00    -0.274 OA
ENDBRANCH   8  35
BRANCH   1  38
HETATM   38  C8  UNL     1       3.720   1.281  -0.706  1.00  0.00     0.251 C 
BRANCH  38  39
HETATM   39  N7  UNL     1       4.763   0.489  -1.336  1.00  0.00    -0.249 N 
HETATM   40  C5  UNL     1       5.386  -0.599  -0.835  1.00  0.00     0.149 A 
HETATM   41  N4  UNL     1       5.275  -1.281   0.333  1.00  0.00    -0.348 N 
HETATM   42  C6  UNL     1       6.319  -1.065  -1.735  1.00  0.00     0.092 A 
HETATM   43  C4  UNL     1       6.034  -2.358   0.604  1.00  0.00     0.108 A 
ATOM     44  H4  UNL     1       4.596  -0.968   1.026  1.00  0.00     0.167 HD
HETATM   45  C3  UNL     1       6.981  -2.859  -0.269  1.00  0.00     0.025 A 
HETATM   46  C7  UNL     1       7.116  -2.180  -1.475  1.00  0.00     0.054 A 
HETATM   47  N5  UNL     1       6.233  -0.219  -2.796  1.00  0.00    -0.280 N 
HETATM   48  N6  UNL     1       5.308   0.688  -2.535  1.00  0.00    -0.018 NA
ATOM     49  H5  UNL     1       6.789  -0.275  -3.649  1.00  0.00     0.184 HD
BRANCH  45  50
HETATM   50  S1  UNL     1       7.955  -4.293   0.160  1.00  0.00    -0.066 SA
BRANCH  50  51
HETATM   51  C2  UNL     1       9.442  -3.828   1.013  1.00  0.00     0.143 A 
HETATM   52  C1  UNL     1      10.671  -3.524   0.483  1.00  0.00     0.157 A 
HETATM   53  N2  UNL     1      11.485  -3.233   1.509  1.00  0.00    -0.223 N 
HETATM   54  O1  UNL     1      10.807  -3.346   2.639  1.00  0.00    -0.154 OA
ATOM     55  H2  UNL     1      12.467  -2.968   1.430  1.00  0.00     0.198 HD
HETATM   56  N3  UNL     1       9.571  -3.706   2.343  1.00  0.00    -0.231 N 
ATOM     57  H3  UNL     1       8.827  -3.867   3.022  1.00  0.00     0.197 HD
BRANCH  52  58
HETATM   58  N1  UNL     1      11.022  -3.509  -0.755  1.00  0.00    -0.382 N 
ATOM     59  H12 UNL     1      11.935  -3.283  -1.149  1.00  0.00     0.157 HD
ATOM     60  H11 UNL     1      10.403  -3.730  -1.535  1.00  0.00     0.157 HD
ENDBRANCH  52  58
ENDBRANCH  50  51
ENDBRANCH  45  50
ENDBRANCH  38  39
ENDBRANCH   1  38
TORSDOF 13
