REMARK  14 active torsions:
REMARK  status: ('A' for Active; 'I' for Inactive)
REMARK    1  A    between atoms: N1_2  and  S1_4 
REMARK    2  A    between atoms: S1_4  and  N2_7 
REMARK       I    between atoms: N2_7  and  C2_9 
REMARK       I    between atoms: C2_9  and  N3_11 
REMARK    3  A    between atoms: N3_11  and  N4_12 
REMARK    4  A    between atoms: C3_14  and  C4_15 
REMARK    5  A    between atoms: C3_14  and  C5_20 
REMARK    6  A    between atoms: C4_15  and  N5_16 
REMARK    7  A    between atoms: N6_22  and  C7_23 
REMARK    8  A    between atoms: C7_23  and  C8_24 
REMARK    9  A    between atoms: C9_27  and  N8_28 
REMARK   10  A    between atoms: C11_30  and  C12_31 
REMARK   11  A    between atoms: C12_31  and  N9_32 
REMARK   12  A    between atoms: N10_35  and  C15_36 
REMARK   13  A    between atoms: C16_39  and  O4_40 
REMARK   14  A    between atoms: C23_54  and  N15_55 
ROOT
HETATM    1  C8  UNL     1       1.006  -0.500   1.113  1.00  0.00     0.133 A 
HETATM    2  N7  UNL     1      -0.217  -0.337   0.584  1.00  0.00    -0.177 N 
ATOM      3  H7  UNL     1      -0.513   0.619   0.386  1.00  0.00     0.185 HD
HETATM    4  C9  UNL     1      -1.085  -1.318   0.292  1.00  0.00     0.705 A 
HETATM    5  N14 UNL     1      -0.692  -2.558   0.554  1.00  0.00    -0.022 N 
ATOM      6  H14 UNL     1      -1.311  -3.344   0.354  1.00  0.00     0.203 HD
HETATM    7  C23 UNL     1       0.554  -2.781   1.097  1.00  0.00     0.691 A 
HETATM    8  N16 UNL     1       1.376  -1.753   1.365  1.00  0.00    -0.178 N 
ATOM      9  H16 UNL     1       2.296  -1.935   1.767  1.00  0.00     0.185 HD
ENDROOT
BRANCH   1  10
HETATM   10  C7  UNL     1       1.825   0.726   1.322  1.00  0.00     0.227 C 
BRANCH  10  11
HETATM   11  N6  UNL     1       2.953   0.727   0.450  1.00  0.00    -0.280 N 
HETATM   12  C6  UNL     1       4.199   0.361   0.840  1.00  0.00     0.145 A 
HETATM   13  C5  UNL     1       5.046   0.439  -0.233  1.00  0.00     0.093 A 
HETATM   14  N18 UNL     1       4.276   0.858  -1.279  1.00  0.00    -0.283 N 
HETATM   15  N17 UNL     1       3.044   1.020  -0.837  1.00  0.00    -0.240 N 
ATOM     16  H18 UNL     1       4.597   1.018  -2.234  1.00  0.00     0.188 HD
ATOM     17  H17 UNL     1       2.262   1.331  -1.413  1.00  0.00     0.208 HD
BRANCH  13  18
HETATM   18  C3  UNL     1       6.488   0.260  -0.241  1.00  0.00     0.093 C 
HETATM   19  N4  UNL     1       7.172   0.195  -1.353  1.00  0.00    -0.231 N 
ATOM     20  H4  UNL     1       6.657   0.163  -2.233  1.00  0.00     0.202 HD
BRANCH  19  21
HETATM   21  N3  UNL     1       8.519   0.168  -1.405  1.00  0.00    -0.264 NA
HETATM   22  C2  UNL     1       9.863   0.142  -1.459  1.00  0.00     0.427 C 
HETATM   23  N2  UNL     1      10.659  -0.568  -0.452  1.00  0.00    -0.205 N 
HETATM   24  O3  UNL     1      10.582   0.716  -2.361  1.00  0.00    -0.227 OA
ATOM     25  H2  UNL     1      10.177  -1.062   0.299  1.00  0.00     0.186 HD
BRANCH  23  26
HETATM   26  S1  UNL     1      12.343  -0.595  -0.493  1.00  0.00     0.323 S 
HETATM   27  O1  UNL     1      12.958  -1.010   0.822  1.00  0.00    -0.182 OA
HETATM   28  O2  UNL     1      12.813  -1.643  -1.507  1.00  0.00    -0.182 OA
BRANCH  26  29
HETATM   29  N1  UNL     1      13.086   0.874  -0.961  1.00  0.00    -0.307 N 
HETATM   30  C1  UNL     1      12.894   1.910   0.026  1.00  0.00     0.161 C 
ATOM     31  H1  UNL     1      13.602   1.002  -1.832  1.00  0.00     0.173 HD
ENDBRANCH  26  29
ENDBRANCH  23  26
ENDBRANCH  19  21
BRANCH  18  32
HETATM   32  C4  UNL     1       7.215   0.303   1.037  1.00  0.00     0.291 C 
BRANCH  32  33
HETATM   33  N5  UNL     1       6.824  -0.809   1.876  1.00  0.00    -0.074 N 
ATOM     34  H53 UNL     1       5.814  -0.844   2.014  1.00  0.00     0.274 HD
ATOM     35  H52 UNL     1       6.943  -1.704   1.401  1.00  0.00     0.274 HD
ATOM     36  H51 UNL     1       7.328  -0.779   2.762  1.00  0.00     0.274 HD
ENDBRANCH  32  33
ENDBRANCH  18  32
ENDBRANCH  13  18
ENDBRANCH  10  11
ENDBRANCH   1  10
BRANCH   4  37
HETATM   37  N8  UNL     1      -2.363  -0.962  -0.265  1.00  0.00    -0.145 N 
HETATM   38  C10 UNL     1      -2.559   0.234  -0.893  1.00  0.00     0.143 A 
HETATM   39  C11 UNL     1      -3.878   0.352  -1.311  1.00  0.00     0.055 A 
HETATM   40  N13 UNL     1      -4.459  -0.766  -0.938  1.00  0.00    -0.346 N 
HETATM   41  C21 UNL     1      -3.538  -1.565  -0.301  1.00  0.00     0.101 A 
ATOM     42  H13 UNL     1      -5.438  -1.004  -1.096  1.00  0.00     0.167 HD
HETATM   43  C22 UNL     1      -3.872  -2.905   0.269  1.00  0.00     0.090 C 
BRANCH  39  44
HETATM   44  C12 UNL     1      -4.375   1.568  -2.009  1.00  0.00     0.332 C 
BRANCH  44  45
HETATM   45  N9  UNL     1      -5.498   2.184  -1.402  1.00  0.00     0.113 N 
HETATM   46  C13 UNL     1      -5.357   2.608  -0.045  1.00  0.00     0.294 C 
HETATM   47  C14 UNL     1      -6.587   2.107   0.712  1.00  0.00     0.157 C 
HETATM   48  N10 UNL     1      -7.309   1.324  -0.237  1.00  0.00    -0.335 N 
HETATM   49  C20 UNL     1      -6.744   1.515  -1.571  1.00  0.00     0.399 C 
BRANCH  48  50
HETATM   50  C15 UNL     1      -8.430   0.458  -0.065  1.00  0.00     0.176 A 
HETATM   51  N11 UNL     1      -8.266  -0.858  -0.169  1.00  0.00    -0.318 N 
HETATM   52  C16 UNL     1      -9.291  -1.744  -0.014  1.00  0.00     0.157 A 
ATOM     53  H11 UNL     1      -7.334  -1.220  -0.373  1.00  0.00     0.169 HD
HETATM   54  C17 UNL     1     -10.538  -1.199   0.262  1.00  0.00     0.149 A 
HETATM   55  N12 UNL     1     -10.738   0.100   0.373  1.00  0.00    -0.322 N 
HETATM   56  C18 UNL     1     -12.063   0.607   0.658  1.00  0.00     0.159 C 
HETATM   57  C19 UNL     1      -9.691   0.959   0.211  1.00  0.00     0.291 A 
HETATM   58  O5  UNL     1      -9.900   2.175   0.320  1.00  0.00    -0.264 OA
BRANCH  52  59
HETATM   59  O4  UNL     1      -9.086  -3.098  -0.127  1.00  0.00    -0.345 OA
ATOM     60  H4  UNL     1      -9.800  -3.715  -0.019  1.00  0.00     0.219 HD
ENDBRANCH  52  59
ENDBRANCH  48  50
ENDBRANCH  44  45
ENDBRANCH  39  44
ENDBRANCH   4  37
BRANCH   7  61
HETATM   61  N15 UNL     1       0.875  -3.996   1.336  1.00  0.00    -0.234 N 
ATOM     62 2H15 UNL     1       0.251  -4.777   1.132  1.00  0.00     0.174 HD
ATOM     63 1H15 UNL     1       1.798  -4.161   1.738  1.00  0.00     0.174 HD
ENDBRANCH   7  61
TORSDOF 14
