REMARK  20 active torsions:
REMARK  status: ('A' for Active; 'I' for Inactive)
REMARK    1  A    between atoms: O1_2  and  C2_3 
REMARK    2  A    between atoms: C2_3  and  O2_4 
REMARK    3  A    between atoms: O2_4  and  C3_5 
REMARK    4  A    between atoms: C4_7  and  N1_8 
REMARK    5  A    between atoms: C5_11  and  O6_12 
REMARK    6  A    between atoms: C5_11  and  O7_14 
REMARK    7  A    between atoms: O7_14  and  C6_15 
REMARK    8  A    between atoms: C7_16  and  C8_17 
REMARK    9  A    between atoms: C10_23  and  N3_24 
REMARK   10  A    between atoms: N3_24  and  C11_26 
REMARK   11  A    between atoms: C11_26  and  O11_27 
REMARK   12  A    between atoms: C11_26  and  C12_29 
REMARK   13  A    between atoms: C12_29  and  N4_30 
REMARK   14  A    between atoms: C12_29  and  C17_37 
REMARK   15  A    between atoms: N4_30  and  O12_32 
REMARK   16  A    between atoms: O12_32  and  C13_33 
REMARK   17  A    between atoms: C19_40  and  N5_41 
REMARK   18  A    between atoms: C22_49  and  O13_50 
REMARK   19  A    between atoms: C22_49  and  C23_52 
REMARK   20  A    between atoms: C23_52  and  O14_53 
ROOT
HETATM    1  C6  UNL     1      -1.962  -0.062  -0.416  1.00  0.00     0.093 C 
HETATM    2  C7  UNL     1      -0.741   0.514  -0.210  1.00  0.00     0.146 C 
HETATM    3  N2  UNL     1       0.329  -0.216   0.388  1.00  0.00    -0.291 N 
HETATM    4  C9  UNL     1       1.259  -0.186   1.479  1.00  0.00     0.251 C 
HETATM    5  O10 UNL     1       1.760   0.590   2.314  1.00  0.00    -0.271 OA
HETATM    6  C10 UNL     1       1.449  -1.661   1.223  1.00  0.00     0.210 C 
HETATM    7  C20 UNL     1       0.826  -1.506  -0.122  1.00  0.00     0.187 C 
HETATM    8  S2  UNL     1      -0.630  -2.479  -0.498  1.00  0.00    -0.134 SA
HETATM    9  C21 UNL     1      -2.054  -1.454   0.056  1.00  0.00     0.143 C 
ENDROOT
BRANCH   6  10
HETATM   10  N3  UNL     1       2.849  -2.078   1.239  1.00  0.00    -0.353 N 
ATOM     11  H3  UNL     1       3.083  -2.984   1.646  1.00  0.00     0.162 HD
BRANCH  10  12
HETATM   12  C11 UNL     1       3.885  -1.290   0.721  1.00  0.00     0.168 C 
BRANCH  12  13
HETATM   13  O11 UNL     1       3.431  -0.169   0.204  1.00  0.00    -0.344 OA
ATOM     14  H11 UNL     1       4.134   0.365  -0.147  1.00  0.00     0.219 HD
ENDBRANCH  12  13
BRANCH  12  15
HETATM   15  C12 UNL     1       5.283  -1.452   0.649  1.00  0.00     0.132 C 
BRANCH  15  16
HETATM   16  N4  UNL     1       5.949  -0.499   0.013  1.00  0.00    -0.259 N 
ATOM     17  H4  UNL     1       6.961  -0.611  -0.044  1.00  0.00     0.194 HD
BRANCH  16  18
HETATM   18  O12 UNL     1       5.437   0.589  -0.560  1.00  0.00    -0.270 OA
BRANCH  18  19
HETATM   19  C13 UNL     1       5.931   1.908  -0.431  1.00  0.00     0.078 C 
HETATM   20  C14 UNL     1       7.350   2.046  -0.919  1.00  0.00     0.048 C 
HETATM   21  C15 UNL     1       5.921   2.370   1.024  1.00  0.00     0.048 C 
HETATM   22  C16 UNL     1       5.084   2.891  -1.209  1.00  0.00     0.048 C 
ENDBRANCH  18  19
ENDBRANCH  16  18
ENDBRANCH  15  16
BRANCH  15  23
HETATM   23  C17 UNL     1       6.110  -2.587   1.173  1.00  0.00     0.074 A 
HETATM   24  C18 UNL     1       5.646  -3.470   2.099  1.00  0.00     0.085 A 
HETATM   25  S1  UNL     1       6.956  -4.588   2.245  1.00  0.00    -0.064 SA
HETATM   26  C19 UNL     1       8.001  -3.868   1.132  1.00  0.00     0.142 A 
HETATM   27  N6  UNL     1       7.327  -2.815   0.692  1.00  0.00    -0.335 N 
ATOM     28  H6  UNL     1       7.736  -2.191  -0.004  1.00  0.00     0.168 HD
BRANCH  26  29
HETATM   29  N5  UNL     1       9.220  -4.234   0.753  1.00  0.00    -0.380 N 
ATOM     30  H52 UNL     1       9.739  -5.044   1.092  1.00  0.00     0.158 HD
ATOM     31  H51 UNL     1       9.851  -3.799   0.080  1.00  0.00     0.158 HD
ENDBRANCH  26  29
ENDBRANCH  15  23
ENDBRANCH  12  15
ENDBRANCH  10  12
ENDBRANCH   6  10
BRANCH   2  32
HETATM   32  C8  UNL     1      -0.473   1.884  -0.604  1.00  0.00     0.229 C 
HETATM   33  O8  UNL     1       0.633   2.443  -0.409  1.00  0.00    -0.643 OA
HETATM   34  O9  UNL     1      -1.440   2.632  -1.220  1.00  0.00    -0.643 OA
ENDBRANCH   2  32
BRANCH   1  35
HETATM   35  O7  UNL     1      -2.927   0.680  -1.008  1.00  0.00    -0.307 OA
BRANCH  35  36
HETATM   36  C5  UNL     1      -4.275   0.861  -0.778  1.00  0.00     0.257 C 
HETATM   37  C4  UNL     1      -4.821   1.889  -1.761  1.00  0.00     0.360 C 
HETATM   38  O3  UNL     1      -6.114   1.550  -2.093  1.00  0.00    -0.322 OA
HETATM   39  C3  UNL     1      -6.495   0.482  -1.338  1.00  0.00     0.307 C 
HETATM   40  C22 UNL     1      -5.188  -0.300  -1.082  1.00  0.00     0.190 C 
BRANCH  37  41
HETATM   41  N1  UNL     1      -4.904   3.218  -1.178  1.00  0.00    -0.118 N 
HETATM   42  O4  UNL     1      -4.358   4.168  -1.751  1.00  0.00    -0.534 OA
HETATM   43  O5  UNL     1      -5.587   3.441  -0.017  1.00  0.00    -0.534 OA
ENDBRANCH  37  41
BRANCH  39  44
HETATM   44  O2  UNL     1      -6.960   0.902  -0.107  1.00  0.00    -0.334 OA
BRANCH  44  45
HETATM   45  C2  UNL     1      -8.220   0.384   0.182  1.00  0.00     0.340 C 
BRANCH  45  46
HETATM   46  O1  UNL     1      -8.629   0.840   1.416  1.00  0.00    -0.372 OA
HETATM   47  C1  UNL     1      -7.725   0.423   2.382  1.00  0.00     0.204 C 
ENDBRANCH  45  46
ENDBRANCH  44  45
ENDBRANCH  39  44
BRANCH  40  48
HETATM   48  O13 UNL     1      -5.469  -1.122  -0.020  1.00  0.00    -0.378 OA
ATOM     49  H13 UNL     1      -4.665  -1.603   0.137  1.00  0.00     0.211 HD
ENDBRANCH  40  48
BRANCH  40  50
HETATM   50  C23 UNL     1      -4.866  -0.974  -2.375  1.00  0.00     0.213 C 
BRANCH  50  51
HETATM   51  O14 UNL     1      -5.922  -1.770  -2.818  1.00  0.00    -0.398 OA
ATOM     52  H14 UNL     1      -5.717  -2.199  -3.641  1.00  0.00     0.209 HD
ENDBRANCH  50  51
ENDBRANCH  40  50
BRANCH  36  53
HETATM   53  O6  UNL     1      -4.540   1.364   0.508  1.00  0.00    -0.359 OA
ATOM     54  H6  UNL     1      -4.200   0.723   1.121  1.00  0.00     0.213 HD
ENDBRANCH  36  53
ENDBRANCH  35  36
ENDBRANCH   1  35
TORSDOF 20
