REMARK  16 active torsions:
REMARK  status: ('A' for Active; 'I' for Inactive)
REMARK    1  A    between atoms: N1_1  and  C1_4 
REMARK    2  A    between atoms: C2_9  and  S1_10 
REMARK    3  A    between atoms: S1_10  and  C3_11 
REMARK    4  A    between atoms: C3_11  and  C4_12 
REMARK       I    between atoms: C4_12  and  N4_14 
REMARK    5  A    between atoms: N4_14  and  N5_16 
REMARK    6  A    between atoms: C8_21  and  C9_22 
REMARK    7  A    between atoms: C9_22  and  S2_23 
REMARK    8  A    between atoms: S2_23  and  C10_24 
REMARK    9  A    between atoms: C11_30  and  S4_31 
REMARK   10  A    between atoms: S4_31  and  N8_34 
REMARK   11  A    between atoms: C13_36  and  O4_37 
REMARK   12  A    between atoms: C13_36  and  C14_39 
REMARK   13  A    between atoms: C15_42  and  C16_43 
REMARK   14  A    between atoms: C16_43  and  N9_44 
REMARK   15  A    between atoms: C16_43  and  C17_48 
REMARK       I    between atoms: C17_48  and  N10_50 
REMARK   16  A    between atoms: N10_50  and  N11_52 
ROOT
HETATM    1  N5  UNL     1       3.730  -0.551   0.892  1.00  0.00    -0.306 N 
ATOM      2  H5  UNL     1       4.120  -1.065   1.682  1.00  0.00     0.186 HD
HETATM    3  C5  UNL     1       2.482  -0.269   0.952  1.00  0.00     0.004 C 
HETATM    4  C6  UNL     1       1.705  -0.695   2.133  1.00  0.00     0.054 C 
HETATM    5  C7  UNL     1       0.501   0.260   2.154  1.00  0.00     0.011 C 
HETATM    6  C8  UNL     1      -0.344  -0.193   0.932  1.00  0.00     0.002 C 
HETATM    7  C15 UNL     1       0.384   0.176  -0.327  1.00  0.00     0.035 C 
HETATM    8  C18 UNL     1       1.851   0.463  -0.136  1.00  0.00     0.061 C 
ENDROOT
BRANCH   6   9
HETATM    9  C9  UNL     1      -1.634   0.616   1.092  1.00  0.00     0.086 C 
BRANCH   9  10
HETATM   10  S2  UNL     1      -2.870   0.282  -0.143  1.00  0.00    -0.108 SA
BRANCH  10  11
HETATM   11  C10 UNL     1      -3.653  -1.348   0.073  1.00  0.00     0.117 A 
HETATM   12  N6  UNL     1      -3.081  -2.424  -0.472  1.00  0.00    -0.304 N 
HETATM   13  S3  UNL     1      -4.103  -3.683  -0.052  1.00  0.00     0.069 SA
ATOM     14  H6  UNL     1      -2.221  -2.469  -1.018  1.00  0.00     0.176 HD
HETATM   15  N7  UNL     1      -5.246  -2.814   0.812  1.00  0.00    -0.300 N 
HETATM   16  C11 UNL     1      -4.799  -1.554   0.751  1.00  0.00     0.185 A 
ATOM     17  H7  UNL     1      -6.085  -3.163   1.275  1.00  0.00     0.176 HD
BRANCH  16  18
HETATM   18  S4  UNL     1      -5.774  -0.252   1.520  1.00  0.00     0.265 S 
HETATM   19  O2  UNL     1      -4.791   0.878   1.842  1.00  0.00    -0.204 OA
HETATM   20  O3  UNL     1      -6.254  -0.738   2.834  1.00  0.00    -0.204 OA
BRANCH  18  21
HETATM   21  N8  UNL     1      -6.941   0.320   0.489  1.00  0.00    -0.156 NA
HETATM   22  C12 UNL     1      -8.016  -0.430  -0.070  1.00  0.00     0.179 A 
HETATM   23  C13 UNL     1      -8.217   0.859   0.730  1.00  0.00     0.231 A 
BRANCH  23  24
HETATM   24  O4  UNL     1      -8.570   2.028  -0.027  1.00  0.00    -0.364 OA
ATOM     25  H4  UNL     1      -9.432   2.392   0.136  1.00  0.00     0.212 HD
ENDBRANCH  23  24
BRANCH  23  26
HETATM   26  C14 UNL     1      -9.046   0.705   1.909  1.00  0.00     0.228 C 
HETATM   27  O5  UNL     1      -8.959  -0.262   2.679  1.00  0.00    -0.645 OA
HETATM   28  O6  UNL     1     -10.015   1.676   2.239  1.00  0.00    -0.645 OA
ENDBRANCH  23  26
ENDBRANCH  18  21
ENDBRANCH  16  18
ENDBRANCH  10  11
ENDBRANCH   9  10
ENDBRANCH   6   9
BRANCH   7  29
HETATM   29  C16 UNL     1       0.133  -0.738  -1.499  1.00  0.00     0.281 C 
BRANCH  29  30
HETATM   30  N9  UNL     1       0.512  -2.098  -1.243  1.00  0.00    -0.066 N 
ATOM     31  H93 UNL     1       1.484  -2.154  -0.940  1.00  0.00     0.275 HD
ATOM     32  H92 UNL     1       0.055  -2.451  -0.402  1.00  0.00     0.275 HD
ATOM     33  H91 UNL     1       0.342  -2.717  -2.036  1.00  0.00     0.275 HD
ENDBRANCH  29  30
BRANCH  29  34
HETATM   34  C17 UNL     1       0.845  -0.272  -2.718  1.00  0.00     0.266 C 
HETATM   35  O7  UNL     1       1.609  -1.052  -3.326  1.00  0.00    -0.269 OA
HETATM   36  N10 UNL     1       0.692   1.040  -3.225  1.00  0.00    -0.275 N 
ATOM     37  H10 UNL     1       0.070   1.679  -2.731  1.00  0.00     0.189 HD
BRANCH  36  38
HETATM   38  N11 UNL     1       1.346   1.505  -4.363  1.00  0.00    -0.343 N 
ATOM     39 2H11 UNL     1       1.964   0.852  -4.845  1.00  0.00     0.176 HD
ATOM     40 1H11 UNL     1       1.236   2.451  -4.729  1.00  0.00     0.176 HD
ENDBRANCH  36  38
ENDBRANCH  29  34
ENDBRANCH   7  29
BRANCH   1  41
HETATM   41  N4  UNL     1       4.601  -0.233  -0.128  1.00  0.00    -0.270 N 
HETATM   42  C4  UNL     1       4.861  -1.132  -1.170  1.00  0.00     0.245 C 
HETATM   43  O1  UNL     1       4.298  -2.257  -1.195  1.00  0.00    -0.271 OA
ATOM     44  H4  UNL     1       5.065   0.675  -0.124  1.00  0.00     0.190 HD
BRANCH  42  45
HETATM   45  C3  UNL     1       5.787  -0.829  -2.273  1.00  0.00     0.186 C 
BRANCH  45  46
HETATM   46  S1  UNL     1       6.566   0.802  -2.102  1.00  0.00    -0.094 SA
BRANCH  46  47
HETATM   47  C2  UNL     1       7.659   0.794  -0.658  1.00  0.00     0.130 A 
HETATM   48  N3  UNL     1       8.412   1.769  -0.179  1.00  0.00    -0.286 N 
HETATM   49  N2  UNL     1       9.119   1.579   0.854  1.00  0.00    -0.279 N 
ATOM     50  H3  UNL     1       8.424   2.677  -0.643  1.00  0.00     0.188 HD
HETATM   51  C1  UNL     1       9.089   0.382   1.447  1.00  0.00     0.159 A 
ATOM     52  H2  UNL     1       9.702   2.328   1.228  1.00  0.00     0.189 HD
HETATM   53  S5  UNL     1       7.993  -0.471   0.451  1.00  0.00    -0.027 SA
BRANCH  51  54
HETATM   54  N1  UNL     1       9.741  -0.013   2.516  1.00  0.00    -0.379 N 
ATOM     55  H12 UNL     1      10.395   0.496   3.110  1.00  0.00     0.158 HD
ATOM     56  H11 UNL     1       9.718  -0.927   2.969  1.00  0.00     0.158 HD
ENDBRANCH  51  54
ENDBRANCH  46  47
ENDBRANCH  45  46
ENDBRANCH  42  45
ENDBRANCH   1  41
TORSDOF 16
