REMARK  4 active torsions:
REMARK  status: ('A' for Active; 'I' for Inactive)
REMARK    1  A    between atoms: C2_2  and  C3_3 
REMARK    2  A    between atoms: C3_3  and  C4_4 
REMARK    3  A    between atoms: C4_4  and  C5_5 
REMARK    4  A    between atoms: C5_5  and  C6_6 
ROOT
HETATM    1  C6  UNL     1       0.293  -0.095   0.582  1.00  0.00     0.056 C 
HETATM    2  C7  UNL     1       0.727  -1.163  -0.378  1.00  0.00     0.040 C 
HETATM    3  C8  UNL     1       1.406  -2.335   0.299  1.00  0.00     0.233 C 
HETATM    4  N1  UNL     1       2.713  -1.930   0.713  1.00  0.00    -0.074 N 
ATOM      5  H11 UNL     1       3.116  -2.572   1.395  1.00  0.00     0.277 HD
ATOM      6  H12 UNL     1       2.689  -1.093   1.296  1.00  0.00     0.277 HD
HETATM    7  C9  UNL     1       3.551  -1.765  -0.432  1.00  0.00     0.253 C 
HETATM    8  C10 UNL     1       4.063  -0.349  -0.468  1.00  0.00     0.166 C 
HETATM    9  N2  UNL     1       3.399   0.419   0.531  1.00  0.00    -0.334 N 
ATOM     10  H2  UNL     1       3.648   0.364   1.519  1.00  0.00     0.180 HD
HETATM   11  N3  UNL     1       2.383   1.252   0.061  1.00  0.00    -0.293 N 
ATOM     12  H3  UNL     1       2.651   1.975  -0.607  1.00  0.00     0.188 HD
HETATM   13  C11 UNL     1       1.025   1.189   0.421  1.00  0.00     0.095 C 
HETATM   14  N4  UNL     1       0.314   2.271   0.641  1.00  0.00    -0.383 N 
ATOM     15  H4  UNL     1      -0.668   2.178   0.901  1.00  0.00     0.160 HD
HETATM   16  C12 UNL     1       0.895   3.597   0.522  1.00  0.00     0.147 C 
ENDROOT
BRANCH   1  17
HETATM   17  C5  UNL     1      -1.200   0.080   0.633  1.00  0.00     0.012 C 
BRANCH  17  18
HETATM   18  C4  UNL     1      -1.820   0.454  -0.663  1.00  0.00     0.001 C 
BRANCH  18  19
HETATM   19  C3  UNL     1      -3.310   0.602  -0.481  1.00  0.00    -0.000 C 
BRANCH  19  20
HETATM   20  C2  UNL     1      -3.980  -0.660  -0.005  1.00  0.00    -0.005 C 
HETATM   21  C1  UNL     1      -5.486  -0.417   0.147  1.00  0.00     0.005 C 
ENDBRANCH  19  20
ENDBRANCH  18  19
ENDBRANCH  17  18
ENDBRANCH   1  17
TORSDOF 4
