REMARK  8 active torsions:
REMARK  status: ('A' for Active; 'I' for Inactive)
REMARK    1  A    between atoms: C3_3  and  C4_4 
REMARK    2  A    between atoms: C5_5  and  C6_6 
REMARK    3  A    between atoms: C6_6  and  C7_7 
REMARK    4  A    between atoms: C7_7  and  C8_8 
REMARK    5  A    between atoms: C8_8  and  C9_9 
REMARK    6  A    between atoms: C9_9  and  C10_10 
REMARK    7  A    between atoms: C11_13  and  N2_14 
REMARK    8  A    between atoms: C12_19  and  N4_20 
ROOT
HETATM    1  C1  UNL     1       8.192   0.214  -0.726  1.00  0.00     0.113 C 
HETATM    2  C2  UNL     1       6.801   0.232  -0.270  1.00  0.00    -0.097 C 
HETATM    3  C3  UNL     1       5.641   0.256   0.091  1.00  0.00    -0.015 C 
ENDROOT
BRANCH   3   4
HETATM    4  C4  UNL     1       4.278   0.283   0.490  1.00  0.00    -0.015 C 
HETATM    5  C5  UNL     1       3.113   0.306   0.809  1.00  0.00    -0.092 C 
BRANCH   5   6
HETATM    6  C6  UNL     1       1.683   0.345   1.177  1.00  0.00     0.095 C 
BRANCH   6   7
HETATM    7  C7  UNL     1       0.884  -0.064  -0.038  1.00  0.00     0.012 C 
BRANCH   7   8
HETATM    8  C8  UNL     1      -0.583  -0.032   0.312  1.00  0.00     0.008 C 
BRANCH   8   9
HETATM    9  C9  UNL     1      -1.433  -0.435  -0.873  1.00  0.00     0.077 C 
BRANCH   9  10
HETATM   10  C10 UNL     1      -2.860  -0.389  -0.483  1.00  0.00     0.113 A 
HETATM   11  N1  UNL     1      -3.520  -1.438   0.037  1.00  0.00    -0.180 N 
HETATM   12  C11 UNL     1      -4.806  -1.381   0.383  1.00  0.00     0.691 A 
ATOM     13  H1  UNL     1      -3.016  -2.314   0.173  1.00  0.00     0.185 HD
HETATM   14  N3  UNL     1      -5.482  -0.251   0.216  1.00  0.00    -0.023 N 
HETATM   15  C12 UNL     1      -4.850   0.809  -0.300  1.00  0.00     0.691 A 
ATOM     16  H3  UNL     1      -6.466  -0.192   0.477  1.00  0.00     0.203 HD
HETATM   17  N5  UNL     1      -3.552   0.750  -0.648  1.00  0.00    -0.180 N 
ATOM     18  H5  UNL     1      -3.092   1.573  -1.038  1.00  0.00     0.185 HD
BRANCH  12  19
HETATM   19  N2  UNL     1      -5.386  -2.440   0.884  1.00  0.00    -0.234 N 
ATOM     20  H22 UNL     1      -4.867  -3.308   1.012  1.00  0.00     0.174 HD
ATOM     21  H21 UNL     1      -6.370  -2.396   1.149  1.00  0.00     0.174 HD
ENDBRANCH  12  19
BRANCH  15  22
HETATM   22  N4  UNL     1      -5.518   1.906  -0.459  1.00  0.00    -0.234 N 
ATOM     23  H42 UNL     1      -6.502   1.951  -0.195  1.00  0.00     0.174 HD
ATOM     24  H41 UNL     1      -5.036   2.714  -0.852  1.00  0.00     0.174 HD
ENDBRANCH  15  22
ENDBRANCH   9  10
ENDBRANCH   8   9
ENDBRANCH   7   8
ENDBRANCH   6   7
ENDBRANCH   5   6
ENDBRANCH   3   4
TORSDOF 8
