REMARK  5 active torsions:
REMARK  status: ('A' for Active; 'I' for Inactive)
REMARK    1  A    between atoms: O1_2  and  C2_3 
REMARK    2  A    between atoms: C2_3  and  C3_4 
REMARK    3  A    between atoms: C3_4  and  N1_5 
REMARK    4  A    between atoms: N1_5  and  C4_7 
REMARK    5  A    between atoms: C5_12  and  N4_13 
ROOT
HETATM    1  C4  UNL     1       2.185  -1.048   0.023  1.00  0.00     0.707 A 
HETATM    2  N2  UNL     1       2.901  -2.161  -0.282  1.00  0.00    -0.117 N 
ATOM      3  H2  UNL     1       2.499  -3.084  -0.448  1.00  0.00     0.206 HD
HETATM    4  N3  UNL     1       4.177  -1.883  -0.333  1.00  0.00    -0.118 N 
ATOM      5  H3  UNL     1       4.923  -2.546  -0.543  1.00  0.00     0.206 HD
HETATM    6  C5  UNL     1       4.341  -0.573  -0.062  1.00  0.00     0.705 A 
HETATM    7  N5  UNL     1       3.100  -0.074   0.155  1.00  0.00    -0.020 N 
ATOM      8  H5  UNL     1       2.892   0.898   0.385  1.00  0.00     0.203 HD
ENDROOT
BRANCH   1   9
HETATM    9  N1  UNL     1       0.910  -0.940   0.158  1.00  0.00    -0.221 N 
ATOM     10  H1  UNL     1       0.305  -1.752   0.034  1.00  0.00     0.177 HD
BRANCH   9  11
HETATM   11  C3  UNL     1       0.359   0.329   0.483  1.00  0.00     0.176 C 
BRANCH  11  12
HETATM   12  C2  UNL     1      -1.067   0.562   0.233  1.00  0.00     0.080 C 
HETATM   13  C6  UNL     1      -1.515   0.360  -1.194  1.00  0.00     0.040 C 
HETATM   14  C7  UNL     1      -3.013   0.659  -1.017  1.00  0.00     0.004 C 
HETATM   15  C8  UNL     1      -3.332  -0.199   0.187  1.00  0.00     0.007 C 
HETATM   16  C9  UNL     1      -2.017  -0.394   0.946  1.00  0.00     0.018 C 
HETATM   17  C10 UNL     1      -1.627  -1.823   0.838  1.00  0.00     0.013 C 
BRANCH  12  18
HETATM   18  O1  UNL     1      -1.471   1.841   0.597  1.00  0.00    -0.383 OA
HETATM   19  C1  UNL     1      -0.835   2.858  -0.065  1.00  0.00     0.202 C 
ENDBRANCH  12  18
ENDBRANCH  11  12
ENDBRANCH   9  11
ENDBRANCH   1   9
BRANCH   6  20
HETATM   20  N4  UNL     1       5.450   0.092  -0.015  1.00  0.00    -0.233 N 
ATOM     21  H42 UNL     1       6.384  -0.284  -0.178  1.00  0.00     0.174 HD
ATOM     22  H41 UNL     1       5.574   1.083   0.190  1.00  0.00     0.174 HD
ENDBRANCH   6  20
TORSDOF 5
