REMARK  12 active torsions:
REMARK  status: ('A' for Active; 'I' for Inactive)
REMARK    1  A    between atoms: O1_1  and  C1_3 
REMARK    2  A    between atoms: C1_3  and  C2_4 
REMARK    3  A    between atoms: C2_4  and  N1_5 
REMARK    4  A    between atoms: N1_5  and  C3_7 
REMARK    5  A    between atoms: C4_10  and  N3_11 
REMARK    6  A    between atoms: N3_11  and  C5_13 
REMARK    7  A    between atoms: C5_13  and  C6_14 
REMARK    8  A    between atoms: N7_25  and  C12_26 
REMARK    9  A    between atoms: C12_26  and  C13_27 
REMARK   10  A    between atoms: C13_27  and  O2_28 
REMARK   11  A    between atoms: C13_27  and  C14_30 
REMARK   12  A    between atoms: C14_30  and  O3_31 
ROOT
HETATM    1  C3  UNL     1       0.680   1.869   0.103  1.00  0.00     0.681 A 
HETATM    2  N2  UNL     1      -0.547   1.808  -0.438  1.00  0.00    -0.174 N 
ATOM      3  H2  UNL     1      -1.067   2.671  -0.596  1.00  0.00     0.186 HD
HETATM    4  C4  UNL     1      -1.114   0.613  -0.782  1.00  0.00     0.152 A 
HETATM    5  C11 UNL     1      -0.400  -0.534  -0.563  1.00  0.00     0.137 A 
HETATM    6  N5  UNL     1      -0.680  -1.806  -0.785  1.00  0.00    -0.277 N 
ATOM      7  H5  UNL     1      -1.551  -2.147  -1.191  1.00  0.00     0.184 HD
HETATM    8  N6  UNL     1       0.335  -2.583  -0.404  1.00  0.00    -0.018 NA
HETATM    9  N7  UNL     1       1.278  -1.779   0.071  1.00  0.00    -0.255 N 
HETATM   10  C15 UNL     1       0.852  -0.497  -0.013  1.00  0.00     0.168 A 
HETATM   11  N8  UNL     1       1.354   0.709   0.304  1.00  0.00    -0.173 N 
ATOM     12  H8  UNL     1       2.286   0.754   0.715  1.00  0.00     0.186 HD
ENDROOT
BRANCH   4  13
HETATM   13  N3  UNL     1      -2.260   0.632  -1.280  1.00  0.00    -0.349 N 
ATOM     14  H3  UNL     1      -2.645   1.572  -1.371  1.00  0.00     0.167 HD
BRANCH  13  15
HETATM   15  C5  UNL     1      -3.130  -0.371  -1.741  1.00  0.00     0.102 C 
BRANCH  15  16
HETATM   16  C6  UNL     1      -4.013  -0.958  -0.706  1.00  0.00    -0.005 A 
HETATM   17  C7  UNL     1      -4.023  -0.604   0.557  1.00  0.00     0.015 A 
HETATM   18  C8  UNL     1      -4.917  -1.217   1.544  1.00  0.00     0.018 A 
HETATM   19  C9  UNL     1      -5.736  -2.165   1.102  1.00  0.00     0.087 A 
HETATM   20  N4  UNL     1      -5.753  -2.573  -0.260  1.00  0.00    -0.374 N 
HETATM   21  C10 UNL     1      -4.943  -2.007  -1.117  1.00  0.00     0.100 A 
ATOM     22  H4  UNL     1      -6.394  -3.304  -0.568  1.00  0.00     0.164 HD
ENDBRANCH  15  16
ENDBRANCH  13  15
ENDBRANCH   4  13
BRANCH   1  23
HETATM   23  N1  UNL     1       1.263   2.956   0.445  1.00  0.00    -0.224 N 
ATOM     24  H1  UNL     1       2.197   2.877   0.846  1.00  0.00     0.177 HD
BRANCH  23  25
HETATM   25  C2  UNL     1       0.717   4.271   0.313  1.00  0.00     0.164 C 
BRANCH  25  26
HETATM   26  C1  UNL     1       1.548   5.185   1.227  1.00  0.00     0.184 C 
BRANCH  26  27
HETATM   27  O1  UNL     1       1.030   6.465   1.110  1.00  0.00    -0.399 OA
ATOM     28  H1  UNL     1       1.544   7.030   1.675  1.00  0.00     0.209 HD
ENDBRANCH  26  27
ENDBRANCH  25  26
ENDBRANCH  23  25
ENDBRANCH   1  23
BRANCH   9  29
HETATM   29  C12 UNL     1       2.564  -2.210   0.590  1.00  0.00     0.182 C 
BRANCH  29  30
HETATM   30  C13 UNL     1       3.526  -2.270  -0.570  1.00  0.00     0.161 C 
BRANCH  30  31
HETATM   31  O2  UNL     1       3.635  -1.014  -1.151  1.00  0.00    -0.392 OA
ATOM     32  H2  UNL     1       4.241  -1.052  -1.882  1.00  0.00     0.210 HD
ENDBRANCH  30  31
BRANCH  30  33
HETATM   33  C14 UNL     1       4.883  -2.687  -0.043  1.00  0.00     0.197 C 
BRANCH  33  34
HETATM   34  O3  UNL     1       4.755  -3.945   0.535  1.00  0.00    -0.398 OA
ATOM     35  H3  UNL     1       5.606  -4.207   0.866  1.00  0.00     0.209 HD
ENDBRANCH  33  34
ENDBRANCH  30  33
ENDBRANCH  29  30
ENDBRANCH   9  29
TORSDOF 12
