REMARK  11 active torsions:
REMARK  status: ('A' for Active; 'I' for Inactive)
REMARK    1  A    between atoms: O1_2  and  C2_3 
REMARK    2  A    between atoms: C2_3  and  C3_4 
REMARK    3  A    between atoms: C3_4  and  N1_5 
REMARK    4  A    between atoms: N1_5  and  C4_7 
REMARK    5  A    between atoms: C5_10  and  N3_11 
REMARK    6  A    between atoms: N3_11  and  C6_13 
REMARK    7  A    between atoms: C6_13  and  C7_14 
REMARK    8  A    between atoms: C7_14  and  O2_15 
REMARK    9  A    between atoms: C9_20  and  C10_21 
REMARK   10  A    between atoms: C10_21  and  C11_22 
REMARK   11  A    between atoms: C13_29  and  O4_30 
ROOT
HETATM    1  C4  UNL     1      -1.365   0.086   0.055  1.00  0.00     0.715 A 
HETATM    2  N2  UNL     1      -1.344   1.451   0.096  1.00  0.00    -0.021 N 
ATOM      3  H2  UNL     1      -2.226   1.962   0.083  1.00  0.00     0.203 HD
HETATM    4  C5  UNL     1      -0.186   2.140   0.153  1.00  0.00     0.694 A 
HETATM    5  N4  UNL     1       0.943   1.408   0.168  1.00  0.00    -0.173 N 
ATOM      6  H4  UNL     1       1.838   1.896   0.211  1.00  0.00     0.186 HD
HETATM    7  C8  UNL     1       0.949   0.055   0.129  1.00  0.00     0.172 A 
HETATM    8  C9  UNL     1       1.934  -0.909   0.132  1.00  0.00     0.030 A 
HETATM    9  C14 UNL     1       1.333  -2.170   0.076  1.00  0.00     0.123 A 
HETATM   10  N7  UNL     1       0.014  -1.922   0.041  1.00  0.00    -0.288 N 
ATOM     11  H7  UNL     1      -0.711  -2.639  -0.003  1.00  0.00     0.187 HD
HETATM   12  N8  UNL     1      -0.217  -0.613   0.072  1.00  0.00    -0.068 N 
ENDROOT
BRANCH   8  13
HETATM   13  C10 UNL     1       3.224  -0.708   0.180  1.00  0.00     0.051 C 
BRANCH  13  14
HETATM   14  C11 UNL     1       4.204  -1.799   0.179  1.00  0.00     0.088 A 
HETATM   15  N5  UNL     1       4.984  -2.221   1.189  1.00  0.00    -0.305 N 
HETATM   16  C12 UNL     1       5.730  -3.250   0.739  1.00  0.00     0.326 A 
ATOM     17  H5  UNL     1       5.007  -1.831   2.131  1.00  0.00     0.171 HD
HETATM   18  O3  UNL     1       6.591  -3.930   1.369  1.00  0.00    -0.247 OA
HETATM   19  N6  UNL     1       5.443  -3.505  -0.559  1.00  0.00    -0.287 N 
HETATM   20  C13 UNL     1       4.502  -2.610  -0.905  1.00  0.00     0.171 A 
ATOM     21  H6  UNL     1       5.855  -4.226  -1.151  1.00  0.00     0.172 HD
BRANCH  20  22
HETATM   22  O4  UNL     1       3.904  -2.501  -2.163  1.00  0.00    -0.344 OA
ATOM     23  H4  UNL     1       4.108  -3.057  -2.906  1.00  0.00     0.219 HD
ENDBRANCH  20  22
ENDBRANCH  13  14
ENDBRANCH   8  13
BRANCH   4  24
HETATM   24  N3  UNL     1      -0.173   3.430   0.192  1.00  0.00    -0.223 N 
ATOM     25  H3  UNL     1       0.735   3.893   0.235  1.00  0.00     0.177 HD
BRANCH  24  26
HETATM   26  C6  UNL     1      -1.336   4.254   0.179  1.00  0.00     0.164 C 
BRANCH  26  27
HETATM   27  C7  UNL     1      -1.015   5.695   0.586  1.00  0.00     0.184 C 
BRANCH  27  28
HETATM   28  O2  UNL     1      -0.091   6.185  -0.325  1.00  0.00    -0.399 OA
ATOM     29  H2  UNL     1       0.108   7.079  -0.073  1.00  0.00     0.209 HD
ENDBRANCH  27  28
ENDBRANCH  26  27
ENDBRANCH  24  26
ENDBRANCH   4  24
BRANCH   1  30
HETATM   30  N1  UNL     1      -2.458  -0.563   0.001  1.00  0.00    -0.222 N 
ATOM     31  H1  UNL     1      -2.375  -1.579  -0.026  1.00  0.00     0.177 HD
BRANCH  30  32
HETATM   32  C3  UNL     1      -3.775  -0.045  -0.026  1.00  0.00     0.164 C 
BRANCH  32  33
HETATM   33  C2  UNL     1      -4.805  -1.017   0.437  1.00  0.00     0.187 C 
BRANCH  33  34
HETATM   34  O1  UNL     1      -4.980  -2.178  -0.229  1.00  0.00    -0.394 OA
HETATM   35  C1  UNL     1      -3.902  -3.006  -0.282  1.00  0.00     0.201 C 
ENDBRANCH  33  34
ENDBRANCH  32  33
ENDBRANCH  30  32
ENDBRANCH   1  30
TORSDOF 11
