REMARK  10 active torsions:
REMARK  status: ('A' for Active; 'I' for Inactive)
REMARK    1  A    between atoms: N1_2  and  C2_3 
REMARK    2  A    between atoms: N1_2  and  C4_7 
REMARK    3  A    between atoms: C2_3  and  C3_4 
REMARK    4  A    between atoms: C3_4  and  O1_5 
REMARK    5  A    between atoms: C4_7  and  C5_8 
REMARK    6  A    between atoms: C5_8  and  C6_9 
REMARK    7  A    between atoms: C6_9  and  N2_10 
REMARK    8  A    between atoms: C8_15  and  N4_16 
REMARK    9  A    between atoms: C11_24  and  N6_25 
REMARK   10  A    between atoms: C13_27  and  N7_28 
ROOT
HETATM    1  N2  UNL     1      -0.283  -1.250  -1.660  1.00  0.00    -0.297 N 
HETATM    2  C7  UNL     1      -0.821  -1.507  -2.864  1.00  0.00     0.328 A 
HETATM    3  O2  UNL     1      -1.934  -2.096  -2.927  1.00  0.00    -0.246 OA
HETATM    4  N3  UNL     1      -0.246  -1.177  -4.025  1.00  0.00    -0.293 N 
ATOM      5  H3  UNL     1      -0.706  -1.400  -4.907  1.00  0.00     0.172 HD
HETATM    6  C8  UNL     1       0.961  -0.539  -4.022  1.00  0.00     0.132 A 
HETATM    7  C9  UNL     1       1.549  -0.255  -2.814  1.00  0.00     0.106 A 
HETATM    8  N5  UNL     1       2.729   0.361  -2.696  1.00  0.00    -0.317 N 
ATOM      9  H5  UNL     1       3.219   0.640  -3.546  1.00  0.00     0.169 HD
HETATM   10  C10 UNL     1       3.300   0.630  -1.508  1.00  0.00     0.272 A 
HETATM   11  O3  UNL     1       4.427   1.218  -1.439  1.00  0.00    -0.266 OA
HETATM   12  C11 UNL     1       2.708   0.290  -0.306  1.00  0.00     0.101 A 
HETATM   13  C15 UNL     1       1.482  -0.350  -0.399  1.00  0.00     0.067 A 
HETATM   14  C16 UNL     1       0.916  -0.616  -1.624  1.00  0.00     0.071 A 
ENDROOT
BRANCH   1  15
HETATM   15  C6  UNL     1      -0.951  -1.634  -0.495  1.00  0.00     0.135 C 
BRANCH  15  16
HETATM   16  C5  UNL     1      -1.911  -0.510  -0.004  1.00  0.00     0.050 C 
BRANCH  16  17
HETATM   17  C4  UNL     1      -2.586  -0.952   1.204  1.00  0.00     0.273 C 
BRANCH  17  18
HETATM   18  N1  UNL     1      -3.512  -0.124   1.911  1.00  0.00     0.086 N 
HETATM   19  C1  UNL     1      -3.959  -1.057   3.007  1.00  0.00     0.310 C 
BRANCH  18  20
HETATM   20  C2  UNL     1      -4.728   0.197   1.215  1.00  0.00     0.297 C 
BRANCH  20  21
HETATM   21  C3  UNL     1      -4.518   1.482   0.449  1.00  0.00     0.194 C 
BRANCH  21  22
HETATM   22  O1  UNL     1      -4.214   2.438   1.471  1.00  0.00    -0.399 OA
ATOM     23  H1  UNL     1      -4.082   3.246   0.989  1.00  0.00     0.209 HD
ENDBRANCH  21  22
ENDBRANCH  20  21
ENDBRANCH  18  20
ENDBRANCH  17  18
ENDBRANCH  16  17
ENDBRANCH  15  16
ENDBRANCH   1  15
BRANCH   6  24
HETATM   24  N4  UNL     1       1.487  -0.235  -5.129  1.00  0.00    -0.383 N 
ATOM     25  H42 UNL     1       1.050  -0.446  -6.026  1.00  0.00     0.157 HD
ATOM     26  H41 UNL     1       2.389   0.242  -5.127  1.00  0.00     0.157 HD
ENDBRANCH   6  24
BRANCH  12  27
HETATM   27  N6  UNL     1       3.335   0.582   0.934  1.00  0.00    -0.372 N 
HETATM   28  C12 UNL     1       4.627   0.199   1.537  1.00  0.00     0.157 C 
HETATM   29  C13 UNL     1       4.610   1.592   2.169  1.00  0.00     0.219 C 
HETATM   30  C14 UNL     1       3.095   1.325   2.148  1.00  0.00     0.157 C 
BRANCH  29  31
HETATM   31  N7  UNL     1       5.133   1.648   3.510  1.00  0.00    -0.072 N 
ATOM     32  H73 UNL     1       4.646   0.981   4.109  1.00  0.00     0.274 HD
ATOM     33  H72 UNL     1       6.074   1.256   3.540  1.00  0.00     0.274 HD
ATOM     34  H71 UNL     1       5.122   2.577   3.931  1.00  0.00     0.274 HD
ENDBRANCH  29  31
ENDBRANCH  12  27
TORSDOF 10
