REMARK  13 active torsions:
REMARK  status: ('A' for Active; 'I' for Inactive)
REMARK    1  A    between atoms: N1_1  and  N2_4 
REMARK    2  A    between atoms: N2_4  and  C1_5 
REMARK    3  A    between atoms: C1_5  and  C2_6 
REMARK    4  A    between atoms: C2_6  and  N3_7 
REMARK    5  A    between atoms: N3_7  and  C3_10 
REMARK    6  A    between atoms: C3_10  and  C4_11 
REMARK    7  A    between atoms: C5_13  and  N4_14 
REMARK    8  A    between atoms: C8_19  and  N6_20 
REMARK    9  A    between atoms: N6_20  and  C9_22 
REMARK   10  A    between atoms: C9_22  and  C10_23 
REMARK   11  A    between atoms: C10_23  and  N7_24 
REMARK   12  A    between atoms: C13_34  and  O2_35 
REMARK   13  A    between atoms: C14_37  and  O3_38 
ROOT
HETATM    1  N4  UNL     1       0.163  -1.044   1.216  1.00  0.00    -0.297 N 
HETATM    2  C6  UNL     1       0.800  -0.858   2.410  1.00  0.00     0.188 A 
HETATM    3  N5  UNL     1       2.009  -0.289   2.206  1.00  0.00    -0.346 N 
ATOM      4  H5  UNL     1       2.687  -0.045   2.928  1.00  0.00     0.167 HD
HETATM    5  C7  UNL     1       2.157  -0.104   0.901  1.00  0.00     0.122 A 
HETATM    6  C8  UNL     1       3.224   0.453   0.174  1.00  0.00     0.137 A 
HETATM    7  N8  UNL     1       3.044   0.495  -1.154  1.00  0.00    -0.337 N 
ATOM      8  H8  UNL     1       3.782   0.887  -1.739  1.00  0.00     0.168 HD
HETATM    9  C11 UNL     1       1.902   0.029  -1.751  1.00  0.00     0.183 A 
HETATM   10  N9  UNL     1       0.906  -0.496  -1.023  1.00  0.00    -0.336 N 
ATOM     11  H9  UNL     1       0.064  -0.838  -1.485  1.00  0.00     0.168 HD
HETATM   12  C12 UNL     1       1.014  -0.572   0.308  1.00  0.00     0.142 A 
ENDROOT
BRANCH   1  13
HETATM   13  C5  UNL     1      -1.111  -1.633   1.099  1.00  0.00     0.262 C 
HETATM   14  O1  UNL     1      -2.200  -0.815   1.071  1.00  0.00    -0.354 OA
HETATM   15  C4  UNL     1      -3.290  -1.573   0.630  1.00  0.00     0.181 C 
HETATM   16  C14 UNL     1      -2.755  -2.883   0.104  1.00  0.00     0.181 C 
HETATM   17  C13 UNL     1      -1.299  -2.457  -0.169  1.00  0.00     0.198 C 
BRANCH  15  18
HETATM   18  C3  UNL     1      -3.885  -0.806  -0.566  1.00  0.00     0.267 C 
BRANCH  18  19
HETATM   19  N3  UNL     1      -4.209   0.508  -0.015  1.00  0.00    -0.067 N 
ATOM     20  H32 UNL     1      -3.457   0.863   0.576  1.00  0.00     0.277 HD
ATOM     21  H31 UNL     1      -4.945   0.449   0.688  1.00  0.00     0.277 HD
BRANCH  19  22
HETATM   22  C2  UNL     1      -4.553   1.456  -1.079  1.00  0.00     0.293 C 
BRANCH  22  23
HETATM   23  C1  UNL     1      -4.825   2.755  -0.439  1.00  0.00     0.208 C 
BRANCH  23  24
HETATM   24  N2  UNL     1      -5.261   3.721  -1.123  1.00  0.00    -0.348 NA
BRANCH  24  25
HETATM   25  N1  UNL     1      -5.955   4.495  -1.775  1.00  0.00    -0.281 N 
ATOM     26  H12 UNL     1      -6.785   3.909  -1.690  1.00  0.00     0.191 HD
ATOM     27  H11 UNL     1      -6.308   5.276  -2.328  1.00  0.00     0.191 HD
ENDBRANCH  24  25
ENDBRANCH  23  24
ENDBRANCH  22  23
ENDBRANCH  19  22
ENDBRANCH  18  19
ENDBRANCH  15  18
BRANCH  16  28
HETATM   28  O3  UNL     1      -2.700  -3.782   1.154  1.00  0.00    -0.390 OA
ATOM     29  H3  UNL     1      -2.363  -4.606   0.823  1.00  0.00     0.210 HD
ENDBRANCH  16  28
BRANCH  17  30
HETATM   30  O2  UNL     1      -0.448  -3.532  -0.184  1.00  0.00    -0.388 OA
ATOM     31  H2  UNL     1      -0.565  -4.046  -0.974  1.00  0.00     0.210 HD
ENDBRANCH  17  30
ENDBRANCH   1  13
BRANCH   6  32
HETATM   32  N6  UNL     1       4.208   0.825   0.783  1.00  0.00    -0.352 N 
ATOM     33  H6  UNL     1       4.031   0.637   1.770  1.00  0.00     0.166 HD
BRANCH  32  34
HETATM   34  C9  UNL     1       5.459   1.392   0.706  1.00  0.00     0.089 C 
BRANCH  34  35
HETATM   35  C10 UNL     1       5.836   2.244  -0.460  1.00  0.00     0.274 C 
BRANCH  35  36
HETATM   36  N7  UNL     1       7.239   2.668  -0.189  1.00  0.00    -0.075 N 
ATOM     37  H73 UNL     1       7.366   3.124   0.714  1.00  0.00     0.274 HD
ATOM     38  H72 UNL     1       7.880   1.893  -0.019  1.00  0.00     0.274 HD
ATOM     39  H71 UNL     1       7.497   3.250  -0.986  1.00  0.00     0.274 HD
ENDBRANCH  35  36
ENDBRANCH  34  35
ENDBRANCH  32  34
ENDBRANCH   6  32
TORSDOF 13
