REMARK  12 active torsions:
REMARK  status: ('A' for Active; 'I' for Inactive)
REMARK    1  A    between atoms: N1_2  and  C2_4 
REMARK    2  A    between atoms: C3_7  and  N3_8 
REMARK    3  A    between atoms: C4_13  and  N5_14 
REMARK    4  A    between atoms: N5_14  and  C5_16 
REMARK    5  A    between atoms: C5_16  and  C6_17 
REMARK    6  A    between atoms: C5_16  and  C7_24 
REMARK    7  A    between atoms: C6_17  and  N6_18 
REMARK    8  A    between atoms: N6_18  and  N7_20 
REMARK    9  A    between atoms: N7_20  and  N8_21 
REMARK   10  A    between atoms: C7_24  and  O1_25 
REMARK   11  A    between atoms: O1_25  and  S1_26 
REMARK   12  A    between atoms: S1_26  and  N9_27 
ROOT
HETATM    1  N5  UNL     1       0.523  -0.438  -0.168  1.00  0.00    -0.217 N 
ATOM      2  H5  UNL     1       1.080  -0.800  -0.942  1.00  0.00     0.178 HD
ENDROOT
BRANCH   1   3
HETATM    3  C4  UNL     1      -0.727  -0.401  -0.355  1.00  0.00     0.707 A 
HETATM    4  N4  UNL     1      -1.228  -0.828  -1.527  1.00  0.00    -0.022 N 
HETATM    5  C3  UNL     1      -2.549  -0.819  -1.800  1.00  0.00     0.705 A 
ATOM      6  H4  UNL     1      -0.583  -1.173  -2.238  1.00  0.00     0.203 HD
HETATM    7  N2  UNL     1      -3.383  -0.360  -0.849  1.00  0.00    -0.022 N 
HETATM    8  C2  UNL     1      -2.927   0.077   0.337  1.00  0.00     0.706 A 
ATOM      9  H2  UNL     1      -4.386  -0.343  -1.033  1.00  0.00     0.203 HD
HETATM   10  N10 UNL     1      -1.596   0.049   0.566  1.00  0.00    -0.022 N 
ATOM     11  H10 UNL     1      -1.241   0.379   1.463  1.00  0.00     0.203 HD
BRANCH   5  12
HETATM   12  N3  UNL     1      -3.018  -1.231  -2.926  1.00  0.00    -0.234 N 
ATOM     13  H32 UNL     1      -4.017  -1.224  -3.132  1.00  0.00     0.174 HD
ATOM     14  H31 UNL     1      -2.386  -1.579  -3.647  1.00  0.00     0.174 HD
ENDBRANCH   5  12
BRANCH   8  15
HETATM   15  N1  UNL     1      -3.770   0.505   1.209  1.00  0.00    -0.229 N 
HETATM   16  C1  UNL     1      -5.178   0.515   0.918  1.00  0.00     0.165 C 
ATOM     17  H1  UNL     1      -3.437   0.840   2.113  1.00  0.00     0.177 HD
ENDBRANCH   8  15
ENDBRANCH   1   3
BRANCH   1  18
HETATM   18  C5  UNL     1       1.247  -0.038   0.987  1.00  0.00     0.144 C 
BRANCH  18  19
HETATM   19  C6  UNL     1       1.524  -1.155   1.963  1.00  0.00     0.183 C 
BRANCH  19  20
HETATM   20  N6  UNL     1       2.304  -2.216   1.358  1.00  0.00    -0.251 N 
ATOM     21  H6  UNL     1       3.192  -2.507   1.765  1.00  0.00     0.197 HD
BRANCH  20  22
HETATM   22  N7  UNL     1       1.873  -2.754   0.348  1.00  0.00    -0.248 NA
BRANCH  22  23
HETATM   23  N8  UNL     1       1.686  -3.469  -0.636  1.00  0.00    -0.261 N 
ATOM     24  H82 UNL     1       2.533  -4.009  -0.461  1.00  0.00     0.193 HD
ATOM     25  H81 UNL     1       1.326  -3.918  -1.478  1.00  0.00     0.193 HD
ENDBRANCH  22  23
ENDBRANCH  20  22
ENDBRANCH  19  20
ENDBRANCH  18  19
BRANCH  18  26
HETATM   26  C7  UNL     1       2.614   0.473   0.505  1.00  0.00     0.219 C 
BRANCH  26  27
HETATM   27  O1  UNL     1       2.341   1.539  -0.345  1.00  0.00    -0.258 OA
BRANCH  27  28
HETATM   28  S1  UNL     1       3.710   2.239  -0.980  1.00  0.00     0.355 S 
HETATM   29  O2  UNL     1       3.593   2.202  -2.477  1.00  0.00    -0.176 OA
HETATM   30  O3  UNL     1       3.846   3.657  -0.471  1.00  0.00    -0.176 OA
BRANCH  28  31
HETATM   31  N9  UNL     1       5.093   1.288  -0.492  1.00  0.00    -0.306 N 
ATOM     32  H92 UNL     1       5.051   0.448   0.085  1.00  0.00     0.171 HD
ATOM     33  H91 UNL     1       5.932   1.717  -0.881  1.00  0.00     0.171 HD
ENDBRANCH  28  31
ENDBRANCH  27  28
ENDBRANCH  26  27
ENDBRANCH  18  26
ENDBRANCH   1  18
TORSDOF 12
