REMARK  7 active torsions:
REMARK  status: ('A' for Active; 'I' for Inactive)
REMARK       I    between atoms: C1_4  and  N3_6 
REMARK    1  A    between atoms: N3_6  and  C2_8 
REMARK    2  A    between atoms: C2_8  and  C3_9 
REMARK    3  A    between atoms: C3_9  and  C4_10 
REMARK    4  A    between atoms: C4_10  and  C5_11 
REMARK    5  A    between atoms: C5_11  and  N4_12 
REMARK    6  A    between atoms: C5_11  and  C7_21 
REMARK    7  A    between atoms: N4_12  and  C6_14 
REMARK       I    between atoms: C7_21  and  N9_23 
ROOT
HETATM    1  C5  UNL     1      -0.207   1.148  -0.252  1.00  0.00     0.192 C 
ENDROOT
BRANCH   1   2
HETATM    2  C4  UNL     1       0.944   0.175  -0.189  1.00  0.00     0.037 C 
BRANCH   2   3
HETATM    3  C3  UNL     1       1.492  -0.037   1.175  1.00  0.00     0.022 C 
BRANCH   3   4
HETATM    4  C2  UNL     1       2.645  -1.020   1.183  1.00  0.00     0.122 C 
BRANCH   4   5
HETATM    5  N3  UNL     1       3.740  -0.560   0.352  1.00  0.00    -0.365 N 
HETATM    6  C1  UNL     1       4.887  -1.390   0.271  1.00  0.00     0.181 C 
HETATM    7  N1  UNL     1       4.796  -2.641  -0.085  1.00  0.00    -0.374 N 
HETATM    8  N2  UNL     1       6.191  -0.909   0.570  1.00  0.00    -0.064 NA
ATOM      9  H12 UNL     1       5.621  -3.238  -0.143  1.00  0.00     0.158 HD
ATOM     10  H11 UNL     1       3.860  -2.986  -0.300  1.00  0.00     0.158 HD
ATOM     11  H3  UNL     1       3.688   0.324  -0.154  1.00  0.00     0.162 HD
ENDBRANCH   4   5
ENDBRANCH   3   4
ENDBRANCH   2   3
ENDBRANCH   1   2
BRANCH   1  12
HETATM   12  N4  UNL     1       0.193   2.458   0.228  1.00  0.00    -0.211 N 
ATOM     13  H4  UNL     1       0.958   2.491   0.902  1.00  0.00     0.178 HD
BRANCH  12  14
HETATM   14  C6  UNL     1      -0.318   3.556  -0.112  1.00  0.00     0.704 A 
HETATM   15  N5  UNL     1       0.043   4.765   0.323  1.00  0.00    -0.117 N 
HETATM   16  N6  UNL     1      -0.716   5.696  -0.250  1.00  0.00     0.006 NA
ATOM     17  H5  UNL     1       0.789   4.948   0.994  1.00  0.00     0.202 HD
HETATM   18  N7  UNL     1      -1.576   5.068  -1.064  1.00  0.00     0.006 NA
HETATM   19  N8  UNL     1      -1.320   3.763  -0.969  1.00  0.00    -0.117 N 
ATOM     20  H8  UNL     1      -1.817   3.031  -1.476  1.00  0.00     0.202 HD
ENDBRANCH  12  14
ENDBRANCH   1  12
BRANCH   1  21
HETATM   21  C7  UNL     1      -1.369   0.726   0.550  1.00  0.00     0.243 C 
HETATM   22  O1  UNL     1      -1.722   1.389   1.550  1.00  0.00    -0.271 OA
HETATM   23  N9  UNL     1      -2.134  -0.418   0.245  1.00  0.00    -0.347 N 
HETATM   24  C8  UNL     1      -1.889  -1.294  -0.875  1.00  0.00     0.153 C 
HETATM   25  C11 UNL     1      -3.276  -0.801   1.088  1.00  0.00     0.153 C 
HETATM   26  C9  UNL     1      -3.170  -1.797  -1.496  1.00  0.00     0.252 C 
HETATM   27  N10 UNL     1      -4.042  -2.442  -0.557  1.00  0.00    -0.072 N 
HETATM   28  C10 UNL     1      -3.684  -2.208   0.818  1.00  0.00     0.252 C 
ATOM     29 2H10 UNL     1      -5.013  -2.178  -0.727  1.00  0.00     0.277 HD
ATOM     30 1H10 UNL     1      -4.101  -3.442  -0.749  1.00  0.00     0.277 HD
ENDBRANCH   1  21
TORSDOF 7
