REMARK  11 active torsions:
REMARK  status: ('A' for Active; 'I' for Inactive)
REMARK       I    between atoms: C2_2  and  N1_4 
REMARK    1  A    between atoms: N1_4  and  C3_6 
REMARK    2  A    between atoms: C4_7  and  C5_8 
REMARK    3  A    between atoms: C5_8  and  O2_9 
REMARK    4  A    between atoms: C5_8  and  N2_11 
REMARK    5  A    between atoms: N2_11  and  O3_13 
REMARK    6  A    between atoms: C6_15  and  C7_16 
REMARK    7  A    between atoms: N5_21  and  C8_22 
REMARK    8  A    between atoms: C8_22  and  S1_23 
REMARK    9  A    between atoms: S1_23  and  C9_24 
REMARK   10  A    between atoms: C10_27  and  N7_28 
REMARK   11  A    between atoms: C11_33  and  N9_34 
ROOT
HETATM    1  C7  UNL     1       0.126  -0.384  -1.050  1.00  0.00     0.167 A 
HETATM    2  N3  UNL     1       0.935  -1.253  -0.475  1.00  0.00    -0.267 N 
ATOM      3  H3  UNL     1       0.682  -1.827   0.330  1.00  0.00     0.190 HD
HETATM    4  N4  UNL     1       2.096  -1.287  -1.063  1.00  0.00    -0.224 N 
ATOM      5  H4  UNL     1       2.881  -1.881  -0.796  1.00  0.00     0.210 HD
HETATM    6  N5  UNL     1       2.088  -0.412  -2.077  1.00  0.00    -0.208 N 
HETATM    7  N11 UNL     1       0.895   0.135  -2.070  1.00  0.00    -0.264 N 
ATOM      8  H11 UNL     1       0.580   0.847  -2.729  1.00  0.00     0.190 HD
ENDROOT
BRANCH   1   9
HETATM    9  C6  UNL     1      -1.249   0.025  -0.778  1.00  0.00     0.113 A 
HETATM   10  C4  UNL     1      -2.171  -0.286   0.159  1.00  0.00     0.094 A 
HETATM   11  C3  UNL     1      -3.339   0.512  -0.079  1.00  0.00     0.141 A 
HETATM   12  N13 UNL     1      -3.061   1.245  -1.131  1.00  0.00    -0.280 N 
HETATM   13  N12 UNL     1      -1.857   0.980  -1.552  1.00  0.00    -0.293 N 
HETATM   14  C12 UNL     1      -3.892   2.219  -1.816  1.00  0.00     0.179 C 
ATOM     15  H12 UNL     1      -1.420   1.428  -2.358  1.00  0.00     0.187 HD
BRANCH  10  16
HETATM   16  C5  UNL     1      -2.034  -1.212   1.265  1.00  0.00     0.176 C 
BRANCH  16  17
HETATM   17  O2  UNL     1      -2.292  -0.644   2.535  1.00  0.00    -0.344 OA
ATOM     18  H2  UNL     1      -2.202  -1.251   3.260  1.00  0.00     0.219 HD
ENDBRANCH  16  17
BRANCH  16  19
HETATM   19  N2  UNL     1      -1.172  -2.310   1.236  1.00  0.00    -0.247 N 
ATOM     20  H2  UNL     1      -0.309  -2.352   1.779  1.00  0.00     0.196 HD
BRANCH  19  21
HETATM   21  O3  UNL     1      -1.584  -3.321   0.419  1.00  0.00    -0.288 OA
ATOM     22  H3  UNL     1      -0.997  -4.068   0.399  1.00  0.00     0.244 HD
ENDBRANCH  19  21
ENDBRANCH  16  19
ENDBRANCH  10  16
BRANCH  11  23
HETATM   23  N1  UNL     1      -4.482   0.395   0.735  1.00  0.00    -0.311 N 
HETATM   24  C2  UNL     1      -5.690   1.053   0.804  1.00  0.00     0.219 C 
HETATM   25  C1  UNL     1      -6.717   0.589   1.835  1.00  0.00     0.117 C 
HETATM   26  O1  UNL     1      -6.083   1.997   0.134  1.00  0.00    -0.274 OA
ATOM     27  H1  UNL     1      -4.396  -0.345   1.432  1.00  0.00     0.170 HD
ENDBRANCH  11  23
ENDBRANCH   1   9
BRANCH   6  28
HETATM   28  C8  UNL     1       3.201  -0.163  -2.969  1.00  0.00     0.253 C 
BRANCH  28  29
HETATM   29  S1  UNL     1       4.288   1.142  -2.389  1.00  0.00    -0.069 SA
BRANCH  29  30
HETATM   30  C9  UNL     1       5.117   0.659  -0.896  1.00  0.00     0.176 A 
HETATM   31  N6  UNL     1       6.302   0.031  -0.888  1.00  0.00    -0.170 N 
HETATM   32  C10 UNL     1       6.911  -0.325   0.273  1.00  0.00     0.692 A 
ATOM     33  H6  UNL     1       6.757  -0.185  -1.775  1.00  0.00     0.186 HD
HETATM   34  N8  UNL     1       6.303  -0.036   1.439  1.00  0.00    -0.023 N 
HETATM   35  C11 UNL     1       5.126   0.588   1.459  1.00  0.00     0.692 A 
ATOM     36  H8  UNL     1       6.749  -0.298   2.318  1.00  0.00     0.203 HD
HETATM   37  N10 UNL     1       4.546   0.929   0.287  1.00  0.00    -0.170 N 
ATOM     38  H10 UNL     1       3.645   1.407   0.303  1.00  0.00     0.186 HD
BRANCH  32  39
HETATM   39  N7  UNL     1       8.044  -0.928   0.330  1.00  0.00    -0.234 N 
ATOM     40  H72 UNL     1       8.505  -1.147  -0.553  1.00  0.00     0.174 HD
ATOM     41  H71 UNL     1       8.501  -1.195   1.202  1.00  0.00     0.174 HD
ENDBRANCH  32  39
BRANCH  35  42
HETATM   42  N9  UNL     1       4.550   0.861   2.585  1.00  0.00    -0.234 N 
ATOM     43  H92 UNL     1       4.988   0.604   3.470  1.00  0.00     0.174 HD
ATOM     44  H91 UNL     1       3.649   1.339   2.600  1.00  0.00     0.174 HD
ENDBRANCH  35  42
ENDBRANCH  29  30
ENDBRANCH  28  29
ENDBRANCH   6  28
TORSDOF 11
