REMARK  9 active torsions:
REMARK  status: ('A' for Active; 'I' for Inactive)
REMARK    1  A    between atoms: N1_1  and  C1_4 
REMARK    2  A    between atoms: C2_7  and  C3_8 
REMARK       I    between atoms: C3_8  and  N3_10 
REMARK    3  A    between atoms: N3_10  and  C4_12 
REMARK    4  A    between atoms: C4_12  and  O2_13 
REMARK    5  A    between atoms: C7_20  and  N5_21 
REMARK    6  A    between atoms: C9_23  and  C10_24 
REMARK    7  A    between atoms: C10_24  and  O4_25 
REMARK    8  A    between atoms: C11_31  and  N8_32 
REMARK    9  A    between atoms: N8_32  and  C12_34 
ROOT
HETATM    1  C3  UNL     1      -0.660  -0.854  -0.171  1.00  0.00     0.273 C 
HETATM    2  O1  UNL     1      -0.345   0.320   0.058  1.00  0.00    -0.266 OA
HETATM    3  N3  UNL     1       0.344  -1.809  -0.354  1.00  0.00    -0.320 N 
ATOM      4  H3  UNL     1       0.053  -2.768  -0.541  1.00  0.00     0.166 HD
ENDROOT
BRANCH   1   5
HETATM    5  C2  UNL     1      -2.102  -1.218  -0.245  1.00  0.00     0.137 A 
HETATM    6  N2  UNL     1      -2.505  -2.448  -0.485  1.00  0.00    -0.330 N 
HETATM    7  C1  UNL     1      -3.806  -2.715  -0.540  1.00  0.00     0.144 A 
ATOM      8  H2  UNL     1      -1.822  -3.192  -0.628  1.00  0.00     0.168 HD
HETATM    9  S1  UNL     1      -4.530  -1.217  -0.250  1.00  0.00    -0.034 SA
HETATM   10  C11 UNL     1      -3.083  -0.270  -0.063  1.00  0.00     0.126 A 
BRANCH   7  11
HETATM   11  N1  UNL     1      -4.374  -3.887  -0.769  1.00  0.00    -0.380 N 
ATOM     12  H12 UNL     1      -3.937  -4.792  -0.944  1.00  0.00     0.158 HD
ATOM     13  H11 UNL     1      -5.372  -4.092  -0.811  1.00  0.00     0.158 HD
ENDBRANCH   7  11
BRANCH  10  14
HETATM   14  N8  UNL     1      -3.024   1.123   0.208  1.00  0.00    -0.182 N 
ATOM     15  H8  UNL     1      -2.127   1.599   0.302  1.00  0.00     0.185 HD
BRANCH  14  16
HETATM   16  C12 UNL     1      -4.253   1.844   0.346  1.00  0.00     0.696 A 
HETATM   17  N9  UNL     1      -4.303   2.857   1.122  1.00  0.00    -0.207 N 
HETATM   18  C13 UNL     1      -5.445   3.682   1.371  1.00  0.00     0.280 A 
ATOM     19  H9  UNL     1      -3.443   3.102   1.613  1.00  0.00     0.179 HD
HETATM   20  N10 UNL     1      -6.575   3.224   0.619  1.00  0.00    -0.303 N 
HETATM   21  N11 UNL     1      -6.489   2.126  -0.211  1.00  0.00    -0.231 N 
ATOM     22  H10 UNL     1      -7.462   3.721   0.699  1.00  0.00     0.183 HD
HETATM   23  N12 UNL     1      -5.427   1.475  -0.352  1.00  0.00    -0.118 N 
ATOM     24  H11 UNL     1      -7.318   1.833  -0.728  1.00  0.00     0.208 HD
ATOM     25  H12 UNL     1      -5.409   0.670  -0.978  1.00  0.00     0.207 HD
ENDBRANCH  14  16
ENDBRANCH  10  14
ENDBRANCH   1   5
BRANCH   3  26
HETATM   26  C4  UNL     1       1.758  -1.543  -0.299  1.00  0.00     0.182 C 
HETATM   27  C5  UNL     1       2.523  -2.801  -0.542  1.00  0.00     0.186 C 
HETATM   28  N4  UNL     1       3.625  -2.745   0.383  1.00  0.00    -0.354 N 
HETATM   29  C6  UNL     1       3.221  -1.930   1.460  1.00  0.00     0.247 C 
ATOM     30  H4  UNL     1       4.528  -3.208   0.279  1.00  0.00     0.162 HD
HETATM   31  O3  UNL     1       3.636  -2.024   2.657  1.00  0.00    -0.271 OA
HETATM   32  C7  UNL     1       2.226  -0.935   0.979  1.00  0.00     0.257 C 
BRANCH  26  33
HETATM   33  O2  UNL     1       2.042  -0.656  -1.352  1.00  0.00    -0.367 OA
ATOM     34  H2  UNL     1       2.975  -0.480  -1.316  1.00  0.00     0.212 HD
ENDBRANCH  26  33
BRANCH  32  35
HETATM   35  N5  UNL     1       2.965   0.297   0.735  1.00  0.00    -0.268 N 
HETATM   36  C8  UNL     1       4.034   0.341  -0.102  1.00  0.00     0.141 A 
HETATM   37  C9  UNL     1       4.525   1.630  -0.133  1.00  0.00     0.067 A 
HETATM   38  N6  UNL     1       3.729   2.330   0.694  1.00  0.00    -0.287 N 
HETATM   39  N7  UNL     1       2.802   1.501   1.199  1.00  0.00    -0.240 N 
ATOM     40  H6  UNL     1       3.815   3.325   0.903  1.00  0.00     0.188 HD
ATOM     41  H7  UNL     1       2.071   1.777   1.855  1.00  0.00     0.208 HD
BRANCH  37  42
HETATM   42  C10 UNL     1       5.693   2.082  -0.935  1.00  0.00     0.224 C 
BRANCH  42  43
HETATM   43  O4  UNL     1       5.933   3.430  -0.751  1.00  0.00    -0.395 OA
ATOM     44  H4  UNL     1       6.679   3.719  -1.263  1.00  0.00     0.209 HD
ENDBRANCH  42  43
ENDBRANCH  37  42
ENDBRANCH  32  35
ENDBRANCH   3  26
TORSDOF 9
