REMARK  11 active torsions:
REMARK  status: ('A' for Active; 'I' for Inactive)
REMARK    1  A    between atoms: O1_2  and  C2_3 
REMARK    2  A    between atoms: C2_3  and  O2_4 
REMARK    3  A    between atoms: C2_3  and  N1_6 
REMARK    4  A    between atoms: N1_6  and  O3_7 
REMARK    5  A    between atoms: N1_6  and  N2_9 
REMARK    6  A    between atoms: N3_10  and  O4_11 
REMARK    7  A    between atoms: O4_11  and  N4_12 
REMARK    8  A    between atoms: C3_16  and  N6_17 
REMARK    9  A    between atoms: C4_23  and  C6_25 
REMARK   10  A    between atoms: C9_29  and  O6_30 
REMARK   11  A    between atoms: C11_34  and  C12_35 
ROOT
HETATM    1  N2  UNL     1      -0.807  -0.488   0.237  1.00  0.00    -0.147 N 
HETATM    2  N3  UNL     1      -1.871  -1.033  -0.368  1.00  0.00    -0.053 N 
HETATM    3  N5  UNL     1      -1.822  -1.178  -1.736  1.00  0.00    -0.037 NA
HETATM    4  C3  UNL     1      -0.493  -1.471  -2.218  1.00  0.00     0.398 C 
HETATM    5  N7  UNL     1       0.399  -1.895  -1.182  1.00  0.00    -0.348 N 
ATOM      6  H7  UNL     1       0.934  -2.761  -1.255  1.00  0.00     0.159 HD
HETATM    7  C4  UNL     1       0.501  -1.042  -0.040  1.00  0.00     0.189 C 
HETATM    8  C5  UNL     1       0.860  -1.872   1.173  1.00  0.00     0.074 C 
ENDROOT
BRANCH   7   9
HETATM    9  C6  UNL     1       1.467   0.061  -0.140  1.00  0.00     0.125 A 
HETATM   10  O5  UNL     1       1.029   1.315   0.052  1.00  0.00    -0.311 OA
HETATM   11  C7  UNL     1       1.758   2.385   0.002  1.00  0.00     0.086 A 
HETATM   12  C8  UNL     1       1.216   3.756   0.224  1.00  0.00     0.079 C 
HETATM   13  C9  UNL     1       3.106   2.296  -0.269  1.00  0.00     0.147 A 
HETATM   14  C10 UNL     1       3.631   1.058  -0.478  1.00  0.00     0.227 A 
HETATM   15  O7  UNL     1       4.856   0.963  -0.725  1.00  0.00    -0.284 OA
HETATM   16  C11 UNL     1       2.784  -0.080  -0.411  1.00  0.00     0.127 A 
BRANCH  13  17
HETATM   17  O6  UNL     1       3.899   3.458  -0.323  1.00  0.00    -0.355 OA
ATOM     18  H6  UNL     1       4.828   3.397  -0.510  1.00  0.00     0.218 HD
ENDBRANCH  13  17
BRANCH  16  19
HETATM   19  C12 UNL     1       3.440  -1.308  -0.692  1.00  0.00     0.216 C 
HETATM   20  O8  UNL     1       2.975  -2.437  -0.762  1.00  0.00    -0.644 OA
HETATM   21  O9  UNL     1       4.846  -1.298  -0.939  1.00  0.00    -0.644 OA
ENDBRANCH  16  19
ENDBRANCH   7   9
BRANCH   1  22
HETATM   22  N1  UNL     1      -0.948   0.543   1.072  1.00  0.00    -0.012 NA
BRANCH  22  23
HETATM   23  C2  UNL     1      -2.202   1.272   0.792  1.00  0.00     0.390 C 
BRANCH  23  24
HETATM   24  O1  UNL     1      -3.275   0.468   1.088  1.00  0.00    -0.351 OA
HETATM   25  C1  UNL     1      -4.114   0.926   2.071  1.00  0.00     0.206 C 
ENDBRANCH  23  24
BRANCH  23  26
HETATM   26  O2  UNL     1      -2.243   1.786  -0.492  1.00  0.00    -0.356 OA
ATOM     27  H2  UNL     1      -1.501   2.342  -0.697  1.00  0.00     0.214 HD
ENDBRANCH  23  26
ENDBRANCH  22  23
BRANCH  22  28
HETATM   28  O3  UNL     1      -1.010   0.287   2.401  1.00  0.00    -0.188 OA
HETATM   29  S1  UNL     1      -0.510   1.575   3.382  1.00  0.00     0.120 SA
ENDBRANCH  22  28
ENDBRANCH   1  22
BRANCH   2  30
HETATM   30  O4  UNL     1      -2.398  -2.133   0.193  1.00  0.00    -0.127 OA
BRANCH  30  31
HETATM   31  N4  UNL     1      -3.106  -2.889  -0.671  1.00  0.00    -0.283 N 
ATOM     32  H42 UNL     1      -3.221  -2.636  -1.652  1.00  0.00     0.186 HD
ATOM     33  H41 UNL     1      -3.506  -3.725  -0.245  1.00  0.00     0.186 HD
ENDBRANCH  30  31
ENDBRANCH   2  30
BRANCH   4  34
HETATM   34  N6  UNL     1      -0.625  -2.567  -3.159  1.00  0.00    -0.043 N 
ATOM     35  H63 UNL     1      -1.100  -3.380  -2.767  1.00  0.00     0.278 HD
ATOM     36  H62 UNL     1      -1.292  -2.378  -3.907  1.00  0.00     0.278 HD
ATOM     37  H61 UNL     1       0.314  -2.774  -3.500  1.00  0.00     0.278 HD
ENDBRANCH   4  34
TORSDOF 11
