REMARK  10 active torsions:
REMARK  status: ('A' for Active; 'I' for Inactive)
REMARK    1  A    between atoms: N2_4  and  N3_6 
REMARK    2  A    between atoms: N3_6  and  C3_8 
REMARK    3  A    between atoms: C4_11  and  N5_12 
REMARK    4  A    between atoms: N5_12  and  C5_14 
REMARK    5  A    between atoms: C6_15  and  C7_16 
REMARK    6  A    between atoms: C7_16  and  N6_17 
REMARK    7  A    between atoms: C7_16  and  O1_21 
REMARK    8  A    between atoms: C8_24  and  S1_25 
REMARK    9  A    between atoms: C10_35  and  N9_36 
REMARK   10  A    between atoms: N9_36  and  O7_38 
ROOT
HETATM    1  N5  UNL     1       0.810  -0.879   1.509  1.00  0.00    -0.183 N 
ATOM      2  H5  UNL     1       0.548  -1.723   2.018  1.00  0.00     0.184 HD
ENDROOT
BRANCH   1   3
HETATM    3  C4  UNL     1      -0.234   0.026   1.137  1.00  0.00     0.696 A 
HETATM    4  N4  UNL     1      -1.448  -0.328   1.226  1.00  0.00    -0.185 N 
HETATM    5  C3  UNL     1      -2.613   0.460   0.893  1.00  0.00     0.336 A 
ATOM      6  H4  UNL     1      -1.622  -1.272   1.570  1.00  0.00     0.181 HD
HETATM    7  N10 UNL     1      -2.202   1.757   0.432  1.00  0.00    -0.183 N 
HETATM    8  C10 UNL     1      -1.003   2.192   0.315  1.00  0.00     0.717 A 
ATOM      9  H10 UNL     1      -2.947   2.402   0.169  1.00  0.00     0.181 HD
HETATM   10  N8  UNL     1       0.050   1.320   0.671  1.00  0.00    -0.021 N 
ATOM     11  H8  UNL     1       1.018   1.631   0.589  1.00  0.00     0.203 HD
BRANCH   5  12
HETATM   12  N3  UNL     1      -3.420  -0.183  -0.108  1.00  0.00    -0.293 N 
ATOM     13  H3  UNL     1      -3.581   0.298  -0.993  1.00  0.00     0.184 HD
BRANCH  12  14
HETATM   14  N2  UNL     1      -3.990  -1.440   0.086  1.00  0.00    -0.293 N 
HETATM   15  C2  UNL     1      -4.970  -1.865  -0.650  1.00  0.00     0.103 C 
HETATM   16  C1  UNL     1      -5.559  -1.078  -1.735  1.00  0.00     0.086 C 
HETATM   17  N1  UNL     1      -5.487  -3.160  -0.379  1.00  0.00    -0.087 NA
ATOM     18  H2  UNL     1      -3.627  -2.041   0.826  1.00  0.00     0.187 HD
ENDBRANCH  12  14
ENDBRANCH   5  12
BRANCH   8  19
HETATM   19  N9  UNL     1      -0.743   3.497  -0.155  1.00  0.00    -0.095 N 
HETATM   20  C11 UNL     1      -1.650   4.114  -1.077  1.00  0.00     0.205 C 
BRANCH  19  21
HETATM   21  O7  UNL     1       0.345   4.149   0.261  1.00  0.00    -0.274 OA
ATOM     22  H7  UNL     1       0.520   5.027  -0.055  1.00  0.00     0.245 HD
ENDBRANCH  19  21
ENDBRANCH   8  19
ENDBRANCH   1   3
BRANCH   1  23
HETATM   23  C5  UNL     1       2.166  -0.685   1.223  1.00  0.00     0.151 A 
HETATM   24  C6  UNL     1       2.829  -1.242   0.172  1.00  0.00     0.144 A 
HETATM   25  O2  UNL     1       4.137  -0.976  -0.025  1.00  0.00    -0.279 OA
HETATM   26  C8  UNL     1       4.816  -0.192   0.764  1.00  0.00     0.271 A 
HETATM   27  N7  UNL     1       4.213   0.386   1.819  1.00  0.00    -0.290 N 
HETATM   28  C9  UNL     1       2.911   0.156   2.062  1.00  0.00     0.278 A 
ATOM     29  H7  UNL     1       4.745   1.000   2.436  1.00  0.00     0.172 HD
HETATM   30  O6  UNL     1       2.363   0.699   3.047  1.00  0.00    -0.266 OA
BRANCH  24  31
HETATM   31  C7  UNL     1       2.163  -2.141  -0.776  1.00  0.00     0.377 C 
BRANCH  31  32
HETATM   32  N6  UNL     1       0.890  -1.695  -1.250  1.00  0.00    -0.047 N 
ATOM     33  H63 UNL     1       0.273  -1.497  -0.462  1.00  0.00     0.277 HD
ATOM     34  H62 UNL     1       0.973  -0.761  -1.652  1.00  0.00     0.277 HD
ATOM     35  H61 UNL     1       0.427  -2.320  -1.909  1.00  0.00     0.277 HD
ENDBRANCH  31  32
BRANCH  31  36
HETATM   36  O1  UNL     1       2.045  -3.412  -0.196  1.00  0.00    -0.365 OA
ATOM     37  H1  UNL     1       1.614  -3.994  -0.810  1.00  0.00     0.212 HD
ENDBRANCH  31  36
ENDBRANCH  24  31
BRANCH  26  38
HETATM   38  S1  UNL     1       6.514   0.081   0.409  1.00  0.00     0.180 S 
HETATM   39  O3  UNL     1       7.068  -1.172  -0.225  1.00  0.00    -0.589 OA
HETATM   40  O4  UNL     1       7.289   0.353   1.670  1.00  0.00    -0.589 OA
HETATM   41  O5  UNL     1       6.715   1.404  -0.605  1.00  0.00    -0.589 OA
ENDBRANCH  26  38
ENDBRANCH   1  23
TORSDOF 10
