REMARK  12 active torsions:
REMARK  status: ('A' for Active; 'I' for Inactive)
REMARK    1  A    between atoms: O1_2  and  C2_3 
REMARK    2  A    between atoms: C2_3  and  C3_5 
REMARK    3  A    between atoms: C4_6  and  O3_7 
REMARK    4  A    between atoms: O3_7  and  C5_8 
REMARK    5  A    between atoms: C8_12  and  N1_13 
REMARK       I    between atoms: N1_13  and  C9_15 
REMARK    6  A    between atoms: N4_20  and  N5_21 
REMARK    7  A    between atoms: N5_21  and  N6_22 
REMARK    8  A    between atoms: C10_26  and  C11_27 
REMARK    9  A    between atoms: C11_27  and  O7_28 
REMARK   10  A    between atoms: C11_27  and  C12_30 
REMARK   11  A    between atoms: C12_30  and  N7_31 
REMARK   12  A    between atoms: C13_35  and  O8_36 
ROOT
HETATM    1  C3  UNL     1      -1.577  -1.572   0.413  1.00  0.00     0.151 A 
HETATM    2  C4  UNL     1      -1.239  -0.574  -0.512  1.00  0.00     0.213 A 
HETATM    3  O6  UNL     1      -2.202   0.277  -0.803  1.00  0.00    -0.285 OA
HETATM    4  C10 UNL     1      -3.404   0.236  -0.290  1.00  0.00     0.123 A 
HETATM    5  C13 UNL     1      -3.777  -0.727   0.622  1.00  0.00     0.150 A 
HETATM    6  C14 UNL     1      -2.831  -1.662   0.985  1.00  0.00     0.228 A 
HETATM    7  O9  UNL     1      -3.105  -2.575   1.818  1.00  0.00    -0.284 OA
ENDROOT
BRANCH   2   8
HETATM    8  O3  UNL     1       0.007  -0.575  -1.013  1.00  0.00    -0.264 OA
BRANCH   8   9
HETATM    9  C5  UNL     1       1.198  -0.093  -0.602  1.00  0.00     0.216 A 
HETATM   10  C6  UNL     1       1.343   0.986   0.140  1.00  0.00     0.107 A 
HETATM   11  C7  UNL     1       0.160   1.798   0.606  1.00  0.00     0.081 C 
HETATM   12  O4  UNL     1       2.637   1.372   0.492  1.00  0.00    -0.279 OA
HETATM   13  C8  UNL     1       3.785   0.699   0.117  1.00  0.00     0.248 A 
HETATM   14  N3  UNL     1       3.615  -0.352  -0.608  1.00  0.00    -0.242 N 
HETATM   15  N4  UNL     1       2.376  -0.816  -1.009  1.00  0.00    -0.151 N 
ATOM     16  H3  UNL     1       4.442  -0.872  -0.903  1.00  0.00     0.192 HD
BRANCH  13  17
HETATM   17  N1  UNL     1       5.085   1.123   0.496  1.00  0.00    -0.275 N 
HETATM   18  C9  UNL     1       5.291   2.277   1.293  1.00  0.00     0.335 C 
HETATM   19  N2  UNL     1       6.576   2.708   1.675  1.00  0.00    -0.040 NA
HETATM   20  O5  UNL     1       4.293   2.928   1.663  1.00  0.00    -0.251 OA
ATOM     21  H1  UNL     1       5.893   0.583   0.187  1.00  0.00     0.173 HD
ENDBRANCH  13  17
BRANCH  15  22
HETATM   22  N5  UNL     1       2.313  -1.965  -1.793  1.00  0.00    -0.004 NA
BRANCH  22  23
HETATM   23  N6  UNL     1       2.989  -1.800  -3.012  1.00  0.00    -0.327 N 
ATOM     24  H62 UNL     1       3.464  -0.937  -3.277  1.00  0.00     0.174 HD
ATOM     25  H61 UNL     1       2.943  -2.642  -3.586  1.00  0.00     0.174 HD
ENDBRANCH  22  23
ENDBRANCH  15  22
ENDBRANCH   8   9
ENDBRANCH   2   8
BRANCH   1  26
HETATM   26  C2  UNL     1      -0.560  -2.533   0.768  1.00  0.00     0.302 C 
HETATM   27  O2  UNL     1       0.205  -2.284   1.751  1.00  0.00    -0.259 OA
BRANCH  26  28
HETATM   28  O1  UNL     1      -0.354  -3.726   0.106  1.00  0.00    -0.322 OA
HETATM   29  C1  UNL     1       0.660  -4.632   0.499  1.00  0.00     0.213 C 
ENDBRANCH  26  28
ENDBRANCH   1  26
BRANCH   4  30
HETATM   30  C11 UNL     1      -4.452   1.242  -0.669  1.00  0.00     0.203 C 
BRANCH  30  31
HETATM   31  O7  UNL     1      -4.947   1.911   0.446  1.00  0.00    -0.387 OA
ATOM     32  H7  UNL     1      -5.610   2.548   0.206  1.00  0.00     0.210 HD
ENDBRANCH  30  31
BRANCH  30  33
HETATM   33  C12 UNL     1      -3.876   2.226  -1.680  1.00  0.00     0.268 C 
BRANCH  33  34
HETATM   34  N7  UNL     1      -4.936   3.127  -2.088  1.00  0.00    -0.076 N 
ATOM     35  H73 UNL     1      -5.757   2.635  -2.441  1.00  0.00     0.274 HD
ATOM     36  H72 UNL     1      -5.384   3.591  -1.298  1.00  0.00     0.274 HD
ATOM     37  H71 UNL     1      -4.550   3.786  -2.765  1.00  0.00     0.274 HD
ENDBRANCH  33  34
ENDBRANCH  30  33
ENDBRANCH   4  30
BRANCH   5  38
HETATM   38  O8  UNL     1      -5.061  -0.762   1.162  1.00  0.00    -0.355 OA
ATOM     39  H8  UNL     1      -5.318  -1.426   1.791  1.00  0.00     0.218 HD
ENDBRANCH   5  38
TORSDOF 12
