REMARK  10 active torsions:
REMARK  status: ('A' for Active; 'I' for Inactive)
REMARK    1  A    between atoms: N1_1  and  C1_4 
REMARK    2  A    between atoms: C2_10  and  C3_11 
REMARK    3  A    between atoms: C4_14  and  N5_15 
REMARK    4  A    between atoms: C5_19  and  C6_20 
REMARK    5  A    between atoms: C6_20  and  C7_22 
REMARK    6  A    between atoms: C7_22  and  S1_23 
REMARK    7  A    between atoms: S1_23  and  C8_24 
REMARK    8  A    between atoms: C9_29  and  N10_30 
REMARK    9  A    between atoms: N11_33  and  N12_34 
REMARK   10  A    between atoms: C10_41  and  N15_42 
ROOT
HETATM    1  N5  UNL     1      -0.811   1.024   0.093  1.00  0.00    -0.003 N 
HETATM    2  N6  UNL     1      -0.694   2.338   0.168  1.00  0.00     0.018 NA
HETATM    3  N7  UNL     1       0.479   2.715  -0.307  1.00  0.00    -0.263 N 
ATOM      4  H7  UNL     1       0.822   3.674  -0.365  1.00  0.00     0.186 HD
HETATM    5  C5  UNL     1       1.139   1.617  -0.699  1.00  0.00     0.182 A 
HETATM    6  N13 UNL     1       0.298   0.583  -0.432  1.00  0.00    -0.247 N 
ATOM      7  H13 UNL     1       0.505  -0.399  -0.616  1.00  0.00     0.191 HD
ENDROOT
BRANCH   1   8
HETATM    8  C4  UNL     1      -1.919   0.193   0.496  1.00  0.00     0.719 A 
HETATM    9  N4  UNL     1      -3.116   0.367  -0.028  1.00  0.00    -0.184 N 
HETATM   10  C3  UNL     1      -4.224  -0.401   0.319  1.00  0.00     0.109 A 
ATOM     11  H4  UNL     1      -3.237   1.103  -0.724  1.00  0.00     0.184 HD
HETATM   12  C11 UNL     1      -4.075  -1.380   1.241  1.00  0.00     0.120 A 
HETATM   13  C10 UNL     1      -2.782  -1.558   1.797  1.00  0.00     0.141 A 
HETATM   14  N16 UNL     1      -5.044  -2.274   1.741  1.00  0.00    -0.096 NA
HETATM   15  N14 UNL     1      -1.774  -0.774   1.406  1.00  0.00    -0.172 N 
ATOM     16  H14 UNL     1      -0.853  -0.920   1.820  1.00  0.00     0.186 HD
BRANCH  10  17
HETATM   17  C2  UNL     1      -5.445  -0.053  -0.368  1.00  0.00     0.131 A 
HETATM   18  C1  UNL     1      -6.718  -0.480  -0.377  1.00  0.00     0.152 A 
HETATM   19  N2  UNL     1      -7.452   0.275  -1.279  1.00  0.00    -0.224 N 
HETATM   20  O1  UNL     1      -6.637   1.117  -1.781  1.00  0.00    -0.155 OA
ATOM     21  H2  UNL     1      -8.444   0.177  -1.497  1.00  0.00     0.198 HD
HETATM   22  N3  UNL     1      -5.456   0.983  -1.298  1.00  0.00    -0.236 N 
ATOM     23  H3  UNL     1      -4.648   1.549  -1.556  1.00  0.00     0.197 HD
BRANCH  18  24
HETATM   24  N1  UNL     1      -7.230  -1.410   0.296  1.00  0.00    -0.382 N 
ATOM     25  H12 UNL     1      -8.197  -1.734   0.289  1.00  0.00     0.157 HD
ATOM     26  H11 UNL     1      -6.690  -1.965   0.960  1.00  0.00     0.157 HD
ENDBRANCH  18  24
ENDBRANCH  10  17
BRANCH  13  27
HETATM   27  N15 UNL     1      -2.626  -2.487   2.678  1.00  0.00    -0.383 N 
ATOM     28 2H15 UNL     1      -1.696  -2.615   3.078  1.00  0.00     0.157 HD
ATOM     29 1H15 UNL     1      -3.396  -3.086   2.977  1.00  0.00     0.157 HD
ENDBRANCH  13  27
ENDBRANCH   1   8
BRANCH   5  30
HETATM   30  C6  UNL     1       2.454   1.478  -1.284  1.00  0.00     0.205 C 
HETATM   31  O2  UNL     1       3.139   2.508  -1.483  1.00  0.00    -0.288 OA
BRANCH  30  32
HETATM   32  C7  UNL     1       3.010   0.157  -1.653  1.00  0.00     0.169 C 
BRANCH  32  33
HETATM   33  S1  UNL     1       4.674   0.306  -2.358  1.00  0.00    -0.082 SA
BRANCH  33  34
HETATM   34  C8  UNL     1       5.846   0.886  -1.153  1.00  0.00     0.198 A 
HETATM   35  N8  UNL     1       6.118   2.184  -0.932  1.00  0.00    -0.263 N 
HETATM   36  N9  UNL     1       7.024   2.285   0.018  1.00  0.00    -0.129 N 
ATOM     37  H8  UNL     1       5.689   2.968  -1.424  1.00  0.00     0.189 HD
HETATM   38  C9  UNL     1       7.328   1.023   0.402  1.00  0.00     0.713 A 
ATOM     39  H9  UNL     1       7.420   3.147   0.392  1.00  0.00     0.205 HD
HETATM   40  N11 UNL     1       6.603   0.154  -0.318  1.00  0.00    -0.068 N 
BRANCH  38  41
HETATM   41  N10 UNL     1       8.175   0.677   1.313  1.00  0.00    -0.231 N 
ATOM     42 2H10 UNL     1       8.726   1.338   1.861  1.00  0.00     0.174 HD
ATOM     43 1H10 UNL     1       8.404  -0.274   1.602  1.00  0.00     0.174 HD
ENDBRANCH  38  41
BRANCH  40  44
HETATM   44  N12 UNL     1       6.621  -1.258  -0.226  1.00  0.00    -0.322 N 
ATOM     45 2H12 UNL     1       6.070  -1.919  -0.774  1.00  0.00     0.178 HD
ATOM     46 1H12 UNL     1       7.196  -1.814   0.408  1.00  0.00     0.178 HD
ENDBRANCH  40  44
ENDBRANCH  33  34
ENDBRANCH  32  33
ENDBRANCH  30  32
ENDBRANCH   5  30
TORSDOF 10
