REMARK  8 active torsions:
REMARK  status: ('A' for Active; 'I' for Inactive)
REMARK    1  A    between atoms: N2_3  and  C2_4 
REMARK    2  A    between atoms: N2_3  and  C7_18 
REMARK    3  A    between atoms: C11_28  and  N10_29 
REMARK    4  A    between atoms: N10_29  and  C12_31 
REMARK    5  A    between atoms: C12_31  and  N11_32 
REMARK    6  A    between atoms: C12_31  and  C14_37 
REMARK    7  A    between atoms: N11_32  and  O1_33 
REMARK    8  A    between atoms: O1_33  and  C13_34 
ROOT
HETATM    1  N1  UNL     1       1.222  -1.415  -3.240  1.00  0.00    -0.172 NA
HETATM    2  C1  UNL     1       1.155  -1.179  -2.084  1.00  0.00     0.186 C 
HETATM    3  N2  UNL     1       1.114  -0.896  -0.719  1.00  0.00    -0.260 N 
ENDROOT
BRANCH   3   4
HETATM    4  C2  UNL     1       2.009   0.143  -0.291  1.00  0.00     0.134 A 
HETATM    5  C3  UNL     1       1.664   1.459  -0.203  1.00  0.00     0.139 A 
HETATM    6  N3  UNL     1       2.559   2.395   0.178  1.00  0.00    -0.346 N 
HETATM    7  C4  UNL     1       3.818   1.967   0.470  1.00  0.00     0.148 A 
ATOM      8  H3  UNL     1       2.303   3.380   0.244  1.00  0.00     0.167 HD
HETATM    9  C5  UNL     1       4.184   0.650   0.388  1.00  0.00     0.163 A 
HETATM   10  N7  UNL     1       4.813   2.911   0.876  1.00  0.00    -0.358 N 
HETATM   11  N4  UNL     1       3.265  -0.270   0.003  1.00  0.00    -0.323 N 
HETATM   12  N5  UNL     1       5.517   0.277   0.704  1.00  0.00    -0.285 N 
ATOM     13  H4  UNL     1       3.515  -1.256  -0.064  1.00  0.00     0.169 HD
HETATM   14  N6  UNL     1       6.399   1.170   1.295  1.00  0.00    -0.120 NA
ATOM     15  H5  UNL     1       5.833  -0.669   0.492  1.00  0.00     0.184 HD
HETATM   16  C6  UNL     1       6.196   2.519   0.775  1.00  0.00     0.257 C 
ATOM     17  H7  UNL     1       4.552   3.833   1.226  1.00  0.00     0.162 HD
ENDBRANCH   3   4
BRANCH   3  18
HETATM   18  C7  UNL     1       0.250  -1.593   0.163  1.00  0.00     0.156 C 
HETATM   19  C8  UNL     1       0.513  -3.073   0.034  1.00  0.00     0.261 C 
HETATM   20  N8  UNL     1      -0.255  -3.881   0.932  1.00  0.00    -0.068 N 
HETATM   21  C9  UNL     1      -1.397  -3.211   1.495  1.00  0.00     0.286 C 
ATOM     22  H82 UNL     1      -0.538  -4.750   0.478  1.00  0.00     0.277 HD
ATOM     23  H81 UNL     1       0.339  -4.257   1.671  1.00  0.00     0.277 HD
HETATM   24  C10 UNL     1      -2.006  -2.446   0.331  1.00  0.00     0.030 C 
HETATM   25  N9  UNL     1      -3.058  -2.876  -0.129  1.00  0.00    -0.403 N 
HETATM   26  C11 UNL     1      -1.251  -1.285  -0.064  1.00  0.00     0.151 C 
ATOM     27  H92 UNL     1      -3.593  -3.698   0.151  1.00  0.00     0.155 HD
ATOM     28  H91 UNL     1      -3.467  -2.363  -0.910  1.00  0.00     0.155 HD
BRANCH  26  29
HETATM   29  N10 UNL     1      -1.444  -0.567  -1.244  1.00  0.00    -0.385 N 
ATOM     30  H10 UNL     1      -0.767  -0.690  -1.997  1.00  0.00     0.156 HD
BRANCH  29  31
HETATM   31  C12 UNL     1      -2.517   0.317  -1.456  1.00  0.00     0.283 C 
BRANCH  31  32
HETATM   32  N11 UNL     1      -2.646   1.324  -0.402  1.00  0.00    -0.056 NA
BRANCH  32  33
HETATM   33  O1  UNL     1      -3.653   2.221  -0.660  1.00  0.00    -0.189 OA
BRANCH  33  34
HETATM   34  C13 UNL     1      -4.203   2.981   0.396  1.00  0.00     0.391 C 
HETATM   35  N12 UNL     1      -5.242   3.914   0.167  1.00  0.00    -0.031 NA
HETATM   36  O2  UNL     1      -3.703   2.761   1.535  1.00  0.00    -0.241 OA
ENDBRANCH  33  34
ENDBRANCH  32  33
ENDBRANCH  31  32
BRANCH  31  37
HETATM   37  C14 UNL     1      -3.836  -0.228  -1.776  1.00  0.00     0.237 C 
HETATM   38  O3  UNL     1      -3.917  -1.117  -2.664  1.00  0.00    -0.281 OA
HETATM   39  S1  UNL     1      -5.366   0.260  -1.003  1.00  0.00    -0.008 SA
ENDBRANCH  31  37
ENDBRANCH  29  31
ENDBRANCH  26  29
ENDBRANCH   3  18
TORSDOF 8
