REMARK  14 active torsions:
REMARK  status: ('A' for Active; 'I' for Inactive)
REMARK    1  A    between atoms: S1_2  and  O3_5 
REMARK    2  A    between atoms: O3_5  and  C2_6 
REMARK    3  A    between atoms: C2_6  and  C3_7 
REMARK    4  A    between atoms: C3_7  and  N1_8 
REMARK    5  A    between atoms: C4_9  and  O4_10 
REMARK    6  A    between atoms: C5_12  and  C6_13 
REMARK    7  A    between atoms: C6_13  and  N2_14 
REMARK    8  A    between atoms: C6_13  and  O5_18 
REMARK    9  A    between atoms: N3_20  and  N4_21 
REMARK   10  A    between atoms: C7_22  and  O6_23 
REMARK   11  A    between atoms: C8_25  and  O7_26 
REMARK   12  A    between atoms: C10_32  and  N6_33 
REMARK   13  A    between atoms: C11_36  and  N7_37 
REMARK   14  A    between atoms: N7_37  and  N8_39 
ROOT
HETATM    1  N1  UNL     1       0.714   0.184  -0.617  1.00  0.00    -0.306 N 
HETATM    2  C4  UNL     1       0.008  -0.939  -0.422  1.00  0.00     0.174 A 
HETATM    3  C5  UNL     1      -1.308  -0.910   0.092  1.00  0.00     0.143 A 
HETATM    4  N3  UNL     1      -1.885   0.238   0.399  1.00  0.00    -0.221 N 
HETATM    5  C10 UNL     1      -1.172   1.384   0.203  1.00  0.00     0.168 A 
HETATM    6  C11 UNL     1       0.140   1.359  -0.310  1.00  0.00     0.170 A 
ENDROOT
BRANCH   4   7
HETATM    7  N4  UNL     1      -3.175   0.338   0.917  1.00  0.00    -0.194 N 
HETATM    8  C7  UNL     1      -4.291   0.576   0.174  1.00  0.00     0.217 A 
HETATM    9  C8  UNL     1      -5.393   0.663   1.029  1.00  0.00     0.196 A 
HETATM   10  N5  UNL     1      -4.899   0.470   2.288  1.00  0.00    -0.309 N 
HETATM   11  C9  UNL     1      -3.571   0.277   2.200  1.00  0.00     0.202 A 
ATOM     12  H5  UNL     1      -5.445   0.472   3.149  1.00  0.00     0.170 HD
HETATM   13  S2  UNL     1      -2.611   0.012   3.490  1.00  0.00    -0.038 SA
BRANCH   8  14
HETATM   14  O6  UNL     1      -4.367   0.715  -1.195  1.00  0.00    -0.342 OA
ATOM     15  H6  UNL     1      -5.146   0.881  -1.713  1.00  0.00     0.219 HD
ENDBRANCH   8  14
BRANCH   9  16
HETATM   16  O7  UNL     1      -6.714   0.891   0.730  1.00  0.00    -0.343 OA
ATOM     17  H7  UNL     1      -7.463   0.950   1.311  1.00  0.00     0.219 HD
ENDBRANCH   9  16
ENDBRANCH   4   7
BRANCH   3  18
HETATM   18  C6  UNL     1      -1.975  -2.211   0.242  1.00  0.00     0.373 C 
BRANCH  18  19
HETATM   19  N2  UNL     1      -1.771  -2.989  -0.987  1.00  0.00    -0.047 N 
ATOM     20  H23 UNL     1      -2.076  -2.488  -1.821  1.00  0.00     0.277 HD
ATOM     21  H22 UNL     1      -0.785  -3.082  -1.231  1.00  0.00     0.277 HD
ATOM     22  H21 UNL     1      -2.234  -3.892  -0.883  1.00  0.00     0.277 HD
ENDBRANCH  18  19
BRANCH  18  23
HETATM   23  O5  UNL     1      -3.283  -2.216   0.617  1.00  0.00    -0.365 OA
ATOM     24  H5  UNL     1      -3.714  -3.057   0.714  1.00  0.00     0.212 HD
ENDBRANCH  18  23
ENDBRANCH   3  18
BRANCH   5  25
HETATM   25  N6  UNL     1      -1.752   2.490   0.508  1.00  0.00    -0.381 N 
ATOM     26  H62 UNL     1      -2.702   2.508   0.879  1.00  0.00     0.157 HD
ATOM     27  H61 UNL     1      -1.219   3.347   0.361  1.00  0.00     0.157 HD
ENDBRANCH   5  25
BRANCH   2  28
HETATM   28  O4  UNL     1       0.595  -2.158  -0.735  1.00  0.00    -0.344 OA
ATOM     29  H4  UNL     1       0.095  -2.954  -0.597  1.00  0.00     0.219 HD
ENDBRANCH   2  28
BRANCH   6  30
HETATM   30  N7  UNL     1       0.670   2.482  -0.429  1.00  0.00    -0.289 N 
ATOM     31  H7  UNL     1       0.061   3.247  -0.138  1.00  0.00     0.188 HD
BRANCH  30  32
HETATM   32  N8  UNL     1       1.871   2.896  -0.859  1.00  0.00    -0.344 N 
ATOM     33  H82 UNL     1       2.463   2.116  -1.145  1.00  0.00     0.176 HD
ATOM     34  H81 UNL     1       2.304   3.814  -0.956  1.00  0.00     0.176 HD
ENDBRANCH  30  32
ENDBRANCH   6  30
BRANCH   1  35
HETATM   35  C3  UNL     1       2.051   0.046  -1.151  1.00  0.00     0.160 C 
BRANCH  35  36
HETATM   36  C2  UNL     1       3.125  -0.112  -0.135  1.00  0.00     0.210 C 
BRANCH  36  37
HETATM   37  O3  UNL     1       4.341  -0.223  -0.845  1.00  0.00    -0.274 OA
BRANCH  37  38
HETATM   38  S1  UNL     1       5.627  -0.405   0.191  1.00  0.00     0.261 S 
HETATM   39  C1  UNL     1       7.017   0.617  -0.311  1.00  0.00     0.194 C 
HETATM   40  O1  UNL     1       6.110  -1.837   0.082  1.00  0.00    -0.199 OA
HETATM   41  O2  UNL     1       5.255  -0.070   1.592  1.00  0.00    -0.199 OA
ENDBRANCH  37  38
ENDBRANCH  36  37
ENDBRANCH  35  36
ENDBRANCH   1  35
TORSDOF 14
