REMARK  9 active torsions:
REMARK  status: ('A' for Active; 'I' for Inactive)
REMARK    1  A    between atoms: C2_3  and  N2_4 
REMARK    2  A    between atoms: N3_6  and  C3_8 
REMARK    3  A    between atoms: C4_11  and  N5_12 
REMARK    4  A    between atoms: N6_14  and  O1_15 
REMARK    5  A    between atoms: C6_17  and  O2_18 
REMARK    6  A    between atoms: O2_18  and  N7_19 
REMARK    7  A    between atoms: C7_24  and  C8_25 
REMARK    8  A    between atoms: C8_25  and  C9_26 
REMARK       I    between atoms: C9_26  and  N9_28 
REMARK       I    between atoms: N9_28  and  C10_30 
REMARK    9  A    between atoms: C11_33  and  O5_34 
ROOT
HETATM    1  C3  UNL     1       0.392  -0.414  -0.396  1.00  0.00     0.135 A 
HETATM    2  N4  UNL     1      -0.850  -0.141  -0.162  1.00  0.00    -0.320 N 
ATOM      3  H4  UNL     1      -1.093   0.707   0.350  1.00  0.00     0.169 HD
HETATM    4  C4  UNL     1      -1.805  -0.947  -0.578  1.00  0.00     0.166 A 
HETATM    5  S1  UNL     1      -0.907  -2.181  -1.357  1.00  0.00    -0.053 SA
HETATM    6  C7  UNL     1       0.682  -1.552  -1.082  1.00  0.00     0.040 A 
ENDROOT
BRANCH   1   7
HETATM    7  N3  UNL     1       1.442   0.499   0.074  1.00  0.00    -0.283 N 
HETATM    8  N2  UNL     1       1.233   1.721   0.042  1.00  0.00    -0.280 N 
ATOM      9  H2  UNL     1       0.313   1.968  -0.324  1.00  0.00     0.188 HD
ATOM     10  H3  UNL     1       2.329   0.134   0.421  1.00  0.00     0.188 HD
BRANCH   8  11
HETATM   11  C2  UNL     1       1.996   2.817   0.403  1.00  0.00     0.178 A 
HETATM   12  N1  UNL     1       1.496   4.054   0.629  1.00  0.00    -0.285 N 
HETATM   13  C1  UNL     1       0.104   4.455   0.540  1.00  0.00     0.163 C 
HETATM   14  C12 UNL     1       2.546   4.821   0.956  1.00  0.00     0.329 A 
HETATM   15  N11 UNL     1       3.680   4.088   0.937  1.00  0.00    -0.286 N 
HETATM   16  O6  UNL     1       2.450   6.054   1.236  1.00  0.00    -0.246 OA
HETATM   17  C11 UNL     1       3.368   2.822   0.592  1.00  0.00     0.191 A 
ATOM     18  H11 UNL     1       4.616   4.434   1.148  1.00  0.00     0.172 HD
BRANCH  17  19
HETATM   19  O5  UNL     1       4.262   1.758   0.460  1.00  0.00    -0.343 OA
ATOM     20  H5  UNL     1       5.203   1.761   0.590  1.00  0.00     0.219 HD
ENDBRANCH  17  19
ENDBRANCH   8  11
ENDBRANCH   1   7
BRANCH   6  21
HETATM   21  C8  UNL     1       1.983  -2.162  -1.497  1.00  0.00     0.153 C 
BRANCH  21  22
HETATM   22  C9  UNL     1       2.631  -2.843  -0.342  1.00  0.00     0.230 C 
HETATM   23  O3  UNL     1       2.103  -2.843   0.808  1.00  0.00    -0.273 OA
HETATM   24  N9  UNL     1       3.861  -3.506  -0.535  1.00  0.00    -0.281 N 
HETATM   25  C10 UNL     1       4.473  -4.179   0.557  1.00  0.00     0.335 C 
ATOM     26  H9  UNL     1       4.308  -3.502  -1.452  1.00  0.00     0.173 HD
HETATM   27  N10 UNL     1       5.705  -4.875   0.392  1.00  0.00    -0.040 NA
HETATM   28  O4  UNL     1       3.915  -4.156   1.672  1.00  0.00    -0.251 OA
ENDBRANCH  21  22
ENDBRANCH   6  21
BRANCH   4  29
HETATM   29  N5  UNL     1      -3.228  -0.824  -0.417  1.00  0.00    -0.255 N 
HETATM   30  C5  UNL     1      -4.177  -0.639  -1.464  1.00  0.00     0.272 C 
HETATM   31  N6  UNL     1      -5.482  -0.843  -0.848  1.00  0.00    -0.132 NA
HETATM   32  C6  UNL     1      -5.245  -0.410   0.518  1.00  0.00     0.366 C 
HETATM   33  N8  UNL     1      -3.875  -0.852   0.808  1.00  0.00    -0.083 NA
BRANCH  31  34
HETATM   34  O1  UNL     1      -5.781  -2.180  -0.876  1.00  0.00    -0.308 OA
ATOM     35  H1  UNL     1      -6.632  -2.313  -0.474  1.00  0.00     0.237 HD
ENDBRANCH  31  34
BRANCH  32  36
HETATM   36  O2  UNL     1      -5.205   0.979   0.547  1.00  0.00    -0.246 OA
BRANCH  36  37
HETATM   37  N7  UNL     1      -5.992   1.501   1.509  1.00  0.00    -0.308 N 
ATOM     38  H72 UNL     1      -6.550   0.925   2.139  1.00  0.00     0.184 HD
ATOM     39  H71 UNL     1      -5.963   2.520   1.530  1.00  0.00     0.184 HD
ENDBRANCH  36  37
ENDBRANCH  32  36
ENDBRANCH   4  29
TORSDOF 9
