REMARK  11 active torsions:
REMARK  status: ('A' for Active; 'I' for Inactive)
REMARK       I    between atoms: C2_2  and  N1_4 
REMARK    1  A    between atoms: N1_4  and  C3_6 
REMARK    2  A    between atoms: C4_7  and  O2_8 
REMARK    3  A    between atoms: C7_14  and  O3_15 
REMARK    4  A    between atoms: C8_17  and  N3_18 
REMARK    5  A    between atoms: N3_18  and  N4_20 
REMARK    6  A    between atoms: N4_20  and  C9_21 
REMARK    7  A    between atoms: C9_21  and  C10_22 
REMARK    8  A    between atoms: C10_22  and  S1_23 
REMARK    9  A    between atoms: S1_23  and  N5_26 
REMARK   10  A    between atoms: N6_28  and  C11_30 
REMARK   11  A    between atoms: N10_37  and  N11_38 
ROOT
HETATM    1  C3  UNL     1      -3.476   1.310   0.039  1.00  0.00     0.120 A 
HETATM    2  C4  UNL     1      -3.397   2.501  -0.633  1.00  0.00     0.172 A 
HETATM    3  N2  UNL     1      -2.371   2.750  -1.449  1.00  0.00    -0.319 N 
ATOM      4  H2  UNL     1      -2.318   3.638  -1.948  1.00  0.00     0.169 HD
HETATM    5  C5  UNL     1      -1.414   1.833  -1.610  1.00  0.00     0.140 A 
HETATM    6  C6  UNL     1      -1.449   0.621  -0.956  1.00  0.00     0.091 A 
HETATM    7  C7  UNL     1      -2.506   0.352  -0.111  1.00  0.00     0.114 A 
HETATM    8  C8  UNL     1      -0.409  -0.398  -1.120  1.00  0.00     0.149 A 
HETATM    9  N12 UNL     1       0.564  -0.121  -1.914  1.00  0.00    -0.269 N 
ATOM     10  H12 UNL     1       1.298  -0.817  -2.043  1.00  0.00     0.190 HD
HETATM   11  N13 UNL     1       0.663   1.076  -2.602  1.00  0.00    -0.239 N 
ATOM     12  H13 UNL     1       1.464   1.229  -3.215  1.00  0.00     0.208 HD
HETATM   13  N14 UNL     1      -0.289   2.070  -2.484  1.00  0.00    -0.270 N 
ATOM     14  H14 UNL     1      -0.200   2.946  -2.999  1.00  0.00     0.190 HD
ENDROOT
BRANCH   8  15
HETATM   15  N3  UNL     1      -0.499  -1.631  -0.420  1.00  0.00    -0.287 N 
ATOM     16  H3  UNL     1      -1.126  -2.368  -0.744  1.00  0.00     0.184 HD
BRANCH  15  17
HETATM   17  N4  UNL     1       0.284  -1.815   0.716  1.00  0.00    -0.139 NA
BRANCH  17  18
HETATM   18  C9  UNL     1       1.643  -2.182   0.382  1.00  0.00     0.151 C 
BRANCH  18  19
HETATM   19  C10 UNL     1       2.500  -2.386   1.594  1.00  0.00     0.182 C 
BRANCH  19  20
HETATM   20  S1  UNL     1       4.144  -2.833   1.084  1.00  0.00     0.245 S 
HETATM   21  O4  UNL     1       4.037  -4.058   0.193  1.00  0.00    -0.204 OA
HETATM   22  O5  UNL     1       5.011  -3.174   2.258  1.00  0.00    -0.204 OA
BRANCH  20  23
HETATM   23  N5  UNL     1       4.766  -1.564   0.132  1.00  0.00    -0.212 N 
HETATM   24  N6  UNL     1       5.339  -1.668  -0.974  1.00  0.00    -0.118 N 
ATOM     25  H6  UNL     1       5.483  -2.578  -1.411  1.00  0.00     0.206 HD
ATOM     26  H5  UNL     1       4.660  -0.620   0.504  1.00  0.00     0.200 HD
BRANCH  24  27
HETATM   27  C11 UNL     1       5.785  -0.464  -1.604  1.00  0.00     0.750 A 
HETATM   28  N7  UNL     1       6.632  -0.381  -2.619  1.00  0.00    -0.112 N 
HETATM   29  N8  UNL     1       6.811   0.884  -2.935  1.00  0.00    -0.212 N 
ATOM     30  H7  UNL     1       7.076  -1.173  -3.083  1.00  0.00     0.207 HD
HETATM   31  N9  UNL     1       6.074   1.614  -2.118  1.00  0.00    -0.192 N 
ATOM     32  H8  UNL     1       7.412   1.238  -3.679  1.00  0.00     0.210 HD
HETATM   33  N10 UNL     1       5.439   0.801  -1.296  1.00  0.00    -0.008 N 
ATOM     34  H9  UNL     1       6.007   2.632  -2.122  1.00  0.00     0.212 HD
BRANCH  33  35
HETATM   35  N11 UNL     1       4.541   1.135  -0.255  1.00  0.00    -0.308 N 
ATOM     36 2H11 UNL     1       4.050   0.506   0.381  1.00  0.00     0.179 HD
ATOM     37 1H11 UNL     1       4.279   2.093  -0.022  1.00  0.00     0.179 HD
ENDBRANCH  33  35
ENDBRANCH  24  27
ENDBRANCH  20  23
ENDBRANCH  19  20
ENDBRANCH  18  19
ENDBRANCH  17  18
ENDBRANCH  15  17
ENDBRANCH   8  15
BRANCH   7  38
HETATM   38  O3  UNL     1      -2.568  -0.874   0.568  1.00  0.00    -0.357 OA
ATOM     39  H3  UNL     1      -1.896  -1.538   0.464  1.00  0.00     0.217 HD
ENDBRANCH   7  38
BRANCH   1  40
HETATM   40  N1  UNL     1      -4.578   1.048   0.911  1.00  0.00    -0.322 N 
HETATM   41  C2  UNL     1      -4.532   1.395   2.292  1.00  0.00     0.218 C 
HETATM   42  C1  UNL     1      -5.631   1.149   3.224  1.00  0.00     0.117 C 
HETATM   43  O1  UNL     1      -3.483   1.948   2.752  1.00  0.00    -0.274 OA
ATOM     44  H1  UNL     1      -5.416   0.603   0.536  1.00  0.00     0.169 HD
ENDBRANCH   1  40
BRANCH   2  45
HETATM   45  O2  UNL     1      -4.423   3.465  -0.450  1.00  0.00    -0.344 OA
ATOM     46  H2  UNL     1      -4.368   4.291  -0.916  1.00  0.00     0.219 HD
ENDBRANCH   2  45
TORSDOF 11
