REMARK  8 active torsions:
REMARK  status: ('A' for Active; 'I' for Inactive)
REMARK       I    between atoms: C1_4  and  N3_6 
REMARK    1  A    between atoms: C4_11  and  N5_12 
REMARK    2  A    between atoms: C5_13  and  C6_14 
REMARK    3  A    between atoms: N8_19  and  N9_20 
REMARK    4  A    between atoms: N9_20  and  C7_22 
REMARK    5  A    between atoms: C7_22  and  C8_23 
REMARK    6  A    between atoms: C9_30  and  C10_31 
REMARK    7  A    between atoms: C10_31  and  N13_32 
REMARK    8  A    between atoms: N13_32  and  O2_34 
ROOT
HETATM    1  N5  UNL     1      -0.693  -0.256  -0.222  1.00  0.00    -0.224 N 
HETATM    2  C5  UNL     1      -0.198  -1.395   0.237  1.00  0.00     0.200 A 
HETATM    3  N7  UNL     1       1.171  -1.215   0.410  1.00  0.00    -0.255 N 
ATOM      4  H7  UNL     1       1.819  -1.922   0.758  1.00  0.00     0.191 HD
HETATM    5  N8  UNL     1       1.492  -0.015   0.062  1.00  0.00    -0.140 N 
HETATM    6  C11 UNL     1       0.334   0.613  -0.338  1.00  0.00     0.370 A 
HETATM    7  O3  UNL     1       0.297   1.796  -0.723  1.00  0.00    -0.242 OA
ENDROOT
BRANCH   1   8
HETATM    8  C4  UNL     1      -2.064  -0.030  -0.564  1.00  0.00     0.149 A 
HETATM    9  C3  UNL     1      -3.030   0.173   0.369  1.00  0.00     0.073 A 
HETATM   10  C2  UNL     1      -3.073   0.306   1.752  1.00  0.00     0.127 A 
HETATM   11  C13 UNL     1      -4.358   0.302  -0.036  1.00  0.00     0.161 A 
HETATM   12  N4  UNL     1      -4.383   0.498   2.097  1.00  0.00    -0.300 N 
HETATM   13  N3  UNL     1      -5.150   0.493   1.067  1.00  0.00    -0.210 N 
ATOM     14  H4  UNL     1      -4.710   0.629   3.054  1.00  0.00     0.186 HD
HETATM   15  C1  UNL     1      -6.557   0.604   0.855  1.00  0.00     0.209 C 
HETATM   16  N1  UNL     1      -7.299  -0.401   1.090  1.00  0.00    -0.372 N 
HETATM   17  N2  UNL     1      -7.113   1.802   0.354  1.00  0.00    -0.062 NA
ATOM     18  H12 UNL     1      -8.305  -0.322   0.938  1.00  0.00     0.158 HD
ATOM     19  H11 UNL     1      -6.898  -1.266   1.452  1.00  0.00     0.158 HD
HETATM   20  N16 UNL     1      -4.625   0.224  -1.343  1.00  0.00    -0.174 N 
HETATM   21  C12 UNL     1      -3.646   0.023  -2.287  1.00  0.00     0.679 A 
ATOM     22  H16 UNL     1      -5.593   0.317  -1.652  1.00  0.00     0.186 HD
HETATM   23  N14 UNL     1      -2.390  -0.101  -1.902  1.00  0.00    -0.175 N 
HETATM   24  N15 UNL     1      -3.944  -0.016  -3.503  1.00  0.00    -0.234 N 
ATOM     25  H14 UNL     1      -1.658  -0.250  -2.596  1.00  0.00     0.186 HD
ATOM     26 2H15 UNL     1      -3.218  -0.165  -4.203  1.00  0.00     0.174 HD
ATOM     27 1H15 UNL     1      -4.915   0.080  -3.801  1.00  0.00     0.174 HD
ENDBRANCH   1   8
BRANCH   2  28
HETATM   28  C6  UNL     1      -0.807  -2.687   0.552  1.00  0.00     0.300 C 
HETATM   29  N6  UNL     1       0.025  -3.830   0.768  1.00  0.00    -0.054 NA
HETATM   30  O1  UNL     1      -2.030  -2.830   0.633  1.00  0.00    -0.268 OA
ENDBRANCH   2  28
BRANCH   5  31
HETATM   31  N9  UNL     1       2.707   0.573   0.196  1.00  0.00    -0.284 N 
ATOM     32  H9  UNL     1       2.776   1.461  -0.301  1.00  0.00     0.188 HD
BRANCH  31  33
HETATM   33  C7  UNL     1       3.871   0.234   0.858  1.00  0.00     0.142 C 
BRANCH  33  34
HETATM   34  C8  UNL     1       5.015  -0.407   0.209  1.00  0.00     0.096 A 
HETATM   35  N10 UNL     1       5.347  -1.633  -0.126  1.00  0.00    -0.283 N 
HETATM   36  N11 UNL     1       6.640  -1.731  -0.477  1.00  0.00    -0.242 N 
ATOM     37  H10 UNL     1       4.698  -2.420  -0.120  1.00  0.00     0.188 HD
HETATM   38  N12 UNL     1       7.120  -0.518  -0.355  1.00  0.00    -0.283 N 
ATOM     39  H11 UNL     1       7.140  -2.569  -0.774  1.00  0.00     0.208 HD
HETATM   40  C9  UNL     1       6.246   0.349   0.044  1.00  0.00     0.096 A 
ATOM     41  H12 UNL     1       8.091  -0.279  -0.556  1.00  0.00     0.188 HD
BRANCH  40  42
HETATM   42  C10 UNL     1       6.251   1.775   0.176  1.00  0.00     0.147 C 
BRANCH  42  43
HETATM   43  N13 UNL     1       7.282   2.502   0.034  1.00  0.00    -0.278 N 
ATOM     44  H13 UNL     1       8.177   2.062  -0.179  1.00  0.00     0.193 HD
BRANCH  43  45
HETATM   45  O2  UNL     1       7.218   3.884   0.162  1.00  0.00    -0.290 OA
ATOM     46  H2  UNL     1       7.990   4.428   0.056  1.00  0.00     0.244 HD
ENDBRANCH  43  45
ENDBRANCH  42  43
ENDBRANCH  40  42
ENDBRANCH  33  34
ENDBRANCH  31  33
ENDBRANCH   5  31
TORSDOF 8
