REMARK  11 active torsions:
REMARK  status: ('A' for Active; 'I' for Inactive)
REMARK    1  A    between atoms: O1_2  and  C2_3 
REMARK    2  A    between atoms: C2_3  and  C3_5 
REMARK    3  A    between atoms: N1_7  and  N2_8 
REMARK       I    between atoms: N2_8  and  C5_10 
REMARK    4  A    between atoms: C5_10  and  C6_12 
REMARK    5  A    between atoms: C6_12  and  N3_13 
REMARK    6  A    between atoms: C7_16  and  C8_17 
REMARK    7  A    between atoms: C9_19  and  O5_20 
REMARK    8  A    between atoms: C10_22  and  O6_23 
REMARK    9  A    between atoms: C11_25  and  O7_26 
REMARK   10  A    between atoms: N5_28  and  N6_29 
REMARK   11  A    between atoms: C12_32  and  N7_33 
ROOT
HETATM    1  N3  UNL     1      -1.680   0.126  -1.778  1.00  0.00    -0.112 N 
HETATM    2  N4  UNL     1      -2.744  -0.545  -1.364  1.00  0.00    -0.264 N 
ATOM      3  H4  UNL     1      -2.905  -1.540  -1.521  1.00  0.00     0.189 HD
HETATM    4  C7  UNL     1      -3.598   0.293  -0.693  1.00  0.00     0.197 A 
HETATM    5  N5  UNL     1      -2.979   1.476  -0.739  1.00  0.00    -0.071 N 
HETATM    6  C12 UNL     1      -1.799   1.386  -1.405  1.00  0.00     0.715 A 
ENDROOT
BRANCH   1   7
HETATM    7  C6  UNL     1      -0.587  -0.523  -2.519  1.00  0.00     0.272 C 
BRANCH   7   8
HETATM    8  C5  UNL     1       0.323  -1.078  -1.418  1.00  0.00     0.257 C 
HETATM    9  N2  UNL     1       1.567  -0.541  -1.169  1.00  0.00    -0.258 N 
ATOM     10  H2  UNL     1       1.793   0.240  -1.785  1.00  0.00     0.190 HD
HETATM   11  O3  UNL     1      -0.174  -2.046  -0.791  1.00  0.00    -0.270 OA
BRANCH   9  12
HETATM   12  N1  UNL     1       2.563  -0.823  -0.281  1.00  0.00    -0.213 N 
HETATM   13  C4  UNL     1       3.706  -0.047  -0.369  1.00  0.00     0.143 A 
HETATM   14  C3  UNL     1       4.782  -0.229   0.489  1.00  0.00     0.100 A 
HETATM   15  C14 UNL     1       4.664  -1.208   1.424  1.00  0.00     0.120 A 
HETATM   16  N8  UNL     1       3.514  -1.967   1.489  1.00  0.00    -0.292 N 
HETATM   17  N9  UNL     1       5.563  -1.467   2.265  1.00  0.00    -0.384 N 
HETATM   18  C13 UNL     1       2.485  -1.771   0.647  1.00  0.00     0.346 A 
ATOM     19  H8  UNL     1       3.443  -2.698   2.197  1.00  0.00     0.172 HD
HETATM   20  O8  UNL     1       1.481  -2.542   0.815  1.00  0.00    -0.245 OA
ATOM     21  H92 UNL     1       6.413  -0.906   2.217  1.00  0.00     0.157 HD
ATOM     22  H91 UNL     1       5.474  -2.202   2.967  1.00  0.00     0.157 HD
BRANCH  14  23
HETATM   23  C2  UNL     1       5.967   0.607   0.352  1.00  0.00     0.298 C 
HETATM   24  O2  UNL     1       5.959   1.511  -0.515  1.00  0.00    -0.259 OA
BRANCH  23  25
HETATM   25  O1  UNL     1       7.101   0.474   1.107  1.00  0.00    -0.322 OA
HETATM   26  C1  UNL     1       8.264   1.256   1.014  1.00  0.00     0.213 C 
ENDBRANCH  23  25
ENDBRANCH  14  23
ENDBRANCH   9  12
ENDBRANCH   7   8
ENDBRANCH   1   7
BRANCH   6  27
HETATM   27  N7  UNL     1      -0.970   2.341  -1.624  1.00  0.00    -0.231 N 
ATOM     28  H72 UNL     1      -0.084   2.273  -2.124  1.00  0.00     0.174 HD
ATOM     29  H71 UNL     1      -1.062   3.315  -1.336  1.00  0.00     0.174 HD
ENDBRANCH   6  27
BRANCH   4  30
HETATM   30  C8  UNL     1      -4.837  -0.157  -0.082  1.00  0.00     0.162 A 
HETATM   31  O4  UNL     1      -5.130  -1.446   0.031  1.00  0.00    -0.279 OA
HETATM   32  C9  UNL     1      -6.289  -1.607   0.618  1.00  0.00     0.221 A 
HETATM   33  C10 UNL     1      -6.819  -0.390   0.922  1.00  0.00     0.161 A 
HETATM   34  C11 UNL     1      -5.875   0.538   0.466  1.00  0.00     0.142 A 
BRANCH  32  35
HETATM   35  O5  UNL     1      -6.869  -2.857   0.879  1.00  0.00    -0.339 OA
ATOM     36  H5  UNL     1      -7.710  -2.974   1.305  1.00  0.00     0.220 HD
ENDBRANCH  32  35
BRANCH  33  37
HETATM   37  O6  UNL     1      -8.031  -0.105   1.549  1.00  0.00    -0.354 OA
ATOM     38  H6  UNL     1      -8.401   0.744   1.761  1.00  0.00     0.218 HD
ENDBRANCH  33  37
BRANCH  34  39
HETATM   39  O7  UNL     1      -6.050   1.882   0.591  1.00  0.00    -0.355 OA
ATOM     40  H7  UNL     1      -6.773   2.366   0.973  1.00  0.00     0.218 HD
ENDBRANCH  34  39
ENDBRANCH   4  30
BRANCH   5  41
HETATM   41  N6  UNL     1      -3.435   2.657  -0.197  1.00  0.00    -0.322 N 
ATOM     42  H62 UNL     1      -4.321   2.725   0.303  1.00  0.00     0.178 HD
ATOM     43  H61 UNL     1      -2.962   3.560  -0.232  1.00  0.00     0.178 HD
ENDBRANCH   5  41
TORSDOF 11
