REMARK  13 active torsions:
REMARK  status: ('A' for Active; 'I' for Inactive)
REMARK    1  A    between atoms: C2_5  and  C3_6 
REMARK    2  A    between atoms: C3_6  and  N3_7 
REMARK    3  A    between atoms: C4_12  and  C5_13 
REMARK    4  A    between atoms: C6_16  and  C7_17 
REMARK    5  A    between atoms: C8_21  and  C9_22 
REMARK    6  A    between atoms: C10_25  and  C11_26 
REMARK    7  A    between atoms: C11_26  and  O2_27 
REMARK    8  A    between atoms: C11_26  and  C12_29 
REMARK    9  A    between atoms: C12_29  and  C13_30 
REMARK   10  A    between atoms: C13_30  and  N9_31 
REMARK   11  A    between atoms: N9_31  and  N10_33 
REMARK   12  A    between atoms: N10_33  and  N11_34 
REMARK   13  A    between atoms: C14_38  and  O4_39 
ROOT
HETATM    1  C1  UNL     1       0.825  -3.491   0.068  1.00  0.00     0.179 C 
HETATM    2  N1  UNL     1      -0.095  -2.367  -0.046  1.00  0.00    -0.278 N 
HETATM    3  N2  UNL     1      -1.392  -2.533  -0.056  1.00  0.00    -0.284 N 
ATOM      4  H2  UNL     1      -1.859  -3.440  -0.046  1.00  0.00     0.188 HD
HETATM    5  C2  UNL     1      -2.046  -1.317  -0.082  1.00  0.00     0.117 A 
HETATM    6  N7  UNL     1      -1.061  -0.448  -0.107  1.00  0.00    -0.326 N 
ATOM      7  H7  UNL     1      -1.197   0.562  -0.137  1.00  0.00     0.169 HD
HETATM    8  C8  UNL     1       0.136  -1.033  -0.089  1.00  0.00     0.155 A 
ENDROOT
BRANCH   8   9
HETATM    9  C9  UNL     1       1.449  -0.425  -0.172  1.00  0.00     0.139 A 
HETATM   10  N8  UNL     1       2.628  -1.022  -0.238  1.00  0.00    -0.330 N 
HETATM   11  C10 UNL     1       3.634  -0.160  -0.464  1.00  0.00     0.168 A 
ATOM     12  H8  UNL     1       2.759  -2.028  -0.129  1.00  0.00     0.168 HD
HETATM   13  O3  UNL     1       3.033   1.028  -0.520  1.00  0.00    -0.269 OA
HETATM   14  C14 UNL     1       1.724   0.990  -0.355  1.00  0.00     0.216 A 
BRANCH  11  15
HETATM   15  C11 UNL     1       5.039  -0.528  -0.635  1.00  0.00     0.273 C 
BRANCH  15  16
HETATM   16  O2  UNL     1       5.324  -0.208  -2.052  1.00  0.00    -0.375 OA
ATOM     17  H2  UNL     1       6.237  -0.447  -2.163  1.00  0.00     0.211 HD
ENDBRANCH  15  16
BRANCH  15  18
HETATM   18  C12 UNL     1       6.055   0.089   0.050  1.00  0.00    -0.042 C 
BRANCH  18  19
HETATM   19  C13 UNL     1       7.032   0.618   0.599  1.00  0.00     0.027 C 
BRANCH  19  20
HETATM   20  N9  UNL     1       8.197   1.139   1.151  1.00  0.00    -0.242 N 
ATOM     21  H9  UNL     1       8.582   0.780   2.025  1.00  0.00     0.195 HD
BRANCH  20  22
HETATM   22  N10 UNL     1       8.819   2.184   0.446  1.00  0.00    -0.022 NA
BRANCH  22  23
HETATM   23  N11 UNL     1       8.161   2.567  -0.705  1.00  0.00    -0.328 N 
ATOM     24 2H11 UNL     1       7.296   2.119  -1.006  1.00  0.00     0.174 HD
ATOM     25 1H11 UNL     1       8.612   3.325  -1.217  1.00  0.00     0.174 HD
ENDBRANCH  22  23
ENDBRANCH  20  22
ENDBRANCH  19  20
ENDBRANCH  18  19
ENDBRANCH  15  18
ENDBRANCH  11  15
BRANCH  14  26
HETATM   26  O4  UNL     1       0.660   1.837  -0.320  1.00  0.00    -0.339 OA
ATOM     27  H4  UNL     1       0.840   2.762  -0.440  1.00  0.00     0.220 HD
ENDBRANCH  14  26
ENDBRANCH   8   9
BRANCH   5  28
HETATM   28  C3  UNL     1      -3.512  -1.358  -0.143  1.00  0.00     0.228 C 
BRANCH  28  29
HETATM   29  N3  UNL     1      -4.229  -0.523   0.743  1.00  0.00    -0.272 N 
HETATM   30  N4  UNL     1      -3.982  -0.348   2.050  1.00  0.00    -0.239 N 
HETATM   31  N5  UNL     1      -4.873   0.470   2.571  1.00  0.00    -0.280 N 
ATOM     32  H4  UNL     1      -3.217  -0.784   2.564  1.00  0.00     0.208 HD
HETATM   33  C4  UNL     1      -5.728   0.829   1.561  1.00  0.00     0.139 A 
ATOM     34  H5  UNL     1      -4.918   0.778   3.542  1.00  0.00     0.189 HD
HETATM   35  C6  UNL     1      -5.316   0.193   0.408  1.00  0.00     0.073 A 
BRANCH  33  36
HETATM   36  C5  UNL     1      -6.885   1.725   1.617  1.00  0.00     0.284 C 
HETATM   37  N6  UNL     1      -8.085   1.292   0.942  1.00  0.00    -0.056 NA
HETATM   38  O1  UNL     1      -6.906   2.816   2.199  1.00  0.00    -0.269 OA
ENDBRANCH  33  36
BRANCH  35  39
HETATM   39  C7  UNL     1      -6.073   0.102  -0.864  1.00  0.00     0.147 C 
HETATM   40  S1  UNL     1      -5.092   0.538  -2.339  1.00  0.00    -0.091 SA
ENDBRANCH  35  39
ENDBRANCH  28  29
ENDBRANCH   5  28
TORSDOF 13
