REMARK  16 active torsions:
REMARK  status: ('A' for Active; 'I' for Inactive)
REMARK    1  A    between atoms: C2_2  and  C3_3 
REMARK    2  A    between atoms: C3_3  and  C4_4 
REMARK    3  A    between atoms: C4_4  and  N1_5 
REMARK       I    between atoms: N1_5  and  C5_7 
REMARK    4  A    between atoms: C5_7  and  C6_9 
REMARK    5  A    between atoms: C6_9  and  C7_10 
REMARK    6  A    between atoms: C7_10  and  C8_11 
REMARK    7  A    between atoms: C8_11  and  C9_12 
REMARK    8  A    between atoms: C9_12  and  C10_13 
REMARK    9  A    between atoms: C10_13  and  C11_14 
REMARK   10  A    between atoms: C12_18  and  C13_19 
REMARK   11  A    between atoms: C13_19  and  C14_20 
REMARK   12  A    between atoms: C14_20  and  C15_21 
REMARK   13  A    between atoms: C15_21  and  N3_22 
REMARK       I    between atoms: N3_22  and  C16_23 
REMARK   14  A    between atoms: N6_28  and  C18_29 
REMARK   15  A    between atoms: C18_29  and  O3_30 
REMARK   16  A    between atoms: C19_32  and  C20_33 
ROOT
HETATM    1  C11 UNL     1       0.333   0.624  -0.360  1.00  0.00     0.278 C 
HETATM    2  N2  UNL     1      -0.216   2.002  -0.083  1.00  0.00    -0.050 N 
ATOM      3  H21 UNL     1      -0.073   2.669  -0.841  1.00  0.00     0.279 HD
ATOM      4  H22 UNL     1       0.302   2.524   0.624  1.00  0.00     0.279 HD
HETATM    5  C12 UNL     1      -1.637   1.764   0.257  1.00  0.00     0.279 C 
HETATM    6  C17 UNL     1      -2.241   0.674  -0.542  1.00  0.00     0.258 C 
HETATM    7  O2  UNL     1      -2.707   1.009  -1.633  1.00  0.00    -0.271 OA
HETATM    8  N6  UNL     1      -2.428  -0.788  -0.319  1.00  0.00    -0.275 N 
HETATM    9  C28 UNL     1      -1.989  -1.593   0.797  1.00  0.00     0.192 C 
HETATM   10  C29 UNL     1      -1.367  -2.926   0.513  1.00  0.00     0.056 C 
HETATM   11  N8  UNL     1      -0.920  -0.858   1.492  1.00  0.00    -0.338 N 
ATOM     12  H8  UNL     1      -0.937  -0.923   2.510  1.00  0.00     0.164 HD
HETATM   13  C30 UNL     1       0.145  -0.061   0.945  1.00  0.00     0.250 C 
HETATM   14  O4  UNL     1       1.067   0.046   1.779  1.00  0.00    -0.271 OA
ENDROOT
BRANCH   8  15
HETATM   15  C18 UNL     1      -3.163  -1.348  -1.339  1.00  0.00     0.147 C 
HETATM   16  C19 UNL     1      -3.716  -2.610  -1.669  1.00  0.00     0.070 C 
BRANCH  15  17
HETATM   17  O3  UNL     1      -3.487  -0.448  -2.354  1.00  0.00    -0.346 OA
ATOM     18  H3  UNL     1      -3.994  -0.835  -3.058  1.00  0.00     0.219 HD
ENDBRANCH  15  17
BRANCH  16  19
HETATM   19  C20 UNL     1      -5.207  -2.752  -1.410  1.00  0.00    -0.004 A 
HETATM   20  C21 UNL     1      -6.162  -2.494  -2.385  1.00  0.00     0.101 A 
HETATM   21  N7  UNL     1      -7.389  -2.673  -1.794  1.00  0.00    -0.364 N 
HETATM   22  C22 UNL     1      -7.258  -3.030  -0.515  1.00  0.00     0.043 A 
ATOM     23  H7  UNL     1      -8.283  -2.549  -2.270  1.00  0.00     0.165 HD
HETATM   24  C23 UNL     1      -8.164  -3.340   0.496  1.00  0.00     0.030 A 
HETATM   25  C27 UNL     1      -5.880  -3.076  -0.280  1.00  0.00     0.002 A 
HETATM   26  C24 UNL     1      -7.680  -3.695   1.726  1.00  0.00     0.002 A 
HETATM   27  C25 UNL     1      -6.308  -3.744   1.951  1.00  0.00     0.001 A 
HETATM   28  C26 UNL     1      -5.422  -3.442   0.976  1.00  0.00     0.014 A 
ENDBRANCH  16  19
ENDBRANCH   8  15
BRANCH   5  29
HETATM   29  C13 UNL     1      -2.299   3.101  -0.066  1.00  0.00     0.049 C 
BRANCH  29  30
HETATM   30  C14 UNL     1      -1.679   4.184   0.810  1.00  0.00     0.062 C 
BRANCH  30  31
HETATM   31  C15 UNL     1      -2.296   5.532   0.385  1.00  0.00     0.158 C 
BRANCH  31  32
HETATM   32  N3  UNL     1      -3.583   5.749   0.458  1.00  0.00    -0.393 NA
HETATM   33  C16 UNL     1      -4.755   5.925   0.529  1.00  0.00     0.274 C 
HETATM   34  N4  UNL     1      -5.689   4.904   0.819  1.00  0.00    -0.052 NA
HETATM   35  N5  UNL     1      -5.346   7.240   0.244  1.00  0.00    -0.052 NA
ENDBRANCH  31  32
ENDBRANCH  30  31
ENDBRANCH  29  30
ENDBRANCH   5  29
BRANCH   1  36
HETATM   36  C10 UNL     1       1.694   0.684  -0.919  1.00  0.00     0.043 C 
BRANCH  36  37
HETATM   37  C9  UNL     1       2.333  -0.545  -1.389  1.00  0.00     0.002 C 
BRANCH  37  38
HETATM   38  C8  UNL     1       2.786  -1.656  -0.560  1.00  0.00     0.001 C 
BRANCH  38  39
HETATM   39  C7  UNL     1       3.935  -1.344   0.360  1.00  0.00     0.009 C 
BRANCH  39  40
HETATM   40  C6  UNL     1       5.110  -0.756  -0.442  1.00  0.00     0.103 C 
BRANCH  40  41
HETATM   41  C5  UNL     1       6.203  -0.518   0.528  1.00  0.00     0.217 C 
HETATM   42  N1  UNL     1       7.346   0.208   0.174  1.00  0.00    -0.361 N 
ATOM     43  H1  UNL     1       7.450   0.604  -0.760  1.00  0.00     0.162 HD
HETATM   44  O1  UNL     1       6.118  -0.971   1.708  1.00  0.00    -0.274 OA
BRANCH  42  45
HETATM   45  C4  UNL     1       8.392   0.382   1.193  1.00  0.00     0.122 C 
BRANCH  45  46
HETATM   46  C3  UNL     1       9.012  -0.919   1.594  1.00  0.00     0.019 C 
BRANCH  46  47
HETATM   47  C2  UNL     1       9.701  -1.591   0.408  1.00  0.00    -0.003 C 
HETATM   48  C1  UNL     1      10.804  -0.702  -0.134  1.00  0.00     0.005 C 
ENDBRANCH  46  47
ENDBRANCH  45  46
ENDBRANCH  42  45
ENDBRANCH  40  41
ENDBRANCH  39  40
ENDBRANCH  38  39
ENDBRANCH  37  38
ENDBRANCH  36  37
ENDBRANCH   1  36
TORSDOF 16
