REMARK  17 active torsions:
REMARK  status: ('A' for Active; 'I' for Inactive)
REMARK    1  A    between atoms: C2_2  and  C3_3 
REMARK       I    between atoms: C3_3  and  N1_5 
REMARK    2  A    between atoms: N1_5  and  C4_7 
REMARK    3  A    between atoms: C4_7  and  C5_8 
REMARK    4  A    between atoms: C5_8  and  C6_9 
REMARK    5  A    between atoms: N2_12  and  C9_13 
REMARK    6  A    between atoms: C9_13  and  O2_14 
REMARK    7  A    between atoms: C9_13  and  C10_16 
REMARK    8  A    between atoms: C10_16  and  C11_17 
REMARK    9  A    between atoms: C10_16  and  N6_25 
REMARK   10  A    between atoms: C11_17  and  C12_18 
REMARK   11  A    between atoms: C12_18  and  C13_19 
REMARK   12  A    between atoms: C13_19  and  N3_20 
REMARK       I    between atoms: N6_25  and  C15_27 
REMARK   13  A    between atoms: C15_27  and  C16_29 
REMARK   14  A    between atoms: C16_29  and  C17_30 
REMARK   15  A    between atoms: C17_30  and  C18_31 
REMARK   16  A    between atoms: C18_31  and  C19_32 
REMARK   17  A    between atoms: C19_32  and  N7_33 
ROOT
HETATM    1  C10 UNL     1      -0.365  -1.167  -0.823  1.00  0.00     0.082 C 
ENDROOT
BRANCH   1   2
HETATM    2  C9  UNL     1       0.787  -0.347  -1.067  1.00  0.00     0.165 C 
BRANCH   2   3
HETATM    3  N2  UNL     1       2.067  -0.517  -1.568  1.00  0.00    -0.360 N 
HETATM    4  C8  UNL     1       2.644  -1.828  -1.807  1.00  0.00     0.125 C 
HETATM    5  C7  UNL     1       4.129  -1.734  -2.191  1.00  0.00     0.024 C 
HETATM    6  C6  UNL     1       4.720  -0.749  -1.229  1.00  0.00    -0.010 C 
HETATM    7  C30 UNL     1       4.253   0.662  -1.531  1.00  0.00     0.024 C 
HETATM    8  C29 UNL     1       2.824   0.688  -1.945  1.00  0.00     0.125 C 
BRANCH   6   9
HETATM    9  C5  UNL     1       6.195  -0.835  -1.180  1.00  0.00     0.024 C 
BRANCH   9  10
HETATM   10  C4  UNL     1       6.820   0.162  -0.233  1.00  0.00     0.123 C 
BRANCH  10  11
HETATM   11  N1  UNL     1       8.273  -0.048  -0.269  1.00  0.00    -0.358 N 
HETATM   12  C3  UNL     1       9.024   0.826   0.556  1.00  0.00     0.240 C 
HETATM   13  O1  UNL     1       8.472   1.727   1.264  1.00  0.00    -0.269 OA
ATOM     14  H1  UNL     1       8.709  -0.769  -0.844  1.00  0.00     0.162 HD
BRANCH  12  15
HETATM   15  C2  UNL     1      10.468   0.742   0.638  1.00  0.00     0.064 C 
HETATM   16  C1  UNL     1      11.160  -0.150  -0.031  1.00  0.00     0.017 C 
ENDBRANCH  12  15
ENDBRANCH  10  11
ENDBRANCH   9  10
ENDBRANCH   6   9
ENDBRANCH   2   3
BRANCH   2  17
HETATM   17  O2  UNL     1       0.558   0.932  -0.723  1.00  0.00    -0.344 OA
ATOM     18  H2  UNL     1      -0.320   1.049  -0.379  1.00  0.00     0.219 HD
ENDBRANCH   2  17
ENDBRANCH   1   2
BRANCH   1  19
HETATM   19  C11 UNL     1      -0.372  -2.562  -0.444  1.00  0.00     0.009 C 
BRANCH  19  20
HETATM   20  C12 UNL     1       0.204  -3.137   0.759  1.00  0.00     0.049 C 
BRANCH  20  21
HETATM   21  C13 UNL     1      -0.289  -2.690   2.112  1.00  0.00     0.126 C 
BRANCH  21  22
HETATM   22  N3  UNL     1       0.407  -3.462   3.148  1.00  0.00    -0.367 N 
HETATM   23  C14 UNL     1       0.914  -2.912   4.205  1.00  0.00     0.196 C 
HETATM   24  N4  UNL     1       1.560  -3.827   5.116  1.00  0.00    -0.067 NA
HETATM   25  N5  UNL     1       0.884  -1.547   4.519  1.00  0.00    -0.067 NA
ATOM     26  H3  UNL     1       0.495  -4.471   3.031  1.00  0.00     0.161 HD
ENDBRANCH  21  22
ENDBRANCH  20  21
ENDBRANCH  19  20
ENDBRANCH   1  19
BRANCH   1  27
HETATM   27  N6  UNL     1      -1.453  -0.450  -0.147  1.00  0.00    -0.322 N 
HETATM   28  C15 UNL     1      -2.530   0.176  -0.806  1.00  0.00     0.250 C 
HETATM   29  O3  UNL     1      -2.559   0.105  -2.049  1.00  0.00    -0.270 OA
ATOM     30  H6  UNL     1      -1.428  -0.401   0.872  1.00  0.00     0.169 HD
BRANCH  28  31
HETATM   31  C16 UNL     1      -3.611   0.909  -0.080  1.00  0.00     0.108 C 
HETATM   32  C20 UNL     1      -2.883   1.874   0.828  1.00  0.00     0.041 C 
HETATM   33  C21 UNL     1      -3.736   2.781   1.636  1.00  0.00     0.008 C 
HETATM   34  C22 UNL     1      -4.198   4.027   0.983  1.00  0.00    -0.010 A 
HETATM   35  C23 UNL     1      -3.658   4.386  -0.367  1.00  0.00     0.010 A 
HETATM   36  C28 UNL     1      -5.581   4.059   0.462  1.00  0.00    -0.004 A 
HETATM   37  C24 UNL     1      -5.064   4.491  -0.895  1.00  0.00    -0.008 A 
HETATM   38  C25 UNL     1      -5.465   3.391  -1.871  1.00  0.00     0.029 C 
HETATM   39  C26 UNL     1      -5.592   2.125  -0.985  1.00  0.00     0.078 C 
HETATM   40  C27 UNL     1      -6.212   2.724   0.197  1.00  0.00     0.030 C 
HETATM   41  N8  UNL     1      -4.429   1.458  -1.039  1.00  0.00    -0.401 N 
ATOM     42  H8  UNL     1      -4.079   1.332  -1.989  1.00  0.00     0.154 HD
BRANCH  31  43
HETATM   43  C17 UNL     1      -4.242  -0.163   0.800  1.00  0.00     0.042 C 
BRANCH  43  44
HETATM   44  C18 UNL     1      -4.818  -1.291  -0.023  1.00  0.00     0.030 C 
BRANCH  44  45
HETATM   45  C19 UNL     1      -5.440  -2.352   0.854  1.00  0.00     0.230 C 
BRANCH  45  46
HETATM   46  N7  UNL     1      -5.994  -3.413  -0.003  1.00  0.00    -0.079 N 
ATOM     47  H73 UNL     1      -6.647  -3.051  -0.698  1.00  0.00     0.274 HD
ATOM     48  H72 UNL     1      -5.301  -3.796  -0.645  1.00  0.00     0.274 HD
ATOM     49  H71 UNL     1      -6.414  -4.129   0.589  1.00  0.00     0.274 HD
ENDBRANCH  45  46
ENDBRANCH  44  45
ENDBRANCH  43  44
ENDBRANCH  31  43
ENDBRANCH  28  31
ENDBRANCH   1  27
TORSDOF 17
