REMARK  16 active torsions:
REMARK  status: ('A' for Active; 'I' for Inactive)
REMARK       I    between atoms: C1_2  and  N7_41 
REMARK    1  A    between atoms: N2_3  and  C2_5 
REMARK    2  A    between atoms: C2_5  and  C3_6 
REMARK    3  A    between atoms: C3_6  and  N3_7 
REMARK    4  A    between atoms: N3_7  and  C4_9 
REMARK    5  A    between atoms: N4_11  and  C6_12 
REMARK    6  A    between atoms: C6_12  and  C7_13 
REMARK    7  A    between atoms: C7_13  and  C8_14 
REMARK    8  A    between atoms: C8_14  and  C9_15 
REMARK    9  A    between atoms: C9_15  and  C10_16 
REMARK   10  A    between atoms: C10_16  and  C11_17 
REMARK   11  A    between atoms: C11_17  and  C12_18 
REMARK   12  A    between atoms: C12_18  and  C13_19 
REMARK       I    between atoms: C13_19  and  N5_21 
REMARK   13  A    between atoms: N5_21  and  C14_23 
REMARK   14  A    between atoms: C14_23  and  C15_24 
REMARK   15  A    between atoms: C15_24  and  C16_25 
REMARK   16  A    between atoms: C23_32  and  C24_33 
ROOT
HETATM    1  C4  UNL     1      -3.032  -0.463   0.717  1.00  0.00     0.117 A 
HETATM    2  C5  UNL     1      -1.646  -0.438   0.769  1.00  0.00     0.138 A 
HETATM    3  N4  UNL     1      -0.966  -1.582   0.949  1.00  0.00    -0.361 N 
HETATM    4  C22 UNL     1      -1.689  -2.710   1.070  1.00  0.00     0.120 A 
HETATM    5  C23 UNL     1      -3.055  -2.791   1.025  1.00  0.00     0.059 A 
HETATM    6  N6  UNL     1      -3.718  -1.639   0.845  1.00  0.00    -0.340 N 
ATOM      7  H6  UNL     1      -4.737  -1.640   0.803  1.00  0.00     0.167 HD
ENDROOT
BRANCH   3   8
HETATM    8  C6  UNL     1       0.471  -1.508   0.997  1.00  0.00     0.128 C 
BRANCH   8   9
HETATM    9  C7  UNL     1       1.176  -1.647  -0.265  1.00  0.00     0.020 C 
BRANCH   9  10
HETATM   10  C8  UNL     1       2.698  -1.511  -0.057  1.00  0.00     0.002 C 
BRANCH  10  11
HETATM   11  C9  UNL     1       3.199  -2.573   0.852  1.00  0.00     0.000 C 
BRANCH  11  12
HETATM   12  C10 UNL     1       4.653  -2.673   1.117  1.00  0.00     0.000 C 
BRANCH  12  13
HETATM   13  C11 UNL     1       5.301  -1.573   1.810  1.00  0.00     0.009 C 
BRANCH  13  14
HETATM   14  C12 UNL     1       5.344  -0.222   1.240  1.00  0.00     0.103 C 
BRANCH  14  15
HETATM   15  C13 UNL     1       5.980  -0.112  -0.097  1.00  0.00     0.217 C 
HETATM   16  O1  UNL     1       6.467  -1.078  -0.727  1.00  0.00    -0.274 OA
HETATM   17  N5  UNL     1       6.045   1.164  -0.709  1.00  0.00    -0.361 N 
ATOM     18  H5  UNL     1       5.649   1.955  -0.200  1.00  0.00     0.162 HD
BRANCH  17  19
HETATM   19  C14 UNL     1       6.628   1.422  -1.992  1.00  0.00     0.127 C 
BRANCH  19  20
HETATM   20  C15 UNL     1       8.093   1.099  -2.074  1.00  0.00     0.058 C 
BRANCH  20  21
HETATM   21  C16 UNL     1       8.878   1.913  -1.113  1.00  0.00    -0.057 A 
HETATM   22  C17 UNL     1       9.292   3.188  -1.488  1.00  0.00     0.007 A 
HETATM   23  C18 UNL     1      10.029   3.943  -0.621  1.00  0.00     0.001 A 
HETATM   24  C19 UNL     1      10.378   3.471   0.628  1.00  0.00     0.000 A 
HETATM   25  C20 UNL     1       9.974   2.209   1.014  1.00  0.00     0.001 A 
HETATM   26  C21 UNL     1       9.221   1.455   0.111  1.00  0.00     0.007 A 
ENDBRANCH  20  21
ENDBRANCH  19  20
ENDBRANCH  17  19
ENDBRANCH  14  15
ENDBRANCH  13  14
ENDBRANCH  12  13
ENDBRANCH  11  12
ENDBRANCH  10  11
ENDBRANCH   9  10
ENDBRANCH   8   9
ENDBRANCH   3   8
BRANCH   1  27
HETATM   27  N3  UNL     1      -3.675   0.654   0.543  1.00  0.00    -0.374 N 
ATOM     28  H3  UNL     1      -3.138   1.516   0.451  1.00  0.00     0.161 HD
BRANCH  27  29
HETATM   29  C3  UNL     1      -5.109   0.727   0.475  1.00  0.00     0.141 C 
BRANCH  29  30
HETATM   30  C2  UNL     1      -5.647   0.427  -0.894  1.00  0.00     0.142 C 
BRANCH  30  31
HETATM   31  N2  UNL     1      -7.086   0.510  -0.873  1.00  0.00    -0.363 N 
HETATM   32  C1  UNL     1      -7.800   1.376  -1.472  1.00  0.00     0.189 C 
HETATM   33  N1  UNL     1      -9.214   1.345  -1.369  1.00  0.00    -0.064 NA
HETATM   34  N7  UNL     1      -7.181   2.379  -2.248  1.00  0.00    -0.319 N 
HETATM   35  C30 UNL     1      -7.420   3.635  -1.967  1.00  0.00     0.103 A 
ATOM     36  H7  UNL     1      -6.557   2.129  -3.016  1.00  0.00     0.169 HD
HETATM   37  C31 UNL     1      -6.848   4.793  -2.689  1.00  0.00     0.198 A 
HETATM   38  N10 UNL     1      -8.246   4.178  -0.952  1.00  0.00    -0.319 N 
HETATM   39  N8  UNL     1      -7.398   5.928  -2.038  1.00  0.00    -0.357 N 
HETATM   40  C32 UNL     1      -8.164   5.589  -1.080  1.00  0.00     0.190 A 
ATOM     41  H8  UNL     1      -7.204   6.893  -2.304  1.00  0.00     0.162 HD
HETATM   42  N9  UNL     1      -8.882   6.485  -0.215  1.00  0.00    -0.063 NA
ATOM     43  H10 UNL     1      -8.792   3.658  -0.265  1.00  0.00     0.169 HD
ATOM     44  H2  UNL     1      -7.580  -0.194  -0.325  1.00  0.00     0.162 HD
ENDBRANCH  30  31
ENDBRANCH  29  30
ENDBRANCH  27  29
ENDBRANCH   1  27
BRANCH   5  45
HETATM   45  C24 UNL     1      -3.737  -4.097   1.170  1.00  0.00    -0.008 A 
HETATM   46  C25 UNL     1      -5.118  -4.159   1.120  1.00  0.00     0.014 A 
HETATM   47  C26 UNL     1      -5.843  -5.330   1.245  1.00  0.00     0.001 A 
HETATM   48  C27 UNL     1      -5.148  -6.499   1.429  1.00  0.00     0.000 A 
HETATM   49  C28 UNL     1      -3.773  -6.486   1.485  1.00  0.00     0.001 A 
HETATM   50  C29 UNL     1      -3.087  -5.278   1.354  1.00  0.00     0.014 A 
ENDBRANCH   5  45
TORSDOF 16
