REMARK  18 active torsions:
REMARK  status: ('A' for Active; 'I' for Inactive)
REMARK    1  A    between atoms: N1_2  and  C2_3 
REMARK       I    between atoms: N1_2  and  C23_42 
REMARK    2  A    between atoms: C2_3  and  C3_4 
REMARK    3  A    between atoms: C3_4  and  C4_5 
REMARK    4  A    between atoms: C4_5  and  C5_6 
REMARK    5  A    between atoms: N4_12  and  C7_14 
REMARK    6  A    between atoms: C7_14  and  C8_15 
REMARK    7  A    between atoms: C8_15  and  N5_16 
REMARK       I    between atoms: N5_16  and  C9_18 
REMARK       I    between atoms: C9_18  and  N8_23 
REMARK    8  A    between atoms: N8_23  and  N9_25 
REMARK    9  A    between atoms: N9_25  and  C11_26 
REMARK   10  A    between atoms: C11_26  and  C12_27 
REMARK   11  A    between atoms: C12_27  and  C13_28 
REMARK   12  A    between atoms: C13_28  and  C14_29 
REMARK   13  A    between atoms: C14_29  and  N10_30 
REMARK   14  A    between atoms: C15_34  and  C16_35 
REMARK   15  A    between atoms: C16_35  and  C17_36 
REMARK   16  A    between atoms: C23_42  and  C24_44 
REMARK   17  A    between atoms: C24_44  and  C25_45 
REMARK   18  A    between atoms: C26_46  and  C27_47 
ROOT
HETATM    1  N5  UNL     1      -5.329  -1.625   0.884  1.00  0.00    -0.223 N 
ATOM      2  H5  UNL     1      -5.767  -1.297   1.745  1.00  0.00     0.177 HD
HETATM    3  C9  UNL     1      -6.092  -1.701  -0.299  1.00  0.00     0.698 C 
HETATM    4  N6  UNL     1      -6.312  -2.837  -0.841  1.00  0.00    -0.125 N 
ATOM      5  H6  UNL     1      -5.927  -3.673  -0.401  1.00  0.00     0.197 HD
HETATM    6  C10 UNL     1      -7.057  -2.979  -2.009  1.00  0.00     0.196 C 
HETATM    7  N7  UNL     1      -7.692  -3.087  -2.973  1.00  0.00    -0.171 NA
HETATM    8  N8  UNL     1      -6.607  -0.523  -0.879  1.00  0.00    -0.136 N 
ATOM      9  H8  UNL     1      -6.273  -0.184  -1.781  1.00  0.00     0.201 HD
ENDROOT
BRANCH   1  10
HETATM   10  C8  UNL     1      -3.946  -2.002   0.894  1.00  0.00     0.157 C 
BRANCH  10  11
HETATM   11  C7  UNL     1      -3.115  -1.024   0.089  1.00  0.00     0.141 C 
BRANCH  11  12
HETATM   12  N4  UNL     1      -1.729  -1.371   0.076  1.00  0.00    -0.373 N 
HETATM   13  C6  UNL     1      -0.801  -0.643  -0.436  1.00  0.00     0.128 A 
HETATM   14  N3  UNL     1      -0.891   0.546  -1.047  1.00  0.00    -0.285 N 
HETATM   15  C15 UNL     1       0.561  -0.963  -0.461  1.00  0.00     0.037 A 
HETATM   16  N2  UNL     1       0.297   0.963  -1.434  1.00  0.00    -0.299 N 
ATOM     17  H3  UNL     1      -1.761   1.058  -1.193  1.00  0.00     0.188 HD
HETATM   18  C5  UNL     1       1.236   0.063  -1.095  1.00  0.00     0.058 A 
ATOM     19  H2  UNL     1       0.478   1.841  -1.920  1.00  0.00     0.187 HD
ATOM     20  H4  UNL     1      -1.457  -2.257   0.502  1.00  0.00     0.161 HD
BRANCH  18  21
HETATM   21  C4  UNL     1       2.541   0.115  -1.294  1.00  0.00     0.007 C 
BRANCH  21  22
HETATM   22  C3  UNL     1       3.204   1.240  -1.958  1.00  0.00     0.049 C 
BRANCH  22  23
HETATM   23  C2  UNL     1       4.449   0.921  -2.712  1.00  0.00     0.129 C 
BRANCH  23  24
HETATM   24  N1  UNL     1       5.502   0.331  -1.933  1.00  0.00    -0.356 N 
HETATM   25  C1  UNL     1       5.576  -1.114  -1.878  1.00  0.00     0.152 C 
HETATM   26  C23 UNL     1       6.460   1.084  -1.236  1.00  0.00     0.222 C 
HETATM   27  O1  UNL     1       6.411   2.330  -1.279  1.00  0.00    -0.273 OA
BRANCH  26  28
HETATM   28  C24 UNL     1       7.517   0.411  -0.454  1.00  0.00     0.130 C 
BRANCH  28  29
HETATM   29  C25 UNL     1       7.476   0.832   0.941  1.00  0.00    -0.017 C 
HETATM   30  C26 UNL     1       8.217   1.536   1.699  1.00  0.00     0.008 C 
BRANCH  30  31
HETATM   31  C27 UNL     1       9.442   2.234   1.453  1.00  0.00    -0.036 A 
HETATM   32  C28 UNL     1       9.966   2.486   0.217  1.00  0.00     0.011 A 
HETATM   33  C29 UNL     1      11.179   3.112   0.015  1.00  0.00     0.001 A 
HETATM   34  C30 UNL     1      11.936   3.523   1.090  1.00  0.00     0.000 A 
HETATM   35  C31 UNL     1      11.419   3.277   2.348  1.00  0.00     0.001 A 
HETATM   36  C32 UNL     1      10.232   2.664   2.533  1.00  0.00     0.011 A 
ENDBRANCH  30  31
ENDBRANCH  28  29
ENDBRANCH  26  28
ENDBRANCH  23  24
ENDBRANCH  22  23
ENDBRANCH  21  22
ENDBRANCH  18  21
BRANCH  15  37
HETATM   37  C16 UNL     1       1.091  -2.052   0.036  1.00  0.00     0.029 C 
BRANCH  37  38
HETATM   38  C17 UNL     1       0.356  -3.096   0.688  1.00  0.00    -0.035 A 
HETATM   39  C18 UNL     1      -0.120  -4.149  -0.056  1.00  0.00     0.011 A 
HETATM   40  C19 UNL     1      -0.820  -5.167   0.548  1.00  0.00     0.001 A 
HETATM   41  C20 UNL     1      -1.058  -5.155   1.907  1.00  0.00     0.000 A 
HETATM   42  C21 UNL     1      -0.583  -4.102   2.654  1.00  0.00     0.001 A 
HETATM   43  C22 UNL     1       0.113  -3.090   2.046  1.00  0.00     0.011 A 
ENDBRANCH  37  38
ENDBRANCH  15  37
ENDBRANCH  11  12
ENDBRANCH  10  11
ENDBRANCH   1  10
BRANCH   8  44
HETATM   44  N9  UNL     1      -7.599   0.162  -0.161  1.00  0.00    -0.126 NA
BRANCH  44  45
HETATM   45  C11 UNL     1      -7.974   1.395  -0.837  1.00  0.00     0.135 C 
BRANCH  45  46
HETATM   46  C12 UNL     1      -9.043   2.128  -0.063  1.00  0.00     0.019 C 
BRANCH  46  47
HETATM   47  C13 UNL     1     -10.249   1.234   0.050  1.00  0.00     0.028 C 
BRANCH  47  48
HETATM   48  C14 UNL     1     -11.372   1.906   0.817  1.00  0.00     0.229 C 
BRANCH  48  49
HETATM   49  N10 UNL     1     -11.742   3.111   0.106  1.00  0.00    -0.079 N 
ATOM     50 3H10 UNL     1     -10.949   3.732  -0.057  1.00  0.00     0.274 HD
ATOM     51 2H10 UNL     1     -11.981   2.935  -0.870  1.00  0.00     0.274 HD
ATOM     52 1H10 UNL     1     -12.497   3.563   0.622  1.00  0.00     0.274 HD
ENDBRANCH  48  49
ENDBRANCH  47  48
ENDBRANCH  46  47
ENDBRANCH  45  46
ENDBRANCH  44  45
ENDBRANCH   8  44
TORSDOF 18
