REMARK  16 active torsions:
REMARK  status: ('A' for Active; 'I' for Inactive)
REMARK    1  A    between atoms: C2_2  and  C4_4 
REMARK    2  A    between atoms: C2_2  and  N4_22 
REMARK    3  A    between atoms: C4_4  and  C5_5 
REMARK    4  A    between atoms: C5_5  and  C6_6 
REMARK    5  A    between atoms: C6_6  and  N1_7 
REMARK       I    between atoms: C7_9  and  N3_11 
REMARK    6  A    between atoms: N3_11  and  C8_13 
REMARK    7  A    between atoms: C8_13  and  C9_14 
REMARK    8  A    between atoms: C9_14  and  C10_15 
REMARK    9  A    between atoms: C10_15  and  C11_16 
REMARK   10  A    between atoms: N4_22  and  C17_23 
REMARK   11  A    between atoms: N4_22  and  C24_30 
REMARK   12  A    between atoms: C17_23  and  C18_24 
REMARK   13  A    between atoms: C26_35  and  C27_36 
REMARK   14  A    between atoms: C27_36  and  C28_37 
REMARK   15  A    between atoms: C28_37  and  C29_38 
REMARK   16  A    between atoms: C29_38  and  N6_39 
ROOT
HETATM    1  N4  UNL     1      -1.661  -1.003  -0.179  1.00  0.00    -0.352 N 
ENDROOT
BRANCH   1   2
HETATM    2  C2  UNL     1      -0.540  -1.647  -0.699  1.00  0.00     0.027 C 
HETATM    3  C1  UNL     1      -0.973  -2.918  -1.475  1.00  0.00     0.038 C 
HETATM    4  C3  UNL     1       0.349  -0.953  -1.660  1.00  0.00     0.038 C 
BRANCH   2   5
HETATM    5  C4  UNL     1       0.334  -2.267   0.399  1.00  0.00     0.035 C 
BRANCH   5   6
HETATM    6  C5  UNL     1       0.970  -1.432   1.396  1.00  0.00     0.047 C 
BRANCH   6   7
HETATM    7  C6  UNL     1       2.085  -0.479   0.990  1.00  0.00     0.063 C 
BRANCH   7   8
HETATM    8  N1  UNL     1       3.160  -1.184   0.471  1.00  0.00    -0.344 N 
HETATM    9  C7  UNL     1       4.339  -1.265   0.271  1.00  0.00     0.187 C 
HETATM   10  N2  UNL     1       4.843  -2.434  -0.418  1.00  0.00    -0.064 NA
HETATM   11  N3  UNL     1       5.328  -0.326   0.638  1.00  0.00    -0.364 N 
ATOM     12  H3  UNL     1       5.289   0.165   1.531  1.00  0.00     0.162 HD
ATOM     13  H1  UNL     1       2.759  -2.033   0.072  1.00  0.00     0.167 HD
BRANCH  11  14
HETATM   14  C8  UNL     1       6.389  -0.092  -0.297  1.00  0.00     0.122 C 
BRANCH  14  15
HETATM   15  C9  UNL     1       7.447   0.845   0.223  1.00  0.00     0.024 C 
BRANCH  15  16
HETATM   16  C10 UNL     1       8.499   0.971  -0.884  1.00  0.00     0.040 C 
BRANCH  16  17
HETATM   17  C11 UNL     1       9.575   1.849  -0.417  1.00  0.00    -0.058 A 
HETATM   18  C12 UNL     1       9.544   3.203  -0.636  1.00  0.00     0.007 A 
HETATM   19  C13 UNL     1      10.592   4.025  -0.195  1.00  0.00     0.001 A 
HETATM   20  C14 UNL     1      11.665   3.474   0.465  1.00  0.00     0.000 A 
HETATM   21  C15 UNL     1      11.707   2.116   0.691  1.00  0.00     0.001 A 
HETATM   22  C16 UNL     1      10.671   1.321   0.252  1.00  0.00     0.007 A 
ENDBRANCH  16  17
ENDBRANCH  15  16
ENDBRANCH  14  15
ENDBRANCH  11  14
ENDBRANCH   7   8
ENDBRANCH   6   7
ENDBRANCH   5   6
ENDBRANCH   2   5
ENDBRANCH   1   2
BRANCH   1  23
HETATM   23  C17 UNL     1      -2.456  -1.587   0.818  1.00  0.00     0.100 C 
BRANCH  23  24
HETATM   24  C18 UNL     1      -3.240  -2.809   0.605  1.00  0.00    -0.021 A 
HETATM   25  C19 UNL     1      -3.111  -3.868   1.496  1.00  0.00     0.013 A 
HETATM   26  C20 UNL     1      -3.851  -5.014   1.359  1.00  0.00     0.001 A 
HETATM   27  C21 UNL     1      -4.745  -5.116   0.309  1.00  0.00     0.000 A 
HETATM   28  C22 UNL     1      -4.882  -4.068  -0.582  1.00  0.00     0.001 A 
HETATM   29  C23 UNL     1      -4.137  -2.942  -0.425  1.00  0.00     0.013 A 
ENDBRANCH  23  24
ENDBRANCH   1  23
BRANCH   1  30
HETATM   30  C24 UNL     1      -2.000   0.311  -0.557  1.00  0.00     0.281 C 
HETATM   31  N5  UNL     1      -2.890   0.963   0.389  1.00  0.00    -0.330 N 
HETATM   32  C25 UNL     1      -4.153   1.460   0.053  1.00  0.00     0.242 C 
ATOM     33  H5  UNL     1      -2.575   1.064   1.354  1.00  0.00     0.165 HD
HETATM   34  O1  UNL     1      -4.773   2.118   0.964  1.00  0.00    -0.271 OA
HETATM   35  C26 UNL     1      -4.759   1.263  -1.243  1.00  0.00     0.176 C 
HETATM   36  N9  UNL     1      -3.877   0.628  -2.167  1.00  0.00    -0.344 N 
HETATM   37  C31 UNL     1      -2.453   0.624  -1.907  1.00  0.00     0.261 C 
ATOM     38  H9  UNL     1      -4.247   0.180  -3.005  1.00  0.00     0.163 HD
HETATM   39  O2  UNL     1      -1.768   0.904  -2.921  1.00  0.00    -0.269 OA
BRANCH  35  40
HETATM   40  C27 UNL     1      -6.066   0.557  -1.259  1.00  0.00     0.036 C 
BRANCH  40  41
HETATM   41  C28 UNL     1      -7.202   1.163  -0.532  1.00  0.00     0.022 C 
BRANCH  41  42
HETATM   42  C29 UNL     1      -7.537   2.533  -1.099  1.00  0.00     0.122 C 
BRANCH  42  43
HETATM   43  N6  UNL     1      -8.659   3.048  -0.412  1.00  0.00    -0.367 N 
HETATM   44  C30 UNL     1      -8.694   3.742   0.607  1.00  0.00     0.196 C 
HETATM   45  N7  UNL     1      -7.570   4.184   1.333  1.00  0.00    -0.067 NA
HETATM   46  N8  UNL     1      -9.985   4.140   1.115  1.00  0.00    -0.067 NA
ATOM     47  H6  UNL     1      -9.566   2.813  -0.815  1.00  0.00     0.161 HD
ENDBRANCH  42  43
ENDBRANCH  41  42
ENDBRANCH  40  41
ENDBRANCH  35  40
ENDBRANCH   1  30
TORSDOF 16
