REMARK  15 active torsions:
REMARK  status: ('A' for Active; 'I' for Inactive)
REMARK    1  A    between atoms: N1_2  and  C3_4 
REMARK    2  A    between atoms: N1_2  and  C17_22 
REMARK    3  A    between atoms: C4_5  and  C5_6 
REMARK    4  A    between atoms: C5_6  and  C6_7 
REMARK    5  A    between atoms: C6_7  and  C7_8 
REMARK    6  A    between atoms: C7_8  and  N2_9 
REMARK    7  A    between atoms: C17_22  and  C18_23 
REMARK    8  A    between atoms: C19_26  and  C20_27 
REMARK    9  A    between atoms: C20_27  and  O1_28 
REMARK   10  A    between atoms: C21_30  and  C22_31 
REMARK   11  A    between atoms: C22_31  and  C23_32 
REMARK   12  A    between atoms: C23_32  and  C24_33 
REMARK   13  A    between atoms: C24_33  and  N5_34 
REMARK   14  A    between atoms: N8_41  and  C27_42 
REMARK   15  A    between atoms: C27_42  and  C28_43 
ROOT
HETATM    1  C18 UNL     1       1.393  -0.590  -0.326  1.00  0.00     0.209 C 
HETATM    2  N4  UNL     1       1.737  -1.162   0.949  1.00  0.00    -0.393 N 
ATOM      3  H4  UNL     1       1.022  -1.477   1.605  1.00  0.00     0.155 HD
HETATM    4  C19 UNL     1       3.125  -1.267   1.250  1.00  0.00     0.115 C 
HETATM    5  C21 UNL     1       3.782   0.082   1.413  1.00  0.00     0.102 C 
HETATM    6  C26 UNL     1       3.100   0.997   0.472  1.00  0.00     0.228 C 
HETATM    7  O2  UNL     1       3.261   2.246   0.603  1.00  0.00    -0.273 OA
HETATM    8  N8  UNL     1       2.279   0.535  -0.562  1.00  0.00    -0.323 N 
ENDROOT
BRANCH   1   9
HETATM    9  C17 UNL     1      -0.046  -0.151  -0.345  1.00  0.00     0.288 C 
BRANCH   9  10
HETATM   10  N1  UNL     1      -1.041  -1.145  -0.135  1.00  0.00    -0.051 N 
HETATM   11  C1  UNL     1      -0.471  -2.482   0.162  1.00  0.00     0.278 C 
HETATM   12  C2  UNL     1      -1.796  -1.402  -1.348  1.00  0.00     0.278 C 
BRANCH  10  13
HETATM   13  C3  UNL     1      -1.946  -0.897   0.938  1.00  0.00     0.198 C 
HETATM   14  C4  UNL     1      -2.125   0.412   1.520  1.00  0.00    -0.002 C 
BRANCH  14  15
HETATM   15  C5  UNL     1      -2.652   1.612   0.897  1.00  0.00     0.030 C 
BRANCH  15  16
HETATM   16  C6  UNL     1      -4.074   1.710   0.496  1.00  0.00     0.023 C 
BRANCH  16  17
HETATM   17  C7  UNL     1      -4.661   0.806  -0.498  1.00  0.00     0.120 C 
BRANCH  17  18
HETATM   18  N2  UNL     1      -6.066   1.091  -0.760  1.00  0.00    -0.389 N 
HETATM   19  C8  UNL     1      -6.992   0.650  -0.006  1.00  0.00     0.041 A 
HETATM   20  C9  UNL     1      -6.811  -0.120   1.107  1.00  0.00     0.047 A 
HETATM   21  C16 UNL     1      -8.299   0.994  -0.360  1.00  0.00     0.017 A 
HETATM   22  C10 UNL     1      -7.897  -0.556   1.877  1.00  0.00     0.090 A 
HETATM   23  N3  UNL     1      -9.146  -0.220   1.529  1.00  0.00    -0.365 N 
HETATM   24  C11 UNL     1      -9.326   0.541   0.428  1.00  0.00     0.044 A 
ATOM     25  H3  UNL     1      -9.943  -0.532   2.083  1.00  0.00     0.165 HD
HETATM   26  C12 UNL     1     -10.611   0.901   0.048  1.00  0.00     0.030 A 
HETATM   27  C13 UNL     1     -10.854   1.676  -1.066  1.00  0.00     0.002 A 
HETATM   28  C14 UNL     1      -9.803   2.112  -1.832  1.00  0.00     0.001 A 
HETATM   29  C15 UNL     1      -8.513   1.780  -1.494  1.00  0.00     0.016 A 
ATOM     30  H2  UNL     1      -6.314   1.659  -1.570  1.00  0.00     0.159 HD
ENDBRANCH  17  18
ENDBRANCH  16  17
ENDBRANCH  15  16
ENDBRANCH  14  15
ENDBRANCH  10  13
ENDBRANCH   9  10
ENDBRANCH   1   9
BRANCH   8  31
HETATM   31  C27 UNL     1       2.265   1.154  -1.896  1.00  0.00     0.186 C 
BRANCH  31  32
HETATM   32  C28 UNL     1       3.307   0.437  -2.711  1.00  0.00     0.043 A 
HETATM   33  C29 UNL     1       3.153  -0.745  -3.405  1.00  0.00     0.115 A 
HETATM   34  N9  UNL     1       4.307  -1.060  -4.009  1.00  0.00    -0.360 N 
HETATM   35  C30 UNL     1       5.188  -0.089  -3.704  1.00  0.00     0.180 A 
ATOM     36  H9  UNL     1       4.484  -1.880  -4.590  1.00  0.00     0.166 HD
HETATM   37  N10 UNL     1       4.581   0.817  -2.917  1.00  0.00    -0.353 N 
ATOM     38  H10 UNL     1       5.017   1.657  -2.537  1.00  0.00     0.166 HD
ENDBRANCH  31  32
ENDBRANCH   8  31
BRANCH   4  39
HETATM   39  C20 UNL     1       3.193  -2.062   2.563  1.00  0.00     0.189 C 
BRANCH  39  40
HETATM   40  O1  UNL     1       2.619  -3.311   2.372  1.00  0.00    -0.399 OA
ATOM     41  H1  UNL     1       2.661  -3.803   3.184  1.00  0.00     0.209 HD
ENDBRANCH  39  40
ENDBRANCH   4  39
BRANCH   5  42
HETATM   42  C22 UNL     1       5.230   0.106   0.976  1.00  0.00     0.018 C 
BRANCH  42  43
HETATM   43  C23 UNL     1       6.141  -0.816   1.687  1.00  0.00     0.020 C 
BRANCH  43  44
HETATM   44  C24 UNL     1       7.539  -0.599   1.085  1.00  0.00     0.122 C 
BRANCH  44  45
HETATM   45  N5  UNL     1       7.955   0.776   1.273  1.00  0.00    -0.367 N 
HETATM   46  C25 UNL     1       8.877   1.327   0.566  1.00  0.00     0.196 C 
HETATM   47  N6  UNL     1       9.517   0.559  -0.443  1.00  0.00    -0.067 NA
HETATM   48  N7  UNL     1       9.299   2.661   0.731  1.00  0.00    -0.067 NA
ATOM     49  H5  UNL     1       7.497   1.330   1.997  1.00  0.00     0.161 HD
ENDBRANCH  44  45
ENDBRANCH  43  44
ENDBRANCH  42  43
ENDBRANCH   5  42
TORSDOF 15
