REMARK  15 active torsions:
REMARK  status: ('A' for Active; 'I' for Inactive)
REMARK    1  A    between atoms: N1_2  and  C3_4 
REMARK    2  A    between atoms: C3_4  and  C4_5 
REMARK    3  A    between atoms: C4_5  and  C5_6 
REMARK    4  A    between atoms: C5_6  and  C6_7 
REMARK    5  A    between atoms: C6_7  and  C7_8 
REMARK    6  A    between atoms: C6_7  and  N5_19 
REMARK    7  A    between atoms: C7_8  and  C8_9 
REMARK    8  A    between atoms: C8_9  and  C9_10 
REMARK    9  A    between atoms: C9_10  and  C10_11 
REMARK   10  A    between atoms: C10_11  and  N2_12 
REMARK       I    between atoms: N2_12  and  C11_14 
REMARK   11  A    between atoms: C13_22  and  C14_23 
REMARK   12  A    between atoms: C14_23  and  C15_24 
REMARK   13  A    between atoms: C15_24  and  C16_25 
REMARK   14  A    between atoms: C16_25  and  N6_26 
REMARK   15  A    between atoms: C18_34  and  C19_35 
ROOT
HETATM    1  N5  UNL     1       0.410   0.591  -0.504  1.00  0.00    -0.311 N 
HETATM    2  C12 UNL     1      -0.696   0.836   0.369  1.00  0.00     0.255 C 
HETATM    3  O1  UNL     1      -0.541   1.926   0.917  1.00  0.00    -0.271 OA
HETATM    4  C13 UNL     1      -1.945   0.105   0.752  1.00  0.00     0.278 C 
HETATM    5  N9  UNL     1      -2.402  -0.739  -0.349  1.00  0.00    -0.052 N 
ATOM      6  H91 UNL     1      -2.151  -0.323  -1.246  1.00  0.00     0.279 HD
ATOM      7  H92 UNL     1      -3.419  -0.710  -0.423  1.00  0.00     0.279 HD
HETATM    8  C18 UNL     1      -1.948  -2.078  -0.280  1.00  0.00     0.240 C 
HETATM    9  C25 UNL     1      -0.994  -2.544  -1.334  1.00  0.00     0.080 C 
HETATM   10  C26 UNL     1      -0.180  -1.504  -1.984  1.00  0.00    -0.029 A 
HETATM   11  C27 UNL     1       0.054  -1.981  -3.270  1.00  0.00     0.009 A 
HETATM   12  C28 UNL     1       0.800  -1.278  -4.191  1.00  0.00     0.001 A 
HETATM   13  C29 UNL     1       1.351  -0.058  -3.867  1.00  0.00     0.002 A 
HETATM   14  C30 UNL     1       1.136   0.445  -2.597  1.00  0.00     0.030 A 
HETATM   15  C31 UNL     1       0.392  -0.268  -1.693  1.00  0.00     0.044 A 
ENDROOT
BRANCH   1  16
HETATM   16  C6  UNL     1       1.632   1.174  -0.292  1.00  0.00     0.093 C 
BRANCH  16  17
HETATM   17  C5  UNL     1       1.888   2.608   0.033  1.00  0.00     0.027 C 
BRANCH  17  18
HETATM   18  C4  UNL     1       3.359   2.971   0.126  1.00  0.00     0.032 C 
BRANCH  18  19
HETATM   19  C3  UNL     1       4.138   2.748  -1.120  1.00  0.00     0.271 C 
BRANCH  19  20
HETATM   20  N1  UNL     1       3.690   3.497  -2.266  1.00  0.00     0.080 N 
HETATM   21  C1  UNL     1       3.886   4.901  -2.186  1.00  0.00     0.309 C 
HETATM   22  C2  UNL     1       4.059   2.911  -3.515  1.00  0.00     0.309 C 
ENDBRANCH  19  20
ENDBRANCH  18  19
ENDBRANCH  17  18
ENDBRANCH  16  17
BRANCH  16  23
HETATM   23  C7  UNL     1       2.267   0.413   0.885  1.00  0.00     0.026 C 
BRANCH  23  24
HETATM   24  C8  UNL     1       2.114  -1.088   0.756  1.00  0.00     0.004 C 
BRANCH  24  25
HETATM   25  C9  UNL     1       2.802  -1.696   1.973  1.00  0.00     0.020 C 
BRANCH  25  26
HETATM   26  C10 UNL     1       4.260  -1.356   2.053  1.00  0.00     0.122 C 
BRANCH  26  27
HETATM   27  N2  UNL     1       4.985  -1.819   0.884  1.00  0.00    -0.365 N 
HETATM   28  C11 UNL     1       5.127  -3.225   0.702  1.00  0.00     0.181 C 
HETATM   29  N3  UNL     1       4.452  -3.891  -0.157  1.00  0.00    -0.374 N 
HETATM   30  N4  UNL     1       6.061  -3.897   1.515  1.00  0.00    -0.064 NA
ATOM     31  H32 UNL     1       3.776  -3.404  -0.746  1.00  0.00     0.158 HD
ATOM     32  H31 UNL     1       4.554  -4.898  -0.287  1.00  0.00     0.158 HD
ATOM     33  H2  UNL     1       5.380  -1.159   0.214  1.00  0.00     0.162 HD
ENDBRANCH  26  27
ENDBRANCH  25  26
ENDBRANCH  24  25
ENDBRANCH  23  24
ENDBRANCH  16  23
ENDBRANCH   1  16
BRANCH   4  34
HETATM   34  C14 UNL     1      -2.929   1.136   1.186  1.00  0.00     0.044 C 
BRANCH  34  35
HETATM   35  C15 UNL     1      -4.247   0.553   1.612  1.00  0.00     0.022 C 
BRANCH  35  36
HETATM   36  C16 UNL     1      -5.142   1.713   2.032  1.00  0.00     0.122 C 
BRANCH  36  37
HETATM   37  N6  UNL     1      -4.545   2.444   3.132  1.00  0.00    -0.367 N 
HETATM   38  C17 UNL     1      -4.930   3.611   3.514  1.00  0.00     0.196 C 
HETATM   39  N7  UNL     1      -5.992   4.332   2.904  1.00  0.00    -0.067 NA
HETATM   40  N8  UNL     1      -4.246   4.191   4.603  1.00  0.00    -0.067 NA
ATOM     41  H6  UNL     1      -3.772   2.007   3.634  1.00  0.00     0.161 HD
ENDBRANCH  36  37
ENDBRANCH  35  36
ENDBRANCH  34  35
ENDBRANCH   4  34
BRANCH   8  42
HETATM   42  C19 UNL     1      -3.023  -3.075  -0.027  1.00  0.00     0.042 A 
HETATM   43  C20 UNL     1      -2.937  -4.069   0.925  1.00  0.00     0.027 A 
HETATM   44  C21 UNL     1      -3.933  -4.987   1.147  1.00  0.00     0.003 A 
HETATM   45  C22 UNL     1      -5.072  -4.909   0.378  1.00  0.00     0.017 A 
HETATM   46  C23 UNL     1      -5.144  -3.915  -0.565  1.00  0.00     0.090 A 
HETATM   47  N10 UNL     1      -4.135  -3.025  -0.754  1.00  0.00    -0.363 N 
HETATM   48  C24 UNL     1      -4.321  -2.044  -1.765  1.00  0.00     0.155 C 
ENDBRANCH   8  42
TORSDOF 15
