REMARK  15 active torsions:
REMARK  status: ('A' for Active; 'I' for Inactive)
REMARK    1  A    between atoms: N1_1  and  C1_4 
REMARK    2  A    between atoms: C2_7  and  C3_8 
REMARK    3  A    between atoms: C3_8  and  C4_10 
REMARK    4  A    between atoms: N3_11  and  C5_13 
REMARK    5  A    between atoms: C10_25  and  N5_26 
REMARK    6  A    between atoms: N5_26  and  C11_28 
REMARK    7  A    between atoms: C11_28  and  C12_29 
REMARK    8  A    between atoms: C12_29  and  O7_31 
REMARK    9  A    between atoms: O7_31  and  C13_32 
REMARK   10  A    between atoms: C13_32  and  C14_33 
REMARK   11  A    between atoms: C14_33  and  N6_34 
REMARK   12  A    between atoms: C14_33  and  O8_38 
REMARK   13  A    between atoms: N8_44  and  N9_45 
REMARK   14  A    between atoms: N9_45  and  S2_47 
REMARK   15  A    between atoms: S2_47  and  C17_50 
ROOT
HETATM    1  C5  UNL     1       0.144   0.367  -0.870  1.00  0.00     0.217 C 
HETATM    2  C6  UNL     1      -0.504   0.795  -2.136  1.00  0.00     0.239 C 
HETATM    3  O2  UNL     1      -0.985  -0.203  -2.947  1.00  0.00    -0.255 OA
HETATM    4  S1  UNL     1      -0.171  -0.385  -4.375  1.00  0.00     0.364 S 
HETATM    5  O3  UNL     1       0.146   0.992  -4.918  1.00  0.00    -0.175 OA
HETATM    6  O4  UNL     1      -0.999  -1.090  -5.380  1.00  0.00    -0.175 OA
HETATM    7  N4  UNL     1       1.316  -1.265  -4.100  1.00  0.00    -0.226 N 
ATOM      8  H4  UNL     1       1.530  -1.943  -4.832  1.00  0.00     0.184 HD
HETATM    9  C7  UNL     1       2.289  -1.225  -3.059  1.00  0.00     0.283 C 
HETATM   10  O5  UNL     1       3.241  -2.041  -3.171  1.00  0.00    -0.265 OA
HETATM   11  C8  UNL     1       2.465  -0.431  -1.835  1.00  0.00     0.110 A 
HETATM   12  C9  UNL     1       3.850  -0.395  -1.623  1.00  0.00     0.065 A 
HETATM   13  C10 UNL     1       4.379   0.276  -0.547  1.00  0.00     0.036 A 
HETATM   14  C15 UNL     1       3.490   0.903   0.301  1.00  0.00     0.104 A 
HETATM   15  C16 UNL     1       2.143   0.837   0.050  1.00  0.00     0.252 A 
HETATM   16  O9  UNL     1       1.332   1.410   0.825  1.00  0.00    -0.268 OA
HETATM   17  N7  UNL     1       1.605   0.174  -1.015  1.00  0.00    -0.285 N 
ENDROOT
BRANCH   1  18
HETATM   18  N3  UNL     1      -0.468  -0.617  -0.138  1.00  0.00    -0.372 N 
HETATM   19  C4  UNL     1      -1.608  -0.602   0.605  1.00  0.00     0.144 C 
ATOM     20  H3  UNL     1       0.014  -1.516  -0.153  1.00  0.00     0.161 HD
BRANCH  19  21
HETATM   21  C3  UNL     1      -2.965  -0.478   0.134  1.00  0.00     0.234 C 
HETATM   22  O1  UNL     1      -3.304   0.256  -0.802  1.00  0.00    -0.283 OA
BRANCH  21  23
HETATM   23  C2  UNL     1      -4.052  -1.256   0.777  1.00  0.00     0.213 A 
HETATM   24  N2  UNL     1      -3.844  -2.108   1.791  1.00  0.00    -0.168 N 
HETATM   25  C1  UNL     1      -4.986  -2.677   2.171  1.00  0.00     0.694 A 
ATOM     26  H2  UNL     1      -2.935  -2.295   2.214  1.00  0.00     0.186 HD
HETATM   27  N10 UNL     1      -5.937  -2.146   1.347  1.00  0.00    -0.109 N 
HETATM   28  N8  UNL     1      -5.354  -1.292   0.514  1.00  0.00    -0.151 N 
ATOM     29  H10 UNL     1      -6.932  -2.369   1.368  1.00  0.00     0.208 HD
BRANCH  25  30
HETATM   30  N1  UNL     1      -5.137  -3.537   3.111  1.00  0.00    -0.233 N 
ATOM     31  H12 UNL     1      -4.427  -3.934   3.726  1.00  0.00     0.174 HD
ATOM     32  H11 UNL     1      -6.012  -3.973   3.402  1.00  0.00     0.174 HD
ENDBRANCH  25  30
BRANCH  28  33
HETATM   33  N9  UNL     1      -6.039  -0.556  -0.467  1.00  0.00    -0.199 N 
ATOM     34  H9  UNL     1      -5.519   0.105  -1.043  1.00  0.00     0.202 HD
BRANCH  33  35
HETATM   35  S2  UNL     1      -7.753  -0.740  -0.728  1.00  0.00     0.277 S 
HETATM   36  O10 UNL     1      -8.092  -0.304  -2.156  1.00  0.00    -0.199 OA
HETATM   37  O11 UNL     1      -8.181  -2.174  -0.662  1.00  0.00    -0.199 OA
BRANCH  35  38
HETATM   38  C17 UNL     1      -8.675   0.298   0.323  1.00  0.00     0.081 A 
HETATM   39  C18 UNL     1      -9.118  -0.131   1.552  1.00  0.00     0.025 A 
HETATM   40  C19 UNL     1      -9.843   0.713   2.365  1.00  0.00     0.002 A 
HETATM   41  C20 UNL     1     -10.130   1.993   1.953  1.00  0.00     0.000 A 
HETATM   42  C21 UNL     1      -9.682   2.421   0.714  1.00  0.00     0.002 A 
HETATM   43  C22 UNL     1      -8.958   1.586  -0.104  1.00  0.00     0.025 A 
ENDBRANCH  35  38
ENDBRANCH  33  35
ENDBRANCH  28  33
ENDBRANCH  21  23
ENDBRANCH  19  21
ENDBRANCH   1  18
BRANCH  13  44
HETATM   44  N5  UNL     1       5.796   0.334  -0.288  1.00  0.00    -0.380 N 
ATOM     45  H5  UNL     1       6.452  -0.153  -0.898  1.00  0.00     0.160 HD
BRANCH  44  46
HETATM   46  C11 UNL     1       6.276   1.089   0.844  1.00  0.00     0.231 C 
BRANCH  46  47
HETATM   47  C12 UNL     1       7.743   0.980   0.915  1.00  0.00     0.276 C 
HETATM   48  O6  UNL     1       8.362   0.304   0.075  1.00  0.00    -0.263 OA
BRANCH  47  49
HETATM   49  O7  UNL     1       8.424   1.629   1.915  1.00  0.00    -0.316 OA
BRANCH  49  50
HETATM   50  C13 UNL     1       9.806   1.601   2.091  1.00  0.00     0.239 C 
BRANCH  50  51
HETATM   51  C14 UNL     1      10.366   0.214   2.345  1.00  0.00     0.340 C 
BRANCH  51  52
HETATM   52  N6  UNL     1      11.809   0.265   2.521  1.00  0.00    -0.051 N 
ATOM     53  H63 UNL     1      12.270   0.720   1.733  1.00  0.00     0.277 HD
ATOM     54  H62 UNL     1      12.077   0.921   3.255  1.00  0.00     0.277 HD
ATOM     55  H61 UNL     1      12.185  -0.667   2.692  1.00  0.00     0.277 HD
ENDBRANCH  51  52
BRANCH  51  56
HETATM   56  O8  UNL     1       9.784  -0.250   3.536  1.00  0.00    -0.368 OA
ATOM     57  H8  UNL     1      10.135  -1.118   3.695  1.00  0.00     0.212 HD
ENDBRANCH  51  56
ENDBRANCH  50  51
ENDBRANCH  49  50
ENDBRANCH  47  49
ENDBRANCH  46  47
ENDBRANCH  44  46
ENDBRANCH  13  44
TORSDOF 15
