REMARK  16 active torsions:
REMARK  status: ('A' for Active; 'I' for Inactive)
REMARK    1  A    between atoms: C2_2  and  C3_3 
REMARK    2  A    between atoms: C2_2  and  C4_6 
REMARK    3  A    between atoms: C4_6  and  N1_7 
REMARK    4  A    between atoms: C4_6  and  C5_11 
REMARK    5  A    between atoms: C5_11  and  N3_15 
REMARK    6  A    between atoms: N3_15  and  C6_17 
REMARK    7  A    between atoms: C8_20  and  S1_21 
REMARK    8  A    between atoms: S1_21  and  N4_24 
REMARK    9  A    between atoms: N4_24  and  N5_26 
REMARK       I    between atoms: N5_26  and  C9_28 
REMARK   10  A    between atoms: C9_28  and  C10_30 
REMARK   11  A    between atoms: C10_30  and  S2_31 
REMARK   12  A    between atoms: S2_31  and  C11_32 
REMARK   13  A    between atoms: N9_39  and  N10_40 
REMARK   14  A    between atoms: C14_45  and  C15_46 
REMARK   15  A    between atoms: C18_49  and  C19_50 
REMARK   16  A    between atoms: N15_61  and  N16_62 
ROOT
HETATM    1  C6  UNL     1      -0.447  -1.458   0.493  1.00  0.00     0.181 C 
HETATM    2  C7  UNL     1       0.408  -1.241   1.547  1.00  0.00     0.240 C 
HETATM    3  O3  UNL     1       0.279  -2.021   2.516  1.00  0.00    -0.283 OA
HETATM    4  C8  UNL     1       1.400  -0.255   1.664  1.00  0.00     0.135 C 
HETATM    5  C12 UNL     1       1.617   0.823   0.834  1.00  0.00     0.032 C 
HETATM    6  C13 UNL     1       0.690   1.345  -0.086  1.00  0.00     0.034 C 
HETATM    7  C14 UNL     1      -0.505   0.788  -0.485  1.00  0.00     0.068 C 
HETATM    8  N15 UNL     1      -0.922  -0.499  -0.348  1.00  0.00    -0.242 N 
ENDROOT
BRANCH   4   9
HETATM    9  S1  UNL     1       2.483  -0.382   3.005  1.00  0.00     0.280 S 
HETATM   10  O4  UNL     1       3.227  -1.701   2.912  1.00  0.00    -0.199 OA
HETATM   11  O5  UNL     1       1.761  -0.338   4.325  1.00  0.00    -0.199 OA
BRANCH   9  12
HETATM   12  N4  UNL     1       3.645   0.868   3.016  1.00  0.00    -0.220 N 
ATOM     13  H4  UNL     1       3.499   1.782   3.444  1.00  0.00     0.200 HD
BRANCH  12  14
HETATM   14  N5  UNL     1       4.833   0.480   2.360  1.00  0.00    -0.260 N 
HETATM   15  C9  UNL     1       6.021   0.207   3.076  1.00  0.00     0.246 C 
HETATM   16  O6  UNL     1       6.051   0.302   4.334  1.00  0.00    -0.271 OA
ATOM     17  H5  UNL     1       4.834   0.394   1.344  1.00  0.00     0.190 HD
BRANCH  15  18
HETATM   18  C10 UNL     1       7.252  -0.194   2.375  1.00  0.00     0.187 C 
BRANCH  18  19
HETATM   19  S2  UNL     1       7.043  -0.196   0.594  1.00  0.00    -0.080 SA
BRANCH  19  20
HETATM   20  C11 UNL     1       6.813   1.438  -0.048  1.00  0.00     0.200 A 
HETATM   21  N6  UNL     1       6.777   2.615   0.622  1.00  0.00    -0.261 N 
HETATM   22  N7  UNL     1       6.585   3.575  -0.263  1.00  0.00    -0.225 N 
ATOM     23  H6  UNL     1       6.880   2.737   1.629  1.00  0.00     0.190 HD
HETATM   24  N8  UNL     1       6.503   3.018  -1.453  1.00  0.00    -0.205 N 
ATOM     25  H7  UNL     1       6.513   4.572  -0.061  1.00  0.00     0.210 HD
HETATM   26  N9  UNL     1       6.637   1.721  -1.356  1.00  0.00    -0.162 N 
ATOM     27  H8  UNL     1       6.356   3.525  -2.326  1.00  0.00     0.212 HD
BRANCH  26  28
HETATM   28  N10 UNL     1       6.599   0.830  -2.441  1.00  0.00    -0.321 N 
ATOM     29 2H10 UNL     1       6.704  -0.182  -2.365  1.00  0.00     0.179 HD
ATOM     30 1H10 UNL     1       6.466   1.044  -3.429  1.00  0.00     0.179 HD
ENDBRANCH  26  28
ENDBRANCH  19  20
ENDBRANCH  18  19
ENDBRANCH  15  18
ENDBRANCH  12  14
ENDBRANCH   9  12
ENDBRANCH   4   9
BRANCH   1  31
HETATM   31  N3  UNL     1      -0.829  -2.627   0.253  1.00  0.00    -0.326 N 
ATOM     32  H3  UNL     1      -1.461  -2.704  -0.544  1.00  0.00     0.169 HD
BRANCH  31  33
HETATM   33  C5  UNL     1      -0.547  -3.846   0.878  1.00  0.00     0.108 C 
HETATM   34  N2  UNL     1       0.658  -4.341   0.715  1.00  0.00    -0.387 N 
ATOM     35  H22 UNL     1       0.864  -5.230   1.171  1.00  0.00     0.157 HD
ATOM     36  H21 UNL     1       1.374  -3.864   0.167  1.00  0.00     0.157 HD
BRANCH  33  37
HETATM   37  C4  UNL     1      -1.575  -4.531   1.664  1.00  0.00     0.263 C 
BRANCH  37  38
HETATM   38  C2  UNL     1      -2.790  -4.965   0.886  1.00  0.00     0.120 C 
HETATM   39  C1  UNL     1      -2.514  -5.970  -0.173  1.00  0.00     0.024 C 
BRANCH  38  40
HETATM   40  C3  UNL     1      -3.581  -3.859   0.361  1.00  0.00     0.179 C 
HETATM   41  O1  UNL     1      -3.922  -3.853  -0.849  1.00  0.00    -0.648 OA
HETATM   42  O2  UNL     1      -3.969  -2.797   1.194  1.00  0.00    -0.648 OA
ENDBRANCH  38  40
ENDBRANCH  37  38
BRANCH  37  43
HETATM   43  N1  UNL     1      -0.949  -5.656   2.345  1.00  0.00    -0.067 N 
ATOM     44  H13 UNL     1      -1.615  -6.151   2.938  1.00  0.00     0.275 HD
ATOM     45  H12 UNL     1      -0.726  -6.410   1.695  1.00  0.00     0.275 HD
ATOM     46  H11 UNL     1      -0.126  -5.362   2.872  1.00  0.00     0.275 HD
ENDBRANCH  37  43
ENDBRANCH  33  37
ENDBRANCH  31  33
ENDBRANCH   1  31
BRANCH   8  47
HETATM   47  N16 UNL     1      -1.968  -0.826  -1.202  1.00  0.00    -0.336 N 
ATOM     48 2H16 UNL     1      -2.281  -1.791  -1.099  1.00  0.00     0.177 HD
ATOM     49 1H16 UNL     1      -2.324  -0.107  -1.832  1.00  0.00     0.177 HD
ENDBRANCH   8  47
BRANCH   7  50
HETATM   50  C15 UNL     1      -1.467   1.662  -1.141  1.00  0.00    -0.007 A 
HETATM   51  C16 UNL     1      -1.495   1.860  -2.499  1.00  0.00     0.014 A 
HETATM   52  C17 UNL     1      -2.450   2.703  -3.029  1.00  0.00     0.016 A 
HETATM   53  C18 UNL     1      -3.386   3.357  -2.236  1.00  0.00     0.011 A 
HETATM   54  C21 UNL     1      -3.306   3.116  -0.879  1.00  0.00     0.016 A 
HETATM   55  C22 UNL     1      -2.376   2.287  -0.296  1.00  0.00     0.014 A 
BRANCH  53  56
HETATM   56  C19 UNL     1      -4.371   4.225  -2.832  1.00  0.00     0.147 A 
HETATM   57  N11 UNL     1      -4.521   4.509  -4.127  1.00  0.00    -0.268 N 
HETATM   58  N12 UNL     1      -5.560   5.357  -4.261  1.00  0.00    -0.225 N 
ATOM     59  H11 UNL     1      -3.946   4.146  -4.887  1.00  0.00     0.190 HD
HETATM   60  N13 UNL     1      -6.046   5.593  -3.057  1.00  0.00    -0.223 N 
ATOM     61  H12 UNL     1      -5.908   5.747  -5.137  1.00  0.00     0.210 HD
HETATM   62  C20 UNL     1      -7.166   6.447  -2.764  1.00  0.00     0.202 C 
HETATM   63  N14 UNL     1      -5.326   4.907  -2.186  1.00  0.00    -0.266 N 
ATOM     64  H14 UNL     1      -5.475   4.898  -1.177  1.00  0.00     0.190 HD
ENDBRANCH  53  56
ENDBRANCH   7  50
TORSDOF 16
