REMARK  15 active torsions:
REMARK  status: ('A' for Active; 'I' for Inactive)
REMARK    1  A    between atoms: N1_2  and  C3_4 
REMARK    2  A    between atoms: C6_9  and  N3_10 
REMARK       I    between atoms: N3_10  and  C7_12 
REMARK    3  A    between atoms: C7_12  and  C8_14 
REMARK    4  A    between atoms: C10_16  and  O3_17 
REMARK    5  A    between atoms: N4_21  and  C12_22 
REMARK    6  A    between atoms: C12_22  and  C13_23 
REMARK    7  A    between atoms: C13_23  and  O5_24 
REMARK    8  A    between atoms: C15_27  and  C16_28 
REMARK    9  A    between atoms: C16_28  and  N5_29 
REMARK   10  A    between atoms: C16_28  and  C20_42 
REMARK       I    between atoms: N5_29  and  C17_31 
REMARK   11  A    between atoms: C17_31  and  O7_33 
REMARK   12  A    between atoms: O7_33  and  C18_34 
REMARK   13  A    between atoms: C18_34  and  C19_35 
REMARK       I    between atoms: C19_35  and  N6_37 
REMARK   14  A    between atoms: N6_37  and  N7_39 
REMARK       I    between atoms: C20_42  and  N8_44 
REMARK   15  A    between atoms: C21_46  and  C22_47 
ROOT
HETATM    1  C3  UNL     1      -1.930   4.105  -3.595  1.00  0.00     0.118 A 
HETATM    2  C4  UNL     1      -0.890   3.767  -2.743  1.00  0.00     0.150 A 
HETATM    3  N2  UNL     1      -1.020   2.753  -1.883  1.00  0.00    -0.268 N 
HETATM    4  C5  UNL     1      -0.031   2.395  -1.042  1.00  0.00     0.282 A 
HETATM    5  O1  UNL     1       1.054   3.029  -1.055  1.00  0.00    -0.265 OA
HETATM    6  C6  UNL     1      -0.169   1.330  -0.141  1.00  0.00     0.130 A 
HETATM    7  C15 UNL     1      -1.341   0.653  -0.134  1.00  0.00     0.076 A 
HETATM    8  N12 UNL     1      -2.294   1.053  -0.996  1.00  0.00    -0.340 N 
ATOM      9  H12 UNL     1      -3.178   0.544  -0.991  1.00  0.00     0.167 HD
HETATM   10  C24 UNL     1      -2.172   2.057  -1.850  1.00  0.00     0.130 A 
HETATM   11  C25 UNL     1      -3.232   2.390  -2.709  1.00  0.00     0.139 A 
HETATM   12  N13 UNL     1      -3.074   3.402  -3.551  1.00  0.00    -0.348 N 
ATOM     13  H13 UNL     1      -3.838   3.652  -4.179  1.00  0.00     0.167 HD
ENDROOT
BRANCH   7  14
HETATM   14  C16 UNL     1      -1.647  -0.487   0.762  1.00  0.00     0.231 C 
BRANCH  14  15
HETATM   15  N5  UNL     1      -1.202  -1.733   0.235  1.00  0.00    -0.318 N 
HETATM   16  C17 UNL     1      -2.159  -2.685  -0.280  1.00  0.00     0.361 C 
HETATM   17  O6  UNL     1      -3.395  -2.423  -0.266  1.00  0.00    -0.238 OA
ATOM     18  H5  UNL     1      -0.206  -1.954   0.221  1.00  0.00     0.166 HD
BRANCH  16  19
HETATM   19  O7  UNL     1      -1.775  -3.904  -0.803  1.00  0.00    -0.295 OA
BRANCH  19  20
HETATM   20  C18 UNL     1      -2.728  -4.824  -1.304  1.00  0.00     0.285 C 
BRANCH  20  21
HETATM   21  C19 UNL     1      -2.023  -6.037  -1.795  1.00  0.00     0.260 C 
HETATM   22  O8  UNL     1      -2.712  -6.962  -2.270  1.00  0.00    -0.269 OA
HETATM   23  N6  UNL     1      -0.614  -6.152  -1.732  1.00  0.00    -0.275 N 
ATOM     24  H6  UNL     1      -0.056  -5.392  -1.343  1.00  0.00     0.189 HD
BRANCH  23  25
HETATM   25  N7  UNL     1       0.010  -7.308  -2.204  1.00  0.00    -0.343 N 
ATOM     26  H72 UNL     1      -0.563  -8.059  -2.590  1.00  0.00     0.176 HD
ATOM     27  H71 UNL     1       1.026  -7.391  -2.159  1.00  0.00     0.176 HD
ENDBRANCH  23  25
ENDBRANCH  20  21
ENDBRANCH  19  20
ENDBRANCH  16  19
ENDBRANCH  14  15
BRANCH  14  28
HETATM   28  C20 UNL     1      -1.253  -0.278   2.171  1.00  0.00     0.250 C 
HETATM   29  O9  UNL     1      -0.547  -1.134   2.740  1.00  0.00    -0.270 OA
HETATM   30  N8  UNL     1      -1.669   0.866   2.858  1.00  0.00    -0.332 N 
HETATM   31  C21 UNL     1      -2.616   1.040   3.666  1.00  0.00     0.129 C 
ATOM     32  H8  UNL     1      -1.111   1.699   2.673  1.00  0.00     0.168 HD
BRANCH  31  33
HETATM   33  C22 UNL     1      -3.506  -0.059   4.037  1.00  0.00     0.107 A 
HETATM   34  N9  UNL     1      -4.578  -0.016   4.826  1.00  0.00    -0.291 N 
HETATM   35  N10 UNL     1      -5.244  -1.069   5.065  1.00  0.00    -0.279 N 
ATOM     36  H9  UNL     1      -4.866   0.870   5.241  1.00  0.00     0.187 HD
HETATM   37  C23 UNL     1      -4.845  -2.220   4.506  1.00  0.00     0.159 A 
ATOM     38  H10 UNL     1      -6.065  -1.040   5.669  1.00  0.00     0.189 HD
HETATM   39  N11 UNL     1      -5.397  -3.403   4.623  1.00  0.00    -0.379 N 
HETATM   40  S1  UNL     1      -3.473  -1.717   3.627  1.00  0.00    -0.033 SA
ATOM     41 2H11 UNL     1      -6.218  -3.704   5.149  1.00  0.00     0.158 HD
ATOM     42 1H11 UNL     1      -5.093  -4.279   4.198  1.00  0.00     0.158 HD
ENDBRANCH  31  33
ENDBRANCH  14  28
ENDBRANCH   7  14
BRANCH   6  43
HETATM   43  N3  UNL     1       0.918   1.038   0.687  1.00  0.00    -0.317 N 
HETATM   44  C7  UNL     1       1.936   0.160   0.239  1.00  0.00     0.257 C 
HETATM   45  O2  UNL     1       1.860  -0.375  -0.927  1.00  0.00    -0.267 OA
ATOM     46  H3  UNL     1       0.979   1.457   1.615  1.00  0.00     0.169 HD
BRANCH  44  47
HETATM   47  C8  UNL     1       3.119  -0.219   0.996  1.00  0.00     0.050 A 
HETATM   48  C9  UNL     1       3.233  -1.550   1.393  1.00  0.00     0.060 A 
HETATM   49  C10 UNL     1       4.359  -1.927   2.086  1.00  0.00     0.135 A 
HETATM   50  C11 UNL     1       5.364  -1.015   2.391  1.00  0.00     0.280 A 
HETATM   51  O4  UNL     1       6.401  -1.393   3.035  1.00  0.00    -0.265 OA
HETATM   52  N4  UNL     1       5.241   0.265   2.002  1.00  0.00    -0.319 N 
HETATM   53  C14 UNL     1       4.137   0.645   1.319  1.00  0.00     0.111 A 
BRANCH  49  54
HETATM   54  O3  UNL     1       4.506  -3.227   2.494  1.00  0.00    -0.356 OA
ATOM     55  H3  UNL     1       5.284  -3.487   2.973  1.00  0.00     0.218 HD
ENDBRANCH  49  54
BRANCH  52  56
HETATM   56  C12 UNL     1       6.307   1.196   2.320  1.00  0.00     0.157 C 
BRANCH  56  57
HETATM   57  C13 UNL     1       7.342   1.226   1.196  1.00  0.00     0.184 C 
BRANCH  57  58
HETATM   58  O5  UNL     1       8.370   2.102   1.469  1.00  0.00    -0.399 OA
ATOM     59  H5  UNL     1       9.013   2.121   0.770  1.00  0.00     0.209 HD
ENDBRANCH  57  58
ENDBRANCH  56  57
ENDBRANCH  52  56
ENDBRANCH  44  47
ENDBRANCH   6  43
BRANCH   1  60
HETATM   60  N1  UNL     1      -1.851   5.164  -4.522  1.00  0.00    -0.375 N 
HETATM   61  C1  UNL     1      -1.342   4.918  -5.848  1.00  0.00     0.150 C 
HETATM   62  C2  UNL     1      -2.281   6.482  -4.133  1.00  0.00     0.150 C 
ENDBRANCH   1  60
TORSDOF 15
