REMARK  3 active torsions:
REMARK  status: ('A' for Active; 'I' for Inactive)
REMARK    1  A    between atoms: C6_10  and  C7_11 
REMARK    2  A    between atoms: C7_11  and  N6_19 
REMARK       I    between atoms: N3_12  and  C8_14 
REMARK    3  A    between atoms: N6_19  and  C9_21 
ROOT
HETATM    1  C7  UNL     1      -1.636  -0.939   0.197  1.00  0.00     0.155 C 
HETATM    2  N3  UNL     1      -1.999  -1.946  -0.502  1.00  0.00    -0.314 N 
ATOM      3  H3  UNL     1      -1.306  -2.438  -1.066  1.00  0.00     0.170 HD
HETATM    4  C8  UNL     1      -3.336  -2.390  -0.510  1.00  0.00     0.187 C 
HETATM    5  N4  UNL     1      -3.836  -3.173   0.389  1.00  0.00    -0.373 N 
ATOM      6  H41 UNL     1      -4.804  -3.494   0.383  1.00  0.00     0.158 HD
ATOM      7  H42 UNL     1      -3.226  -3.484   1.145  1.00  0.00     0.158 HD
HETATM    8  N5  UNL     1      -4.181  -1.959  -1.556  1.00  0.00    -0.064 NA
ENDROOT
BRANCH   1   9
HETATM    9  C6  UNL     1      -0.238  -0.504   0.181  1.00  0.00     0.182 A 
HETATM   10  N2  UNL     1       0.251   0.734   0.347  1.00  0.00    -0.168 N 
HETATM   11  C5  UNL     1       1.587   0.681   0.259  1.00  0.00     0.725 A 
ATOM     12  H2  UNL     1      -0.302   1.575   0.513  1.00  0.00     0.186 HD
HETATM   13  N1  UNL     1       2.647   1.626   0.345  1.00  0.00    -0.199 N 
HETATM   14  N8  UNL     1       1.889  -0.617   0.036  1.00  0.00     0.021 N 
HETATM   15  C4  UNL     1       3.877   1.295   0.219  1.00  0.00     0.119 A 
ATOM     16  H1  UNL     1       2.418   2.606   0.514  1.00  0.00     0.183 HD
HETATM   17  C2  UNL     1       4.246  -0.103  -0.024  1.00  0.00     0.117 A 
HETATM   18  C1  UNL     1       5.096  -0.528   1.181  1.00  0.00     0.054 C 
HETATM   19  C3  UNL     1       5.064  -0.270  -1.294  1.00  0.00     0.054 C 
HETATM   20  O1  UNL     1       3.184  -1.003  -0.102  1.00  0.00    -0.228 OA
HETATM   21  N7  UNL     1       0.788  -1.340  -0.012  1.00  0.00    -0.240 N 
ATOM     22  H7  UNL     1       0.730  -2.346  -0.167  1.00  0.00     0.192 HD
ENDBRANCH   1   9
BRANCH   1  23
HETATM   23  N6  UNL     1      -2.593  -0.253   0.979  1.00  0.00    -0.334 N 
ATOM     24  H6  UNL     1      -2.880  -0.608   1.891  1.00  0.00     0.168 HD
BRANCH  23  25
HETATM   25  C9  UNL     1      -3.144   0.952   0.450  1.00  0.00     0.075 A 
HETATM   26  C10 UNL     1      -4.077   1.792   1.004  1.00  0.00     0.038 A 
HETATM   27  C11 UNL     1      -4.427   2.875   0.285  1.00  0.00     0.010 A 
HETATM   28  C12 UNL     1      -3.829   3.048  -0.928  1.00  0.00     0.052 A 
HETATM   29  S1  UNL     1      -2.793   1.699  -1.041  1.00  0.00    -0.084 SA
ENDBRANCH  23  25
ENDBRANCH   1  23
TORSDOF 3
