REMARK  2 active torsions:
REMARK  status: ('A' for Active; 'I' for Inactive)
REMARK    1  A    between atoms: N3_7  and  C4_8 
REMARK    2  A    between atoms: C7_11  and  N4_12 
ROOT
HETATM    1  C4  UNL     1      -1.390   0.034  -0.012  1.00  0.00     0.083 C 
HETATM    2  C5  UNL     1      -0.527   0.387   1.174  1.00  0.00     0.050 C 
HETATM    3  C6  UNL     1       0.896   0.200   0.833  1.00  0.00     0.000 C 
HETATM    4  C7  UNL     1       1.371   0.547  -0.335  1.00  0.00     0.015 C 
HETATM    5  C13 UNL     1       0.446   1.179  -1.328  1.00  0.00     0.059 C 
HETATM    6  C14 UNL     1      -0.994   1.000  -1.107  1.00  0.00     0.028 C 
ENDROOT
BRANCH   4   7
HETATM    7  N4  UNL     1       2.731   0.400  -0.728  1.00  0.00    -0.296 N 
HETATM    8  C8  UNL     1       3.208   0.660  -1.947  1.00  0.00     0.190 A 
HETATM    9  N5  UNL     1       4.559   0.474  -1.978  1.00  0.00    -0.346 N 
HETATM   10  C9  UNL     1       4.931   0.083  -0.730  1.00  0.00     0.116 A 
ATOM     11  H5  UNL     1       5.172   0.603  -2.783  1.00  0.00     0.167 HD
HETATM   12  C10 UNL     1       6.128  -0.234  -0.147  1.00  0.00     0.132 A 
HETATM   13  C12 UNL     1       3.761   0.041   0.046  1.00  0.00     0.144 A 
HETATM   14  S1  UNL     1       7.472  -0.173  -1.070  1.00  0.00    -0.058 SA
HETATM   15  N6  UNL     1       6.184  -0.577   1.134  1.00  0.00    -0.341 N 
HETATM   16  C11 UNL     1       5.084  -0.629   1.916  1.00  0.00     0.183 A 
ATOM     17  H6  UNL     1       7.089  -0.809   1.542  1.00  0.00     0.167 HD
HETATM   18  N7  UNL     1       3.928  -0.320   1.342  1.00  0.00    -0.336 N 
ATOM     19  H7  UNL     1       3.093  -0.357   1.927  1.00  0.00     0.168 HD
ENDBRANCH   4   7
BRANCH   1  20
HETATM   20  N3  UNL     1      -2.769   0.201   0.289  1.00  0.00    -0.223 NA
HETATM   21  C3  UNL     1      -3.561   0.733  -0.754  1.00  0.00     0.134 C 
HETATM   22  C2  UNL     1      -4.210  -0.417  -1.542  1.00  0.00     0.138 C 
HETATM   23  N2  UNL     1      -5.177  -1.004  -0.618  1.00  0.00    -0.362 N 
HETATM   24  C1  UNL     1      -4.779  -1.209   0.613  1.00  0.00     0.198 C 
ATOM     25  H2  UNL     1      -6.122  -1.244  -0.918  1.00  0.00     0.162 HD
HETATM   26  N1  UNL     1      -5.657  -1.775   1.576  1.00  0.00    -0.062 NA
HETATM   27  N8  UNL     1      -3.426  -0.834   0.904  1.00  0.00    -0.292 N 
ATOM     28  H8  UNL     1      -2.922  -1.369   1.611  1.00  0.00     0.183 HD
ENDBRANCH   1  20
TORSDOF 2
