REMARK  4 active torsions:
REMARK  status: ('A' for Active; 'I' for Inactive)
REMARK    1  A    between atoms: N1_1  and  C1_4 
REMARK    2  A    between atoms: C2_7  and  C3_8 
REMARK    3  A    between atoms: N4_16  and  C9_17 
REMARK    4  A    between atoms: N6_21  and  N7_23 
ROOT
HETATM    1  C9  UNL     1      -1.711   0.462  -0.110  1.00  0.00     0.160 A 
HETATM    2  N5  UNL     1      -2.271   1.661   0.062  1.00  0.00    -0.319 N 
ATOM      3  H5  UNL     1      -1.667   2.464  -0.114  1.00  0.00     0.169 HD
HETATM    4  C10 UNL     1      -3.516   1.943   0.434  1.00  0.00     0.166 A 
HETATM    5  N6  UNL     1      -3.894   3.179   0.553  1.00  0.00    -0.286 N 
ATOM      6  H6  UNL     1      -3.254   3.951   0.367  1.00  0.00     0.188 HD
HETATM    7  S1  UNL     1      -4.502   0.588   0.722  1.00  0.00    -0.034 SA
HETATM    8  C11 UNL     1      -3.660  -0.896   0.465  1.00  0.00     0.091 A 
HETATM    9  N8  UNL     1      -4.236  -2.099   0.632  1.00  0.00    -0.359 N 
ATOM     10  H8  UNL     1      -5.213  -2.138   0.923  1.00  0.00     0.166 HD
HETATM   11  C12 UNL     1      -3.575  -3.253   0.430  1.00  0.00     0.089 A 
HETATM   12  C13 UNL     1      -2.253  -3.167   0.036  1.00  0.00     0.018 A 
HETATM   13  C14 UNL     1      -1.639  -1.946  -0.141  1.00  0.00     0.019 A 
HETATM   14  C15 UNL     1      -2.346  -0.759   0.074  1.00  0.00     0.044 A 
ENDROOT
BRANCH   1  15
HETATM   15  N4  UNL     1      -0.321   0.375  -0.524  1.00  0.00    -0.067 N 
HETATM   16  C1  UNL     1       0.119   0.305  -1.796  1.00  0.00     0.700 A 
HETATM   17  N2  UNL     1       1.466   0.235  -1.794  1.00  0.00    -0.173 N 
HETATM   18  C2  UNL     1       1.867   0.261  -0.521  1.00  0.00     0.146 A 
ATOM     19  H2  UNL     1       2.068   0.173  -2.615  1.00  0.00     0.186 HD
HETATM   20  N3  UNL     1       0.758   0.346   0.231  1.00  0.00    -0.261 N 
ATOM     21  H3  UNL     1       0.752   0.383   1.250  1.00  0.00     0.190 HD
BRANCH  16  22
HETATM   22  N1  UNL     1      -0.622   0.305  -2.851  1.00  0.00    -0.233 N 
ATOM     23  H12 UNL     1      -0.289   0.252  -3.814  1.00  0.00     0.174 HD
ATOM     24  H11 UNL     1      -1.641   0.358  -2.853  1.00  0.00     0.174 HD
ENDBRANCH  16  22
BRANCH  18  25
HETATM   25  C3  UNL     1       3.251   0.206  -0.050  1.00  0.00     0.010 A 
HETATM   26  C4  UNL     1       4.281   0.119  -0.961  1.00  0.00     0.015 A 
HETATM   27  C5  UNL     1       5.598   0.066  -0.542  1.00  0.00     0.001 A 
HETATM   28  C6  UNL     1       5.889   0.100   0.818  1.00  0.00     0.000 A 
HETATM   29  C7  UNL     1       4.880   0.187   1.749  1.00  0.00     0.001 A 
HETATM   30  C8  UNL     1       3.586   0.237   1.278  1.00  0.00     0.015 A 
ENDBRANCH  18  25
ENDBRANCH   1  15
BRANCH   5  31
HETATM   31  N7  UNL     1      -5.212   3.405   0.946  1.00  0.00    -0.343 N 
ATOM     32  H72 UNL     1      -5.840   2.622   1.128  1.00  0.00     0.176 HD
ATOM     33  H71 UNL     1      -5.509   4.376   1.040  1.00  0.00     0.176 HD
ENDBRANCH   5  31
TORSDOF 4
