REMARK  4 active torsions:
REMARK  status: ('A' for Active; 'I' for Inactive)
REMARK    1  A    between atoms: C2_5  and  N3_6 
REMARK    2  A    between atoms: N3_6  and  C3_8 
REMARK    3  A    between atoms: N5_17  and  C10_18 
REMARK    4  A    between atoms: C13_21  and  O1_22 
ROOT
HETATM    1  N1  UNL     1      -0.834   3.091  -1.632  1.00  0.00    -0.063 NA
HETATM    2  C1  UNL     1      -0.827   1.926  -0.818  1.00  0.00     0.195 A 
HETATM    3  N2  UNL     1      -1.945   1.366  -0.330  1.00  0.00    -0.315 N 
ATOM      4  H2  UNL     1      -2.847   1.789  -0.548  1.00  0.00     0.170 HD
HETATM    5  C2  UNL     1      -1.908   0.263   0.438  1.00  0.00     0.135 A 
HETATM    6  C8  UNL     1      -0.710  -0.331   0.753  1.00  0.00     0.122 A 
HETATM    7  N4  UNL     1      -0.346  -1.401   1.471  1.00  0.00    -0.346 N 
ATOM      8  H4  UNL     1      -0.981  -2.028   1.964  1.00  0.00     0.167 HD
HETATM    9  C9  UNL     1       1.014  -1.515   1.435  1.00  0.00     0.185 A 
HETATM   10  N5  UNL     1       1.504  -0.507   0.688  1.00  0.00    -0.322 N 
HETATM   11  C16 UNL     1       0.444   0.238   0.256  1.00  0.00     0.142 A 
HETATM   12  N6  UNL     1       0.348   1.347  -0.511  1.00  0.00    -0.314 N 
ATOM     13  H6  UNL     1       1.205   1.764  -0.874  1.00  0.00     0.170 HD
ENDROOT
BRANCH  10  14
HETATM   14  C10 UNL     1       2.871  -0.179   0.342  1.00  0.00     0.092 C 
HETATM   15  C11 UNL     1       3.809  -0.596   1.456  1.00  0.00     0.028 C 
HETATM   16  C12 UNL     1       5.181  -0.081   1.016  1.00  0.00     0.034 C 
HETATM   17  C13 UNL     1       5.596  -0.885  -0.169  1.00  0.00     0.118 C 
HETATM   18  C14 UNL     1       4.626  -0.983  -1.269  1.00  0.00     0.034 C 
HETATM   19  C15 UNL     1       3.194  -0.872  -0.949  1.00  0.00     0.028 C 
BRANCH  17  20
HETATM   20  O1  UNL     1       6.789  -0.316  -0.673  1.00  0.00    -0.396 OA
ATOM     21  H1  UNL     1       7.053  -0.828  -1.428  1.00  0.00     0.210 HD
ENDBRANCH  17  20
ENDBRANCH  10  14
BRANCH   5  22
HETATM   22  N3  UNL     1      -2.978  -0.280   0.910  1.00  0.00    -0.370 N 
ATOM     23  H3  UNL     1      -2.905  -1.116   1.490  1.00  0.00     0.161 HD
BRANCH  22  24
HETATM   24  C3  UNL     1      -4.265   0.275   0.630  1.00  0.00     0.083 C 
HETATM   25  C4  UNL     1      -4.524   0.546  -0.816  1.00  0.00     0.025 C 
HETATM   26  C5  UNL     1      -5.922   0.062  -1.123  1.00  0.00     0.002 C 
HETATM   27  C6  UNL     1      -6.455  -0.590   0.114  1.00  0.00     0.002 C 
HETATM   28  C7  UNL     1      -5.328  -0.694   1.104  1.00  0.00     0.025 C 
ENDBRANCH  22  24
ENDBRANCH   5  22
TORSDOF 4
