REMARK  3 active torsions:
REMARK  status: ('A' for Active; 'I' for Inactive)
REMARK    1  A    between atoms: N1_1  and  C1_4 
REMARK    2  A    between atoms: C2_7  and  C3_8 
REMARK    3  A    between atoms: C7_15  and  N4_16 
ROOT
HETATM    1  C1  UNL     1      -2.714  -2.061   1.291  1.00  0.00     0.692 A 
HETATM    2  N2  UNL     1      -3.588  -1.079   0.986  1.00  0.00    -0.175 N 
ATOM      3  H2  UNL     1      -4.580  -1.183   1.201  1.00  0.00     0.186 HD
HETATM    4  C2  UNL     1      -3.137   0.022   0.403  1.00  0.00     0.153 A 
HETATM    5  N3  UNL     1      -1.835   0.170   0.115  1.00  0.00    -0.174 N 
ATOM      6  H3  UNL     1      -1.521   1.030  -0.335  1.00  0.00     0.186 HD
HETATM    7  C7  UNL     1      -0.924  -0.793   0.406  1.00  0.00     0.696 A 
HETATM    8  N5  UNL     1      -1.395  -1.895   0.993  1.00  0.00    -0.022 N 
ATOM      9  H5  UNL     1      -0.742  -2.642   1.228  1.00  0.00     0.203 HD
ENDROOT
BRANCH   7  10
HETATM   10  N4  UNL     1       0.449  -0.633   0.104  1.00  0.00    -0.217 N 
HETATM   11  C8  UNL     1       0.881   0.587  -0.498  1.00  0.00     0.144 C 
HETATM   12  C9  UNL     1       2.294   0.970  -0.137  1.00  0.00     0.062 C 
HETATM   13  C10 UNL     1       3.245  -0.195  -0.218  1.00  0.00     0.101 C 
HETATM   14  C11 UNL     1       4.281   0.139  -1.271  1.00  0.00     0.071 C 
HETATM   15  O2  UNL     1       4.016  -0.339   0.907  1.00  0.00    -0.230 OA
HETATM   16  C13 UNL     1       2.549  -1.472  -0.618  1.00  0.00     0.062 C 
HETATM   17  C12 UNL     1       5.350   0.771  -0.400  1.00  0.00     0.213 C 
HETATM   18  O1  UNL     1       4.927   0.596   0.902  1.00  0.00    -0.240 OA
HETATM   19  C14 UNL     1       1.409  -1.668   0.390  1.00  0.00     0.144 C 
ENDBRANCH   7  10
BRANCH   4  20
HETATM   20  C3  UNL     1      -4.084   1.111   0.058  1.00  0.00     0.050 A 
HETATM   21  C4  UNL     1      -5.434   1.137   0.271  1.00  0.00     0.023 A 
HETATM   22  C5  UNL     1      -6.098   2.232  -0.124  1.00  0.00     0.009 A 
HETATM   23  C6  UNL     1      -5.368   3.234  -0.708  1.00  0.00     0.050 A 
HETATM   24  S1  UNL     1      -3.783   2.615  -0.686  1.00  0.00    -0.098 SA
ENDBRANCH   4  20
BRANCH   1  25
HETATM   25  N1  UNL     1      -3.155  -3.122   1.855  1.00  0.00    -0.234 N 
ATOM     26  H12 UNL     1      -4.143  -3.246   2.078  1.00  0.00     0.174 HD
ATOM     27  H11 UNL     1      -2.494  -3.864   2.086  1.00  0.00     0.174 HD
ENDBRANCH   1  25
TORSDOF 3
