REMARK  9 active torsions:
REMARK  status: ('A' for Active; 'I' for Inactive)
REMARK    1  A    between atoms: O1_2  and  C2_3 
REMARK    2  A    between atoms: C9_10  and  C10_11 
REMARK    3  A    between atoms: C10_11  and  C11_12 
REMARK    4  A    between atoms: C11_12  and  C12_13 
REMARK    5  A    between atoms: C12_13  and  C13_14 
REMARK    6  A    between atoms: C13_14  and  C14_15 
REMARK    7  A    between atoms: C14_15  and  C15_16 
REMARK    8  A    between atoms: C15_16  and  C16_17 
REMARK    9  A    between atoms: C16_17  and  O2_20 
ROOT
HETATM    1  C10 UNL     1      -0.862   1.314   0.279  1.00  0.00     0.041 C 
ENDROOT
BRANCH   1   2
HETATM    2  C9  UNL     1      -2.167   0.619   0.096  1.00  0.00    -0.024 A 
HETATM    3  C2  UNL     1      -2.361  -0.379  -0.823  1.00  0.00     0.075 A 
HETATM    4  C3  UNL     1      -3.598  -0.967  -0.921  1.00  0.00     0.044 A 
HETATM    5  C4  UNL     1      -4.676  -0.601  -0.131  1.00  0.00    -0.053 A 
HETATM    6  C5  UNL     1      -6.007  -1.245  -0.249  1.00  0.00     0.049 C 
HETATM    7  C6  UNL     1      -4.452   0.402   0.781  1.00  0.00    -0.055 A 
HETATM    8  C7  UNL     1      -5.593   0.825   1.652  1.00  0.00     0.049 C 
HETATM    9  C8  UNL     1      -3.222   0.998   0.890  1.00  0.00     0.017 A 
BRANCH   3  10
HETATM   10  O1  UNL     1      -1.321  -0.787  -1.639  1.00  0.00    -0.355 OA
HETATM   11  C1  UNL     1      -1.522  -1.823  -2.592  1.00  0.00     0.210 C 
ENDBRANCH   3  10
ENDBRANCH   1   2
BRANCH   1  12
HETATM   12  C11 UNL     1       0.101   0.451   1.037  1.00  0.00     0.005 C 
BRANCH  12  13
HETATM   13  C12 UNL     1       1.429   1.106   1.264  1.00  0.00     0.000 C 
BRANCH  13  14
HETATM   14  C13 UNL     1       2.154   1.473  -0.023  1.00  0.00     0.000 C 
BRANCH  14  15
HETATM   15  C14 UNL     1       2.454   0.314  -0.897  1.00  0.00     0.003 C 
BRANCH  15  16
HETATM   16  C15 UNL     1       3.349  -0.746  -0.407  1.00  0.00     0.037 C 
BRANCH  16  17
HETATM   17  C16 UNL     1       4.764  -0.448  -0.124  1.00  0.00     0.051 C 
HETATM   18  C17 UNL     1       5.395  -1.781   0.354  1.00  0.00     0.045 C 
HETATM   19  C18 UNL     1       5.099   0.538   0.939  1.00  0.00     0.045 C 
BRANCH  17  20
HETATM   20  O2  UNL     1       5.490  -0.094  -1.270  1.00  0.00    -0.391 OA
ATOM     21  H2  UNL     1       6.402   0.098  -1.088  1.00  0.00     0.210 HD
ENDBRANCH  17  20
ENDBRANCH  16  17
ENDBRANCH  15  16
ENDBRANCH  14  15
ENDBRANCH  13  14
ENDBRANCH  12  13
ENDBRANCH   1  12
TORSDOF 9
