REMARK  9 active torsions:
REMARK  status: ('A' for Active; 'I' for Inactive)
REMARK    1  A    between atoms: C2_2  and  C3_3 
REMARK    2  A    between atoms: C4_4  and  C5_5 
REMARK    3  A    between atoms: C4_4  and  C8_8 
REMARK    4  A    between atoms: C5_5  and  C6_6 
REMARK    5  A    between atoms: C10_10  and  C11_11 
REMARK    6  A    between atoms: C11_11  and  C12_12 
REMARK    7  A    between atoms: C11_11  and  O2_15 
REMARK    8  A    between atoms: C12_12  and  O1_13 
REMARK    9  A    between atoms: O2_15  and  C13_16 
ROOT
HETATM    1  C8  UNL     1      -0.415  -0.308   0.754  1.00  0.00    -0.024 A 
HETATM    2  C9  UNL     1       0.668  -0.532  -0.137  1.00  0.00     0.022 A 
HETATM    3  C10 UNL     1       1.997  -0.408   0.235  1.00  0.00    -0.026 A 
HETATM    4  C15 UNL     1       2.226  -0.049   1.546  1.00  0.00     0.010 A 
HETATM    5  C16 UNL     1       1.194   0.174   2.445  1.00  0.00     0.008 A 
HETATM    6  C17 UNL     1      -0.165   0.037   2.030  1.00  0.00    -0.051 A 
HETATM    7  C18 UNL     1      -1.168   0.134   3.096  1.00  0.00     0.049 C 
ENDROOT
BRANCH   1   8
HETATM    8  C4  UNL     1      -1.816  -0.283   0.166  1.00  0.00    -0.051 C 
HETATM    9  C3  UNL     1      -2.089  -1.499  -0.567  1.00  0.00    -0.019 C 
BRANCH   9  10
HETATM   10  C2  UNL     1      -2.813  -1.780  -1.785  1.00  0.00     0.023 C 
HETATM   11  C1  UNL     1      -4.322  -1.708  -1.673  1.00  0.00     0.009 C 
ENDBRANCH   9  10
BRANCH   8  12
HETATM   12  C5  UNL     1      -2.712   0.744   0.664  1.00  0.00     0.039 C 
BRANCH  12  13
HETATM   13  C6  UNL     1      -3.416   1.602  -0.389  1.00  0.00     0.000 C 
HETATM   14  C7  UNL     1      -4.345   2.627   0.189  1.00  0.00     0.005 C 
ENDBRANCH  12  13
ENDBRANCH   8  12
ENDBRANCH   1   8
BRANCH   3  15
HETATM   15  C11 UNL     1       3.095  -0.588  -0.746  1.00  0.00     0.177 C 
BRANCH  15  16
HETATM   16  C12 UNL     1       3.628  -2.004  -0.803  1.00  0.00     0.201 C 
BRANCH  16  17
HETATM   17  O1  UNL     1       4.606  -2.082  -1.785  1.00  0.00    -0.398 OA
ATOM     18  H1  UNL     1       4.940  -2.970  -1.821  1.00  0.00     0.209 HD
ENDBRANCH  16  17
ENDBRANCH  15  16
BRANCH  15  19
HETATM   19  O2  UNL     1       4.135   0.262  -0.412  1.00  0.00    -0.379 OA
BRANCH  19  20
HETATM   20  C13 UNL     1       4.439   1.179  -1.400  1.00  0.00     0.164 C 
HETATM   21  C14 UNL     1       5.582   2.024  -0.827  1.00  0.00     0.033 C 
ENDBRANCH  19  20
ENDBRANCH  15  19
ENDBRANCH   3  15
TORSDOF 9
