REMARK  2 active torsions:
REMARK  status: ('A' for Active; 'I' for Inactive)
REMARK    1  A    between atoms: C3_6  and  N3_7 
REMARK    2  A    between atoms: C8_14  and  N5_15 
ROOT
HETATM    1  N1  UNL     1       4.052  -0.755   3.133  1.00  0.00    -0.190 NA
HETATM    2  C1  UNL     1       3.451  -0.590   2.159  1.00  0.00     0.121 C 
HETATM    3  C2  UNL     1       2.700  -0.406   0.925  1.00  0.00     0.153 A 
HETATM    4  N2  UNL     1       1.370  -0.363   0.975  1.00  0.00    -0.328 N 
ATOM      5  H2  UNL     1       0.917  -0.462   1.884  1.00  0.00     0.168 HD
HETATM    6  C3  UNL     1       0.579  -0.193  -0.128  1.00  0.00     0.149 A 
HETATM    7  C8  UNL     1       1.235  -0.066  -1.326  1.00  0.00     0.144 A 
HETATM    8  N6  UNL     1       2.590  -0.110  -1.376  1.00  0.00    -0.329 N 
ATOM      9  H6  UNL     1       3.058  -0.013  -2.277  1.00  0.00     0.168 HD
HETATM   10  C9  UNL     1       3.327  -0.277  -0.273  1.00  0.00     0.153 A 
HETATM   11  C10 UNL     1       4.764  -0.328  -0.293  1.00  0.00     0.121 C 
HETATM   12  N7  UNL     1       5.920  -0.368  -0.295  1.00  0.00    -0.190 NA
ENDROOT
BRANCH   6  13
HETATM   13  N3  UNL     1      -0.832  -0.159   0.014  1.00  0.00    -0.361 N 
HETATM   14  C4  UNL     1      -1.404  -0.301   1.341  1.00  0.00     0.143 C 
HETATM   15  C5  UNL     1      -2.347   0.873   1.515  1.00  0.00     0.133 C 
HETATM   16  N4  UNL     1      -3.440   0.705   0.622  1.00  0.00    -0.418 N 
HETATM   17  C6  UNL     1      -3.205  -0.055  -0.550  1.00  0.00     0.133 C 
ATOM     18  H4  UNL     1      -4.354   1.114   0.817  1.00  0.00     0.153 HD
HETATM   19  C7  UNL     1      -1.773   0.006  -1.058  1.00  0.00     0.143 C 
ENDBRANCH   6  13
BRANCH   7  20
HETATM   20  N5  UNL     1       0.586   0.097  -2.414  1.00  0.00    -0.382 N 
ATOM     21  H52 UNL     1      -0.433   0.130  -2.376  1.00  0.00     0.157 HD
ATOM     22  H51 UNL     1       1.074   0.191  -3.305  1.00  0.00     0.157 HD
ENDBRANCH   7  20
TORSDOF 2
