REMARK  2 active torsions:
REMARK  status: ('A' for Active; 'I' for Inactive)
REMARK    1  A    between atoms: C6_10  and  N2_11 
REMARK    2  A    between atoms: C7_18  and  N6_19 
ROOT
HETATM    1  N2  UNL     1       1.276  -0.238  -0.460  1.00  0.00    -0.069 N 
HETATM    2  N3  UNL     1       1.797  -0.890  -1.523  1.00  0.00    -0.206 N 
ATOM      3  H3  UNL     1       1.240  -1.393  -2.214  1.00  0.00     0.211 HD
HETATM    4  N4  UNL     1       3.095  -0.799  -1.558  1.00  0.00    -0.213 N 
ATOM      5  H4  UNL     1       3.706  -1.208  -2.265  1.00  0.00     0.210 HD
HETATM    6  N5  UNL     1       3.476  -0.095  -0.534  1.00  0.00    -0.115 N 
ATOM      7  H5  UNL     1       4.434   0.153  -0.286  1.00  0.00     0.207 HD
HETATM    8  C7  UNL     1       2.316   0.254   0.159  1.00  0.00     0.714 A 
ENDROOT
BRANCH   1   9
HETATM    9  C6  UNL     1      -0.101  -0.328  -0.193  1.00  0.00     0.094 A 
HETATM   10  C2  UNL     1      -0.976   0.727   0.199  1.00  0.00     0.022 A 
HETATM   11  C1  UNL     1      -0.563   1.990   0.296  1.00  0.00     0.029 C 
HETATM   12  C3  UNL     1      -2.442   0.562   0.403  1.00  0.00     0.115 A 
HETATM   13  S1  UNL     1      -3.364   1.813   0.860  1.00  0.00    -0.059 SA
HETATM   14  N1  UNL     1      -2.991  -0.712   0.187  1.00  0.00    -0.314 N 
HETATM   15  C4  UNL     1      -2.088  -1.731  -0.209  1.00  0.00     0.248 A 
ATOM     16  H1  UNL     1      -3.987  -0.895   0.309  1.00  0.00     0.170 HD
HETATM   17  O1  UNL     1      -2.551  -2.895  -0.416  1.00  0.00    -0.268 OA
HETATM   18  C5  UNL     1      -0.688  -1.553  -0.395  1.00  0.00     0.107 A 
ENDBRANCH   1   9
BRANCH   8  19
HETATM   19  N6  UNL     1       2.457   0.865   1.281  1.00  0.00    -0.231 N 
ATOM     20  H62 UNL     1       1.609   1.120   1.787  1.00  0.00     0.174 HD
ATOM     21  H61 UNL     1       3.269   1.249   1.764  1.00  0.00     0.174 HD
ENDBRANCH   8  19
TORSDOF 2
