REMARK  4 active torsions:
REMARK  status: ('A' for Active; 'I' for Inactive)
REMARK    1  A    between atoms: O1_1  and  N1_3 
REMARK    2  A    between atoms: C3_10  and  N4_11 
REMARK    3  A    between atoms: N4_11  and  N5_13 
REMARK    4  A    between atoms: N5_13  and  C4_15 
ROOT
HETATM    1  N4  UNL     1       0.664  -0.157  -0.945  1.00  0.00    -0.269 N 
ATOM      2  H4  UNL     1       0.514   0.488  -1.721  1.00  0.00     0.189 HD
ENDROOT
BRANCH   1   3
HETATM    3  C3  UNL     1       1.805  -0.123  -0.385  1.00  0.00     0.155 A 
HETATM    4  N3  UNL     1       2.123  -0.920   0.643  1.00  0.00    -0.335 N 
HETATM    5  C2  UNL     1       3.366  -0.831   1.196  1.00  0.00     0.183 A 
ATOM      6  H3  UNL     1       1.443  -1.586   1.008  1.00  0.00     0.168 HD
HETATM    7  N2  UNL     1       4.289   0.031   0.747  1.00  0.00    -0.335 N 
HETATM    8  C1  UNL     1       4.009   0.845  -0.279  1.00  0.00     0.168 A 
ATOM      9  H2  UNL     1       5.208   0.067   1.188  1.00  0.00     0.168 HD
HETATM   10  N1  UNL     1       3.682   1.706  -1.381  1.00  0.00    -0.198 N 
HETATM   11  C8  UNL     1       2.753   0.760  -0.844  1.00  0.00     0.156 A 
BRANCH  10  12
HETATM   12  O1  UNL     1       4.099   2.676  -2.211  1.00  0.00    -0.281 OA
ATOM     13  H1  UNL     1       3.883   3.246  -2.940  1.00  0.00     0.245 HD
ENDBRANCH  10  12
ENDBRANCH   1   3
BRANCH   1  14
HETATM   14  N5  UNL     1      -0.387  -0.975  -0.611  1.00  0.00    -0.130 N 
ATOM     15  H5  UNL     1      -0.199  -1.978  -0.610  1.00  0.00     0.205 HD
BRANCH  14  16
HETATM   16  C4  UNL     1      -1.565  -0.622  -0.304  1.00  0.00     0.696 A 
HETATM   17  N6  UNL     1      -2.478  -1.560  -0.002  1.00  0.00    -0.200 N 
HETATM   18  C5  UNL     1      -3.750  -1.275   0.334  1.00  0.00     0.107 A 
ATOM     19  H6  UNL     1      -2.193  -2.539  -0.029  1.00  0.00     0.183 HD
HETATM   20  C6  UNL     1      -4.145   0.048   0.372  1.00  0.00     0.035 A 
HETATM   21  C7  UNL     1      -3.206   1.008   0.061  1.00  0.00     0.107 A 
HETATM   22  N7  UNL     1      -1.949   0.661  -0.268  1.00  0.00    -0.200 N 
ATOM     23  H7  UNL     1      -1.273   1.391  -0.495  1.00  0.00     0.183 HD
ENDBRANCH  14  16
ENDBRANCH   1  14
TORSDOF 4
