REMARK  10 active torsions:
REMARK  status: ('A' for Active; 'I' for Inactive)
REMARK    1  A    between atoms: C5_5  and  C6_6 
REMARK    2  A    between atoms: C6_6  and  O1_7 
REMARK    3  A    between atoms: C6_6  and  C7_9 
REMARK    4  A    between atoms: C6_6  and  C16_20 
REMARK    5  A    between atoms: C7_9  and  C8_10 
REMARK    6  A    between atoms: C10_12  and  C11_13 
REMARK    7  A    between atoms: C11_13  and  O3_15 
REMARK    8  A    between atoms: O3_15  and  C12_16 
REMARK    9  A    between atoms: C16_20  and  O5_22 
REMARK   10  A    between atoms: C22_29  and  C23_30 
ROOT
HETATM    1  C1  UNL     1      -1.378  -1.673  -1.054  1.00  0.00     0.015 C 
HETATM    2  C2  UNL     1      -1.889  -0.536  -0.641  1.00  0.00    -0.073 C 
HETATM    3  C3  UNL     1      -0.956   0.573  -1.123  1.00  0.00     0.043 C 
HETATM    4  C4  UNL     1      -0.518   0.217  -2.502  1.00  0.00     0.017 C 
HETATM    5  C5  UNL     1       0.136   0.538  -0.079  1.00  0.00     0.174 C 
HETATM    6  O6  UNL     1      -0.302   0.069   1.132  1.00  0.00    -0.376 OA
HETATM    7  C18 UNL     1      -1.462   0.285   1.687  1.00  0.00     0.127 C 
HETATM    8  C19 UNL     1      -2.282   1.455   1.358  1.00  0.00     0.033 C 
HETATM    9  C20 UNL     1      -3.200   1.082   0.509  1.00  0.00     0.017 C 
HETATM   10  C21 UNL     1      -3.079  -0.416   0.185  1.00  0.00    -0.007 C 
HETATM   11  C22 UNL     1      -4.385  -0.854  -0.178  1.00  0.00     0.002 C 
HETATM   12  C26 UNL     1      -5.271  -1.186   1.046  1.00  0.00     0.006 C 
HETATM   13  C27 UNL     1      -4.923  -0.398   2.245  1.00  0.00     0.005 C 
HETATM   14  C28 UNL     1      -3.529  -0.800   2.660  1.00  0.00    -0.011 C 
HETATM   15  C29 UNL     1      -3.192  -0.030   3.905  1.00  0.00     0.010 C 
HETATM   16  C30 UNL     1      -2.537  -0.827   1.586  1.00  0.00     0.031 C 
ENDROOT
BRANCH   5  17
HETATM   17  C6  UNL     1       0.981   1.772   0.018  1.00  0.00     0.175 C 
BRANCH  17  18
HETATM   18  O1  UNL     1       0.309   2.867   0.552  1.00  0.00    -0.377 OA
ATOM     19  H1  UNL     1       0.845   3.649   0.613  1.00  0.00     0.211 HD
ENDBRANCH  17  18
BRANCH  17  20
HETATM   20  C7  UNL     1       2.123   1.362   0.993  1.00  0.00     0.085 C 
BRANCH  20  21
HETATM   21  C8  UNL     1       3.073   2.414   1.230  1.00  0.00    -0.074 C 
HETATM   22  C9  UNL     1       2.520   3.704   1.797  1.00  0.00     0.043 C 
HETATM   23  C10 UNL     1       4.353   2.365   1.011  1.00  0.00     0.084 C 
BRANCH  23  24
HETATM   24  C11 UNL     1       5.158   1.284   0.492  1.00  0.00     0.283 C 
HETATM   25  O2  UNL     1       6.429   1.461   0.344  1.00  0.00    -0.260 OA
BRANCH  24  26
HETATM   26  O3  UNL     1       4.729   0.037   0.121  1.00  0.00    -0.308 OA
BRANCH  26  27
HETATM   27  C12 UNL     1       5.522  -0.998  -0.378  1.00  0.00     0.060 C 
HETATM   28  C13 UNL     1       6.605  -1.427   0.583  1.00  0.00     0.046 C 
HETATM   29  C14 UNL     1       4.624  -2.199  -0.612  1.00  0.00     0.046 C 
HETATM   30  C15 UNL     1       6.168  -0.658  -1.709  1.00  0.00     0.046 C 
ENDBRANCH  26  27
ENDBRANCH  24  26
ENDBRANCH  23  24
ENDBRANCH  20  21
ENDBRANCH  17  20
BRANCH  17  31
HETATM   31  C16 UNL     1       1.628   2.188  -1.233  1.00  0.00     0.296 C 
HETATM   32  O4  UNL     1       1.467   3.348  -1.729  1.00  0.00    -0.262 OA
BRANCH  31  33
HETATM   33  O5  UNL     1       2.444   1.340  -1.928  1.00  0.00    -0.324 OA
HETATM   34  C17 UNL     1       3.069   1.742  -3.133  1.00  0.00     0.213 C 
ENDBRANCH  31  33
ENDBRANCH  17  31
ENDBRANCH   5  17
BRANCH  11  35
HETATM   35  C23 UNL     1      -4.761  -1.890  -1.155  1.00  0.00    -0.018 C 
HETATM   36  C24 UNL     1      -4.318  -1.705  -2.572  1.00  0.00     0.010 C 
HETATM   37  C25 UNL     1      -4.799  -3.322  -0.681  1.00  0.00     0.010 C 
ENDBRANCH  11  35
TORSDOF 10
