REMARK  11 active torsions:
REMARK  status: ('A' for Active; 'I' for Inactive)
REMARK    1  A    between atoms: C2_2  and  C3_3 
REMARK    2  A    between atoms: C4_4  and  C5_5 
REMARK    3  A    between atoms: C4_4  and  C28_36 
REMARK    4  A    between atoms: C5_5  and  O2_7 
REMARK    5  A    between atoms: O2_7  and  C6_8 
REMARK    6  A    between atoms: C16_18  and  O3_19 
REMARK    7  A    between atoms: C19_23  and  O4_24 
REMARK    8  A    between atoms: C20_26  and  O5_28 
REMARK    9  A    between atoms: O5_28  and  C22_29 
REMARK   10  A    between atoms: C22_29  and  C23_31 
REMARK   11  A    between atoms: C23_31  and  C24_32 
ROOT
HETATM    1  C6  UNL     1       1.268   0.732   0.545  1.00  0.00     0.190 C 
HETATM    2  C7  UNL     1       1.429   1.180   1.926  1.00  0.00    -0.056 C 
HETATM    3  C8  UNL     1       2.284   0.248   2.825  1.00  0.00     0.046 C 
HETATM    4  C9  UNL     1       0.974   2.229   2.586  1.00  0.00    -0.022 C 
HETATM    5  C10 UNL     1       0.091   3.357   2.097  1.00  0.00     0.028 C 
HETATM    6  C11 UNL     1      -0.875   2.700   1.253  1.00  0.00     0.009 C 
HETATM    7  C12 UNL     1      -2.264   2.731   0.941  1.00  0.00    -0.003 C 
HETATM    8  C13 UNL     1      -2.492   3.725  -0.200  1.00  0.00    -0.012 C 
HETATM    9  C14 UNL     1      -3.951   3.904  -0.496  1.00  0.00     0.010 C 
HETATM   10  C15 UNL     1      -1.664   3.452  -1.407  1.00  0.00     0.037 C 
HETATM   11  C16 UNL     1      -1.579   2.008  -1.848  1.00  0.00     0.123 C 
HETATM   12  C17 UNL     1      -1.960   0.991  -0.901  1.00  0.00     0.031 C 
HETATM   13  C18 UNL     1      -1.171  -0.025  -0.203  1.00  0.00     0.059 C 
HETATM   14  C19 UNL     1       0.219  -0.180   0.058  1.00  0.00     0.159 C 
HETATM   15  C20 UNL     1      -2.318   0.076   0.780  1.00  0.00     0.078 C 
HETATM   16  C21 UNL     1      -2.160  -0.392   2.164  1.00  0.00     0.047 C 
HETATM   17  C27 UNL     1      -2.714   1.429   0.371  1.00  0.00     0.032 C 
ENDROOT
BRANCH   1  18
HETATM   18  O2  UNL     1       2.501  -0.028   0.300  1.00  0.00    -0.305 OA
BRANCH  18  19
HETATM   19  C5  UNL     1       3.495   0.342  -0.532  1.00  0.00     0.290 C 
HETATM   20  O1  UNL     1       3.389   1.422  -1.164  1.00  0.00    -0.260 OA
BRANCH  19  21
HETATM   21  C4  UNL     1       4.697  -0.506  -0.702  1.00  0.00     0.020 C 
HETATM   22  C3  UNL     1       4.796  -1.628  -0.037  1.00  0.00     0.013 C 
BRANCH  22  23
HETATM   23  C2  UNL     1       5.852  -2.592  -0.045  1.00  0.00    -0.010 C 
HETATM   24  C1  UNL     1       5.784  -3.677   0.694  1.00  0.00     0.011 C 
ENDBRANCH  22  23
BRANCH  21  25
HETATM   25  C28 UNL     1       5.775  -0.085  -1.619  1.00  0.00     0.016 C 
HETATM   26  C29 UNL     1       5.257   0.120  -3.032  1.00  0.00     0.015 C 
HETATM   27  C30 UNL     1       6.291   1.248  -1.109  1.00  0.00     0.015 C 
ENDBRANCH  21  25
ENDBRANCH  19  21
ENDBRANCH  18  19
ENDBRANCH   1  18
BRANCH  14  28
HETATM   28  O4  UNL     1       0.820  -0.614  -1.181  1.00  0.00    -0.392 OA
ATOM     29  H4  UNL     1       0.143  -1.202  -1.495  1.00  0.00     0.210 HD
ENDBRANCH  14  28
BRANCH  15  30
HETATM   30  O5  UNL     1      -3.465  -0.739   0.342  1.00  0.00    -0.310 OA
BRANCH  30  31
HETATM   31  C22 UNL     1      -3.407  -2.087   0.220  1.00  0.00     0.259 C 
HETATM   32  O6  UNL     1      -2.377  -2.706   0.488  1.00  0.00    -0.265 OA
BRANCH  31  33
HETATM   33  C23 UNL     1      -4.603  -2.842  -0.244  1.00  0.00     0.115 C 
BRANCH  33  34
HETATM   34  C24 UNL     1      -4.321  -4.308  -0.304  1.00  0.00    -0.013 C 
HETATM   35  C25 UNL     1      -5.597  -5.000  -0.788  1.00  0.00     0.010 C 
HETATM   36  C26 UNL     1      -3.239  -4.574  -1.325  1.00  0.00     0.010 C 
ENDBRANCH  33  34
ENDBRANCH  31  33
ENDBRANCH  30  31
ENDBRANCH  15  30
BRANCH  11  37
HETATM   37  O3  UNL     1      -0.294   1.735  -2.396  1.00  0.00    -0.395 OA
ATOM     38  H3  UNL     1      -0.241   0.828  -2.673  1.00  0.00     0.210 HD
ENDBRANCH  11  37
TORSDOF 11
