REMARK  8 active torsions:
REMARK  status: ('A' for Active; 'I' for Inactive)
REMARK    1  A    between atoms: C3_3  and  C4_4 
REMARK    2  A    between atoms: C5_6  and  C6_7 
REMARK    3  A    between atoms: C6_7  and  C7_8 
REMARK    4  A    between atoms: C7_8  and  O2_9 
REMARK    5  A    between atoms: C16_21  and  C18_23 
REMARK    6  A    between atoms: C18_23  and  O5_24 
REMARK    7  A    between atoms: C18_23  and  O6_26 
REMARK    8  A    between atoms: O6_26  and  C19_27 
ROOT
HETATM    1  C7  UNL     1       1.350  -0.983  -0.544  1.00  0.00     0.074 C 
HETATM    2  C8  UNL     1       1.511  -2.096  -1.491  1.00  0.00     0.066 C 
HETATM    3  C9  UNL     1       0.063  -2.361  -1.874  1.00  0.00    -0.020 C 
HETATM    4  C10 UNL     1      -0.737  -1.945  -0.898  1.00  0.00    -0.068 C 
HETATM    5  C11 UNL     1      -2.229  -1.955  -0.744  1.00  0.00     0.020 C 
HETATM    6  C12 UNL     1      -2.729  -3.177  -0.042  1.00  0.00     0.013 C 
HETATM    7  C13 UNL     1      -4.225  -3.305  -0.330  1.00  0.00     0.044 C 
HETATM    8  C14 UNL     1      -4.800  -1.961  -0.674  1.00  0.00     0.120 A 
HETATM    9  O3  UNL     1      -5.152  -1.751  -1.988  1.00  0.00    -0.342 OA
HETATM   10  C15 UNL     1      -6.071  -1.577  -0.985  1.00  0.00     0.297 A 
HETATM   11  O4  UNL     1      -6.295  -0.290  -0.509  1.00  0.00    -0.342 OA
HETATM   12  C16 UNL     1      -5.071   0.297  -0.217  1.00  0.00     0.117 C 
HETATM   13  C17 UNL     1      -4.567   1.097  -1.389  1.00  0.00     0.052 C 
HETATM   14  C21 UNL     1      -4.205  -0.850   0.164  1.00  0.00     0.069 C 
HETATM   15  C22 UNL     1      -2.738  -0.675  -0.107  1.00  0.00     0.004 C 
HETATM   16  C23 UNL     1      -2.010  -0.470   1.195  1.00  0.00     0.007 C 
HETATM   17  C24 UNL     1      -0.556  -0.217   0.840  1.00  0.00     0.017 C 
HETATM   18  C25 UNL     1       0.090  -1.400   0.205  1.00  0.00     0.011 C 
HETATM   19  C26 UNL     1       0.367  -2.523   1.170  1.00  0.00     0.023 C 
ENDROOT
BRANCH   1  20
HETATM   20  C6  UNL     1       2.431  -0.584   0.356  1.00  0.00     0.073 C 
BRANCH  20  21
HETATM   21  C5  UNL     1       3.704  -0.041  -0.201  1.00  0.00     0.149 C 
HETATM   22  O1  UNL     1       4.498   0.297   0.962  1.00  0.00    -0.371 OA
HETATM   23  C4  UNL     1       5.651   0.947   0.540  1.00  0.00     0.178 C 
HETATM   24  C28 UNL     1       6.433   0.117  -0.456  1.00  0.00     0.083 C 
HETATM   25  O7  UNL     1       5.638  -0.368  -1.469  1.00  0.00    -0.376 OA
HETATM   26  C29 UNL     1       7.479   1.027  -1.098  1.00  0.00     0.049 C 
HETATM   27  C30 UNL     1       7.131  -1.006   0.250  1.00  0.00     0.049 C 
HETATM   28  C27 UNL     1       4.578  -1.072  -0.881  1.00  0.00     0.200 C 
BRANCH  23  29
HETATM   29  C3  UNL     1       5.341   2.283  -0.032  1.00  0.00     0.003 C 
HETATM   30  C2  UNL     1       5.130   3.353   0.714  1.00  0.00    -0.032 C 
HETATM   31  C1  UNL     1       5.199   3.247   2.185  1.00  0.00     0.036 C 
ENDBRANCH  23  29
ENDBRANCH  20  21
ENDBRANCH   1  20
BRANCH   1  32
HETATM   32  O2  UNL     1       0.940   0.142  -1.311  1.00  0.00    -0.388 OA
ATOM     33  H2  UNL     1       0.238  -0.117  -1.896  1.00  0.00     0.210 HD
ENDBRANCH   1  32
BRANCH  12  34
HETATM   34  C18 UNL     1      -5.308   1.253   0.939  1.00  0.00     0.291 C 
BRANCH  34  35
HETATM   35  O5  UNL     1      -5.790   0.569   2.063  1.00  0.00    -0.368 OA
ATOM     36  H5  UNL     1      -5.938   1.167   2.786  1.00  0.00     0.212 HD
ENDBRANCH  34  35
BRANCH  34  37
HETATM   37  O6  UNL     1      -6.145   2.278   0.581  1.00  0.00    -0.359 OA
BRANCH  37  38
HETATM   38  C19 UNL     1      -5.580   3.528   0.693  1.00  0.00     0.166 C 
HETATM   39  C20 UNL     1      -6.504   4.638   0.300  1.00  0.00     0.033 C 
ENDBRANCH  37  38
ENDBRANCH  34  37
ENDBRANCH  12  34
TORSDOF 8
