REMARK  17 active torsions:
REMARK  status: ('A' for Active; 'I' for Inactive)
REMARK    1  A    between atoms: C2_2  and  C3_3 
REMARK    2  A    between atoms: C4_4  and  C5_5 
REMARK    3  A    between atoms: C5_5  and  C8_8 
REMARK    4  A    between atoms: C8_8  and  C9_9 
REMARK    5  A    between atoms: C9_9  and  C10_10 
REMARK       I    between atoms: C10_10  and  N1_12 
REMARK    6  A    between atoms: N1_12  and  C11_14 
REMARK    7  A    between atoms: C11_14  and  C12_15 
REMARK    8  A    between atoms: C12_15  and  C13_16 
REMARK    9  A    between atoms: C13_16  and  C14_17 
REMARK   10  A    between atoms: C14_17  and  C15_18 
REMARK   11  A    between atoms: C15_18  and  N2_21 
REMARK       I    between atoms: N2_21  and  C18_23 
REMARK       I    between atoms: C18_23  and  N3_25 
REMARK       I    between atoms: N3_25  and  C19_27 
REMARK   12  A    between atoms: C19_27  and  C20_29 
REMARK   13  A    between atoms: C20_29  and  C21_30 
REMARK   14  A    between atoms: C26_37  and  C28_39 
REMARK   15  A    between atoms: C28_39  and  C29_40 
REMARK   16  A    between atoms: C29_40  and  C30_41 
REMARK   17  A    between atoms: C36_47  and  O6_49 
ROOT
HETATM    1  N2  UNL     1       0.150   3.212   2.088  1.00  0.00    -0.334 N 
ATOM      2  H2  UNL     1      -0.154   2.852   1.183  1.00  0.00     0.165 HD
HETATM    3  C18 UNL     1      -0.794   3.435   3.080  1.00  0.00     0.323 C 
HETATM    4  O2  UNL     1      -0.372   3.887   4.216  1.00  0.00    -0.247 OA
HETATM    5  N3  UNL     1      -2.178   3.233   3.025  1.00  0.00    -0.279 N 
ATOM      6  H3  UNL     1      -2.715   3.399   3.876  1.00  0.00     0.173 HD
HETATM    7  C19 UNL     1      -2.897   2.807   1.852  1.00  0.00     0.226 C 
HETATM    8  O3  UNL     1      -2.238   2.567   0.829  1.00  0.00    -0.273 OA
ENDROOT
BRANCH   7   9
HETATM    9  C20 UNL     1      -4.369   2.692   1.952  1.00  0.00     0.118 C 
BRANCH   9  10
HETATM   10  C21 UNL     1      -5.206   2.668   0.780  1.00  0.00     0.105 C 
HETATM   11  C22 UNL     1      -4.921   3.965   0.035  1.00  0.00     0.265 C 
HETATM   12  O4  UNL     1      -5.292   5.121   0.350  1.00  0.00    -0.265 OA
HETATM   13  O5  UNL     1      -4.167   3.528  -1.049  1.00  0.00    -0.310 OA
HETATM   14  C23 UNL     1      -4.666   2.275  -1.489  1.00  0.00     0.071 C 
HETATM   15  C24 UNL     1      -3.643   1.417  -2.174  1.00  0.00     0.047 C 
HETATM   16  C25 UNL     1      -5.612   2.649  -2.649  1.00  0.00     0.047 C 
HETATM   17  C26 UNL     1      -5.342   1.737  -0.292  1.00  0.00     0.000 C 
HETATM   18  C27 UNL     1      -6.872   1.887  -0.697  1.00  0.00     0.019 C 
BRANCH  17  19
HETATM   19  C28 UNL     1      -5.326   0.265  -0.114  1.00  0.00     0.013 C 
BRANCH  19  20
HETATM   20  C29 UNL     1      -4.167  -0.424   0.461  1.00  0.00     0.008 C 
BRANCH  20  21
HETATM   21  C30 UNL     1      -4.337  -1.928   0.555  1.00  0.00     0.019 C 
HETATM   22  C31 UNL     1      -5.495  -2.379   1.387  1.00  0.00     0.008 C 
HETATM   23  C32 UNL     1      -6.668  -2.810   0.509  1.00  0.00     0.005 C 
HETATM   24  C33 UNL     1      -6.235  -3.877  -0.435  1.00  0.00    -0.016 C 
HETATM   25  C34 UNL     1      -6.868  -3.648  -1.774  1.00  0.00     0.010 C 
HETATM   26  C35 UNL     1      -4.740  -4.070  -0.512  1.00  0.00     0.042 C 
HETATM   27  C36 UNL     1      -4.106  -2.688  -0.698  1.00  0.00     0.058 C 
HETATM   28  C37 UNL     1      -2.621  -2.915  -0.938  1.00  0.00     0.046 C 
BRANCH  27  29
HETATM   29  O6  UNL     1      -4.626  -2.203  -1.858  1.00  0.00    -0.390 OA
ATOM     30  H6  UNL     1      -4.478  -2.690  -2.660  1.00  0.00     0.210 HD
ENDBRANCH  27  29
ENDBRANCH  20  21
ENDBRANCH  19  20
ENDBRANCH  17  19
ENDBRANCH   9  10
ENDBRANCH   7   9
BRANCH   1  31
HETATM   31  C15 UNL     1       1.577   3.482   2.309  1.00  0.00     0.027 C 
HETATM   32  C16 UNL     1       2.296   3.469   1.004  1.00  0.00     0.038 C 
HETATM   33  C17 UNL     1       1.692   4.951   2.810  1.00  0.00     0.038 C 
BRANCH  31  34
HETATM   34  C14 UNL     1       2.076   2.560   3.369  1.00  0.00     0.030 C 
BRANCH  34  35
HETATM   35  C13 UNL     1       3.468   2.749   3.844  1.00  0.00     0.004 C 
BRANCH  35  36
HETATM   36  C12 UNL     1       4.514   2.412   2.864  1.00  0.00     0.020 C 
BRANCH  36  37
HETATM   37  C11 UNL     1       4.530   0.936   2.508  1.00  0.00     0.122 C 
BRANCH  37  38
HETATM   38  N1  UNL     1       5.547   0.715   1.516  1.00  0.00    -0.361 N 
HETATM   39  C10 UNL     1       5.878  -0.568   1.023  1.00  0.00     0.217 C 
HETATM   40  O1  UNL     1       5.249  -1.556   1.513  1.00  0.00    -0.274 OA
ATOM     41  H1  UNL     1       6.053   1.522   1.151  1.00  0.00     0.162 HD
BRANCH  39  42
HETATM   42  C9  UNL     1       6.899  -0.824  -0.013  1.00  0.00     0.103 C 
BRANCH  42  43
HETATM   43  C8  UNL     1       7.284  -2.283   0.050  1.00  0.00     0.022 C 
BRANCH  43  44
HETATM   44  C5  UNL     1       8.262  -2.723  -0.981  1.00  0.00    -0.030 C 
HETATM   45  C6  UNL     1       8.575  -4.181  -0.747  1.00  0.00     0.019 C 
HETATM   46  C7  UNL     1       9.536  -1.897  -0.891  1.00  0.00     0.019 C 
BRANCH  44  47
HETATM   47  C4  UNL     1       7.671  -2.517  -2.330  1.00  0.00    -0.018 C 
HETATM   48  C3  UNL     1       7.870  -3.400  -3.287  1.00  0.00    -0.004 C 
BRANCH  48  49
HETATM   49  C2  UNL     1       7.332  -3.275  -4.622  1.00  0.00    -0.011 C 
HETATM   50  C1  UNL     1       7.574  -4.208  -5.529  1.00  0.00     0.011 C 
ENDBRANCH  48  49
ENDBRANCH  44  47
ENDBRANCH  43  44
ENDBRANCH  42  43
ENDBRANCH  39  42
ENDBRANCH  37  38
ENDBRANCH  36  37
ENDBRANCH  35  36
ENDBRANCH  34  35
ENDBRANCH  31  34
ENDBRANCH   1  31
TORSDOF 17
