REMARK  17 active torsions:
REMARK  status: ('A' for Active; 'I' for Inactive)
REMARK    1  A    between atoms: C2_2  and  N1_4 
REMARK       I    between atoms: N1_4  and  C4_6 
REMARK       I    between atoms: C4_6  and  N2_8 
REMARK    2  A    between atoms: N2_8  and  C5_10 
REMARK    3  A    between atoms: C5_10  and  C6_11 
REMARK    4  A    between atoms: C6_11  and  C7_12 
REMARK    5  A    between atoms: C7_12  and  C8_13 
REMARK    6  A    between atoms: C8_13  and  O2_14 
REMARK    7  A    between atoms: C8_13  and  C9_16 
REMARK    8  A    between atoms: C9_16  and  C10_17 
REMARK    9  A    between atoms: C10_17  and  C11_18 
REMARK   10  A    between atoms: C10_17  and  C13_22 
REMARK   11  A    between atoms: C11_18  and  C12_19 
REMARK   12  A    between atoms: C12_19  and  O3_20 
REMARK   13  A    between atoms: C13_22  and  C14_23 
REMARK   14  A    between atoms: C14_23  and  C15_24 
REMARK   15  A    between atoms: C15_24  and  C16_25 
REMARK   16  A    between atoms: C25_34  and  O4_35 
REMARK   17  A    between atoms: O4_35  and  S1_36 
ROOT
HETATM    1  C16 UNL     1       1.752   0.897   0.541  1.00  0.00    -0.006 C 
HETATM    2  C17 UNL     1       1.957   2.403   0.420  1.00  0.00     0.006 C 
HETATM    3  C18 UNL     1       3.440   2.613   0.768  1.00  0.00     0.006 C 
HETATM    4  C19 UNL     1       3.959   1.237   0.838  1.00  0.00    -0.002 C 
HETATM    5  C20 UNL     1       5.380   0.975   0.763  1.00  0.00    -0.005 C 
HETATM    6  C21 UNL     1       6.170   1.523  -0.355  1.00  0.00     0.006 C 
HETATM    7  C22 UNL     1       7.453   0.758  -0.621  1.00  0.00     0.006 C 
HETATM    8  C23 UNL     1       7.945   0.059   0.654  1.00  0.00    -0.004 C 
HETATM    9  C24 UNL     1       9.299  -0.466   0.364  1.00  0.00     0.039 C 
HETATM   10  C25 UNL     1       9.372  -1.869  -0.151  1.00  0.00     0.145 C 
HETATM   11  C26 UNL     1       8.659  -2.718   0.863  1.00  0.00     0.034 C 
HETATM   12  C27 UNL     1       7.228  -2.338   1.071  1.00  0.00     0.012 C 
HETATM   13  C28 UNL     1       6.935  -0.896   1.204  1.00  0.00    -0.036 C 
HETATM   14  C29 UNL     1       6.993  -0.645   2.743  1.00  0.00     0.016 C 
HETATM   15  C30 UNL     1       5.533  -0.561   0.861  1.00  0.00    -0.002 C 
HETATM   16  C31 UNL     1       4.890  -1.096  -0.339  1.00  0.00     0.006 C 
HETATM   17  C32 UNL     1       3.364  -0.945  -0.134  1.00  0.00     0.010 C 
HETATM   18  C33 UNL     1       3.070   0.500  -0.160  1.00  0.00    -0.036 C 
HETATM   19  C34 UNL     1       3.042   1.151  -1.500  1.00  0.00     0.016 C 
ENDROOT
BRANCH   1  20
HETATM   20  C15 UNL     1       0.559   0.342  -0.085  1.00  0.00     0.005 C 
BRANCH  20  21
HETATM   21  C14 UNL     1      -0.730   0.965   0.472  1.00  0.00     0.001 C 
BRANCH  21  22
HETATM   22  C13 UNL     1      -1.926   0.310  -0.216  1.00  0.00     0.005 C 
BRANCH  22  23
HETATM   23  C10 UNL     1      -3.226   0.907   0.251  1.00  0.00    -0.010 C 
BRANCH  23  24
HETATM   24  C9  UNL     1      -4.416   0.247  -0.418  1.00  0.00     0.036 C 
BRANCH  24  25
HETATM   25  C8  UNL     1      -4.762  -1.075   0.089  1.00  0.00     0.118 C 
BRANCH  25  26
HETATM   26  C7  UNL     1      -5.914  -1.739  -0.555  1.00  0.00     0.033 C 
BRANCH  26  27
HETATM   27  C6  UNL     1      -7.302  -1.352  -0.246  1.00  0.00     0.022 C 
BRANCH  27  28
HETATM   28  C5  UNL     1      -7.737   0.050  -0.512  1.00  0.00     0.124 C 
BRANCH  28  29
HETATM   29  N2  UNL     1      -9.159   0.270  -0.249  1.00  0.00    -0.343 N 
HETATM   30  C4  UNL     1     -10.168  -0.408  -0.956  1.00  0.00     0.316 C 
HETATM   31  N1  UNL     1     -11.556  -0.184  -0.671  1.00  0.00    -0.339 N 
HETATM   32  O1  UNL     1      -9.924  -1.232  -1.861  1.00  0.00    -0.247 OA
ATOM     33  H1  UNL     1     -11.821   0.485   0.052  1.00  0.00     0.164 HD
ATOM     34  H2  UNL     1      -9.428   0.939   0.473  1.00  0.00     0.164 HD
BRANCH  31  35
HETATM   35  C2  UNL     1     -12.580  -0.893  -1.395  1.00  0.00     0.078 C 
HETATM   36  C1  UNL     1     -13.421   0.032  -2.258  1.00  0.00     0.032 C 
HETATM   37  C3  UNL     1     -13.512  -1.549  -0.394  1.00  0.00     0.032 C 
ENDBRANCH  31  35
ENDBRANCH  28  29
ENDBRANCH  27  28
ENDBRANCH  26  27
ENDBRANCH  25  26
BRANCH  25  38
HETATM   38  O2  UNL     1      -4.907  -1.193   1.466  1.00  0.00    -0.396 OA
ATOM     39  H2  UNL     1      -4.166  -0.766   1.880  1.00  0.00     0.210 HD
ENDBRANCH  25  38
ENDBRANCH  24  25
ENDBRANCH  23  24
BRANCH  23  40
HETATM   40  C11 UNL     1      -3.335   1.139   1.703  1.00  0.00     0.030 C 
BRANCH  40  41
HETATM   41  C12 UNL     1      -4.520   2.045   2.058  1.00  0.00     0.164 C 
BRANCH  41  42
HETATM   42  O3  UNL     1      -4.354   3.296   1.421  1.00  0.00    -0.401 OA
ATOM     43  H3  UNL     1      -5.088   3.857   1.641  1.00  0.00     0.209 HD
ENDBRANCH  41  42
ENDBRANCH  40  41
ENDBRANCH  23  40
ENDBRANCH  22  23
ENDBRANCH  21  22
ENDBRANCH  20  21
ENDBRANCH   1  20
BRANCH  10  44
HETATM   44  O4  UNL     1       8.945  -2.043  -1.434  1.00  0.00    -0.252 OA
BRANCH  44  45
HETATM   45  S1  UNL     1      10.208  -2.601  -2.386  1.00  0.00     0.251 S 
HETATM   46  O5  UNL     1      11.447  -1.767  -2.229  1.00  0.00    -0.572 OA
HETATM   47  O6  UNL     1      10.562  -3.987  -1.864  1.00  0.00    -0.572 OA
HETATM   48  O7  UNL     1       9.799  -2.772  -3.987  1.00  0.00    -0.572 OA
ENDBRANCH  44  45
ENDBRANCH  10  44
TORSDOF 17
