REMARK  12 active torsions:
REMARK  status: ('A' for Active; 'I' for Inactive)
REMARK    1  A    between atoms: C2_2  and  N1_4 
REMARK    2  A    between atoms: N1_4  and  C3_6 
REMARK    3  A    between atoms: C3_6  and  C4_7 
REMARK    4  A    between atoms: C4_7  and  C5_8 
REMARK    5  A    between atoms: C5_8  and  C6_9 
REMARK    6  A    between atoms: C6_9  and  C7_10 
REMARK    7  A    between atoms: C7_10  and  C8_11 
REMARK    8  A    between atoms: C7_10  and  N2_13 
REMARK       I    between atoms: N2_13  and  C9_15 
REMARK    9  A    between atoms: C9_15  and  C10_17 
REMARK   10  A    between atoms: C10_17  and  C11_18 
REMARK   11  A    between atoms: C10_17  and  C18_25 
REMARK   12  A    between atoms: C11_18  and  C12_19 
REMARK       I    between atoms: C18_25  and  N3_27 
ROOT
HETATM    1  C10 UNL     1      -2.328  -0.099  -0.046  1.00  0.00     0.170 C 
ENDROOT
BRANCH   1   2
HETATM    2  C9  UNL     1      -0.909   0.271  -0.092  1.00  0.00     0.231 C 
HETATM    3  N2  UNL     1      -0.045  -0.207   0.914  1.00  0.00    -0.350 N 
ATOM      4  H2  UNL     1      -0.435  -0.826   1.625  1.00  0.00     0.163 HD
HETATM    5  O2  UNL     1      -0.506   1.004  -1.008  1.00  0.00    -0.273 OA
BRANCH   3   6
HETATM    6  C7  UNL     1       1.379   0.130   1.001  1.00  0.00     0.146 C 
BRANCH   6   7
HETATM    7  C6  UNL     1       2.068  -0.565  -0.125  1.00  0.00     0.032 C 
BRANCH   7   8
HETATM    8  C5  UNL     1       3.517  -0.403  -0.284  1.00  0.00     0.004 C 
BRANCH   8   9
HETATM    9  C4  UNL     1       4.439  -1.056   0.695  1.00  0.00     0.020 C 
BRANCH   9  10
HETATM   10  C3  UNL     1       5.847  -0.635   0.290  1.00  0.00     0.120 C 
BRANCH  10  11
HETATM   11  N1  UNL     1       6.869  -1.241   1.116  1.00  0.00    -0.385 N 
ATOM     12  H1  UNL     1       6.626  -1.888   1.867  1.00  0.00     0.160 HD
BRANCH  11  13
HETATM   13  C2  UNL     1       8.206  -0.908   0.848  1.00  0.00     0.069 C 
HETATM   14  C1  UNL     1       8.543   0.028  -0.238  1.00  0.00     0.081 C 
HETATM   15  S1  UNL     1       9.402  -1.568   1.731  1.00  0.00    -0.066 SA
ENDBRANCH  11  13
ENDBRANCH  10  11
ENDBRANCH   9  10
ENDBRANCH   8   9
ENDBRANCH   7   8
ENDBRANCH   6   7
BRANCH   6  16
HETATM   16  C8  UNL     1       1.804  -0.172   2.360  1.00  0.00     0.256 C 
HETATM   17  O1  UNL     1       1.031  -0.798   3.111  1.00  0.00    -0.305 OA
ENDBRANCH   6  16
ENDBRANCH   3   6
ENDBRANCH   1   2
BRANCH   1  18
HETATM   18  C11 UNL     1      -2.893  -1.143  -0.917  1.00  0.00     0.028 C 
BRANCH  18  19
HETATM   19  C12 UNL     1      -2.408  -2.516  -0.840  1.00  0.00    -0.013 C 
HETATM   20  C13 UNL     1      -3.239  -3.407  -1.829  1.00  0.00     0.005 C 
HETATM   21  C14 UNL     1      -3.065  -4.801  -1.214  1.00  0.00     0.000 C 
HETATM   22  C15 UNL     1      -1.618  -5.180  -1.165  1.00  0.00     0.000 C 
HETATM   23  C16 UNL     1      -0.720  -4.155  -1.782  1.00  0.00     0.000 C 
HETATM   24  C17 UNL     1      -1.015  -2.737  -1.367  1.00  0.00     0.005 C 
ENDBRANCH  18  19
ENDBRANCH   1  18
BRANCH   1  25
HETATM   25  C18 UNL     1      -3.058   1.219  -0.308  1.00  0.00     0.234 C 
HETATM   26  O3  UNL     1      -4.016   1.178  -1.096  1.00  0.00    -0.272 OA
HETATM   27  N3  UNL     1      -2.644   2.367   0.316  1.00  0.00    -0.333 N 
HETATM   28  C19 UNL     1      -3.247   3.339   0.838  1.00  0.00     0.003 C 
ATOM     29  H3  UNL     1      -1.629   2.451   0.368  1.00  0.00     0.168 HD
HETATM   30  C20 UNL     1      -2.427   4.437   1.434  1.00  0.00     0.054 C 
HETATM   31  C23 UNL     1      -4.713   3.419   0.880  1.00  0.00     0.192 C 
HETATM   32  C21 UNL     1      -3.103   5.763   1.345  1.00  0.00     0.021 C 
HETATM   33  C22 UNL     1      -3.815   6.009   0.027  1.00  0.00     0.141 C 
HETATM   34  S2  UNL     1      -5.176   4.855  -0.071  1.00  0.00     0.149 S 
HETATM   35  O4  UNL     1      -5.356   4.454  -1.486  1.00  0.00    -0.228 OA
HETATM   36  O5  UNL     1      -6.422   5.451   0.451  1.00  0.00    -0.228 OA
ENDBRANCH   1  25
TORSDOF 12
