REMARK  11 active torsions:
REMARK  status: ('A' for Active; 'I' for Inactive)
REMARK    1  A    between atoms: C2_2  and  C3_3 
REMARK    2  A    between atoms: C3_3  and  N1_4 
REMARK    3  A    between atoms: N1_4  and  C4_5 
REMARK    4  A    between atoms: N1_4  and  C8_10 
REMARK    5  A    between atoms: C4_5  and  C5_6 
REMARK    6  A    between atoms: C5_6  and  O1_7 
REMARK    7  A    between atoms: O1_7  and  C6_8 
REMARK    8  A    between atoms: N4_20  and  C13_21 
REMARK    9  A    between atoms: C21_30  and  O4_31 
REMARK   10  A    between atoms: C24_34  and  N5_35 
REMARK   11  A    between atoms: N5_35  and  N6_37 
ROOT
HETATM    1  C8  UNL     1      -1.221   0.473  -0.287  1.00  0.00     0.115 C 
HETATM    2  N2  UNL     1      -0.594  -0.680  -0.608  1.00  0.00    -0.341 N 
ATOM      3  H2  UNL     1      -1.172  -1.398  -1.044  1.00  0.00     0.167 HD
HETATM    4  C9  UNL     1       0.716  -1.000  -0.420  1.00  0.00     0.050 A 
HETATM    5  C10 UNL     1       0.985  -2.332  -0.308  1.00  0.00     0.062 A 
HETATM    6  C11 UNL     1       2.301  -2.772  -0.110  1.00  0.00     0.065 A 
HETATM    7  N3  UNL     1       2.809  -4.010   0.030  1.00  0.00    -0.306 N 
ATOM      8  H3  UNL     1       2.283  -4.884   0.012  1.00  0.00     0.171 HD
HETATM    9  C12 UNL     1       4.149  -3.882   0.200  1.00  0.00     0.328 A 
HETATM   10  O2  UNL     1       4.897  -4.897   0.359  1.00  0.00    -0.246 OA
HETATM   11  N4  UNL     1       4.501  -2.588   0.170  1.00  0.00    -0.293 N 
HETATM   12  C16 UNL     1       3.354  -1.907  -0.022  1.00  0.00     0.067 A 
HETATM   13  C17 UNL     1       3.069  -0.543  -0.137  1.00  0.00     0.050 A 
HETATM   14  C18 UNL     1       1.774  -0.110  -0.332  1.00  0.00     0.044 A 
HETATM   15  C19 UNL     1       1.781   1.258  -0.406  1.00  0.00     0.198 C 
HETATM   16  O3  UNL     1       2.918   1.828  -0.484  1.00  0.00    -0.286 OA
HETATM   17  C20 UNL     1       0.698   2.092  -0.405  1.00  0.00     0.062 A 
HETATM   18  C21 UNL     1       1.110   3.402  -0.476  1.00  0.00     0.085 A 
HETATM   19  C23 UNL     1       0.114   4.373  -0.486  1.00  0.00     0.068 A 
HETATM   20  C24 UNL     1      -1.228   4.063  -0.429  1.00  0.00     0.053 A 
HETATM   21  C25 UNL     1      -1.573   2.722  -0.359  1.00  0.00     0.047 A 
HETATM   22  C26 UNL     1      -0.647   1.718  -0.345  1.00  0.00     0.027 A 
ENDROOT
BRANCH   1  23
HETATM   23  N1  UNL     1      -2.600   0.396   0.165  1.00  0.00    -0.365 N 
BRANCH  23  24
HETATM   24  C3  UNL     1      -2.869   0.664   1.558  1.00  0.00     0.124 C 
BRANCH  24  25
HETATM   25  C2  UNL     1      -3.295  -0.467   2.403  1.00  0.00     0.015 C 
HETATM   26  C1  UNL     1      -2.290  -1.606   2.467  1.00  0.00     0.006 C 
ENDBRANCH  24  25
ENDBRANCH  23  24
BRANCH  23  27
HETATM   27  C4  UNL     1      -3.552   0.056  -0.841  1.00  0.00     0.150 C 
BRANCH  27  28
HETATM   28  C5  UNL     1      -4.189  -1.279  -0.782  1.00  0.00     0.187 C 
BRANCH  28  29
HETATM   29  O1  UNL     1      -5.084  -1.361  -1.881  1.00  0.00    -0.390 OA
BRANCH  29  30
HETATM   30  C6  UNL     1      -5.715  -2.597  -1.901  1.00  0.00     0.163 C 
HETATM   31  C7  UNL     1      -6.508  -2.892  -0.667  1.00  0.00     0.033 C 
ENDBRANCH  29  30
ENDBRANCH  28  29
ENDBRANCH  27  28
ENDBRANCH  23  27
ENDBRANCH   1  23
BRANCH  18  32
HETATM   32  O4  UNL     1       2.454   3.709  -0.534  1.00  0.00    -0.355 OA
HETATM   33  C22 UNL     1       2.838   5.075  -0.608  1.00  0.00     0.210 C 
ENDBRANCH  18  32
BRANCH  20  34
HETATM   34  N5  UNL     1      -2.233   5.069  -0.447  1.00  0.00    -0.287 N 
ATOM     35  H5  UNL     1      -3.214   4.795  -0.385  1.00  0.00     0.188 HD
BRANCH  34  36
HETATM   36  N6  UNL     1      -1.907   6.422  -0.547  1.00  0.00    -0.249 N 
HETATM   37  N7  UNL     1      -2.343   7.176  -1.459  1.00  0.00    -0.331 N 
ATOM     38  H72 UNL     1      -2.965   6.759  -2.152  1.00  0.00     0.178 HD
ATOM     39  H71 UNL     1      -2.105   8.165  -1.532  1.00  0.00     0.178 HD
ATOM     40  H6  UNL     1      -1.284   6.822   0.154  1.00  0.00     0.207 HD
ENDBRANCH  34  36
ENDBRANCH  20  34
BRANCH  11  41
HETATM   41  C13 UNL     1       5.820  -2.020   0.313  1.00  0.00     0.087 C 
HETATM   42  C14 UNL     1       6.820  -2.657  -0.593  1.00  0.00     0.032 C 
HETATM   43  C15 UNL     1       6.287  -2.003   1.756  1.00  0.00     0.032 C 
ENDBRANCH  11  41
TORSDOF 11
