REMARK  12 active torsions:
REMARK  status: ('A' for Active; 'I' for Inactive)
REMARK    1  A    between atoms: C2_2  and  C3_3 
REMARK    2  A    between atoms: C3_3  and  C4_4 
REMARK    3  A    between atoms: C7_10  and  O2_11 
REMARK    4  A    between atoms: C9_13  and  C10_14 
REMARK       I    between atoms: C10_14  and  N2_16 
REMARK       I    between atoms: N2_16  and  C11_18 
REMARK    5  A    between atoms: C11_18  and  C12_20 
REMARK    6  A    between atoms: C12_20  and  C13_21 
REMARK    7  A    between atoms: C13_21  and  C14_22 
REMARK    8  A    between atoms: C14_22  and  C15_23 
REMARK    9  A    between atoms: C15_23  and  C16_24 
REMARK   10  A    between atoms: C16_24  and  N3_25 
REMARK       I    between atoms: N3_25  and  C18_27 
REMARK       I    between atoms: C18_27  and  N4_29 
REMARK   11  A    between atoms: N4_29  and  C19_31 
REMARK   12  A    between atoms: C23_37  and  N6_38 
ROOT
HETATM    1  C12 UNL     1       0.567   0.855  -0.737  1.00  0.00     0.103 C 
ENDROOT
BRANCH   1   2
HETATM    2  C11 UNL     1      -0.703   1.491  -0.354  1.00  0.00     0.224 C 
HETATM    3  N2  UNL     1      -1.916   0.996  -0.985  1.00  0.00    -0.293 N 
HETATM    4  C10 UNL     1      -3.171   1.532  -0.676  1.00  0.00     0.263 C 
ATOM      5  H2  UNL     1      -1.851   0.241  -1.668  1.00  0.00     0.172 HD
HETATM    6  O3  UNL     1      -3.160   2.522   0.141  1.00  0.00    -0.267 OA
HETATM    7  O4  UNL     1      -0.833   2.431   0.477  1.00  0.00    -0.273 OA
BRANCH   4   8
HETATM    8  C9  UNL     1      -4.398   1.029  -1.233  1.00  0.00     0.089 A 
HETATM    9  C4  UNL     1      -4.784  -0.277  -1.351  1.00  0.00    -0.033 A 
HETATM   10  C5  UNL     1      -5.965  -0.641  -1.995  1.00  0.00     0.082 A 
HETATM   11  C6  UNL     1      -6.782   0.309  -2.530  1.00  0.00     0.247 A 
HETATM   12  O1  UNL     1      -7.869  -0.003  -3.124  1.00  0.00    -0.268 OA
HETATM   13  N1  UNL     1      -6.407   1.589  -2.412  1.00  0.00    -0.303 N 
HETATM   14  C7  UNL     1      -5.274   1.964  -1.798  1.00  0.00     0.161 A 
ATOM     15  H1  UNL     1      -7.009   2.311  -2.806  1.00  0.00     0.171 HD
BRANCH   9  16
HETATM   16  C3  UNL     1      -3.999  -1.356  -0.734  1.00  0.00     0.039 C 
BRANCH  16  17
HETATM   17  C2  UNL     1      -4.252  -1.332   0.776  1.00  0.00     0.000 C 
HETATM   18  C1  UNL     1      -3.425  -2.457   1.374  1.00  0.00     0.005 C 
ENDBRANCH  16  17
ENDBRANCH   9  16
BRANCH  14  19
HETATM   19  O2  UNL     1      -5.002   3.315  -1.741  1.00  0.00    -0.340 OA
HETATM   20  C8  UNL     1      -5.608   4.095  -0.699  1.00  0.00     0.211 C 
ENDBRANCH  14  19
ENDBRANCH   4   8
ENDBRANCH   1   2
BRANCH   1  21
HETATM   21  C13 UNL     1       1.680   1.321   0.157  1.00  0.00     0.009 C 
BRANCH  21  22
HETATM   22  C14 UNL     1       1.412   0.884   1.577  1.00  0.00     0.002 C 
BRANCH  22  23
HETATM   23  C15 UNL     1       2.492   1.300   2.498  1.00  0.00     0.020 C 
BRANCH  23  24
HETATM   24  C16 UNL     1       3.798   0.633   2.295  1.00  0.00     0.127 C 
BRANCH  24  25
HETATM   25  N3  UNL     1       3.797  -0.754   2.592  1.00  0.00    -0.338 N 
HETATM   26  C17 UNL     1       3.942  -1.049   4.054  1.00  0.00     0.154 C 
HETATM   27  C18 UNL     1       3.682  -1.834   1.765  1.00  0.00     0.323 C 
HETATM   28  O5  UNL     1       3.622  -2.999   2.317  1.00  0.00    -0.247 OA
HETATM   29  N4  UNL     1       3.633  -1.753   0.354  1.00  0.00    -0.293 N 
ATOM     30  H4  UNL     1       2.726  -1.819  -0.108  1.00  0.00     0.172 HD
BRANCH  29  31
HETATM   31  C19 UNL     1       4.691  -1.599  -0.375  1.00  0.00     0.142 A 
HETATM   32  N5  UNL     1       5.918  -1.505   0.161  1.00  0.00    -0.350 N 
HETATM   33  C20 UNL     1       6.986  -1.344  -0.634  1.00  0.00     0.090 A 
ATOM     34  H5  UNL     1       6.038  -1.556   1.173  1.00  0.00     0.166 HD
HETATM   35  C21 UNL     1       6.901  -1.268  -2.004  1.00  0.00     0.020 A 
HETATM   36  C22 UNL     1       5.661  -1.361  -2.593  1.00  0.00     0.041 A 
HETATM   37  C23 UNL     1       4.565  -1.528  -1.744  1.00  0.00     0.146 A 
BRANCH  37  38
HETATM   38  N6  UNL     1       3.273  -1.629  -2.350  1.00  0.00    -0.112 N 
HETATM   39  O6  UNL     1       3.107  -1.067  -3.446  1.00  0.00    -0.532 OA
HETATM   40  O7  UNL     1       2.223  -2.306  -1.786  1.00  0.00    -0.532 OA
ENDBRANCH  37  38
ENDBRANCH  29  31
ENDBRANCH  24  25
ENDBRANCH  23  24
ENDBRANCH  22  23
ENDBRANCH  21  22
ENDBRANCH   1  21
TORSDOF 12
