REMARK  13 active torsions:
REMARK  status: ('A' for Active; 'I' for Inactive)
REMARK    1  A    between atoms: C7_8  and  C8_9 
REMARK    2  A    between atoms: C9_10  and  C10_11 
REMARK    3  A    between atoms: C11_13  and  C12_14 
REMARK    4  A    between atoms: C12_14  and  C13_15 
REMARK    5  A    between atoms: C14_16  and  C15_17 
REMARK    6  A    between atoms: C15_17  and  C16_18 
REMARK    7  A    between atoms: C16_18  and  C17_19 
REMARK    8  A    between atoms: C17_19  and  C18_20 
REMARK    9  A    between atoms: C19_23  and  O4_24 
REMARK   10  A    between atoms: C20_26  and  O5_27 
REMARK   11  A    between atoms: C21_29  and  O6_30 
REMARK   12  A    between atoms: N2_33  and  C24_34 
REMARK   13  A    between atoms: C24_34  and  C26_36 
ROOT
HETATM    1  C8  UNL     1      -0.179  -0.269   0.544  1.00  0.00     0.008 C 
HETATM    2  C9  UNL     1       0.426  -0.181  -0.625  1.00  0.00     0.006 C 
ENDROOT
BRANCH   1   3
HETATM    3  C7  UNL     1      -1.560   0.173   0.752  1.00  0.00     0.173 C 
HETATM    4  C2  UNL     1      -1.794   1.607   0.480  1.00  0.00    -0.057 C 
HETATM    5  C1  UNL     1      -0.759   2.398   0.606  1.00  0.00     0.017 C 
HETATM    6  C3  UNL     1      -3.059   2.252   0.081  1.00  0.00     0.038 C 
HETATM    7  C4  UNL     1      -4.131   1.658   1.002  1.00  0.00     0.032 C 
HETATM    8  C5  UNL     1      -4.665   0.387   0.368  1.00  0.00     0.111 C 
HETATM    9  C6  UNL     1      -3.632  -0.692   0.777  1.00  0.00     0.175 C 
HETATM   10  N2  UNL     1      -5.834  -0.122   0.923  1.00  0.00    -0.399 N 
HETATM   11  O1  UNL     1      -2.479  -0.626   0.027  1.00  0.00    -0.368 OA
HETATM   12  C21 UNL     1      -4.412  -1.962   0.519  1.00  0.00     0.169 C 
HETATM   13  C23 UNL     1      -5.794  -1.567   0.949  1.00  0.00     0.152 C 
BRANCH  12  14
HETATM   14  O6  UNL     1      -3.900  -2.960   1.356  1.00  0.00    -0.386 OA
HETATM   15  C22 UNL     1      -3.421  -3.980   0.513  1.00  0.00     0.202 C 
ENDBRANCH  12  14
BRANCH  10  16
HETATM   16  C24 UNL     1      -7.116   0.331   0.644  1.00  0.00     0.079 C 
HETATM   17  C25 UNL     1      -7.405   1.790   1.036  1.00  0.00     0.032 C 
BRANCH  16  18
HETATM   18  C26 UNL     1      -7.707   0.028  -0.709  1.00  0.00    -0.001 C 
HETATM   19  C27 UNL     1      -9.134   0.627  -0.737  1.00  0.00     0.011 C 
HETATM   20  C28 UNL     1      -6.998   0.735  -1.851  1.00  0.00     0.011 C 
ENDBRANCH  16  18
ENDBRANCH  10  16
ENDBRANCH   1   3
BRANCH   2  21
HETATM   21  C10 UNL     1       1.832  -0.630  -0.842  1.00  0.00     0.176 C 
HETATM   22  O2  UNL     1       2.531  -0.687   0.363  1.00  0.00    -0.371 OA
HETATM   23  C11 UNL     1       3.866  -0.608  -0.039  1.00  0.00     0.157 C 
HETATM   24  C19 UNL     1       3.817   0.617  -0.931  1.00  0.00     0.178 C 
HETATM   25  C20 UNL     1       2.523   0.399  -1.690  1.00  0.00     0.182 C 
BRANCH  23  26
HETATM   26  C12 UNL     1       4.782  -0.344   1.134  1.00  0.00     0.061 C 
BRANCH  26  27
HETATM   27  C13 UNL     1       6.176  -0.281   0.615  1.00  0.00    -0.028 C 
HETATM   28  C14 UNL     1       7.060  -1.132   1.067  1.00  0.00    -0.031 C 
BRANCH  28  29
HETATM   29  C15 UNL     1       8.485  -1.154   0.611  1.00  0.00     0.027 C 
BRANCH  29  30
HETATM   30  C16 UNL     1       8.779  -0.099  -0.411  1.00  0.00     0.013 C 
BRANCH  30  31
HETATM   31  C17 UNL     1      10.201  -0.168  -0.836  1.00  0.00     0.100 C 
BRANCH  31  32
HETATM   32  C18 UNL     1      11.183   0.076   0.238  1.00  0.00     0.231 C 
HETATM   33  N1  UNL     1      12.552  -0.249  -0.078  1.00  0.00    -0.062 NA
HETATM   34  O3  UNL     1      10.914   0.533   1.366  1.00  0.00    -0.277 OA
ENDBRANCH  31  32
ENDBRANCH  30  31
ENDBRANCH  29  30
ENDBRANCH  28  29
ENDBRANCH  26  27
ENDBRANCH  23  26
BRANCH  24  35
HETATM   35  O4  UNL     1       3.663   1.789  -0.194  1.00  0.00    -0.390 OA
ATOM     36  H4  UNL     1       3.632   2.557  -0.753  1.00  0.00     0.210 HD
ENDBRANCH  24  35
BRANCH  25  37
HETATM   37  O5  UNL     1       1.799   1.554  -1.879  1.00  0.00    -0.390 OA
ATOM     38  H5  UNL     1       2.236   2.205  -2.415  1.00  0.00     0.210 HD
ENDBRANCH  25  37
ENDBRANCH   2  21
TORSDOF 13
