REMARK  14 active torsions:
REMARK  status: ('A' for Active; 'I' for Inactive)
REMARK    1  A    between atoms: C6_11  and  C7_12 
REMARK    2  A    between atoms: C7_12  and  C8_13 
REMARK    3  A    between atoms: C8_13  and  O2_14 
REMARK    4  A    between atoms: C8_13  and  C9_16 
REMARK    5  A    between atoms: C9_16  and  N3_17 
REMARK    6  A    between atoms: N4_21  and  S1_22 
REMARK    7  A    between atoms: S1_22  and  C13_25 
REMARK       I    between atoms: N5_31  and  C19_32 
REMARK    8  A    between atoms: C19_32  and  C20_34 
REMARK    9  A    between atoms: C20_34  and  C21_35 
REMARK   10  A    between atoms: C21_35  and  C22_36 
REMARK   11  A    between atoms: C22_36  and  C23_37 
REMARK   12  A    between atoms: C23_37  and  C24_38 
REMARK   13  A    between atoms: C24_38  and  C25_39 
REMARK   14  A    between atoms: C25_39  and  C26_40 
ROOT
HETATM    1  N3  UNL     1       2.377   0.063  -0.694  1.00  0.00    -0.390 N 
HETATM    2  C10 UNL     1       1.088  -0.197  -1.180  1.00  0.00     0.059 C 
HETATM    3  C11 UNL     1       0.385   1.129  -1.359  1.00  0.00     0.060 C 
HETATM    4  C12 UNL     1      -0.371   1.391  -0.082  1.00  0.00     0.112 C 
HETATM    5  N4  UNL     1       0.360   1.880   1.000  1.00  0.00    -0.205 NA
HETATM    6  C29 UNL     1       1.652   1.411   1.261  1.00  0.00     0.127 C 
HETATM    7  C30 UNL     1       2.573   1.213   0.125  1.00  0.00     0.137 C 
ENDROOT
BRANCH   5   8
HETATM    8  S1  UNL     1      -0.565   1.811   2.455  1.00  0.00     0.243 S 
HETATM    9  O3  UNL     1      -1.793   2.674   2.380  1.00  0.00    -0.206 OA
HETATM   10  O4  UNL     1       0.301   2.375   3.556  1.00  0.00    -0.206 OA
BRANCH   8  11
HETATM   11  C13 UNL     1      -1.011   0.189   2.873  1.00  0.00     0.077 A 
HETATM   12  C14 UNL     1      -0.270  -0.674   3.627  1.00  0.00     0.028 A 
HETATM   13  C15 UNL     1      -0.716  -1.965   3.924  1.00  0.00     0.040 A 
HETATM   14  C16 UNL     1      -1.923  -2.376   3.449  1.00  0.00     0.095 A 
HETATM   15  C17 UNL     1      -2.695  -1.512   2.679  1.00  0.00     0.072 A 
HETATM   16  O8  UNL     1      -2.505  -3.624   3.660  1.00  0.00    -0.347 OA
HETATM   17  C18 UNL     1      -2.231  -0.257   2.408  1.00  0.00     0.057 A 
HETATM   18  N5  UNL     1      -3.927  -2.003   2.221  1.00  0.00    -0.313 N 
HETATM   19  C19 UNL     1      -4.366  -1.775   0.909  1.00  0.00     0.224 C 
HETATM   20  C27 UNL     1      -4.765  -2.830   3.115  1.00  0.00     0.159 C 
HETATM   21  O5  UNL     1      -5.593  -2.107   0.701  1.00  0.00    -0.273 OA
HETATM   22  C28 UNL     1      -3.889  -3.722   3.965  1.00  0.00     0.196 C 
BRANCH  19  23
HETATM   23  C20 UNL     1      -3.550  -1.220  -0.163  1.00  0.00     0.103 C 
BRANCH  23  24
HETATM   24  C21 UNL     1      -3.964  -1.590  -1.549  1.00  0.00     0.009 C 
BRANCH  24  25
HETATM   25  C22 UNL     1      -5.303  -1.102  -1.922  1.00  0.00     0.000 C 
BRANCH  25  26
HETATM   26  C23 UNL     1      -5.462   0.414  -1.848  1.00  0.00     0.001 C 
BRANCH  26  27
HETATM   27  C24 UNL     1      -6.876   0.747  -2.267  1.00  0.00     0.010 C 
BRANCH  27  28
HETATM   28  C25 UNL     1      -7.106   2.212  -2.237  1.00  0.00     0.113 C 
BRANCH  28  29
HETATM   29  C26 UNL     1      -6.951   2.839  -0.929  1.00  0.00     0.172 C 
HETATM   30  O6  UNL     1      -6.936   4.113  -0.861  1.00  0.00    -0.648 OA
HETATM   31  O7  UNL     1      -6.823   2.144   0.233  1.00  0.00    -0.648 OA
ENDBRANCH  28  29
ENDBRANCH  27  28
ENDBRANCH  26  27
ENDBRANCH  25  26
ENDBRANCH  24  25
ENDBRANCH  23  24
ENDBRANCH  19  23
ENDBRANCH   8  11
ENDBRANCH   5   8
BRANCH   1  32
HETATM   32  C9  UNL     1       3.193  -1.050  -0.364  1.00  0.00     0.153 C 
BRANCH  32  33
HETATM   33  C8  UNL     1       3.678  -1.939  -1.424  1.00  0.00     0.143 C 
BRANCH  33  34
HETATM   34  C7  UNL     1       4.679  -1.399  -2.387  1.00  0.00     0.110 C 
BRANCH  34  35
HETATM   35  C6  UNL     1       5.865  -0.769  -1.760  1.00  0.00     0.086 A 
HETATM   36  N2  UNL     1       6.965  -1.513  -1.447  1.00  0.00    -0.311 N 
HETATM   37  C5  UNL     1       8.055  -0.971  -0.882  1.00  0.00     0.275 A 
ATOM     38  H2  UNL     1       6.959  -2.513  -1.649  1.00  0.00     0.170 HD
HETATM   39  C4  UNL     1       8.110   0.372  -0.590  1.00  0.00     0.128 A 
HETATM   40  O1  UNL     1       9.081  -1.647  -0.586  1.00  0.00    -0.266 OA
HETATM   41  N1  UNL     1       9.024   1.197  -0.044  1.00  0.00    -0.359 N 
HETATM   42  C31 UNL     1       7.006   1.142  -0.900  1.00  0.00     0.073 A 
HETATM   43  C3  UNL     1       8.559   2.456   0.011  1.00  0.00     0.097 A 
ATOM     44  H1  UNL     1       9.945   0.905   0.283  1.00  0.00     0.165 HD
HETATM   45  C2  UNL     1       7.298   2.431  -0.523  1.00  0.00    -0.017 A 
HETATM   46  C1  UNL     1       6.393   3.584  -0.677  1.00  0.00     0.052 C 
HETATM   47  N6  UNL     1       5.937   0.538  -1.469  1.00  0.00    -0.343 N 
ATOM     48  H6  UNL     1       5.128   1.118  -1.692  1.00  0.00     0.167 HD
ENDBRANCH  34  35
ENDBRANCH  33  34
BRANCH  33  49
HETATM   49  O2  UNL     1       2.593  -2.519  -2.092  1.00  0.00    -0.394 OA
ATOM     50  H2  UNL     1       1.955  -2.863  -1.478  1.00  0.00     0.210 HD
ENDBRANCH  33  49
ENDBRANCH  32  33
ENDBRANCH   1  32
TORSDOF 14
