REMARK  12 active torsions:
REMARK  status: ('A' for Active; 'I' for Inactive)
REMARK    1  A    between atoms: C3_3  and  C4_4 
REMARK    2  A    between atoms: C5_5  and  C6_6 
REMARK    3  A    between atoms: C6_6  and  O1_7 
REMARK    4  A    between atoms: O1_7  and  C7_8 
REMARK    5  A    between atoms: C12_13  and  C13_14 
REMARK       I    between atoms: C13_14  and  N1_16 
REMARK    6  A    between atoms: N1_16  and  C14_18 
REMARK    7  A    between atoms: C14_18  and  C15_19 
REMARK    8  A    between atoms: C14_18  and  C17_23 
REMARK    9  A    between atoms: C15_19  and  C16_20 
REMARK   10  A    between atoms: C21_30  and  O8_31 
REMARK   11  A    between atoms: O8_31  and  O9_32 
REMARK   12  A    between atoms: N4_43  and  C30_45 
ROOT
HETATM    1  C6  UNL     1      -1.202  -1.861   1.032  1.00  0.00     0.096 C 
HETATM    2  C9  UNL     1      -0.382  -2.874   0.237  1.00  0.00     0.049 C 
HETATM    3  C10 UNL     1       1.068  -2.580   0.073  1.00  0.00     0.055 C 
HETATM    4  C11 UNL     1       1.601  -1.536   0.980  1.00  0.00     0.004 C 
HETATM    5  C12 UNL     1       2.586  -0.508   0.425  1.00  0.00     0.052 C 
HETATM    6  C18 UNL     1       2.116   0.869   0.326  1.00  0.00    -0.053 C 
HETATM    7  C19 UNL     1       2.129   1.776  -0.818  1.00  0.00     0.081 C 
HETATM    8  C20 UNL     1       0.766   2.064  -1.309  1.00  0.00     0.131 C 
HETATM    9  O7  UNL     1       0.675   2.542  -2.616  1.00  0.00    -0.316 OA
HETATM   10  C21 UNL     1      -0.435   1.809  -3.103  1.00  0.00     0.540 C 
HETATM   11  N2  UNL     1      -0.948   0.988  -2.131  1.00  0.00     0.164 N 
HETATM   12  C22 UNL     1       0.448   0.602  -1.724  1.00  0.00     0.304 A 
HETATM   13  C23 UNL     1      -0.645   0.262  -1.000  1.00  0.00     0.283 A 
HETATM   14  C24 UNL     1      -0.497   0.610   0.437  1.00  0.00     0.064 C 
HETATM   15  C25 UNL     1       0.828   1.040   1.010  1.00  0.00     0.048 C 
HETATM   16  C26 UNL     1       1.013   0.325   2.359  1.00  0.00     0.106 C 
HETATM   17  N3  UNL     1       0.661  -0.944   1.859  1.00  0.00    -0.276 NA
HETATM   18  C27 UNL     1      -0.658  -0.561   1.274  1.00  0.00     0.119 C 
HETATM   19  C28 UNL     1      -1.203   1.915   0.497  1.00  0.00     0.029 C 
HETATM   20  N4  UNL     1      -2.474   2.312   0.540  1.00  0.00    -0.383 N 
HETATM   21  C29 UNL     1      -3.421   2.066  -0.489  1.00  0.00     0.150 C 
HETATM   22  C33 UNL     1      -0.282   2.658  -0.517  1.00  0.00    -0.002 C 
HETATM   23  C34 UNL     1      -0.446   3.985  -0.682  1.00  0.00    -0.019 C 
HETATM   24  C35 UNL     1       0.346   4.828  -1.580  1.00  0.00     0.036 C 
ENDROOT
BRANCH   5  25
HETATM   25  C13 UNL     1       3.557  -1.060  -0.514  1.00  0.00     0.254 C 
HETATM   26  O2  UNL     1       3.582  -2.260  -0.931  1.00  0.00    -0.268 OA
HETATM   27  N1  UNL     1       4.627  -0.321  -1.098  1.00  0.00    -0.342 N 
ATOM     28  H1  UNL     1       4.716   0.664  -0.848  1.00  0.00     0.163 HD
BRANCH  27  29
HETATM   29  C14 UNL     1       5.595  -0.871  -2.021  1.00  0.00     0.195 C 
BRANCH  29  30
HETATM   30  C15 UNL     1       6.968  -0.475  -1.567  1.00  0.00     0.149 C 
BRANCH  30  31
HETATM   31  C16 UNL     1       7.346  -0.932  -0.235  1.00  0.00     0.175 C 
HETATM   32  O3  UNL     1       6.569  -1.613   0.471  1.00  0.00    -0.648 OA
HETATM   33  O4  UNL     1       8.583  -0.643   0.330  1.00  0.00    -0.648 OA
ENDBRANCH  30  31
ENDBRANCH  29  30
BRANCH  29  34
HETATM   34  C17 UNL     1       5.387  -0.379  -3.420  1.00  0.00     0.197 C 
HETATM   35  O5  UNL     1       4.485   0.408  -3.712  1.00  0.00    -0.646 OA
HETATM   36  O6  UNL     1       6.261  -0.853  -4.392  1.00  0.00    -0.646 OA
ENDBRANCH  29  34
ENDBRANCH  27  29
ENDBRANCH   5  25
BRANCH   1  37
HETATM   37  C5  UNL     1      -2.638  -1.946   0.562  1.00  0.00     0.012 C 
HETATM   38  C4  UNL     1      -3.196  -3.070   0.238  1.00  0.00    -0.001 C 
BRANCH  38  39
HETATM   39  C3  UNL     1      -4.583  -3.062  -0.204  1.00  0.00    -0.005 C 
HETATM   40  C2  UNL     1      -5.214  -4.169  -0.550  1.00  0.00    -0.031 C 
HETATM   41  C1  UNL     1      -6.622  -4.196  -1.003  1.00  0.00     0.036 C 
ENDBRANCH  38  39
ENDBRANCH   1  37
BRANCH   1  42
HETATM   42  O1  UNL     1      -1.308  -2.528   2.255  1.00  0.00    -0.375 OA
BRANCH  42  43
HETATM   43  C7  UNL     1      -2.155  -2.115   3.189  1.00  0.00     0.165 C 
HETATM   44  C8  UNL     1      -2.044  -3.126   4.361  1.00  0.00     0.033 C 
ENDBRANCH  42  43
ENDBRANCH   1  42
BRANCH  10  45
HETATM   45  O8  UNL     1       0.000   1.039  -4.206  1.00  0.00    -0.177 OA
BRANCH  45  46
HETATM   46  O9  UNL     1      -0.568   1.416  -5.320  1.00  0.00    -0.246 OA
ATOM     47  H9  UNL     1      -0.276   0.899  -6.061  1.00  0.00     0.253 HD
ENDBRANCH  45  46
ENDBRANCH  10  45
BRANCH  20  48
HETATM   48  C30 UNL     1      -3.246   2.721   1.637  1.00  0.00     0.075 C 
HETATM   49  C31 UNL     1      -3.454   1.563   2.599  1.00  0.00     0.032 C 
HETATM   50  C32 UNL     1      -2.862   3.883   2.472  1.00  0.00     0.032 C 
ENDBRANCH  20  48
TORSDOF 12
