REMARK  15 active torsions:
REMARK  status: ('A' for Active; 'I' for Inactive)
REMARK    1  A    between atoms: C2_2  and  C3_3 
REMARK    2  A    between atoms: C3_3  and  C4_4 
REMARK    3  A    between atoms: C4_4  and  C5_6 
REMARK    4  A    between atoms: C5_6  and  C6_7 
REMARK    5  A    between atoms: C6_7  and  C7_9 
REMARK    6  A    between atoms: C12_14  and  C13_15 
REMARK    7  A    between atoms: C12_14  and  N1_18 
REMARK    8  A    between atoms: C13_15  and  O3_16 
REMARK       I    between atoms: N1_18  and  C14_20 
REMARK    9  A    between atoms: C14_20  and  O5_22 
REMARK   10  A    between atoms: O5_22  and  C15_23 
REMARK   11  A    between atoms: C22_30  and  C23_31 
REMARK   12  A    between atoms: C24_33  and  O7_34 
REMARK   13  A    between atoms: C28_41  and  C29_42 
REMARK   14  A    between atoms: C29_42  and  N3_43 
REMARK   15  A    between atoms: C29_42  and  C30_47 
ROOT
HETATM    1  C15 UNL     1      -1.578  -0.188  -0.315  1.00  0.00     0.159 C 
HETATM    2  C16 UNL     1      -2.113  -1.078   0.763  1.00  0.00     0.040 C 
HETATM    3  C17 UNL     1      -3.031  -0.537   1.764  1.00  0.00     0.001 C 
HETATM    4  C18 UNL     1      -3.163   0.935   1.878  1.00  0.00     0.042 C 
HETATM    5  C19 UNL     1      -4.525   1.453   2.129  1.00  0.00    -0.048 C 
HETATM    6  C20 UNL     1      -5.058   2.238   3.003  1.00  0.00    -0.020 C 
HETATM    7  C21 UNL     1      -6.511   2.422   2.778  1.00  0.00     0.042 C 
HETATM    8  C22 UNL     1      -6.893   1.329   1.794  1.00  0.00     0.090 C 
HETATM    9  C24 UNL     1      -5.587   1.011   1.144  1.00  0.00     0.106 C 
HETATM   10  C26 UNL     1      -5.336  -0.414   0.859  1.00  0.00     0.125 C 
HETATM   11  C27 UNL     1      -4.970  -0.726  -0.542  1.00  0.00     0.226 C 
HETATM   12  O8  UNL     1      -5.895  -1.326  -1.189  1.00  0.00    -0.273 OA
HETATM   13  N2  UNL     1      -3.800  -0.510  -1.347  1.00  0.00    -0.351 N 
ATOM     14  H2  UNL     1      -3.888  -1.058  -2.202  1.00  0.00     0.163 HD
HETATM   15  C28 UNL     1      -2.565   0.190  -1.384  1.00  0.00     0.151 C 
HETATM   16  C31 UNL     1      -4.427  -1.182   1.779  1.00  0.00    -0.028 C 
HETATM   17  C32 UNL     1      -4.330  -2.606   1.206  1.00  0.00     0.016 C 
HETATM   18  C33 UNL     1      -4.911  -1.471   3.149  1.00  0.00     0.016 C 
ENDROOT
BRANCH   1  19
HETATM   19  O5  UNL     1      -0.410  -0.637  -0.905  1.00  0.00    -0.296 OA
BRANCH  19  20
HETATM   20  C14 UNL     1       0.839  -0.153  -0.889  1.00  0.00     0.361 C 
HETATM   21  N1  UNL     1       1.874  -0.798  -1.580  1.00  0.00    -0.324 N 
ATOM     22  H1  UNL     1       1.642  -1.650  -2.091  1.00  0.00     0.165 HD
HETATM   23  O4  UNL     1       1.067   0.883  -0.249  1.00  0.00    -0.238 OA
BRANCH  21  24
HETATM   24  C12 UNL     1       3.279  -0.334  -1.623  1.00  0.00     0.071 C 
HETATM   25  C7  UNL     1       3.745  -0.312  -0.247  1.00  0.00     0.087 C 
HETATM   26  C8  UNL     1       4.634  -1.541  -0.096  1.00  0.00     0.025 C 
HETATM   27  C9  UNL     1       4.619  -2.241  -1.412  1.00  0.00    -0.029 A 
HETATM   28  C10 UNL     1       4.188  -3.687  -1.491  1.00  0.00     0.016 C 
HETATM   29  C11 UNL     1       4.019  -1.355  -2.426  1.00  0.00     0.034 A 
HETATM   30  C34 UNL     1       5.427  -1.617  -2.516  1.00  0.00    -0.033 A 
HETATM   31  C35 UNL     1       5.839  -2.681  -3.557  1.00  0.00     0.016 C 
HETATM   32  C36 UNL     1       6.560  -0.692  -2.213  1.00  0.00     0.016 C 
BRANCH  25  33
HETATM   33  C6  UNL     1       4.457   0.905   0.236  1.00  0.00     0.140 C 
HETATM   34  O2  UNL     1       4.696   1.868  -0.412  1.00  0.00    -0.297 OA
BRANCH  33  35
HETATM   35  C5  UNL     1       4.882   0.859   1.652  1.00  0.00     0.157 C 
BRANCH  35  36
HETATM   36  C4  UNL     1       5.614   2.025   2.149  1.00  0.00     0.133 C 
HETATM   37  O1  UNL     1       5.978   1.967   3.352  1.00  0.00    -0.298 OA
BRANCH  36  38
HETATM   38  C3  UNL     1       5.959   3.230   1.397  1.00  0.00     0.078 C 
BRANCH  38  39
HETATM   39  C2  UNL     1       6.747   4.196   2.280  1.00  0.00     0.003 C 
HETATM   40  C1  UNL     1       5.961   4.623   3.495  1.00  0.00     0.005 C 
ENDBRANCH  38  39
ENDBRANCH  36  38
ENDBRANCH  35  36
ENDBRANCH  33  35
ENDBRANCH  25  33
BRANCH  24  41
HETATM   41  C13 UNL     1       3.219   0.947  -2.400  1.00  0.00     0.196 C 
BRANCH  41  42
HETATM   42  O3  UNL     1       2.662   0.574  -3.660  1.00  0.00    -0.398 OA
ATOM     43  H3  UNL     1       2.624   1.386  -4.152  1.00  0.00     0.209 HD
ENDBRANCH  41  42
ENDBRANCH  24  41
ENDBRANCH  21  24
ENDBRANCH  19  20
ENDBRANCH   1  19
BRANCH  15  44
HETATM   44  C29 UNL     1      -1.972   0.006  -2.806  1.00  0.00     0.269 C 
BRANCH  44  45
HETATM   45  N3  UNL     1      -3.007   0.447  -3.773  1.00  0.00    -0.067 N 
ATOM     46  H33 UNL     1      -3.900  -0.030  -3.648  1.00  0.00     0.275 HD
ATOM     47  H32 UNL     1      -3.339   1.395  -3.598  1.00  0.00     0.275 HD
ATOM     48  H31 UNL     1      -2.617   0.326  -4.708  1.00  0.00     0.275 HD
ENDBRANCH  44  45
BRANCH  44  49
HETATM   49  C30 UNL     1      -1.725  -1.408  -3.139  1.00  0.00     0.266 C 
HETATM   50  O9  UNL     1      -2.376  -1.932  -4.033  1.00  0.00    -0.305 OA
ENDBRANCH  44  49
ENDBRANCH  15  44
BRANCH   9  51
HETATM   51  O7  UNL     1      -5.392   1.871   0.114  1.00  0.00    -0.379 OA
HETATM   52  C25 UNL     1      -6.099   2.005  -0.978  1.00  0.00     0.203 C 
ENDBRANCH   9  51
BRANCH   8  53
HETATM   53  C23 UNL     1      -7.630   0.291   2.477  1.00  0.00     0.239 C 
HETATM   54  O6  UNL     1      -7.931   0.423   3.678  1.00  0.00    -0.306 OA
ENDBRANCH   8  53
TORSDOF 15
