REMARK  14 active torsions:
REMARK  status: ('A' for Active; 'I' for Inactive)
REMARK    1  A    between atoms: C2_2  and  C3_3 
REMARK    2  A    between atoms: C3_3  and  N1_5 
REMARK    3  A    between atoms: C5_6  and  O1_7 
REMARK    4  A    between atoms: C6_9  and  C7_10 
REMARK    5  A    between atoms: C7_10  and  C8_11 
REMARK    6  A    between atoms: C15_24  and  C16_25 
REMARK    7  A    between atoms: C16_25  and  C17_26 
REMARK    8  A    between atoms: C21_33  and  C22_34 
REMARK    9  A    between atoms: C25_39  and  O5_40 
REMARK   10  A    between atoms: C26_42  and  C27_43 
REMARK   11  A    between atoms: C27_43  and  C28_44 
REMARK   12  A    between atoms: C28_44  and  C29_45 
REMARK   13  A    between atoms: C29_45  and  N6_46 
REMARK       I    between atoms: C30_48  and  N8_50 
REMARK   14  A    between atoms: N8_50  and  C31_52 
ROOT
HETATM    1  N1  UNL     1       1.668   1.286   1.544  1.00  0.00    -0.341 N 
HETATM    2  C5  UNL     1       1.707   2.531   0.883  1.00  0.00     0.162 C 
HETATM    3  C6  UNL     1       0.721   3.324   0.122  1.00  0.00     0.063 C 
HETATM    4  N2  UNL     1      -0.592   3.290   0.679  1.00  0.00    -0.325 N 
ATOM      5  H2  UNL     1      -0.616   3.578   1.657  1.00  0.00     0.169 HD
HETATM    6  C11 UNL     1      -1.851   2.950   0.183  1.00  0.00     0.244 C 
HETATM    7  O2  UNL     1      -2.775   3.855   0.191  1.00  0.00    -0.271 OA
HETATM    8  C12 UNL     1      -2.323   1.659  -0.374  1.00  0.00     0.172 C 
HETATM    9  C13 UNL     1      -3.484   1.979  -1.315  1.00  0.00     0.042 C 
HETATM   10  N3  UNL     1      -2.816   0.897   0.756  1.00  0.00    -0.346 N 
ATOM     11  H3  UNL     1      -2.312   1.028   1.633  1.00  0.00     0.163 HD
HETATM   12  C14 UNL     1      -3.889   0.009   0.801  1.00  0.00     0.241 C 
HETATM   13  O3  UNL     1      -4.676   0.138   1.808  1.00  0.00    -0.271 OA
HETATM   14  C15 UNL     1      -4.210  -1.062  -0.189  1.00  0.00     0.177 C 
HETATM   15  N4  UNL     1      -3.242  -2.121  -0.158  1.00  0.00    -0.346 N 
ATOM     16  H4  UNL     1      -3.512  -2.977  -0.643  1.00  0.00     0.163 HD
HETATM   17  C20 UNL     1      -1.965  -2.143   0.452  1.00  0.00     0.241 C 
HETATM   18  O4  UNL     1      -0.996  -2.229  -0.367  1.00  0.00    -0.271 OA
HETATM   19  C21 UNL     1      -1.595  -2.086   1.862  1.00  0.00     0.179 C 
HETATM   20  N5  UNL     1      -0.453  -1.382   2.295  1.00  0.00    -0.359 N 
ATOM     21  H5  UNL     1      -0.580  -1.026   3.242  1.00  0.00     0.162 HD
HETATM   22  C25 UNL     1       0.802  -1.034   1.795  1.00  0.00     0.135 C 
HETATM   23  C26 UNL     1       1.267   0.020   0.884  1.00  0.00     0.161 C 
ENDROOT
BRANCH  23  24
HETATM   24  C27 UNL     1       2.565  -0.466   0.221  1.00  0.00     0.035 C 
BRANCH  24  25
HETATM   25  C28 UNL     1       2.456  -1.727  -0.533  1.00  0.00     0.022 C 
BRANCH  25  26
HETATM   26  C29 UNL     1       3.784  -2.142  -1.127  1.00  0.00     0.122 C 
BRANCH  26  27
HETATM   27  N6  UNL     1       4.293  -1.171  -2.064  1.00  0.00    -0.365 N 
HETATM   28  C30 UNL     1       5.536  -1.062  -2.374  1.00  0.00     0.183 C 
HETATM   29  N7  UNL     1       6.548  -1.886  -1.824  1.00  0.00    -0.064 NA
HETATM   30  N8  UNL     1       5.911  -0.084  -3.329  1.00  0.00    -0.365 N 
ATOM     31  H8  UNL     1       5.394   0.792  -3.403  1.00  0.00     0.162 HD
ATOM     32  H6  UNL     1       3.629  -0.535  -2.506  1.00  0.00     0.162 HD
BRANCH  30  33
HETATM   33  C31 UNL     1       7.043  -0.347  -4.201  1.00  0.00     0.118 C 
HETATM   34  C32 UNL     1       8.339  -0.351  -3.437  1.00  0.00     0.026 C 
ENDBRANCH  30  33
ENDBRANCH  26  27
ENDBRANCH  25  26
ENDBRANCH  24  25
ENDBRANCH  23  24
BRANCH   1  35
HETATM   35  C3  UNL     1       2.077   1.211   2.920  1.00  0.00     0.105 C 
HETATM   36  C4  UNL     1       3.498   1.575   3.202  1.00  0.00     0.037 C 
BRANCH  35  37
HETATM   37  C2  UNL     1       1.221   2.053   3.797  1.00  0.00    -0.012 C 
HETATM   38  C1  UNL     1       1.442   3.304   4.070  1.00  0.00     0.009 C 
ENDBRANCH  35  37
ENDBRANCH   1  35
BRANCH  22  39
HETATM   39  O5  UNL     1       1.787  -1.806   2.220  1.00  0.00    -0.348 OA
ATOM     40  H5  UNL     1       2.642  -1.569   1.880  1.00  0.00     0.219 HD
ENDBRANCH  22  39
BRANCH   2  41
HETATM   41  O1  UNL     1       2.865   3.172   0.931  1.00  0.00    -0.345 OA
ATOM     42  H1  UNL     1       2.891   4.011   0.486  1.00  0.00     0.219 HD
ENDBRANCH   2  41
BRANCH   3  43
HETATM   43  C7  UNL     1       0.900   3.229  -1.341  1.00  0.00     0.065 C 
BRANCH  43  44
HETATM   44  C8  UNL     1      -0.015   4.052  -2.182  1.00  0.00    -0.017 C 
HETATM   45  C9  UNL     1       0.087   5.542  -1.883  1.00  0.00     0.010 C 
HETATM   46  C10 UNL     1       0.382   3.944  -3.665  1.00  0.00     0.010 C 
ENDBRANCH  43  44
ENDBRANCH   3  43
BRANCH  19  47
HETATM   47  C22 UNL     1      -1.654  -3.515   2.445  1.00  0.00     0.009 C 
HETATM   48  C23 UNL     1      -0.734  -4.445   1.739  1.00  0.00     0.012 C 
HETATM   49  C24 UNL     1      -3.052  -4.016   2.389  1.00  0.00     0.012 C 
ENDBRANCH  19  47
BRANCH  14  50
HETATM   50  C16 UNL     1      -5.621  -1.385  -0.013  1.00  0.00     0.038 C 
BRANCH  50  51
HETATM   51  C17 UNL     1      -6.362  -2.359  -0.795  1.00  0.00    -0.020 C 
HETATM   52  C18 UNL     1      -7.826  -2.293  -0.248  1.00  0.00     0.009 C 
HETATM   53  C19 UNL     1      -5.975  -3.790  -0.517  1.00  0.00     0.009 C 
ENDBRANCH  50  51
ENDBRANCH  14  50
TORSDOF 14
