REMARK  12 active torsions:
REMARK  status: ('A' for Active; 'I' for Inactive)
REMARK    1  A    between atoms: C2_2  and  C3_3 
REMARK    2  A    between atoms: N1_5  and  C5_6 
REMARK    3  A    between atoms: C7_8  and  C8_9 
REMARK    4  A    between atoms: C8_9  and  N2_10 
REMARK       I    between atoms: N2_10  and  C9_12 
REMARK       I    between atoms: C9_12  and  N3_14 
REMARK    5  A    between atoms: C18_27  and  C19_28 
REMARK    6  A    between atoms: C22_32  and  C23_33 
REMARK    7  A    between atoms: C23_33  and  N5_34 
REMARK       I    between atoms: N5_34  and  C24_36 
REMARK       I    between atoms: C24_36  and  N6_38 
REMARK    8  A    between atoms: N6_38  and  C25_40 
REMARK    9  A    between atoms: C25_40  and  C26_41 
REMARK   10  A    between atoms: C26_41  and  C27_42 
REMARK   11  A    between atoms: C27_42  and  C28_43 
REMARK   12  A    between atoms: C28_43  and  N7_44 
REMARK       I    between atoms: N7_44  and  C29_46 
ROOT
HETATM    1  C3  UNL     1       2.116   2.111   3.734  1.00  0.00     0.053 C 
HETATM    2  C4  UNL     1       2.614   0.773   4.116  1.00  0.00     0.067 C 
HETATM    3  N1  UNL     1       1.984  -0.173   3.578  1.00  0.00    -0.386 N 
HETATM    4  C7  UNL     1       0.946   0.312   2.751  1.00  0.00     0.107 C 
HETATM    5  C22 UNL     1       1.155   1.774   2.634  1.00  0.00     0.040 C 
ENDROOT
BRANCH   4   6
HETATM    6  C8  UNL     1      -0.348  -0.053   3.449  1.00  0.00     0.150 C 
BRANCH   6   7
HETATM    7  N2  UNL     1      -1.543   0.349   2.788  1.00  0.00    -0.340 N 
HETATM    8  C9  UNL     1      -1.948  -0.064   1.507  1.00  0.00     0.333 C 
HETATM    9  O1  UNL     1      -1.158  -0.866   0.916  1.00  0.00    -0.246 OA
HETATM   10  N3  UNL     1      -3.137   0.330   0.832  1.00  0.00    -0.182 N 
HETATM   11  C10 UNL     1      -3.506  -0.097  -0.470  1.00  0.00     0.260 A 
HETATM   12  C21 UNL     1      -4.182   1.192   1.251  1.00  0.00     0.337 A 
HETATM   13  O2  UNL     1      -2.769  -0.825  -1.194  1.00  0.00    -0.270 OA
HETATM   14  C11 UNL     1      -4.836   0.429  -0.822  1.00  0.00     0.192 A 
HETATM   15  N4  UNL     1      -5.176   1.302   0.240  1.00  0.00    -0.308 N 
HETATM   16  C18 UNL     1      -5.805  -0.739  -0.976  1.00  0.00     0.001 A 
HETATM   17  C12 UNL     1      -6.285   2.230   0.467  1.00  0.00     0.237 C 
HETATM   18  S1  UNL     1      -7.797   1.631  -0.199  1.00  0.00     0.033 S 
HETATM   19  O3  UNL     1      -8.491   0.427   0.750  1.00  0.00    -0.256 OA
HETATM   20  C13 UNL     1      -7.422   1.005  -1.837  1.00  0.00     0.116 C 
HETATM   21  C14 UNL     1      -7.059  -0.442  -1.632  1.00  0.00     0.018 A 
HETATM   22  C15 UNL     1      -6.010  -1.107  -2.444  1.00  0.00    -0.032 A 
HETATM   23  C16 UNL     1      -5.309  -0.323  -3.534  1.00  0.00     0.016 C 
HETATM   24  C17 UNL     1      -6.256  -2.557  -2.826  1.00  0.00     0.016 C 
HETATM   25  O4  UNL     1      -4.230   1.795   2.387  1.00  0.00    -0.246 OA
ATOM     26  H2  UNL     1      -2.158   0.992   3.287  1.00  0.00     0.164 HD
BRANCH  16  27
HETATM   27  C19 UNL     1      -5.595  -1.772   0.051  1.00  0.00     0.009 C 
HETATM   28  C20 UNL     1      -6.450  -2.963   0.110  1.00  0.00     0.006 C 
ENDBRANCH  16  27
ENDBRANCH   6   7
ENDBRANCH   4   6
BRANCH   3  29
HETATM   29  C5  UNL     1       2.287  -1.561   3.798  1.00  0.00     0.118 C 
HETATM   30  C6  UNL     1       2.825  -2.191   2.544  1.00  0.00     0.026 C 
ENDBRANCH   3  29
BRANCH   5  31
HETATM   31  C23 UNL     1       1.706   2.138   1.281  1.00  0.00     0.132 C 
BRANCH  31  32
HETATM   32  N5  UNL     1       2.939   1.453   0.946  1.00  0.00    -0.343 N 
HETATM   33  C24 UNL     1       3.592   1.691  -0.287  1.00  0.00     0.316 C 
HETATM   34  O5  UNL     1       3.080   2.509  -1.085  1.00  0.00    -0.247 OA
HETATM   35  N6  UNL     1       4.786   1.020  -0.599  1.00  0.00    -0.343 N 
ATOM     36  H6  UNL     1       5.186   0.355   0.063  1.00  0.00     0.164 HD
ATOM     37  H5  UNL     1       3.342   0.790   1.608  1.00  0.00     0.164 HD
BRANCH  35  38
HETATM   38  C25 UNL     1       5.444   1.272  -1.853  1.00  0.00     0.124 C 
BRANCH  38  39
HETATM   39  C26 UNL     1       6.699   0.493  -2.066  1.00  0.00     0.021 C 
BRANCH  39  40
HETATM   40  C27 UNL     1       6.514  -1.002  -2.050  1.00  0.00     0.021 C 
BRANCH  40  41
HETATM   41  C28 UNL     1       7.891  -1.615  -2.287  1.00  0.00     0.122 C 
BRANCH  41  42
HETATM   42  N7  UNL     1       8.408  -1.180  -3.571  1.00  0.00    -0.365 N 
HETATM   43  C29 UNL     1       7.781  -1.640  -4.746  1.00  0.00     0.181 C 
HETATM   44  N8  UNL     1       7.038  -2.692  -4.716  1.00  0.00    -0.374 N 
HETATM   45  N9  UNL     1       7.972  -0.942  -5.959  1.00  0.00    -0.064 NA
ATOM     46  H82 UNL     1       6.900  -3.196  -3.840  1.00  0.00     0.158 HD
ATOM     47  H81 UNL     1       6.584  -3.025  -5.567  1.00  0.00     0.158 HD
ATOM     48  H7  UNL     1       9.211  -0.553  -3.622  1.00  0.00     0.162 HD
ENDBRANCH  41  42
ENDBRANCH  40  41
ENDBRANCH  39  40
ENDBRANCH  38  39
ENDBRANCH  35  38
ENDBRANCH  31  32
ENDBRANCH   5  31
BRANCH   1  49
HETATM   49  C2  UNL     1       1.412   2.808   4.849  1.00  0.00    -0.026 C 
HETATM   50  C1  UNL     1       1.768   4.025   5.210  1.00  0.00     0.007 C 
ENDBRANCH   1  49
TORSDOF 12
