REMARK  11 active torsions:
REMARK  status: ('A' for Active; 'I' for Inactive)
REMARK    1  A    between atoms: C6_6  and  C7_7 
REMARK    2  A    between atoms: C11_11  and  C12_12 
REMARK    3  A    between atoms: C12_12  and  N1_13 
REMARK    4  A    between atoms: C12_12  and  C22_32 
REMARK       I    between atoms: N1_13  and  C13_15 
REMARK    5  A    between atoms: C13_15  and  C14_17 
REMARK    6  A    between atoms: C14_17  and  C15_18 
REMARK    7  A    between atoms: C14_17  and  N2_22 
REMARK    8  A    between atoms: C15_18  and  C16_19 
REMARK       I    between atoms: N2_22  and  C19_24 
REMARK    9  A    between atoms: C19_24  and  C20_26 
REMARK   10  A    between atoms: C20_26  and  N3_28 
REMARK       I    between atoms: C22_32  and  N4_34 
REMARK   11  A    between atoms: C26_38  and  C27_39 
REMARK       I    between atoms: C27_39  and  N5_41 
ROOT
HETATM    1  C12 UNL     1      -0.461  -0.166   0.152  1.00  0.00     0.181 C 
ENDROOT
BRANCH   1   2
HETATM    2  C11 UNL     1       0.887  -0.321  -0.479  1.00  0.00     0.018 C 
HETATM    3  C10 UNL     1       1.184   0.612  -1.610  1.00  0.00     0.007 C 
HETATM    4  C9  UNL     1       2.171   1.690  -1.267  1.00  0.00     0.001 C 
HETATM    5  C8  UNL     1       3.157   1.221  -0.142  1.00  0.00     0.009 C 
HETATM    6  C7  UNL     1       3.326  -0.206  -0.329  1.00  0.00     0.020 C 
HETATM    7  C29 UNL     1       2.018  -0.698   0.391  1.00  0.00     0.016 C 
BRANCH   6   8
HETATM    8  C6  UNL     1       4.414  -1.008   0.162  1.00  0.00    -0.042 A 
HETATM    9  C4  UNL     1       4.570  -2.266  -0.459  1.00  0.00    -0.054 A 
HETATM   10  C3  UNL     1       5.570  -3.078   0.000  1.00  0.00     0.014 A 
HETATM   11  C5  UNL     1       3.707  -2.674  -1.592  1.00  0.00     0.049 C 
HETATM   12  C2  UNL     1       6.412  -2.711   1.029  1.00  0.00    -0.061 A 
HETATM   13  C1  UNL     1       7.499  -3.577   1.531  1.00  0.00     0.048 C 
HETATM   14  C32 UNL     1       6.228  -1.470   1.613  1.00  0.00     0.014 A 
HETATM   15  C30 UNL     1       5.218  -0.597   1.182  1.00  0.00    -0.054 A 
HETATM   16  C31 UNL     1       5.127   0.691   1.916  1.00  0.00     0.049 C 
ENDBRANCH   6   8
ENDBRANCH   1   2
BRANCH   1  17
HETATM   17  N1  UNL     1      -1.438  -0.500  -0.942  1.00  0.00    -0.346 N 
HETATM   18  C13 UNL     1      -2.292  -1.610  -0.820  1.00  0.00     0.241 C 
HETATM   19  O1  UNL     1      -2.184  -2.307   0.244  1.00  0.00    -0.271 OA
ATOM     20  H1  UNL     1      -1.481   0.083  -1.778  1.00  0.00     0.163 HD
BRANCH  18  21
HETATM   21  C14 UNL     1      -3.309  -1.993  -1.882  1.00  0.00     0.177 C 
BRANCH  21  22
HETATM   22  C15 UNL     1      -3.298  -0.978  -2.927  1.00  0.00     0.038 C 
BRANCH  22  23
HETATM   23  C16 UNL     1      -4.206  -1.116  -4.094  1.00  0.00    -0.020 C 
HETATM   24  C17 UNL     1      -5.669  -1.144  -3.738  1.00  0.00     0.009 C 
HETATM   25  C18 UNL     1      -3.998   0.145  -4.954  1.00  0.00     0.009 C 
ENDBRANCH  22  23
ENDBRANCH  21  22
BRANCH  21  26
HETATM   26  N2  UNL     1      -4.556  -2.362  -1.306  1.00  0.00    -0.346 N 
HETATM   27  C19 UNL     1      -5.098  -1.888  -0.115  1.00  0.00     0.248 C 
HETATM   28  O2  UNL     1      -4.535  -1.042   0.593  1.00  0.00    -0.271 OA
ATOM     29  H2  UNL     1      -5.111  -3.046  -1.820  1.00  0.00     0.163 HD
BRANCH  27  30
HETATM   30  C20 UNL     1      -6.409  -2.386   0.371  1.00  0.00     0.270 C 
HETATM   31  C21 UNL     1      -6.354  -2.692   1.853  1.00  0.00     0.050 C 
BRANCH  30  32
HETATM   32  N3  UNL     1      -6.991  -3.417  -0.421  1.00  0.00    -0.067 N 
ATOM     33  H33 UNL     1      -7.067  -3.115  -1.392  1.00  0.00     0.275 HD
ATOM     34  H32 UNL     1      -6.337  -4.192  -0.527  1.00  0.00     0.275 HD
ATOM     35  H31 UNL     1      -7.892  -3.759  -0.087  1.00  0.00     0.275 HD
ENDBRANCH  30  32
ENDBRANCH  27  30
ENDBRANCH  21  26
ENDBRANCH  18  21
ENDBRANCH   1  17
BRANCH   1  36
HETATM   36  C22 UNL     1      -0.818   1.178   0.633  1.00  0.00     0.243 C 
HETATM   37  O3  UNL     1      -1.571   1.844  -0.183  1.00  0.00    -0.271 OA
HETATM   38  N4  UNL     1      -0.501   1.862   1.817  1.00  0.00    -0.337 N 
HETATM   39  C23 UNL     1       0.289   1.550   2.974  1.00  0.00     0.127 C 
HETATM   40  C26 UNL     1      -1.048   3.201   2.134  1.00  0.00     0.179 C 
HETATM   41  C24 UNL     1      -0.349   2.224   4.141  1.00  0.00     0.022 C 
HETATM   42  C25 UNL     1      -1.569   2.949   3.548  1.00  0.00     0.037 C 
BRANCH  40  43
HETATM   43  C27 UNL     1      -0.042   4.248   2.154  1.00  0.00     0.246 C 
HETATM   44  O4  UNL     1      -0.371   5.444   2.489  1.00  0.00    -0.271 OA
HETATM   45  N5  UNL     1       1.316   4.071   1.825  1.00  0.00    -0.302 N 
HETATM   46  C28 UNL     1       1.993   4.993   1.217  1.00  0.00     0.203 C 
ATOM     47  H5  UNL     1       1.778   3.195   2.071  1.00  0.00     0.171 HD
HETATM   48  N6  UNL     1       3.355   4.853   0.871  1.00  0.00    -0.066 NA
HETATM   49  N7  UNL     1       1.337   6.199   0.885  1.00  0.00    -0.066 NA
ENDBRANCH  40  43
ENDBRANCH   1  36
TORSDOF 11
