REMARK  12 active torsions:
REMARK  status: ('A' for Active; 'I' for Inactive)
REMARK    1  A    between atoms: C2_2  and  C4_4 
REMARK    2  A    between atoms: C4_4  and  C5_5 
REMARK    3  A    between atoms: C4_4  and  N3_21 
REMARK    4  A    between atoms: C5_5  and  C6_6 
REMARK    5  A    between atoms: C8_11  and  N2_13 
REMARK       I    between atoms: N3_21  and  C16_23 
REMARK       I    between atoms: C16_23  and  N4_25 
REMARK    6  A    between atoms: N4_25  and  C18_27 
REMARK    7  A    between atoms: C18_27  and  C19_28 
REMARK    8  A    between atoms: N5_32  and  C23_33 
REMARK    9  A    between atoms: C23_33  and  O4_34 
REMARK   10  A    between atoms: C23_33  and  C24_36 
REMARK   11  A    between atoms: C24_36  and  N6_37 
REMARK   12  A    between atoms: C24_36  and  C26_44 
REMARK       I    between atoms: N6_37  and  C25_39 
ROOT
HETATM    1  N3  UNL     1       0.924  -0.679  -1.483  1.00  0.00    -0.338 N 
ATOM      2  H3  UNL     1       0.122  -0.211  -1.061  1.00  0.00     0.164 HD
HETATM    3  C16 UNL     1       0.793  -2.049  -1.849  1.00  0.00     0.318 C 
HETATM    4  O3  UNL     1       1.813  -2.581  -2.346  1.00  0.00    -0.247 OA
HETATM    5  N4  UNL     1      -0.413  -2.769  -1.669  1.00  0.00    -0.337 N 
HETATM    6  C17 UNL     1      -0.403  -4.173  -2.110  1.00  0.00     0.154 C 
ENDROOT
BRANCH   5   7
HETATM    7  C18 UNL     1      -1.545  -2.133  -1.065  1.00  0.00     0.152 C 
BRANCH   7   8
HETATM    8  C19 UNL     1      -2.366  -1.381  -2.046  1.00  0.00     0.104 C 
HETATM    9  C20 UNL     1      -2.899  -2.260  -3.135  1.00  0.00     0.028 C 
HETATM   10  C21 UNL     1      -4.017  -2.980  -2.429  1.00  0.00     0.022 C 
HETATM   11  C22 UNL     1      -4.536  -1.934  -1.431  1.00  0.00     0.125 C 
HETATM   12  N5  UNL     1      -3.617  -0.846  -1.450  1.00  0.00    -0.357 N 
BRANCH  12  13
HETATM   13  C23 UNL     1      -3.720   0.481  -1.032  1.00  0.00     0.137 C 
BRANCH  13  14
HETATM   14  O4  UNL     1      -2.645   1.225  -1.154  1.00  0.00    -0.348 OA
ATOM     15  H4  UNL     1      -2.715   2.129  -0.869  1.00  0.00     0.219 HD
ENDBRANCH  13  14
BRANCH  13  16
HETATM   16  C24 UNL     1      -4.925   1.134  -0.465  1.00  0.00     0.163 C 
BRANCH  16  17
HETATM   17  N6  UNL     1      -4.589   2.503  -0.192  1.00  0.00    -0.352 N 
HETATM   18  C25 UNL     1      -5.402   3.571   0.197  1.00  0.00     0.182 C 
HETATM   19  N7  UNL     1      -5.171   4.151   1.358  1.00  0.00    -0.374 N 
HETATM   20  N8  UNL     1      -6.469   4.147  -0.530  1.00  0.00    -0.064 NA
ATOM     21  H72 UNL     1      -4.401   3.735   1.883  1.00  0.00     0.158 HD
ATOM     22  H71 UNL     1      -5.764   4.931   1.642  1.00  0.00     0.158 HD
ATOM     23  H6  UNL     1      -3.601   2.732  -0.299  1.00  0.00     0.163 HD
ENDBRANCH  16  17
BRANCH  16  24
HETATM   24  C26 UNL     1      -5.569   0.379   0.629  1.00  0.00     0.016 C 
HETATM   25  C27 UNL     1      -4.758   0.089   1.841  1.00  0.00     0.007 C 
HETATM   26  C28 UNL     1      -5.519  -0.870   2.729  1.00  0.00     0.000 C 
HETATM   27  C29 UNL     1      -6.815  -1.308   2.112  1.00  0.00     0.000 C 
HETATM   28  C30 UNL     1      -7.706  -0.163   1.683  1.00  0.00     0.000 C 
HETATM   29  C31 UNL     1      -6.886   0.991   1.124  1.00  0.00     0.007 C 
ENDBRANCH  16  24
ENDBRANCH  13  16
ENDBRANCH  12  13
ENDBRANCH   7   8
ENDBRANCH   5   7
BRANCH   1  30
HETATM   30  C4  UNL     1       2.145   0.087  -1.681  1.00  0.00     0.091 C 
BRANCH  30  31
HETATM   31  C2  UNL     1       1.796   1.085  -2.788  1.00  0.00     0.000 C 
HETATM   32  C1  UNL     1       0.703   2.004  -2.360  1.00  0.00     0.011 C 
HETATM   33  C3  UNL     1       3.015   1.891  -3.178  1.00  0.00     0.011 C 
ENDBRANCH  30  31
BRANCH  30  34
HETATM   34  C5  UNL     1       2.604   0.799  -0.452  1.00  0.00     0.058 C 
BRANCH  34  35
HETATM   35  C6  UNL     1       3.004  -0.127   0.670  1.00  0.00     0.156 C 
HETATM   36  N1  UNL     1       3.417   0.697   1.797  1.00  0.00    -0.347 N 
HETATM   37  C7  UNL     1       4.769   0.726   2.195  1.00  0.00     0.246 C 
ATOM     38  H1  UNL     1       2.727   1.255   2.300  1.00  0.00     0.163 HD
HETATM   39  O1  UNL     1       5.078   0.889   3.427  1.00  0.00    -0.271 OA
HETATM   40  C8  UNL     1       5.936   0.579   1.282  1.00  0.00     0.112 C 
HETATM   41  C9  UNL     1       6.139   1.983   0.685  1.00  0.00     0.049 C 
HETATM   42  C14 UNL     1       5.553  -0.323   0.117  1.00  0.00     0.121 C 
HETATM   43  C15 UNL     1       4.219  -0.921   0.299  1.00  0.00     0.152 C 
HETATM   44  O2  UNL     1       4.077  -2.119   0.144  1.00  0.00    -0.296 OA
BRANCH  40  45
HETATM   45  N2  UNL     1       7.149   0.224   1.896  1.00  0.00    -0.396 N 
HETATM   46  C10 UNL     1       7.242  -1.017   2.573  1.00  0.00     0.118 C 
HETATM   47  C11 UNL     1       8.697  -0.975   3.068  1.00  0.00     0.021 C 
HETATM   48  C12 UNL     1       8.796   0.444   3.564  1.00  0.00     0.021 C 
HETATM   49  C13 UNL     1       7.907   1.206   2.567  1.00  0.00     0.118 C 
ENDBRANCH  40  45
ENDBRANCH  34  35
ENDBRANCH  30  34
ENDBRANCH   1  30
TORSDOF 12
