REMARK  11 active torsions:
REMARK  status: ('A' for Active; 'I' for Inactive)
REMARK    1  A    between atoms: C2_2  and  N1_3 
REMARK    2  A    between atoms: C2_2  and  C11_17 
REMARK       I    between atoms: N1_3  and  C3_5 
REMARK       I    between atoms: C3_5  and  N3_9 
REMARK    3  A    between atoms: C11_17  and  N4_19 
REMARK    4  A    between atoms: N4_19  and  C13_21 
REMARK    5  A    between atoms: C13_21  and  C14_22 
REMARK    6  A    between atoms: C13_21  and  C19_27 
REMARK    7  A    between atoms: C14_22  and  C15_23 
REMARK       I    between atoms: C19_27  and  N5_29 
REMARK    8  A    between atoms: C26_36  and  C27_37 
REMARK    9  A    between atoms: C27_37  and  C28_38 
REMARK   10  A    between atoms: C28_38  and  C29_39 
REMARK   11  A    between atoms: C29_39  and  N6_40 
ROOT
HETATM    1  C13 UNL     1      -0.556  -0.030  -1.104  1.00  0.00     0.093 C 
ENDROOT
BRANCH   1   2
HETATM    2  N4  UNL     1      -1.687  -0.612  -0.521  1.00  0.00    -0.379 N 
ATOM      3  H4  UNL     1      -1.734  -1.631  -0.518  1.00  0.00     0.160 HD
BRANCH   2   4
HETATM    4  C11 UNL     1      -2.747   0.067   0.051  1.00  0.00     0.100 C 
HETATM    5  C12 UNL     1      -2.581   0.139   1.596  1.00  0.00     0.034 C 
BRANCH   4   6
HETATM    6  C2  UNL     1      -4.164  -0.499  -0.082  1.00  0.00     0.117 C 
HETATM    7  C1  UNL     1      -4.641  -0.711  -1.460  1.00  0.00     0.035 C 
BRANCH   6   8
HETATM    8  N1  UNL     1      -5.038   0.539   0.526  1.00  0.00    -0.220 N 
HETATM    9  C3  UNL     1      -6.422   0.594   0.358  1.00  0.00     0.670 C 
HETATM   10  N2  UNL     1      -6.845   1.227  -0.744  1.00  0.00    -0.235 N 
HETATM   11  N3  UNL     1      -7.456   0.104   1.169  1.00  0.00    -0.209 N 
ATOM     12  H22 UNL     1      -6.093   1.583  -1.334  1.00  0.00     0.174 HD
ATOM     13  H21 UNL     1      -7.857   1.267  -0.867  1.00  0.00     0.174 HD
HETATM   14  C4  UNL     1      -8.080  -1.186   1.087  1.00  0.00     0.147 C 
HETATM   15  C8  UNL     1      -8.140   0.805   2.220  1.00  0.00     0.046 C 
HETATM   16  C5  UNL     1      -9.555  -0.745   0.976  1.00  0.00     0.011 A 
HETATM   17  C6  UNL     1     -10.305  -0.676   2.229  1.00  0.00     0.014 A 
HETATM   18  C7  UNL     1      -9.586   0.546   1.852  1.00  0.00     0.020 A 
HETATM   19  C9  UNL     1      -7.815   0.386   3.608  1.00  0.00     0.039 C 
HETATM   20  C10 UNL     1      -7.894   2.322   2.148  1.00  0.00     0.039 C 
ATOM     21  H1  UNL     1      -4.598   1.256   1.102  1.00  0.00     0.178 HD
ENDBRANCH   6   8
ENDBRANCH   4   6
ENDBRANCH   2   4
ENDBRANCH   1   2
BRANCH   1  22
HETATM   22  C14 UNL     1      -0.007  -0.323  -2.414  1.00  0.00     0.013 C 
BRANCH  22  23
HETATM   23  C15 UNL     1      -0.644  -0.147  -3.702  1.00  0.00     0.010 C 
HETATM   24  C16 UNL     1      -1.867  -0.811  -4.169  1.00  0.00     0.009 C 
HETATM   25  C17 UNL     1      -2.080   0.417  -5.088  1.00  0.00     0.001 C 
HETATM   26  C18 UNL     1      -1.242   1.188  -4.066  1.00  0.00     0.009 C 
ENDBRANCH  22  23
ENDBRANCH   1  22
BRANCH   1  27
HETATM   27  C19 UNL     1       0.467   0.450  -0.146  1.00  0.00     0.269 C 
HETATM   28  O1  UNL     1       0.133   1.263   0.787  1.00  0.00    -0.266 OA
HETATM   29  N5  UNL     1       1.873   0.118  -0.104  1.00  0.00    -0.347 N 
HETATM   30  C20 UNL     1       2.653   0.941   0.806  1.00  0.00     0.127 C 
HETATM   31  C24 UNL     1       2.485  -0.960  -0.809  1.00  0.00     0.127 C 
HETATM   32  C21 UNL     1       3.905   0.416   1.343  1.00  0.00     0.039 C 
HETATM   33  C22 UNL     1       4.628  -0.566   0.467  1.00  0.00     0.046 C 
HETATM   34  C23 UNL     1       3.626  -1.570   0.031  1.00  0.00     0.039 C 
HETATM   35  C25 UNL     1       5.333   0.192  -0.606  1.00  0.00     0.044 C 
HETATM   36  C31 UNL     1       5.714  -1.315   1.159  1.00  0.00     0.227 C 
HETATM   37  C26 UNL     1       6.655  -0.545  -0.855  1.00  0.00     0.085 C 
HETATM   38  N9  UNL     1       6.879  -1.326   0.329  1.00  0.00    -0.356 N 
ATOM     39  H9  UNL     1       7.745  -1.818   0.547  1.00  0.00     0.162 HD
HETATM   40  O2  UNL     1       5.668  -1.860   2.273  1.00  0.00    -0.273 OA
BRANCH  37  41
HETATM   41  C27 UNL     1       7.744   0.400  -1.227  1.00  0.00     0.027 C 
BRANCH  41  42
HETATM   42  C28 UNL     1       8.169   1.418  -0.247  1.00  0.00     0.022 C 
BRANCH  42  43
HETATM   43  C29 UNL     1       8.866   0.881   0.989  1.00  0.00     0.122 C 
BRANCH  43  44
HETATM   44  N6  UNL     1      10.082   0.188   0.585  1.00  0.00    -0.367 N 
HETATM   45  C30 UNL     1      11.093   0.042   1.356  1.00  0.00     0.196 C 
HETATM   46  N7  UNL     1      12.241  -0.655   0.853  1.00  0.00    -0.067 NA
HETATM   47  N8  UNL     1      11.080   0.540   2.667  1.00  0.00    -0.067 NA
ATOM     48  H6  UNL     1      10.130  -0.199  -0.357  1.00  0.00     0.161 HD
ENDBRANCH  43  44
ENDBRANCH  42  43
ENDBRANCH  41  42
ENDBRANCH  37  41
ENDBRANCH   1  27
TORSDOF 11
