REMARK  8 active torsions:
REMARK  status: ('A' for Active; 'I' for Inactive)
REMARK    1  A    between atoms: C2_2  and  C4_4 
REMARK    2  A    between atoms: C7_7  and  C8_8 
REMARK    3  A    between atoms: C22_24  and  C23_25 
REMARK       I    between atoms: C23_25  and  N2_27 
REMARK    4  A    between atoms: N2_27  and  C24_29 
REMARK    5  A    between atoms: C24_29  and  C25_30 
REMARK    6  A    between atoms: C25_30  and  C26_31 
REMARK    7  A    between atoms: C26_31  and  N3_32 
REMARK    8  A    between atoms: N3_32  and  C28_34 
ROOT
HETATM    1  C8  UNL     1      -5.888   0.858   2.622  1.00  0.00     0.237 C 
HETATM    2  O1  UNL     1      -6.064  -0.271   3.131  1.00  0.00    -0.280 OA
HETATM    3  C9  UNL     1      -5.935   1.961   3.572  1.00  0.00     0.139 C 
HETATM    4  N1  UNL     1      -5.988   2.842   4.324  1.00  0.00    -0.188 NA
ENDROOT
BRANCH   1   5
HETATM    5  C7  UNL     1      -5.645   1.127   1.178  1.00  0.00     0.040 C 
HETATM    6  C6  UNL     1      -6.813   2.072   0.809  1.00  0.00     0.019 C 
HETATM    7  C5  UNL     1      -6.991   1.835  -0.674  1.00  0.00     0.010 C 
HETATM    8  C4  UNL     1      -6.964   0.311  -0.682  1.00  0.00     0.019 C 
HETATM    9  C39 UNL     1      -5.896  -0.018   0.297  1.00  0.00     0.015 C 
HETATM   10  C14 UNL     1      -4.653  -0.628  -0.360  1.00  0.00     0.000 C 
HETATM   11  C12 UNL     1      -3.635   0.317  -0.860  1.00  0.00    -0.032 C 
HETATM   12  C15 UNL     1      -4.161  -1.814   0.405  1.00  0.00     0.006 C 
HETATM   13  C11 UNL     1      -3.556   1.635  -0.179  1.00  0.00     0.011 C 
HETATM   14  C13 UNL     1      -3.779   0.640  -2.365  1.00  0.00     0.016 C 
HETATM   15  C37 UNL     1      -2.289  -0.450  -0.885  1.00  0.00    -0.032 C 
HETATM   16  C10 UNL     1      -4.365   1.861   1.030  1.00  0.00     0.020 C 
HETATM   17  C17 UNL     1      -1.893  -0.726   0.522  1.00  0.00     0.003 C 
HETATM   18  C36 UNL     1      -1.205   0.395  -1.514  1.00  0.00     0.011 C 
HETATM   19  C38 UNL     1      -2.445  -1.658  -1.754  1.00  0.00     0.016 C 
HETATM   20  C16 UNL     1      -2.847  -1.765   1.041  1.00  0.00     0.006 C 
HETATM   21  C18 UNL     1      -0.453  -0.950   0.804  1.00  0.00    -0.035 C 
HETATM   22  C19 UNL     1      -0.347  -2.151   1.750  1.00  0.00     0.016 C 
HETATM   23  C20 UNL     1       0.084   0.217   1.627  1.00  0.00     0.011 C 
HETATM   24  C34 UNL     1       0.386  -1.231  -0.408  1.00  0.00     0.003 C 
HETATM   25  C21 UNL     1       1.396   0.741   1.157  1.00  0.00     0.015 C 
HETATM   26  C22 UNL     1       2.395  -0.355   0.864  1.00  0.00     0.086 C 
HETATM   27  C31 UNL     1       1.869  -1.281  -0.196  1.00  0.00    -0.031 C 
HETATM   28  C32 UNL     1       2.607  -0.940  -1.481  1.00  0.00     0.016 C 
HETATM   29  C33 UNL     1       2.339  -2.693   0.171  1.00  0.00     0.016 C 
HETATM   30  C35 UNL     1       0.075  -0.387  -1.593  1.00  0.00     0.007 C 
BRANCH   8  31
HETATM   31  C2  UNL     1      -8.331  -0.112  -0.429  1.00  0.00    -0.089 C 
HETATM   32  C1  UNL     1      -8.772  -0.781   0.586  1.00  0.00     0.014 C 
HETATM   33  C3  UNL     1      -9.358   0.278  -1.478  1.00  0.00     0.043 C 
ENDBRANCH   8  31
BRANCH  26  34
HETATM   34  C23 UNL     1       3.683   0.305   0.522  1.00  0.00     0.222 C 
HETATM   35  O2  UNL     1       3.773   1.573   0.387  1.00  0.00    -0.273 OA
HETATM   36  N2  UNL     1       4.882  -0.432   0.327  1.00  0.00    -0.361 N 
ATOM     37  H2  UNL     1       4.850  -1.447   0.426  1.00  0.00     0.162 HD
BRANCH  36  38
HETATM   38  C24 UNL     1       6.134   0.182  -0.002  1.00  0.00     0.124 C 
BRANCH  38  39
HETATM   39  C25 UNL     1       7.251  -0.826  -0.153  1.00  0.00     0.050 C 
BRANCH  39  40
HETATM   40  C26 UNL     1       8.525  -0.094  -0.496  1.00  0.00     0.274 C 
BRANCH  40  41
HETATM   41  N3  UNL     1       8.808   0.827   0.594  1.00  0.00     0.088 N 
HETATM   42  C27 UNL     1       9.146   0.016   1.752  1.00  0.00     0.310 C 
BRANCH  41  43
HETATM   43  C28 UNL     1       9.896   1.725   0.246  1.00  0.00     0.214 C 
HETATM   44  C29 UNL     1       9.410   2.532  -0.951  1.00  0.00     0.042 C 
HETATM   45  C30 UNL     1      11.085   0.875  -0.117  1.00  0.00     0.042 C 
ENDBRANCH  41  43
ENDBRANCH  40  41
ENDBRANCH  39  40
ENDBRANCH  38  39
ENDBRANCH  36  38
ENDBRANCH  26  34
ENDBRANCH   1   5
TORSDOF 8
