REMARK  8 active torsions:
REMARK  status: ('A' for Active; 'I' for Inactive)
REMARK    1  A    between atoms: C2_2  and  C4_4 
REMARK    2  A    between atoms: C5_5  and  N1_6 
REMARK       I    between atoms: N1_6  and  C6_8 
REMARK       I    between atoms: C6_8  and  N2_10 
REMARK    3  A    between atoms: N2_10  and  C7_12 
REMARK    4  A    between atoms: C7_12  and  C8_13 
REMARK    5  A    between atoms: C7_12  and  C13_19 
REMARK    6  A    between atoms: C8_13  and  N3_14 
REMARK    7  A    between atoms: N3_14  and  C10_16 
REMARK    8  A    between atoms: C13_19  and  N4_21 
ROOT
HETATM    1  N4  UNL     1       1.418   0.289   1.160  1.00  0.00    -0.373 N 
HETATM    2  C14 UNL     1       1.034  -0.144  -0.134  1.00  0.00     0.124 C 
HETATM    3  C15 UNL     1      -0.462   0.028  -0.432  1.00  0.00     0.030 C 
HETATM    4  C16 UNL     1      -1.063   1.155   0.291  1.00  0.00    -0.029 C 
HETATM    5  C17 UNL     1      -0.505   2.442  -0.360  1.00  0.00     0.016 C 
HETATM    6  C18 UNL     1      -2.455   1.297   0.661  1.00  0.00     0.004 C 
HETATM    7  C19 UNL     1      -3.606   0.683   0.041  1.00  0.00    -0.004 C 
HETATM    8  C20 UNL     1      -3.454  -0.344  -1.016  1.00  0.00     0.006 C 
HETATM    9  C21 UNL     1      -4.837  -0.500  -1.685  1.00  0.00     0.006 C 
HETATM   10  C22 UNL     1      -5.750  -1.071  -0.639  1.00  0.00     0.002 C 
HETATM   11  C23 UNL     1      -7.078  -1.502  -1.177  1.00  0.00    -0.043 C 
HETATM   12  C24 UNL     1      -7.191  -3.029  -1.288  1.00  0.00     0.015 C 
HETATM   13  C25 UNL     1      -7.268  -0.995  -2.615  1.00  0.00     0.015 C 
HETATM   14  C26 UNL     1      -8.265  -1.035  -0.403  1.00  0.00     0.009 C 
HETATM   15  C27 UNL     1      -8.106  -1.088   1.076  1.00  0.00     0.002 C 
HETATM   16  C28 UNL     1      -6.709  -0.950   1.577  1.00  0.00     0.010 C 
HETATM   17  C29 UNL     1      -5.840  -0.201   0.591  1.00  0.00    -0.036 C 
HETATM   18  C30 UNL     1      -6.510   1.124   0.324  1.00  0.00     0.016 C 
HETATM   19  C31 UNL     1      -4.485   0.069   1.140  1.00  0.00    -0.002 C 
HETATM   20  C32 UNL     1      -3.823  -1.059   1.837  1.00  0.00     0.006 C 
HETATM   21  C33 UNL     1      -2.425  -0.664   2.244  1.00  0.00     0.006 C 
HETATM   22  C34 UNL     1      -2.108   0.764   2.061  1.00  0.00     0.001 C 
HETATM   23  C35 UNL     1      -0.706   1.195   1.768  1.00  0.00    -0.016 C 
HETATM   24  C36 UNL     1      -0.474   2.616   2.308  1.00  0.00     0.018 C 
HETATM   25  C37 UNL     1       0.396   0.320   2.185  1.00  0.00     0.133 C 
ENDROOT
BRANCH   1  26
HETATM   26  C13 UNL     1       2.724   0.655   1.468  1.00  0.00     0.100 C 
HETATM   27  S1  UNL     1       3.033   1.146   3.031  1.00  0.00    -0.063 SA
BRANCH  26  28
HETATM   28  C7  UNL     1       3.880   0.643   0.496  1.00  0.00     0.176 C 
BRANCH  28  29
HETATM   29  N2  UNL     1       4.975   0.044   1.290  1.00  0.00    -0.330 N 
HETATM   30  C6  UNL     1       5.572  -1.205   0.917  1.00  0.00     0.320 C 
HETATM   31  N1  UNL     1       6.614  -1.781   1.657  1.00  0.00    -0.319 N 
HETATM   32  O1  UNL     1       5.121  -1.763  -0.108  1.00  0.00    -0.247 OA
ATOM     33  H1  UNL     1       6.848  -1.256   2.500  1.00  0.00     0.169 HD
ATOM     34  H2  UNL     1       5.313   0.530   2.121  1.00  0.00     0.165 HD
BRANCH  31  35
HETATM   35  C5  UNL     1       7.399  -2.922   1.483  1.00  0.00     0.089 C 
HETATM   36  C4  UNL     1       8.453  -3.121   0.517  1.00  0.00    -0.006 C 
BRANCH  36  37
HETATM   37  C2  UNL     1       8.423  -2.992  -0.926  1.00  0.00     0.001 C 
HETATM   38  C1  UNL     1       8.167  -1.626  -1.484  1.00  0.00     0.013 C 
HETATM   39  C3  UNL     1       7.534  -4.030  -1.617  1.00  0.00     0.013 C 
ENDBRANCH  36  37
ENDBRANCH  31  35
ENDBRANCH  28  29
BRANCH  28  40
HETATM   40  C8  UNL     1       4.371   2.055   0.237  1.00  0.00     0.304 C 
BRANCH  40  41
HETATM   41  N3  UNL     1       3.500   2.866  -0.558  1.00  0.00     0.090 N 
HETATM   42  C9  UNL     1       4.080   4.233  -0.512  1.00  0.00     0.310 C 
BRANCH  41  43
HETATM   43  C10 UNL     1       3.679   2.396  -1.961  1.00  0.00     0.214 C 
HETATM   44  C11 UNL     1       5.099   2.632  -2.427  1.00  0.00     0.042 C 
HETATM   45  C12 UNL     1       2.712   3.080  -2.883  1.00  0.00     0.042 C 
ENDBRANCH  41  43
ENDBRANCH  40  41
ENDBRANCH  28  40
ENDBRANCH  26  28
ENDBRANCH   1  26
TORSDOF 8
