REMARK  10 active torsions:
REMARK  status: ('A' for Active; 'I' for Inactive)
REMARK    1  A    between atoms: C2_2  and  C3_3 
REMARK    2  A    between atoms: C4_4  and  C5_5 
REMARK    3  A    between atoms: C5_5  and  C7_7 
REMARK    4  A    between atoms: C18_18  and  C19_19 
REMARK       I    between atoms: C19_19  and  N1_21 
REMARK    5  A    between atoms: N1_21  and  C20_23 
REMARK    6  A    between atoms: C29_32  and  C30_33 
REMARK    7  A    between atoms: C32_35  and  C33_36 
REMARK    8  A    between atoms: C33_36  and  C35_38 
REMARK    9  A    between atoms: C35_38  and  O2_39 
REMARK   10  A    between atoms: C35_38  and  N2_41 
ROOT
HETATM    1  C7  UNL     1      -1.479  -0.326   1.848  1.00  0.00     0.001 C 
HETATM    2  C8  UNL     1      -1.794  -1.614   2.605  1.00  0.00     0.006 C 
HETATM    3  C9  UNL     1      -2.834  -2.363   1.742  1.00  0.00     0.006 C 
HETATM    4  C10 UNL     1      -3.182  -1.273   0.759  1.00  0.00    -0.000 C 
HETATM    5  C11 UNL     1      -4.201  -1.492  -0.235  1.00  0.00     0.012 C 
HETATM    6  C12 UNL     1      -4.730  -2.872  -0.442  1.00  0.00    -0.009 C 
HETATM    7  C13 UNL     1      -3.959  -3.933  -1.051  1.00  0.00     0.011 C 
HETATM    8  C14 UNL     1      -6.037  -2.776  -1.211  1.00  0.00    -0.014 C 
HETATM    9  C15 UNL     1      -7.141  -2.161  -0.403  1.00  0.00     0.010 C 
HETATM   10  C16 UNL     1      -5.881  -2.035  -2.500  1.00  0.00     0.006 C 
HETATM   11  C17 UNL     1      -4.578  -1.341  -2.665  1.00  0.00     0.020 C 
HETATM   12  C18 UNL     1      -4.090  -0.605  -1.419  1.00  0.00     0.045 C 
HETATM   13  C25 UNL     1      -2.722  -0.088  -1.763  1.00  0.00     0.020 C 
HETATM   14  C26 UNL     1      -1.881   0.286  -0.580  1.00  0.00     0.011 C 
HETATM   15  C27 UNL     1      -1.796  -0.769   0.449  1.00  0.00    -0.036 C 
HETATM   16  C28 UNL     1      -0.819  -1.859   0.109  1.00  0.00     0.016 C 
ENDROOT
BRANCH   1  17
HETATM   17  C5  UNL     1      -0.261   0.364   2.194  1.00  0.00     0.009 C 
HETATM   18  C6  UNL     1      -0.328   0.622   3.725  1.00  0.00     0.014 C 
BRANCH  17  19
HETATM   19  C4  UNL     1       0.969  -0.399   2.007  1.00  0.00    -0.022 C 
HETATM   20  C3  UNL     1       1.989  -0.002   1.218  1.00  0.00     0.003 C 
BRANCH  20  21
HETATM   21  C2  UNL     1       3.137  -0.803   1.098  1.00  0.00    -0.062 C 
HETATM   22  C1  UNL     1       3.068  -2.122   1.916  1.00  0.00     0.048 C 
HETATM   23  C29 UNL     1       4.220  -0.627   0.418  1.00  0.00     0.013 C 
BRANCH  23  24
HETATM   24  C30 UNL     1       4.622   0.432  -0.422  1.00  0.00    -0.065 C 
HETATM   25  C31 UNL     1       3.783   1.637  -0.680  1.00  0.00     0.048 C 
HETATM   26  C32 UNL     1       5.816   0.408  -1.048  1.00  0.00    -0.008 C 
BRANCH  26  27
HETATM   27  C33 UNL     1       6.816  -0.629  -0.977  1.00  0.00     0.079 C 
HETATM   28  C34 UNL     1       7.149  -1.073  -2.426  1.00  0.00     0.023 C 
BRANCH  27  29
HETATM   29  C35 UNL     1       8.101  -0.239  -0.386  1.00  0.00     0.121 C 
BRANCH  29  30
HETATM   30  O2  UNL     1       8.555  -0.979   0.593  1.00  0.00    -0.349 OA
ATOM     31  H2  UNL     1       9.387  -0.726   0.976  1.00  0.00     0.219 HD
ENDBRANCH  29  30
BRANCH  29  32
HETATM   32  N2  UNL     1       8.917   0.839  -0.743  1.00  0.00    -0.355 N 
HETATM   33  C36 UNL     1      10.203   1.053  -0.038  1.00  0.00     0.145 C 
HETATM   34  C37 UNL     1      11.330   0.963  -1.070  1.00  0.00     0.142 C 
HETATM   35  N3  UNL     1      11.079   1.960  -2.120  1.00  0.00    -0.358 N 
HETATM   36  C38 UNL     1       9.820   2.580  -2.125  1.00  0.00     0.235 C 
ATOM     37  H3  UNL     1      11.789   2.191  -2.815  1.00  0.00     0.162 HD
HETATM   38  O3  UNL     1       9.676   3.807  -2.436  1.00  0.00    -0.272 OA
HETATM   39  C39 UNL     1       8.591   1.791  -1.755  1.00  0.00     0.227 C 
ENDBRANCH  29  32
ENDBRANCH  27  29
ENDBRANCH  26  27
ENDBRANCH  23  24
ENDBRANCH  20  21
ENDBRANCH  17  19
ENDBRANCH   1  17
BRANCH  12  40
HETATM   40  C19 UNL     1      -4.960   0.597  -1.323  1.00  0.00     0.227 C 
HETATM   41  O1  UNL     1      -5.803   0.823  -2.269  1.00  0.00    -0.273 OA
HETATM   42  N1  UNL     1      -4.981   1.552  -0.302  1.00  0.00    -0.356 N 
ATOM     43  H1  UNL     1      -4.339   1.434   0.482  1.00  0.00     0.162 HD
BRANCH  42  44
HETATM   44  C20 UNL     1      -5.867   2.702  -0.297  1.00  0.00     0.084 C 
HETATM   45  C21 UNL     1      -5.151   4.011  -0.212  1.00  0.00     0.025 C 
HETATM   46  C22 UNL     1      -5.700   4.777   0.963  1.00  0.00     0.002 C 
HETATM   47  C23 UNL     1      -7.078   4.199   1.134  1.00  0.00     0.002 C 
HETATM   48  C24 UNL     1      -6.796   2.709   0.898  1.00  0.00     0.025 C 
ENDBRANCH  42  44
ENDBRANCH  12  40
TORSDOF 10
