REMARK  10 active torsions:
REMARK  status: ('A' for Active; 'I' for Inactive)
REMARK    1  A    between atoms: C2_2  and  C3_3 
REMARK    2  A    between atoms: C4_4  and  C5_5 
REMARK    3  A    between atoms: C5_5  and  N1_6 
REMARK       I    between atoms: N1_6  and  C6_8 
REMARK    4  A    between atoms: C6_8  and  O2_10 
REMARK    5  A    between atoms: O2_10  and  C7_11 
REMARK    6  A    between atoms: C24_28  and  C26_30 
REMARK       I    between atoms: C26_30  and  N2_32 
REMARK    7  A    between atoms: N2_32  and  C27_34 
REMARK    8  A    between atoms: C27_34  and  C28_35 
REMARK    9  A    between atoms: C28_35  and  C29_36 
REMARK   10  A    between atoms: C29_36  and  N3_37 
ROOT
HETATM    1  C7  UNL     1      -5.494  -1.703  -0.657  1.00  0.00     0.134 C 
HETATM    2  C8  UNL     1      -5.509  -3.196  -0.897  1.00  0.00     0.033 C 
HETATM    3  C9  UNL     1      -4.189  -3.638  -0.249  1.00  0.00     0.012 C 
HETATM    4  C10 UNL     1      -3.101  -3.241  -1.265  1.00  0.00    -0.040 C 
HETATM    5  C11 UNL     1      -3.494  -4.061  -2.509  1.00  0.00     0.015 C 
HETATM    6  C12 UNL     1      -1.843  -3.842  -0.752  1.00  0.00     0.010 C 
HETATM    7  C13 UNL     1      -0.910  -2.929  -0.053  1.00  0.00     0.011 C 
HETATM    8  C14 UNL     1      -0.671  -1.667  -0.815  1.00  0.00    -0.032 C 
HETATM    9  C15 UNL     1       0.112  -2.022  -2.051  1.00  0.00     0.016 C 
HETATM   10  C16 UNL     1      -1.957  -0.997  -1.050  1.00  0.00    -0.001 C 
HETATM   11  C17 UNL     1      -1.696   0.238  -1.923  1.00  0.00     0.006 C 
HETATM   12  C18 UNL     1      -0.677   1.153  -1.361  1.00  0.00     0.006 C 
HETATM   13  C19 UNL     1       0.544   0.513  -0.811  1.00  0.00    -0.001 C 
HETATM   14  C20 UNL     1       1.278   1.467   0.143  1.00  0.00    -0.004 C 
HETATM   15  C21 UNL     1       1.650   2.750  -0.580  1.00  0.00     0.005 C 
HETATM   16  C22 UNL     1       3.146   3.000  -0.559  1.00  0.00     0.002 C 
HETATM   17  C23 UNL     1       3.724   2.934   0.815  1.00  0.00     0.019 C 
HETATM   18  C24 UNL     1       3.280   1.701   1.588  1.00  0.00     0.041 C 
HETATM   19  C25 UNL     1       2.404   2.182   2.708  1.00  0.00     0.026 C 
HETATM   20  C32 UNL     1       2.540   0.825   0.605  1.00  0.00     0.007 C 
HETATM   21  C33 UNL     1       2.364  -0.535   1.220  1.00  0.00     0.007 C 
HETATM   22  C34 UNL     1       1.390  -1.425   0.532  1.00  0.00     0.011 C 
HETATM   23  C35 UNL     1       0.196  -0.706  -0.005  1.00  0.00    -0.032 C 
HETATM   24  C36 UNL     1      -0.552  -0.196   1.228  1.00  0.00     0.016 C 
HETATM   25  C37 UNL     1      -3.106  -1.803  -1.581  1.00  0.00     0.001 C 
HETATM   26  C38 UNL     1      -4.368  -1.044  -1.348  1.00  0.00     0.038 C 
ENDROOT
BRANCH  18  27
HETATM   27  C26 UNL     1       4.455   1.008   2.158  1.00  0.00     0.226 C 
HETATM   28  O3  UNL     1       4.534   0.841   3.398  1.00  0.00    -0.273 OA
HETATM   29  N2  UNL     1       5.503   0.523   1.354  1.00  0.00    -0.360 N 
ATOM     30  H2  UNL     1       5.462   0.647   0.342  1.00  0.00     0.162 HD
BRANCH  29  31
HETATM   31  C27 UNL     1       6.628  -0.143   1.942  1.00  0.00     0.124 C 
BRANCH  31  32
HETATM   32  C28 UNL     1       7.625  -0.571   0.896  1.00  0.00     0.050 C 
BRANCH  32  33
HETATM   33  C29 UNL     1       8.151   0.616   0.133  1.00  0.00     0.273 C 
BRANCH  33  34
HETATM   34  N3  UNL     1       9.108   0.167  -0.863  1.00  0.00     0.080 N 
HETATM   35  C30 UNL     1       9.628   1.291  -1.616  1.00  0.00     0.309 C 
HETATM   36  C31 UNL     1      10.208  -0.499  -0.216  1.00  0.00     0.309 C 
ENDBRANCH  33  34
ENDBRANCH  32  33
ENDBRANCH  31  32
ENDBRANCH  29  31
ENDBRANCH  18  27
BRANCH   1  37
HETATM   37  O2  UNL     1      -6.757  -1.121  -0.964  1.00  0.00    -0.299 OA
BRANCH  37  38
HETATM   38  C6  UNL     1      -7.558  -0.531   0.008  1.00  0.00     0.361 C 
HETATM   39  N1  UNL     1      -8.802   0.053  -0.242  1.00  0.00    -0.327 N 
ATOM     40  H1  UNL     1      -9.181   0.066  -1.189  1.00  0.00     0.165 HD
HETATM   41  O1  UNL     1      -7.101  -0.543   1.178  1.00  0.00    -0.238 OA
BRANCH  39  42
HETATM   42  C5  UNL     1      -9.551   0.639   0.849  1.00  0.00     0.219 C 
BRANCH  42  43
HETATM   43  C4  UNL     1      -8.779   1.733   1.486  1.00  0.00    -0.087 C 
HETATM   44  C3  UNL     1      -8.157   2.637   1.990  1.00  0.00    -0.105 C 
BRANCH  44  45
HETATM   45  C2  UNL     1      -7.413   3.749   2.584  1.00  0.00     0.089 C 
HETATM   46  C1  UNL     1      -7.590   5.032   1.763  1.00  0.00     0.018 C 
ENDBRANCH  44  45
ENDBRANCH  42  43
ENDBRANCH  39  42
ENDBRANCH  37  38
ENDBRANCH   1  37
TORSDOF 10
