REMARK  9 active torsions:
REMARK  status: ('A' for Active; 'I' for Inactive)
REMARK    1  A    between atoms: C2_2  and  N1_3 
REMARK    2  A    between atoms: N1_3  and  C3_4 
REMARK    3  A    between atoms: N1_3  and  C5_6 
REMARK    4  A    between atoms: C5_6  and  C6_7 
REMARK    5  A    between atoms: C6_7  and  N2_8 
REMARK       I    between atoms: N2_8  and  C7_10 
REMARK    6  A    between atoms: C7_10  and  C8_12 
REMARK    7  A    between atoms: C19_23  and  C20_24 
REMARK    8  A    between atoms: C27_31  and  C28_32 
REMARK       I    between atoms: C28_32  and  N3_34 
REMARK    9  A    between atoms: N3_34  and  C29_36 
ROOT
HETATM    1  C8  UNL     1      -3.030  -1.267   0.745  1.00  0.00     0.045 C 
HETATM    2  C9  UNL     1      -3.559  -2.530   1.443  1.00  0.00     0.020 C 
HETATM    3  C10 UNL     1      -4.079  -2.251   2.824  1.00  0.00     0.006 C 
HETATM    4  C11 UNL     1      -2.835  -1.849   3.597  1.00  0.00    -0.014 C 
HETATM    5  C12 UNL     1      -3.069  -1.900   5.084  1.00  0.00     0.010 C 
HETATM    6  C13 UNL     1      -2.468  -0.484   3.130  1.00  0.00    -0.009 C 
HETATM    7  C14 UNL     1      -3.308   0.474   3.998  1.00  0.00     0.011 C 
HETATM    8  C15 UNL     1      -2.608  -0.206   1.677  1.00  0.00     0.012 C 
HETATM    9  C16 UNL     1      -1.445   0.493   1.063  1.00  0.00    -0.000 C 
HETATM   10  C17 UNL     1      -0.889   1.670   1.779  1.00  0.00     0.006 C 
HETATM   11  C18 UNL     1       0.174   1.994   0.714  1.00  0.00     0.006 C 
HETATM   12  C19 UNL     1       0.761   0.681   0.333  1.00  0.00    -0.001 C 
HETATM   13  C36 UNL     1      -0.290  -0.317   0.656  1.00  0.00    -0.036 C 
HETATM   14  C37 UNL     1       0.207  -1.423   1.484  1.00  0.00     0.016 C 
HETATM   15  C38 UNL     1      -0.846  -1.026  -0.598  1.00  0.00     0.011 C 
HETATM   16  C39 UNL     1      -2.095  -1.746  -0.290  1.00  0.00     0.020 C 
ENDROOT
BRANCH  12  17
HETATM   17  C20 UNL     1       2.153   0.454   0.737  1.00  0.00    -0.000 C 
HETATM   18  C21 UNL     1       2.537   0.639   2.155  1.00  0.00     0.006 C 
HETATM   19  C22 UNL     1       3.252   1.993   2.246  1.00  0.00     0.006 C 
HETATM   20  C23 UNL     1       3.511   2.470   0.864  1.00  0.00     0.004 C 
HETATM   21  C24 UNL     1       4.979   2.278   0.501  1.00  0.00    -0.030 C 
HETATM   22  C34 UNL     1       3.195   1.290  -0.013  1.00  0.00    -0.023 C 
HETATM   23  C25 UNL     1       5.856   2.519   1.707  1.00  0.00     0.016 C 
HETATM   24  C26 UNL     1       5.489   3.079  -0.652  1.00  0.00     0.016 C 
HETATM   25  C27 UNL     1       4.607   0.849   0.241  1.00  0.00     0.095 C 
HETATM   26  C35 UNL     1       2.811   1.552  -1.425  1.00  0.00     0.017 C 
BRANCH  25  27
HETATM   27  C28 UNL     1       5.336   0.114  -0.760  1.00  0.00     0.223 C 
HETATM   28  O2  UNL     1       4.771  -0.344  -1.772  1.00  0.00    -0.273 OA
HETATM   29  N3  UNL     1       6.725  -0.125  -0.646  1.00  0.00    -0.356 N 
ATOM     30  H3  UNL     1       7.188   0.250   0.182  1.00  0.00     0.162 HD
BRANCH  29  31
HETATM   31  C29 UNL     1       7.549  -0.841  -1.575  1.00  0.00     0.084 C 
HETATM   32  C30 UNL     1       8.769   0.011  -1.839  1.00  0.00     0.025 C 
HETATM   33  C31 UNL     1       9.739  -0.996  -2.416  1.00  0.00     0.002 C 
HETATM   34  C32 UNL     1       9.615  -2.117  -1.382  1.00  0.00     0.002 C 
HETATM   35  C33 UNL     1       8.200  -2.062  -0.909  1.00  0.00     0.025 C 
ENDBRANCH  29  31
ENDBRANCH  25  27
ENDBRANCH  12  17
BRANCH   1  36
HETATM   36  C7  UNL     1      -4.285  -0.797   0.022  1.00  0.00     0.226 C 
HETATM   37  N2  UNL     1      -4.919  -1.629  -0.942  1.00  0.00    -0.359 N 
ATOM     38  H2  UNL     1      -4.505  -2.541  -1.135  1.00  0.00     0.162 HD
HETATM   39  O1  UNL     1      -4.784   0.316   0.256  1.00  0.00    -0.273 OA
BRANCH  37  40
HETATM   40  C6  UNL     1      -6.128  -1.254  -1.672  1.00  0.00     0.152 C 
BRANCH  40  41
HETATM   41  C5  UNL     1      -5.994  -0.034  -2.484  1.00  0.00     0.292 C 
BRANCH  41  42
HETATM   42  N1  UNL     1      -7.197   0.359  -3.146  1.00  0.00     0.089 N 
BRANCH  42  43
HETATM   43  C2  UNL     1      -7.691  -0.415  -4.216  1.00  0.00     0.268 C 
HETATM   44  C1  UNL     1      -8.271  -1.761  -3.916  1.00  0.00     0.037 C 
ENDBRANCH  42  43
BRANCH  42  45
HETATM   45  C3  UNL     1      -6.977   1.730  -3.710  1.00  0.00     0.268 C 
HETATM   46  C4  UNL     1      -8.361   2.259  -4.010  1.00  0.00     0.037 C 
ENDBRANCH  42  45
ENDBRANCH  41  42
ENDBRANCH  40  41
ENDBRANCH  37  40
ENDBRANCH   1  36
TORSDOF 9
