REMARK  8 active torsions:
REMARK  status: ('A' for Active; 'I' for Inactive)
REMARK    1  A    between atoms: C2_2  and  C4_4 
REMARK    2  A    between atoms: C4_4  and  C5_5 
REMARK    3  A    between atoms: C5_5  and  N1_6 
REMARK    4  A    between atoms: C5_5  and  C21_29 
REMARK       I    between atoms: N1_6  and  C6_8 
REMARK    5  A    between atoms: C6_8  and  C7_10 
REMARK       I    between atoms: N2_14  and  C11_15 
REMARK    6  A    between atoms: C11_15  and  C12_17 
REMARK    7  A    between atoms: C12_17  and  N3_19 
REMARK       I    between atoms: N3_19  and  C14_21 
REMARK    8  A    between atoms: C14_21  and  C15_23 
ROOT
HETATM    1  C7  UNL     1      -0.800   0.507   1.154  1.00  0.00     0.179 C 
HETATM    2  C8  UNL     1      -1.291   1.040   2.499  1.00  0.00     0.037 C 
HETATM    3  C9  UNL     1      -1.379  -0.207   3.337  1.00  0.00     0.022 C 
HETATM    4  C10 UNL     1      -0.482  -1.225   2.717  1.00  0.00     0.127 C 
HETATM    5  N2  UNL     1       0.116  -0.555   1.566  1.00  0.00    -0.337 N 
HETATM    6  C11 UNL     1       1.352  -0.876   0.990  1.00  0.00     0.243 C 
HETATM    7  O2  UNL     1       2.014  -1.855   1.486  1.00  0.00    -0.271 OA
ENDROOT
BRANCH   1   8
HETATM    8  C6  UNL     1      -1.925  -0.010   0.349  1.00  0.00     0.241 C 
HETATM    9  N1  UNL     1      -2.874   0.849  -0.190  1.00  0.00    -0.354 N 
ATOM     10  H1  UNL     1      -2.763   1.846  -0.008  1.00  0.00     0.162 HD
HETATM   11  O1  UNL     1      -2.006  -1.241   0.161  1.00  0.00    -0.271 OA
BRANCH   9  12
HETATM   12  C5  UNL     1      -4.014   0.437  -0.993  1.00  0.00     0.088 C 
BRANCH  12  13
HETATM   13  C4  UNL     1      -5.303   0.884  -0.379  1.00  0.00     0.029 C 
BRANCH  13  14
HETATM   14  C2  UNL     1      -5.568   0.358   0.979  1.00  0.00    -0.021 C 
HETATM   15  C1  UNL     1      -6.922   0.929   1.428  1.00  0.00     0.009 C 
HETATM   16  C3  UNL     1      -5.668  -1.121   1.097  1.00  0.00     0.009 C 
ENDBRANCH  13  14
ENDBRANCH  12  13
BRANCH  12  17
HETATM   17  C21 UNL     1      -3.835   0.943  -2.407  1.00  0.00     0.000 C 
HETATM   18  C22 UNL     1      -3.839   2.445  -2.483  1.00  0.00     0.011 C 
HETATM   19  C23 UNL     1      -4.934   0.435  -3.318  1.00  0.00     0.011 C 
ENDBRANCH  12  17
ENDBRANCH   9  12
ENDBRANCH   1   8
BRANCH   6  20
HETATM   20  C12 UNL     1       1.933  -0.136  -0.164  1.00  0.00     0.172 C 
HETATM   21  C13 UNL     1       1.112  -0.287  -1.421  1.00  0.00     0.042 C 
BRANCH  20  22
HETATM   22  N3  UNL     1       3.253  -0.713  -0.460  1.00  0.00    -0.348 N 
HETATM   23  C14 UNL     1       4.396   0.081  -0.246  1.00  0.00     0.222 C 
HETATM   24  O3  UNL     1       4.281   1.263   0.191  1.00  0.00    -0.273 OA
ATOM     25  H3  UNL     1       3.339  -1.666  -0.812  1.00  0.00     0.163 HD
BRANCH  23  26
HETATM   26  C15 UNL     1       5.774  -0.405  -0.515  1.00  0.00     0.078 C 
HETATM   27  C16 UNL     1       6.103  -1.661   0.281  1.00  0.00     0.014 C 
HETATM   28  C17 UNL     1       7.392  -2.206  -0.342  1.00  0.00     0.001 C 
HETATM   29  C18 UNL     1       8.492  -1.193  -0.180  1.00  0.00     0.000 C 
HETATM   30  C19 UNL     1       8.137   0.177  -0.667  1.00  0.00     0.001 C 
HETATM   31  C20 UNL     1       6.812   0.624  -0.101  1.00  0.00     0.014 C 
ENDBRANCH  23  26
ENDBRANCH  20  22
ENDBRANCH   6  20
TORSDOF 8
