REMARK  9 active torsions:
REMARK  status: ('A' for Active; 'I' for Inactive)
REMARK    1  A    between atoms: C2_2  and  C5_5 
REMARK       I    between atoms: C5_5  and  N1_7 
REMARK    2  A    between atoms: C8_10  and  C9_11 
REMARK       I    between atoms: C9_11  and  N2_13 
REMARK    3  A    between atoms: N2_13  and  C10_15 
REMARK    4  A    between atoms: C10_15  and  C11_16 
REMARK    5  A    between atoms: C11_16  and  C12_17 
REMARK    6  A    between atoms: C12_17  and  C13_18 
REMARK       I    between atoms: C13_18  and  N3_20 
REMARK    7  A    between atoms: N3_20  and  C14_22 
REMARK    8  A    between atoms: C14_22  and  C15_23 
REMARK    9  A    between atoms: C15_23  and  C16_24 
ROOT
HETATM    1  C9  UNL     1      -2.538   2.157   0.537  1.00  0.00     0.221 C 
HETATM    2  O2  UNL     1      -2.812   3.375   0.410  1.00  0.00    -0.273 OA
HETATM    3  N2  UNL     1      -1.282   1.676   0.125  1.00  0.00    -0.361 N 
ATOM      4  H2  UNL     1      -1.056   0.687   0.229  1.00  0.00     0.162 HD
ENDROOT
BRANCH   3   5
HETATM    5  C10 UNL     1      -0.314   2.579  -0.443  1.00  0.00     0.123 C 
BRANCH   5   6
HETATM    6  C11 UNL     1       0.959   1.884  -0.819  1.00  0.00     0.029 C 
BRANCH   6   7
HETATM    7  C12 UNL     1       1.617   1.233   0.373  1.00  0.00     0.104 C 
BRANCH   7   8
HETATM    8  C13 UNL     1       2.872   0.556  -0.038  1.00  0.00     0.217 C 
HETATM    9  O3  UNL     1       3.217   0.600  -1.244  1.00  0.00    -0.274 OA
HETATM   10  N3  UNL     1       3.678  -0.130   0.902  1.00  0.00    -0.361 N 
ATOM     11  H3  UNL     1       3.363  -0.142   1.872  1.00  0.00     0.162 HD
BRANCH  10  12
HETATM   12  C14 UNL     1       4.901  -0.808   0.595  1.00  0.00     0.123 C 
BRANCH  12  13
HETATM   13  C15 UNL     1       5.978   0.084   0.022  1.00  0.00     0.024 C 
BRANCH  13  14
HETATM   14  C16 UNL     1       7.200  -0.777  -0.245  1.00  0.00    -0.013 C 
HETATM   15  C17 UNL     1       7.745  -1.442   0.977  1.00  0.00     0.005 C 
HETATM   16  C18 UNL     1       9.152  -1.871   0.744  1.00  0.00     0.000 C 
HETATM   17  C19 UNL     1       9.494  -2.134  -0.708  1.00  0.00     0.000 C 
HETATM   18  C20 UNL     1       9.230  -0.913  -1.565  1.00  0.00     0.000 C 
HETATM   19  C21 UNL     1       8.322   0.068  -0.851  1.00  0.00     0.005 C 
ENDBRANCH  13  14
ENDBRANCH  12  13
ENDBRANCH  10  12
ENDBRANCH   7   8
ENDBRANCH   6   7
ENDBRANCH   5   6
ENDBRANCH   3   5
BRANCH   1  20
HETATM   20  C8  UNL     1      -3.516   1.188   1.121  1.00  0.00     0.081 C 
HETATM   21  C7  UNL     1      -3.800   0.143   0.068  1.00  0.00     0.034 C 
HETATM   22  C6  UNL     1      -5.015  -0.690   0.416  1.00  0.00     0.126 C 
HETATM   23  N1  UNL     1      -6.078   0.076   0.973  1.00  0.00    -0.351 N 
HETATM   24  C5  UNL     1      -7.404   0.067   0.520  1.00  0.00     0.227 C 
HETATM   25  C23 UNL     1      -5.733   0.941   2.112  1.00  0.00     0.126 C 
HETATM   26  O1  UNL     1      -8.240   0.814   1.143  1.00  0.00    -0.273 OA
HETATM   27  C22 UNL     1      -4.731   1.951   1.538  1.00  0.00     0.034 C 
BRANCH  24  28
HETATM   28  C2  UNL     1      -7.952  -0.707  -0.598  1.00  0.00     0.030 C 
HETATM   29  C1  UNL     1      -7.295  -0.247  -1.881  1.00  0.00     0.025 C 
HETATM   30  C3  UNL     1      -9.447  -0.438  -0.750  1.00  0.00     0.025 C 
HETATM   31  C4  UNL     1      -7.770  -2.198  -0.414  1.00  0.00     0.025 C 
ENDBRANCH  24  28
ENDBRANCH   1  20
TORSDOF 9
