REMARK  1 active torsions:
REMARK  status: ('A' for Active; 'I' for Inactive)
REMARK       I    between atoms: C2_4  and  N3_6 
REMARK    1  A    between atoms: N3_6  and  C3_8 
ROOT
HETATM    1  C3  UNL     1      -0.565  -0.130   0.097  1.00  0.00     0.705 A 
HETATM    2  N4  UNL     1      -1.071  -0.862  -0.909  1.00  0.00    -0.138 N 
ATOM      3  H4  UNL     1      -0.562  -1.522  -1.497  1.00  0.00     0.189 HD
HETATM    4  C4  UNL     1      -2.394  -0.554  -0.993  1.00  0.00     0.353 A 
HETATM    5  O1  UNL     1      -3.181  -1.052  -1.824  1.00  0.00    -0.245 OA
HETATM    6  N5  UNL     1      -2.632   0.360  -0.024  1.00  0.00    -0.235 N 
ATOM      7  H5  UNL     1      -3.539   0.787   0.166  1.00  0.00     0.192 HD
HETATM    8  N6  UNL     1      -1.530   0.618   0.635  1.00  0.00    -0.124 N 
HETATM    9  C5  UNL     1      -1.372   1.532   1.734  1.00  0.00     0.197 C 
ENDROOT
BRANCH   1  10
HETATM   10  N3  UNL     1       0.657  -0.155   0.473  1.00  0.00    -0.162 N 
HETATM   11  C2  UNL     1       1.636  -0.978  -0.146  1.00  0.00     0.202 C 
HETATM   12  N1  UNL     1       2.667  -0.414  -0.664  1.00  0.00    -0.368 N 
HETATM   13  N2  UNL     1       1.530  -2.388  -0.221  1.00  0.00    -0.063 NA
HETATM   14  C1  UNL     1       2.830   1.023  -0.619  1.00  0.00     0.148 C 
ATOM     15  H1  UNL     1       3.381  -0.987  -1.113  1.00  0.00     0.161 HD
ATOM     16  H3  UNL     1       0.941   0.441   1.250  1.00  0.00     0.187 HD
ENDBRANCH   1  10
TORSDOF 1
