REMARK  0 active torsions:
REMARK  status: ('A' for Active; 'I' for Inactive)
ROOT
HETATM    1  C1  UNL     1      -2.319   2.146   0.004  1.00  0.00     0.064 C 
HETATM    2  C2  UNL     1      -1.566   1.047   0.124  1.00  0.00     0.114 C 
HETATM    3  N1  UNL     1      -2.251  -0.191   0.273  1.00  0.00    -0.305 N 
ATOM      4  H1  UNL     1      -3.248  -0.123   0.478  1.00  0.00     0.170 HD
HETATM    5  C3  UNL     1      -1.725  -1.526   0.173  1.00  0.00     0.315 C 
HETATM    6  O1  UNL     1      -2.567  -2.449   0.322  1.00  0.00    -0.262 OA
HETATM    7  C4  UNL     1      -0.363  -1.996  -0.076  1.00  0.00     0.328 C 
HETATM    8  O2  UNL     1      -0.190  -3.215  -0.354  1.00  0.00    -0.261 OA
HETATM    9  N2  UNL     1       0.795  -1.150  -0.024  1.00  0.00    -0.151 N 
ATOM     10  H2  UNL     1       1.685  -1.636  -0.136  1.00  0.00     0.188 HD
HETATM   11  C5  UNL     1       0.904   0.258   0.158  1.00  0.00     0.682 C 
HETATM   12  N3  UNL     1       2.066   0.757   0.411  1.00  0.00    -0.230 N 
ATOM     13  H3  UNL     1       2.124   1.767   0.539  1.00  0.00     0.177 HD
HETATM   14  C6  UNL     1       3.275   0.014   0.527  1.00  0.00     0.165 C 
HETATM   15  N4  UNL     1      -0.153   1.212   0.093  1.00  0.00    -0.177 N 
ATOM     16  H4  UNL     1       0.157   2.180   0.010  1.00  0.00     0.185 HD
ENDROOT
TORSDOF 0
