REMARK  1 active torsions:
REMARK  status: ('A' for Active; 'I' for Inactive)
REMARK    1  A    between atoms: C3_3  and  N1_4 
ROOT
HETATM    1  C1  UNL     1      -3.182   0.149   0.927  1.00  0.00     0.017 C 
HETATM    2  C2  UNL     1      -2.122   0.000   0.370  1.00  0.00    -0.046 C 
HETATM    3  C3  UNL     1      -0.807  -0.176  -0.292  1.00  0.00     0.343 C 
HETATM    4  N2  UNL     1      -0.074  -1.135   0.451  1.00  0.00    -0.292 N 
ATOM      5  H2  UNL     1      -0.673  -1.862   0.843  1.00  0.00     0.168 HD
HETATM    6  C4  UNL     1       1.294  -1.327   0.781  1.00  0.00     0.327 C 
HETATM    7  O1  UNL     1       1.596  -2.431   1.274  1.00  0.00    -0.247 OA
HETATM    8  N3  UNL     1       2.334  -0.397   0.607  1.00  0.00    -0.261 N 
ATOM      9  H3  UNL     1       3.263  -0.715   0.882  1.00  0.00     0.175 HD
HETATM   10  C5  UNL     1       2.260   0.927   0.098  1.00  0.00     0.330 C 
HETATM   11  O2  UNL     1       3.332   1.576   0.035  1.00  0.00    -0.246 OA
HETATM   12  N4  UNL     1       1.129   1.645  -0.361  1.00  0.00    -0.274 N 
ATOM     13  H4  UNL     1       1.280   2.603  -0.678  1.00  0.00     0.173 HD
HETATM   14  C6  UNL     1      -0.198   1.142  -0.416  1.00  0.00     0.295 C 
HETATM   15  O3  UNL     1      -1.047   2.067  -0.623  1.00  0.00    -0.267 OA
ENDROOT
BRANCH   3  16
HETATM   16  N1  UNL     1      -1.082  -0.734  -1.610  1.00  0.00    -0.032 N 
ATOM     17  H13 UNL     1      -1.637  -1.589  -1.580  1.00  0.00     0.279 HD
ATOM     18  H12 UNL     1      -1.739  -0.177  -2.156  1.00  0.00     0.279 HD
ATOM     19  H11 UNL     1      -0.177  -0.855  -2.065  1.00  0.00     0.279 HD
ENDBRANCH   3  16
TORSDOF 1
