REMARK  16 active torsions:
REMARK  status: ('A' for Active; 'I' for Inactive)
REMARK    1  A    between atoms: C2_2  and  C4_4 
REMARK    2  A    between atoms: C4_4  and  C5_5 
REMARK    3  A    between atoms: C5_5  and  C6_6 
REMARK    4  A    between atoms: C6_6  and  C7_7 
REMARK    5  A    between atoms: C7_7  and  C8_8 
REMARK    6  A    between atoms: C8_8  and  C9_9 
REMARK    7  A    between atoms: C10_12  and  O1_13 
REMARK    8  A    between atoms: C11_15  and  C12_16 
REMARK    9  A    between atoms: C15_21  and  O2_22 
REMARK   10  A    between atoms: C23_34  and  C24_35 
REMARK   11  A    between atoms: C24_35  and  C25_36 
REMARK   12  A    between atoms: C28_39  and  O4_40 
REMARK   13  A    between atoms: C29_44  and  C30_45 
REMARK   14  A    between atoms: C30_45  and  C31_46 
REMARK   15  A    between atoms: C31_46  and  N5_47 
REMARK   16  A    between atoms: C33_52  and  C34_53 
ROOT
HETATM    1  C9  UNL     1       2.486   0.208  -0.867  1.00  0.00     0.102 C 
HETATM    2  N1  UNL     1       2.578  -0.937  -1.801  1.00  0.00    -0.331 N 
ATOM      3  H1  UNL     1       2.676  -0.674  -2.782  1.00  0.00     0.168 HD
HETATM    4  C10 UNL     1       2.554  -2.287  -1.578  1.00  0.00     0.164 C 
HETATM    5  C11 UNL     1       1.721  -3.217  -0.843  1.00  0.00     0.065 C 
HETATM    6  N2  UNL     1       0.766  -2.755   0.104  1.00  0.00    -0.340 N 
ATOM      7  H2  UNL     1       1.085  -1.939   0.627  1.00  0.00     0.167 HD
HETATM    8  C15 UNL     1      -0.516  -3.176   0.475  1.00  0.00     0.120 C 
HETATM    9  C16 UNL     1      -1.817  -3.147  -0.213  1.00  0.00     0.073 C 
HETATM   10  C17 UNL     1      -2.418  -4.490  -0.500  1.00  0.00     0.013 C 
HETATM   11  C18 UNL     1      -2.676  -5.364   0.672  1.00  0.00     0.001 C 
HETATM   12  C19 UNL     1      -3.582  -4.646   1.628  1.00  0.00     0.001 C 
HETATM   13  C20 UNL     1      -3.955  -3.298   1.143  1.00  0.00     0.015 C 
HETATM   14  C21 UNL     1      -2.874  -2.413   0.637  1.00  0.00     0.090 C 
HETATM   15  C22 UNL     1      -3.574  -1.431  -0.234  1.00  0.00     0.227 C 
HETATM   16  O3  UNL     1      -3.859  -1.794  -1.405  1.00  0.00    -0.273 OA
HETATM   17  N3  UNL     1      -3.943  -0.110   0.166  1.00  0.00    -0.327 N 
ATOM     18  H3  UNL     1      -4.527   0.431  -0.471  1.00  0.00     0.168 HD
HETATM   19  C23 UNL     1      -3.559   0.500   1.376  1.00  0.00     0.063 C 
HETATM   20  C28 UNL     1      -2.198   1.084   1.474  1.00  0.00     0.163 C 
HETATM   21  N4  UNL     1      -1.132   1.291   0.626  1.00  0.00    -0.337 N 
ATOM     22  H4  UNL     1      -0.537   0.463   0.636  1.00  0.00     0.168 HD
HETATM   23  C29 UNL     1      -0.568   2.250  -0.258  1.00  0.00     0.043 C 
HETATM   24  C33 UNL     1      -0.318   1.867  -1.681  1.00  0.00     0.096 C 
HETATM   25  N8  UNL     1       1.030   1.883  -2.162  1.00  0.00    -0.318 N 
ATOM     26  H8  UNL     1       1.123   2.289  -3.093  1.00  0.00     0.169 HD
HETATM   27  C35 UNL     1       2.262   1.451  -1.612  1.00  0.00     0.272 C 
HETATM   28  O6  UNL     1       3.198   2.311  -1.858  1.00  0.00    -0.266 OA
ENDROOT
BRANCH   1  29
HETATM   29  C8  UNL     1       3.428   0.021   0.176  1.00  0.00     0.031 C 
BRANCH  29  30
HETATM   30  C7  UNL     1       3.758   0.792   1.348  1.00  0.00    -0.024 C 
BRANCH  30  31
HETATM   31  C6  UNL     1       4.344   2.163   1.260  1.00  0.00     0.027 C 
BRANCH  31  32
HETATM   32  C5  UNL     1       5.678   2.276   0.591  1.00  0.00     0.004 C 
BRANCH  32  33
HETATM   33  C4  UNL     1       6.686   1.442   1.345  1.00  0.00     0.004 C 
BRANCH  33  34
HETATM   34  C2  UNL     1       8.065   1.546   0.709  1.00  0.00    -0.023 C 
HETATM   35  C1  UNL     1       9.047   0.695   1.490  1.00  0.00     0.009 C 
HETATM   36  C3  UNL     1       7.991   0.980  -0.694  1.00  0.00     0.009 C 
ENDBRANCH  33  34
ENDBRANCH  32  33
ENDBRANCH  31  32
ENDBRANCH  30  31
ENDBRANCH  29  30
ENDBRANCH   1  29
BRANCH   4  37
HETATM   37  O1  UNL     1       3.549  -2.888  -2.200  1.00  0.00    -0.345 OA
ATOM     38  H1  UNL     1       3.532  -3.825  -2.045  1.00  0.00     0.219 HD
ENDBRANCH   4  37
BRANCH   5  39
HETATM   39  C12 UNL     1       1.218  -4.374  -1.713  1.00  0.00     0.032 C 
HETATM   40  C13 UNL     1       2.356  -5.221  -2.254  1.00  0.00     0.016 C 
HETATM   41  C14 UNL     1       0.519  -3.848  -2.956  1.00  0.00     0.016 C 
ENDBRANCH   5  39
BRANCH  24  42
HETATM   42  C34 UNL     1      -1.109   0.762  -2.235  1.00  0.00     0.290 C 
HETATM   43  O5  UNL     1      -0.656  -0.090  -2.975  1.00  0.00    -0.300 OA
ENDBRANCH  24  42
BRANCH  23  44
HETATM   44  C30 UNL     1      -1.053   3.680  -0.125  1.00  0.00     0.079 C 
BRANCH  44  45
HETATM   45  C31 UNL     1      -2.494   3.924  -0.357  1.00  0.00     0.128 C 
BRANCH  45  46
HETATM   46  N5  UNL     1      -2.755   5.353  -0.208  1.00  0.00    -0.367 N 
HETATM   47  C32 UNL     1      -3.037   6.133  -1.156  1.00  0.00     0.196 C 
HETATM   48  N6  UNL     1      -3.123   5.666  -2.477  1.00  0.00    -0.067 NA
HETATM   49  N7  UNL     1      -3.273   7.502  -0.883  1.00  0.00    -0.067 NA
ATOM     50  H5  UNL     1      -2.705   5.748   0.731  1.00  0.00     0.161 HD
ENDBRANCH  45  46
ENDBRANCH  44  45
ENDBRANCH  23  44
BRANCH   8  51
HETATM   51  O2  UNL     1      -0.661  -3.709   1.658  1.00  0.00    -0.349 OA
ATOM     52  H2  UNL     1      -1.531  -3.995   1.910  1.00  0.00     0.219 HD
ENDBRANCH   8  51
BRANCH  20  53
HETATM   53  O4  UNL     1      -2.045   1.477   2.727  1.00  0.00    -0.345 OA
ATOM     54  H4  UNL     1      -1.174   1.851   2.790  1.00  0.00     0.219 HD
ENDBRANCH  20  53
BRANCH  19  55
HETATM   55  C24 UNL     1      -4.616   1.367   1.978  1.00  0.00     0.065 C 
BRANCH  55  56
HETATM   56  C25 UNL     1      -5.900   0.705   2.348  1.00  0.00    -0.017 C 
HETATM   57  C26 UNL     1      -6.676   0.067   1.258  1.00  0.00     0.010 C 
HETATM   58  C27 UNL     1      -6.776   1.620   3.204  1.00  0.00     0.010 C 
ENDBRANCH  55  56
ENDBRANCH  19  55
TORSDOF 16
