REMARK  13 active torsions:
REMARK  status: ('A' for Active; 'I' for Inactive)
REMARK    1  A    between atoms: C2_2  and  C3_3 
REMARK    2  A    between atoms: C3_3  and  C5_5 
REMARK    3  A    between atoms: C5_5  and  C6_6 
REMARK    4  A    between atoms: C8_11  and  C9_12 
REMARK    5  A    between atoms: C9_12  and  C10_13 
REMARK    6  A    between atoms: C18_24  and  C19_25 
REMARK       I    between atoms: C19_25  and  N3_27 
REMARK    7  A    between atoms: N3_27  and  C20_29 
REMARK    8  A    between atoms: C20_29  and  C22_31 
REMARK       I    between atoms: C22_31  and  N4_33 
REMARK    9  A    between atoms: C25_38  and  C26_39 
REMARK   10  A    between atoms: C26_39  and  C27_40 
REMARK   11  A    between atoms: C30_45  and  O6_46 
REMARK   12  A    between atoms: C31_48  and  C32_49 
REMARK   13  A    between atoms: C35_54  and  O7_55 
ROOT
HETATM    1  C6  UNL     1      -3.523  -0.351  -0.292  1.00  0.00     0.182 C 
HETATM    2  N1  UNL     1      -3.472   1.037  -0.574  1.00  0.00    -0.344 N 
ATOM      3  H1  UNL     1      -4.380   1.469  -0.748  1.00  0.00     0.163 HD
HETATM    4  C7  UNL     1      -2.381   1.916  -0.654  1.00  0.00     0.241 C 
HETATM    5  O1  UNL     1      -2.402   2.818  -1.569  1.00  0.00    -0.271 OA
HETATM    6  C8  UNL     1      -1.171   1.943   0.204  1.00  0.00     0.177 C 
HETATM    7  N2  UNL     1      -0.072   2.651  -0.367  1.00  0.00    -0.344 N 
ATOM      8  H2  UNL     1       0.518   3.122   0.319  1.00  0.00     0.163 HD
HETATM    9  C13 UNL     1       0.355   2.824  -1.708  1.00  0.00     0.247 C 
HETATM   10  O2  UNL     1       0.287   4.029  -2.175  1.00  0.00    -0.268 OA
HETATM   11  C14 UNL     1       0.875   1.871  -2.690  1.00  0.00     0.006 C 
HETATM   12  C15 UNL     1       0.075   1.673  -3.987  1.00  0.00     0.054 C 
HETATM   13  C16 UNL     1       2.042   1.198  -2.562  1.00  0.00     0.013 C 
HETATM   14  C17 UNL     1       3.061   1.179  -1.557  1.00  0.00     0.022 C 
HETATM   15  C18 UNL     1       3.246   0.556  -0.397  1.00  0.00     0.080 C 
HETATM   16  C24 UNL     1       2.364  -0.407   0.209  1.00  0.00     0.187 C 
HETATM   17  O5  UNL     1       1.888  -0.109   1.365  1.00  0.00    -0.290 OA
HETATM   18  C25 UNL     1       1.869  -1.766  -0.275  1.00  0.00     0.159 C 
HETATM   19  N5  UNL     1       0.441  -1.759  -0.208  1.00  0.00    -0.358 N 
ATOM     20  H5  UNL     1       0.119  -1.471   0.716  1.00  0.00     0.162 HD
HETATM   21  C30 UNL     1      -0.624  -2.032  -1.042  1.00  0.00     0.160 C 
HETATM   22  C31 UNL     1      -1.591  -3.117  -1.255  1.00  0.00     0.065 C 
HETATM   23  N6  UNL     1      -2.937  -2.557  -1.568  1.00  0.00    -0.338 N 
ATOM     24  H6  UNL     1      -3.616  -3.229  -1.926  1.00  0.00     0.167 HD
HETATM   25  C35 UNL     1      -3.396  -1.264  -1.444  1.00  0.00     0.143 C 
ENDROOT
BRANCH  15  26
HETATM   26  C19 UNL     1       4.510   0.848   0.370  1.00  0.00     0.256 C 
HETATM   27  O3  UNL     1       4.674   0.270   1.489  1.00  0.00    -0.268 OA
HETATM   28  N3  UNL     1       5.522   1.710  -0.059  1.00  0.00    -0.344 N 
ATOM     29  H3  UNL     1       5.417   2.187  -0.954  1.00  0.00     0.163 HD
BRANCH  28  30
HETATM   30  C20 UNL     1       6.730   1.951   0.737  1.00  0.00     0.172 C 
HETATM   31  C21 UNL     1       7.962   1.409   0.026  1.00  0.00     0.042 C 
BRANCH  30  32
HETATM   32  C22 UNL     1       6.953   3.396   0.910  1.00  0.00     0.239 C 
HETATM   33  O4  UNL     1       6.153   4.214   0.411  1.00  0.00    -0.271 OA
HETATM   34  N4  UNL     1       8.065   3.866   1.636  1.00  0.00    -0.364 N 
HETATM   35  C23 UNL     1       8.312   5.293   1.822  1.00  0.00     0.149 C 
ATOM     36  H4  UNL     1       8.714   3.192   2.042  1.00  0.00     0.161 HD
ENDBRANCH  30  32
ENDBRANCH  28  30
ENDBRANCH  15  26
BRANCH  18  37
HETATM   37  C26 UNL     1       2.546  -2.703   0.745  1.00  0.00     0.037 C 
BRANCH  37  38
HETATM   38  C27 UNL     1       2.263  -4.155   0.528  1.00  0.00    -0.020 C 
HETATM   39  C28 UNL     1       2.713  -4.621  -0.835  1.00  0.00     0.009 C 
HETATM   40  C29 UNL     1       2.925  -5.012   1.601  1.00  0.00     0.009 C 
ENDBRANCH  37  38
ENDBRANCH  18  37
BRANCH  21  41
HETATM   41  O6  UNL     1      -0.947  -1.099  -1.946  1.00  0.00    -0.345 OA
ATOM     42  H6  UNL     1      -1.680  -1.287  -2.520  1.00  0.00     0.219 HD
ENDBRANCH  21  41
BRANCH  22  43
HETATM   43  C32 UNL     1      -1.660  -4.286  -0.400  1.00  0.00     0.032 C 
HETATM   44  C33 UNL     1      -2.801  -5.162  -0.963  1.00  0.00     0.016 C 
HETATM   45  C34 UNL     1      -1.911  -4.130   1.045  1.00  0.00     0.016 C 
ENDBRANCH  22  43
BRANCH   6  46
HETATM   46  C9  UNL     1      -1.467   2.441   1.594  1.00  0.00     0.038 C 
BRANCH  46  47
HETATM   47  C10 UNL     1      -2.042   3.795   1.714  1.00  0.00    -0.020 C 
HETATM   48  C11 UNL     1      -1.220   4.938   1.187  1.00  0.00     0.009 C 
HETATM   49  C12 UNL     1      -2.334   4.162   3.181  1.00  0.00     0.009 C 
ENDBRANCH  46  47
ENDBRANCH   6  46
BRANCH  25  50
HETATM   50  O7  UNL     1      -3.801  -0.723  -2.557  1.00  0.00    -0.348 OA
ATOM     51  H7  UNL     1      -3.719  -1.311  -3.299  1.00  0.00     0.219 HD
ENDBRANCH  25  50
BRANCH   1  52
HETATM   52  C5  UNL     1      -4.605  -0.816   0.604  1.00  0.00     0.009 C 
BRANCH  52  53
HETATM   53  C3  UNL     1      -6.021  -0.625   0.293  1.00  0.00    -0.086 C 
HETATM   54  C4  UNL     1      -6.600   0.749   0.554  1.00  0.00     0.043 C 
BRANCH  53  55
HETATM   55  C2  UNL     1      -6.587  -1.220  -0.948  1.00  0.00     0.029 C 
HETATM   56  C1  UNL     1      -8.111  -1.327  -0.723  1.00  0.00     0.010 C 
ENDBRANCH  53  55
ENDBRANCH  52  53
ENDBRANCH   1  52
TORSDOF 13
