REMARK  14 active torsions:
REMARK  status: ('A' for Active; 'I' for Inactive)
REMARK    1  A    between atoms: C3_3  and  C4_4 
REMARK    2  A    between atoms: C6_9  and  C7_10 
REMARK    3  A    between atoms: C7_10  and  C8_11 
REMARK    4  A    between atoms: C12_17  and  C13_18 
REMARK    5  A    between atoms: C13_18  and  C14_19 
REMARK    6  A    between atoms: C14_19  and  C15_20 
REMARK    7  A    between atoms: C15_20  and  C16_21 
REMARK    8  A    between atoms: C16_21  and  C17_22 
REMARK    9  A    between atoms: C17_22  and  C18_23 
REMARK   10  A    between atoms: C19_28  and  O5_29 
REMARK   11  A    between atoms: C20_31  and  C21_32 
REMARK   12  A    between atoms: C21_32  and  C22_33 
REMARK   13  A    between atoms: C26_40  and  C27_41 
REMARK   14  A    between atoms: C27_41  and  C28_42 
ROOT
HETATM    1  C1  UNL     1      -4.332   3.919  -0.205  1.00  0.00     0.012 C 
HETATM    2  C2  UNL     1      -3.381   3.895  -0.941  1.00  0.00    -0.115 C 
HETATM    3  C3  UNL     1      -2.252   3.895  -1.825  1.00  0.00     0.128 C 
ENDROOT
BRANCH   3   4
HETATM    4  C4  UNL     1      -1.720   2.482  -2.029  1.00  0.00     0.187 C 
HETATM    5  N1  UNL     1      -0.572   2.485  -2.928  1.00  0.00    -0.345 N 
HETATM    6  C5  UNL     1       0.715   2.957  -2.714  1.00  0.00     0.241 C 
ATOM      7  H1  UNL     1      -0.740   2.081  -3.849  1.00  0.00     0.163 HD
HETATM    8  O1  UNL     1       1.128   3.846  -3.548  1.00  0.00    -0.271 OA
HETATM    9  C6  UNL     1       1.701   2.590  -1.665  1.00  0.00     0.179 C 
HETATM   10  N2  UNL     1       1.905   1.159  -1.610  1.00  0.00    -0.338 N 
HETATM   11  C10 UNL     1       1.818   0.546  -2.973  1.00  0.00     0.154 C 
HETATM   12  C11 UNL     1       2.163   0.308  -0.534  1.00  0.00     0.266 C 
HETATM   13  O2  UNL     1       3.155  -0.496  -0.749  1.00  0.00    -0.266 OA
HETATM   14  C12 UNL     1       1.537   0.147   0.773  1.00  0.00     0.079 C 
HETATM   15  N3  UNL     1       0.134  -0.059   0.801  1.00  0.00    -0.338 N 
HETATM   16  C19 UNL     1      -0.662  -1.198   0.962  1.00  0.00     0.139 C 
ATOM     17  H3  UNL     1      -0.405   0.799   0.679  1.00  0.00     0.167 HD
HETATM   18  C20 UNL     1      -0.780  -2.411   0.121  1.00  0.00     0.159 C 
HETATM   19  N4  UNL     1      -2.152  -2.580  -0.366  1.00  0.00    -0.347 N 
HETATM   20  C25 UNL     1      -2.891  -1.750  -1.177  1.00  0.00     0.241 C 
ATOM     21  H4  UNL     1      -2.625  -3.431  -0.061  1.00  0.00     0.163 HD
HETATM   22  O6  UNL     1      -3.419  -2.249  -2.241  1.00  0.00    -0.271 OA
HETATM   23  C26 UNL     1      -3.216  -0.301  -1.048  1.00  0.00     0.181 C 
HETATM   24  N6  UNL     1      -3.101   0.346  -2.346  1.00  0.00    -0.346 N 
HETATM   25  C36 UNL     1      -2.849   1.703  -2.608  1.00  0.00     0.242 C 
ATOM     26  H6  UNL     1      -3.217  -0.256  -3.161  1.00  0.00     0.163 HD
HETATM   27  O7  UNL     1      -3.661   2.301  -3.411  1.00  0.00    -0.271 OA
BRANCH   9  28
HETATM   28  C7  UNL     1       1.543   3.298  -0.382  1.00  0.00     0.035 C 
BRANCH  28  29
HETATM   29  C8  UNL     1       1.666   4.826  -0.554  1.00  0.00    -0.002 C 
HETATM   30  C9  UNL     1       3.014   5.202  -1.108  1.00  0.00     0.005 C 
ENDBRANCH  28  29
ENDBRANCH   9  28
BRANCH  14  31
HETATM   31  C13 UNL     1       2.310  -0.766   1.693  1.00  0.00     0.063 C 
BRANCH  31  32
HETATM   32  C14 UNL     1       3.677  -0.324   2.051  1.00  0.00     0.006 C 
BRANCH  32  33
HETATM   33  C15 UNL     1       4.358  -1.330   2.999  1.00  0.00     0.001 C 
BRANCH  33  34
HETATM   34  C16 UNL     1       5.726  -0.878   3.360  1.00  0.00     0.010 C 
BRANCH  34  35
HETATM   35  C17 UNL     1       6.687  -0.690   2.244  1.00  0.00     0.113 C 
BRANCH  35  36
HETATM   36  C18 UNL     1       7.002  -1.868   1.441  1.00  0.00     0.172 C 
HETATM   37  O3  UNL     1       6.508  -2.980   1.709  1.00  0.00    -0.648 OA
HETATM   38  O4  UNL     1       7.861  -1.766   0.361  1.00  0.00    -0.648 OA
ENDBRANCH  35  36
ENDBRANCH  34  35
ENDBRANCH  33  34
ENDBRANCH  32  33
ENDBRANCH  31  32
ENDBRANCH  14  31
BRANCH  16  39
HETATM   39  O5  UNL     1      -1.456  -1.278   1.994  1.00  0.00    -0.348 OA
ATOM     40  H5  UNL     1      -1.997  -2.052   2.103  1.00  0.00     0.219 HD
ENDBRANCH  16  39
BRANCH  18  41
HETATM   41  C21 UNL     1       0.187  -2.560  -0.986  1.00  0.00     0.037 C 
BRANCH  41  42
HETATM   42  C22 UNL     1      -0.118  -3.884  -1.703  1.00  0.00    -0.020 C 
HETATM   43  C23 UNL     1       0.924  -3.958  -2.828  1.00  0.00     0.009 C 
HETATM   44  C24 UNL     1       0.150  -5.042  -0.754  1.00  0.00     0.009 C 
ENDBRANCH  41  42
ENDBRANCH  18  41
BRANCH  23  45
HETATM   45  C27 UNL     1      -4.734  -0.187  -0.754  1.00  0.00     0.075 C 
BRANCH  45  46
HETATM   46  C28 UNL     1      -5.150  -0.849   0.461  1.00  0.00    -0.028 A 
HETATM   47  C29 UNL     1      -5.787  -2.065   0.554  1.00  0.00     0.096 A 
HETATM   48  N5  UNL     1      -6.011  -2.349   1.873  1.00  0.00    -0.365 N 
HETATM   49  C30 UNL     1      -5.533  -1.342   2.634  1.00  0.00     0.042 A 
ATOM     50  H5  UNL     1      -6.468  -3.190   2.226  1.00  0.00     0.165 HD
HETATM   51  C31 UNL     1      -5.524  -1.168   4.000  1.00  0.00     0.030 A 
HETATM   52  C35 UNL     1      -4.995  -0.405   1.752  1.00  0.00    -0.002 A 
HETATM   53  C32 UNL     1      -4.968  -0.030   4.540  1.00  0.00     0.002 A 
HETATM   54  C33 UNL     1      -4.433   0.910   3.718  1.00  0.00     0.001 A 
HETATM   55  C34 UNL     1      -4.450   0.719   2.354  1.00  0.00     0.014 A 
ENDBRANCH  45  46
ENDBRANCH  23  45
ENDBRANCH   3   4
TORSDOF 14
