REMARK  12 active torsions:
REMARK  status: ('A' for Active; 'I' for Inactive)
REMARK    1  A    between atoms: C6_6  and  C7_7 
REMARK    2  A    between atoms: C7_7  and  C8_8 
REMARK    3  A    between atoms: C10_13  and  C11_14 
REMARK    4  A    between atoms: C11_14  and  C12_15 
REMARK    5  A    between atoms: C12_15  and  C13_16 
REMARK    6  A    between atoms: C13_16  and  N2_17 
REMARK    7  A    between atoms: C16_26  and  C17_27 
REMARK    8  A    between atoms: C17_27  and  C18_28 
REMARK    9  A    between atoms: C26_41  and  C27_42 
REMARK   10  A    between atoms: C27_42  and  C28_43 
REMARK   11  A    between atoms: C28_43  and  C29_44 
REMARK   12  A    between atoms: C29_44  and  C30_45 
ROOT
HETATM    1  C8  UNL     1      -1.367   1.354   0.636  1.00  0.00     0.063 C 
HETATM    2  N1  UNL     1      -0.256   1.136   1.500  1.00  0.00    -0.325 N 
ATOM      3  H1  UNL     1      -0.400   1.527   2.431  1.00  0.00     0.168 HD
HETATM    4  C9  UNL     1       0.975   0.515   1.367  1.00  0.00     0.244 C 
HETATM    5  O1  UNL     1       1.314  -0.310   2.305  1.00  0.00    -0.271 OA
HETATM    6  C10 UNL     1       2.022   0.617   0.322  1.00  0.00     0.177 C 
HETATM    7  N5  UNL     1       1.851  -0.292  -0.750  1.00  0.00    -0.346 N 
ATOM      8  H5  UNL     1       1.228   0.067  -1.473  1.00  0.00     0.163 HD
HETATM    9  C15 UNL     1       2.339  -1.567  -1.046  1.00  0.00     0.241 C 
HETATM   10  O2  UNL     1       2.742  -1.685  -2.270  1.00  0.00    -0.271 OA
HETATM   11  C16 UNL     1       2.470  -2.764  -0.237  1.00  0.00     0.177 C 
HETATM   12  N6  UNL     1       1.673  -3.909  -0.621  1.00  0.00    -0.346 N 
ATOM     13  H6  UNL     1       2.173  -4.798  -0.649  1.00  0.00     0.163 HD
HETATM   14  C21 UNL     1       0.321  -3.976  -0.959  1.00  0.00     0.240 C 
HETATM   15  O3  UNL     1      -0.406  -4.876  -0.391  1.00  0.00    -0.271 OA
HETATM   16  C22 UNL     1      -0.440  -3.137  -1.912  1.00  0.00     0.174 C 
HETATM   17  C23 UNL     1      -0.387  -3.773  -3.322  1.00  0.00     0.042 C 
HETATM   18  N7  UNL     1      -1.838  -3.037  -1.502  1.00  0.00    -0.343 N 
HETATM   19  C24 UNL     1      -2.661  -4.205  -1.867  1.00  0.00     0.153 C 
HETATM   20  C25 UNL     1      -2.438  -1.980  -0.825  1.00  0.00     0.232 C 
HETATM   21  O4  UNL     1      -3.591  -1.593  -1.236  1.00  0.00    -0.272 OA
HETATM   22  C26 UNL     1      -1.892  -1.230   0.343  1.00  0.00     0.154 C 
HETATM   23  C31 UNL     1      -2.204   0.216   0.304  1.00  0.00     0.185 C 
HETATM   24  O5  UNL     1      -3.370   0.442  -0.071  1.00  0.00    -0.290 OA
ENDROOT
BRANCH   1  25
HETATM   25  C7  UNL     1      -1.152   2.305  -0.472  1.00  0.00     0.100 C 
BRANCH  25  26
HETATM   26  C6  UNL     1      -2.254   2.590  -1.397  1.00  0.00    -0.040 A 
HETATM   27  C4  UNL     1      -2.509   1.936  -2.577  1.00  0.00    -0.054 A 
HETATM   28  C3  UNL     1      -3.640   2.240  -3.355  1.00  0.00     0.014 A 
HETATM   29  C5  UNL     1      -1.583   0.914  -3.160  1.00  0.00     0.049 C 
HETATM   30  C2  UNL     1      -4.534   3.203  -2.969  1.00  0.00    -0.055 A 
HETATM   31  C1  UNL     1      -5.742   3.549  -3.768  1.00  0.00     0.049 C 
HETATM   32  C34 UNL     1      -4.264   3.851  -1.785  1.00  0.00    -0.050 A 
HETATM   33  C32 UNL     1      -3.168   3.577  -1.000  1.00  0.00    -0.048 A 
HETATM   34  C35 UNL     1      -5.227   4.903  -1.346  1.00  0.00     0.049 C 
HETATM   35  C33 UNL     1      -3.006   4.360   0.261  1.00  0.00     0.049 C 
ENDBRANCH  25  26
ENDBRANCH   1  25
BRANCH  22  36
HETATM   36  C27 UNL     1      -2.624  -1.814   1.537  1.00  0.00     0.022 C 
BRANCH  36  37
HETATM   37  C28 UNL     1      -2.278  -1.243   2.854  1.00  0.00     0.008 C 
BRANCH  37  38
HETATM   38  C29 UNL     1      -3.089  -1.935   3.965  1.00  0.00     0.072 C 
BRANCH  38  39
HETATM   39  C30 UNL     1      -2.753  -1.376   5.282  1.00  0.00     0.086 C 
HETATM   40  N8  UNL     1      -3.643  -0.812   6.022  1.00  0.00    -0.391 N 
ATOM     41  H82 UNL     1      -4.605  -0.749   5.689  1.00  0.00     0.157 HD
ATOM     42  H81 UNL     1      -3.410  -0.424   6.936  1.00  0.00     0.157 HD
HETATM   43  N9  UNL     1      -1.417  -1.464   5.744  1.00  0.00    -0.088 NA
ENDBRANCH  38  39
ENDBRANCH  37  38
ENDBRANCH  36  37
ENDBRANCH  22  36
BRANCH   6  44
HETATM   44  C11 UNL     1       3.415   0.584   0.932  1.00  0.00     0.036 C 
BRANCH  44  45
HETATM   45  C12 UNL     1       3.554   1.737   1.884  1.00  0.00     0.022 C 
BRANCH  45  46
HETATM   46  C13 UNL     1       3.388   3.093   1.287  1.00  0.00     0.122 C 
BRANCH  46  47
HETATM   47  N2  UNL     1       3.574   4.142   2.312  1.00  0.00    -0.367 N 
HETATM   48  C14 UNL     1       4.726   4.720   2.289  1.00  0.00     0.196 C 
HETATM   49  N3  UNL     1       5.764   4.408   1.374  1.00  0.00    -0.067 NA
HETATM   50  N4  UNL     1       4.968   5.741   3.248  1.00  0.00    -0.067 NA
ATOM     51  H2  UNL     1       2.848   4.389   2.984  1.00  0.00     0.161 HD
ENDBRANCH  46  47
ENDBRANCH  45  46
ENDBRANCH  44  45
ENDBRANCH   6  44
BRANCH  11  52
HETATM   52  C17 UNL     1       3.911  -3.131  -0.078  1.00  0.00     0.038 C 
BRANCH  52  53
HETATM   53  C18 UNL     1       4.732  -3.423  -1.266  1.00  0.00    -0.020 C 
HETATM   54  C19 UNL     1       6.186  -3.782  -0.835  1.00  0.00     0.009 C 
HETATM   55  C20 UNL     1       4.307  -4.578  -2.120  1.00  0.00     0.009 C 
ENDBRANCH  52  53
ENDBRANCH  11  52
TORSDOF 12
