REMARK  3 active torsions:
REMARK  status: ('A' for Active; 'I' for Inactive)
REMARK    1  A    between atoms: O1_2  and  C2_3 
REMARK    2  A    between atoms: C4_9  and  C5_10 
REMARK    3  A    between atoms: N3_11  and  N4_13 
ROOT
HETATM    1  C2  UNL     1      -1.966  -0.355  -0.108  1.00  0.00     0.114 A 
HETATM    2  C3  UNL     1      -2.805  -1.275   0.483  1.00  0.00     0.146 A 
HETATM    3  N1  UNL     1      -2.084  -2.378   0.782  1.00  0.00    -0.309 N 
ATOM      4  H1  UNL     1      -2.445  -3.222   1.227  1.00  0.00     0.186 HD
HETATM    5  N2  UNL     1      -0.848  -2.184   0.406  1.00  0.00    -0.297 N 
ATOM      6  H2  UNL     1      -0.089  -2.857   0.513  1.00  0.00     0.187 HD
HETATM    7  C4  UNL     1      -0.726  -0.951  -0.148  1.00  0.00     0.099 A 
ENDROOT
BRANCH   7   8
HETATM    8  C5  UNL     1       0.517  -0.407  -0.674  1.00  0.00     0.141 C 
HETATM    9  N3  UNL     1       1.601  -1.100  -0.636  1.00  0.00    -0.307 N 
ATOM     10  H3  UNL     1       1.569  -2.035  -0.231  1.00  0.00     0.186 HD
BRANCH   9  11
HETATM   11  N4  UNL     1       2.819  -0.626  -1.126  1.00  0.00    -0.276 N 
HETATM   12  C6  UNL     1       3.424   0.281  -0.454  1.00  0.00     0.215 C 
HETATM   13  N5  UNL     1       2.891   0.798   0.750  1.00  0.00    -0.065 NA
HETATM   14  N6  UNL     1       4.661   0.768  -0.944  1.00  0.00    -0.065 NA
ATOM     15  H4  UNL     1       3.215  -0.991  -1.992  1.00  0.00     0.189 HD
ENDBRANCH   9  11
ENDBRANCH   7   8
BRANCH   1  16
HETATM   16  O1  UNL     1      -2.259   0.895  -0.570  1.00  0.00    -0.352 OA
HETATM   17  C1  UNL     1      -3.514   1.507  -0.534  1.00  0.00     0.210 C 
ENDBRANCH   1  16
TORSDOF 3
