REMARK  7 active torsions:
REMARK  status: ('A' for Active; 'I' for Inactive)
REMARK    1  A    between atoms: C2_2  and  C3_3 
REMARK    2  A    between atoms: C3_3  and  C4_4 
REMARK    3  A    between atoms: C4_4  and  C5_5 
REMARK    4  A    between atoms: C5_5  and  N1_6 
REMARK    5  A    between atoms: C6_11  and  C7_12 
REMARK    6  A    between atoms: C7_12  and  N4_13 
REMARK    7  A    between atoms: C8_17  and  N5_18 
ROOT
HETATM    1  N1  UNL     1       0.487  -0.943  -0.041  1.00  0.00    -0.235 N 
HETATM    2  N2  UNL     1       0.777  -1.436   1.111  1.00  0.00    -0.234 N 
ATOM      3  H2  UNL     1       0.200  -2.134   1.580  1.00  0.00     0.209 HD
HETATM    4  N3  UNL     1       1.906  -0.948   1.636  1.00  0.00    -0.285 N 
ATOM      5  H3  UNL     1       2.305  -1.214   2.536  1.00  0.00     0.188 HD
HETATM    6  C6  UNL     1       2.414  -0.074   0.806  1.00  0.00     0.098 A 
HETATM    7  C8  UNL     1       1.516  -0.068  -0.270  1.00  0.00     0.147 A 
ENDROOT
BRANCH   1   8
HETATM    8  C5  UNL     1      -0.650  -1.007  -0.884  1.00  0.00     0.120 C 
BRANCH   8   9
HETATM    9  C4  UNL     1      -1.936  -0.911  -0.233  1.00  0.00     0.019 C 
BRANCH   9  10
HETATM   10  C3  UNL     1      -2.797   0.029  -0.171  1.00  0.00     0.001 C 
BRANCH  10  11
HETATM   11  C2  UNL     1      -4.041  -0.097   0.532  1.00  0.00    -0.010 C 
HETATM   12  C1  UNL     1      -4.908   0.888   0.626  1.00  0.00     0.011 C 
ENDBRANCH  10  11
ENDBRANCH   9  10
ENDBRANCH   8   9
ENDBRANCH   1   8
BRANCH   7  13
HETATM   13  N5  UNL     1       1.671   0.707  -1.274  1.00  0.00    -0.382 N 
ATOM     14  H52 UNL     1       1.017   0.711  -2.057  1.00  0.00     0.157 HD
ATOM     15  H51 UNL     1       2.437   1.358  -1.444  1.00  0.00     0.157 HD
ENDBRANCH   7  13
BRANCH   6  16
HETATM   16  C7  UNL     1       3.728   0.563   0.761  1.00  0.00     0.292 C 
BRANCH  16  17
HETATM   17  N4  UNL     1       4.015   1.661   1.662  1.00  0.00    -0.074 N 
ATOM     18  H43 UNL     1       3.300   2.378   1.541  1.00  0.00     0.274 HD
ATOM     19  H42 UNL     1       3.833   1.355   2.618  1.00  0.00     0.274 HD
ATOM     20  H41 UNL     1       4.932   2.106   1.631  1.00  0.00     0.274 HD
ENDBRANCH  16  17
ENDBRANCH   6  16
TORSDOF 7
