REMARK  7 active torsions:
REMARK  status: ('A' for Active; 'I' for Inactive)
REMARK    1  A    between atoms: N1_1  and  C1_5 
REMARK    2  A    between atoms: C1_5  and  C2_6 
REMARK    3  A    between atoms: C2_6  and  N2_7 
REMARK    4  A    between atoms: C5_10  and  N3_11 
REMARK    5  A    between atoms: C5_10  and  C6_15 
REMARK    6  A    between atoms: C6_15  and  C7_16 
REMARK    7  A    between atoms: C7_16  and  N4_17 
ROOT
HETATM    1  N2  UNL     1      -1.459   0.079   0.180  1.00  0.00     0.090 N 
HETATM    2  C3  UNL     1      -0.966  -0.395  -1.064  1.00  0.00     0.275 C 
HETATM    3  C4  UNL     1       0.223  -1.272  -0.879  1.00  0.00     0.069 C 
HETATM    4  C5  UNL     1       1.306  -0.700   0.021  1.00  0.00     0.128 C 
HETATM    5  C8  UNL     1       0.930   0.678   0.433  1.00  0.00     0.069 C 
HETATM    6  C9  UNL     1      -0.485   0.719   0.997  1.00  0.00     0.275 C 
ENDROOT
BRANCH   4   7
HETATM    7  N3  UNL     1       1.390  -1.570   1.190  1.00  0.00    -0.070 N 
ATOM      8  H33 UNL     1       0.496  -1.691   1.665  1.00  0.00     0.275 HD
ATOM      9  H32 UNL     1       1.543  -2.550   0.951  1.00  0.00     0.275 HD
ATOM     10  H31 UNL     1       2.117  -1.186   1.794  1.00  0.00     0.275 HD
ENDBRANCH   4   7
BRANCH   4  11
HETATM   11  C6  UNL     1       2.625  -0.694  -0.703  1.00  0.00     0.066 C 
BRANCH  11  12
HETATM   12  C7  UNL     1       3.811  -0.186   0.004  1.00  0.00     0.232 C 
BRANCH  12  13
HETATM   13  N4  UNL     1       3.823   1.169   0.418  1.00  0.00    -0.079 N 
ATOM     14  H43 UNL     1       3.639   1.764  -0.390  1.00  0.00     0.274 HD
ATOM     15  H42 UNL     1       2.996   1.349   0.987  1.00  0.00     0.274 HD
ATOM     16  H41 UNL     1       4.645   1.521   0.908  1.00  0.00     0.274 HD
ENDBRANCH  12  13
ENDBRANCH  11  12
ENDBRANCH   4  11
BRANCH   1  17
HETATM   17  C2  UNL     1      -2.671   0.800   0.175  1.00  0.00     0.299 C 
BRANCH  17  18
HETATM   18  C1  UNL     1      -3.890  -0.018  -0.166  1.00  0.00     0.259 C 
BRANCH  18  19
HETATM   19  N1  UNL     1      -5.036   0.869  -0.116  1.00  0.00    -0.078 N 
ATOM     20  H13 UNL     1      -5.122   1.359   0.775  1.00  0.00     0.274 HD
ATOM     21  H12 UNL     1      -4.929   1.691  -0.710  1.00  0.00     0.274 HD
ATOM     22  H11 UNL     1      -5.861   0.315  -0.347  1.00  0.00     0.274 HD
ENDBRANCH  18  19
ENDBRANCH  17  18
ENDBRANCH   1  17
TORSDOF 7
