REMARK  12 active torsions:
REMARK  status: ('A' for Active; 'I' for Inactive)
REMARK    1  A    between atoms: C1_4  and  N2_5 
REMARK    2  A    between atoms: C1_4  and  C20_47 
REMARK    3  A    between atoms: N2_5  and  C2_7 
REMARK    4  A    between atoms: C5_10  and  N3_11 
REMARK    5  A    between atoms: N3_11  and  C6_13 
REMARK    6  A    between atoms: C7_16  and  N5_17 
REMARK    7  A    between atoms: C10_20  and  N6_21 
REMARK    8  A    between atoms: C12_28  and  N8_29 
REMARK    9  A    between atoms: C14_31  and  N9_32 
REMARK   10  A    between atoms: C16_37  and  N10_38 
REMARK   11  A    between atoms: C26_53  and  N12_54 
REMARK   12  A    between atoms: N12_54  and  O1_56 
ROOT
HETATM    1  C6  UNL     1      -1.025   1.099  -0.114  1.00  0.00     0.711 A 
HETATM    2  N4  UNL     1      -1.323  -0.188  -0.031  1.00  0.00    -0.021 N 
ATOM      3  H4  UNL     1      -0.552  -0.855   0.015  1.00  0.00     0.203 HD
HETATM    4  C7  UNL     1      -2.577  -0.673  -0.003  1.00  0.00     0.709 A 
HETATM    5  N7  UNL     1      -3.569   0.221  -0.065  1.00  0.00    -0.021 N 
ATOM      6  H7  UNL     1      -4.534  -0.108  -0.046  1.00  0.00     0.203 HD
HETATM    7  C12 UNL     1      -3.332   1.538  -0.151  1.00  0.00     0.709 A 
HETATM    8  N11 UNL     1      -2.057   1.973  -0.175  1.00  0.00    -0.021 N 
ATOM      9  H11 UNL     1      -1.867   2.973  -0.240  1.00  0.00     0.203 HD
ENDROOT
BRANCH   1  10
HETATM   10  N3  UNL     1       0.198   1.476  -0.135  1.00  0.00    -0.191 N 
ATOM     11  H3  UNL     1       0.427   2.468  -0.200  1.00  0.00     0.184 HD
BRANCH  10  12
HETATM   12  C5  UNL     1       1.239   0.503  -0.067  1.00  0.00     0.049 A 
HETATM   13  C4  UNL     1       1.381  -0.289   1.065  1.00  0.00     0.032 A 
HETATM   14  C3  UNL     1       2.381  -1.213   1.112  1.00  0.00     0.032 A 
HETATM   15  C2  UNL     1       3.282  -1.419   0.088  1.00  0.00     0.033 A 
HETATM   16  C19 UNL     1       3.119  -0.617  -1.028  1.00  0.00     0.032 A 
HETATM   17  C18 UNL     1       2.120   0.327  -1.110  1.00  0.00     0.032 A 
BRANCH  15  18
HETATM   18  N2  UNL     1       4.316  -2.389   0.162  1.00  0.00    -0.342 N 
ATOM     19  H2  UNL     1       4.392  -2.954   1.008  1.00  0.00     0.167 HD
BRANCH  18  20
HETATM   20  C1  UNL     1       5.242  -2.609  -0.876  1.00  0.00     0.109 C 
HETATM   21  N1  UNL     1       4.999  -3.441  -1.831  1.00  0.00    -0.385 N 
ATOM     22  H12 UNL     1       4.114  -3.948  -1.827  1.00  0.00     0.157 HD
ATOM     23  H11 UNL     1       5.670  -3.600  -2.583  1.00  0.00     0.157 HD
BRANCH  20  24
HETATM   24  C20 UNL     1       6.495  -1.892  -0.882  1.00  0.00     0.008 A 
HETATM   25  C21 UNL     1       7.404  -2.099  -1.889  1.00  0.00     0.016 A 
HETATM   26  C22 UNL     1       8.611  -1.446  -1.945  1.00  0.00     0.009 A 
HETATM   27  C23 UNL     1       8.904  -0.528  -0.910  1.00  0.00    -0.040 A 
HETATM   28  C24 UNL     1       8.043  -0.287   0.105  1.00  0.00    -0.004 A 
HETATM   29  C27 UNL     1       9.873   0.432  -0.355  1.00  0.00     0.099 A 
HETATM   30  C25 UNL     1       6.821  -0.990   0.104  1.00  0.00     0.029 A 
HETATM   31  C26 UNL     1       8.923   0.668   0.723  1.00  0.00     0.047 A 
BRANCH  31  32
HETATM   32  N12 UNL     1       8.921   1.427   1.772  1.00  0.00    -0.272 N 
ATOM     33  H12 UNL     1       9.710   2.037   1.988  1.00  0.00     0.194 HD
BRANCH  32  34
HETATM   34  O1  UNL     1       7.814   1.377   2.582  1.00  0.00    -0.290 OA
ATOM     35  H1  UNL     1       7.813   1.934   3.352  1.00  0.00     0.244 HD
ENDBRANCH  32  34
ENDBRANCH  31  32
ENDBRANCH  20  24
ENDBRANCH  18  20
ENDBRANCH  15  18
ENDBRANCH  10  12
ENDBRANCH   1  10
BRANCH   4  36
HETATM   36  N5  UNL     1      -2.792  -2.066   0.088  1.00  0.00    -0.215 N 
HETATM   37  C8  UNL     1      -1.775  -3.091   0.158  1.00  0.00     0.143 C 
HETATM   38  C9  UNL     1      -2.499  -4.308   0.656  1.00  0.00     0.055 C 
HETATM   39  C10 UNL     1      -3.866  -4.161   0.029  1.00  0.00     0.203 C 
HETATM   40  C11 UNL     1      -4.103  -2.681   0.124  1.00  0.00     0.173 C 
BRANCH  39  41
HETATM   41  N6  UNL     1      -3.849  -4.610  -1.335  1.00  0.00    -0.073 N 
ATOM     42  H63 UNL     1      -3.130  -4.135  -1.881  1.00  0.00     0.274 HD
ATOM     43  H62 UNL     1      -3.497  -5.564  -1.415  1.00  0.00     0.274 HD
ATOM     44  H61 UNL     1      -4.772  -4.511  -1.758  1.00  0.00     0.274 HD
ENDBRANCH  39  41
ENDBRANCH   4  36
BRANCH   7  45
HETATM   45  N8  UNL     1      -4.373   2.504  -0.218  1.00  0.00    -0.213 N 
HETATM   46  C13 UNL     1      -5.740   2.029  -0.191  1.00  0.00     0.174 C 
HETATM   47  C14 UNL     1      -6.646   3.237  -0.108  1.00  0.00     0.204 C 
HETATM   48  C15 UNL     1      -6.180   4.052   1.100  1.00  0.00     0.069 C 
HETATM   49  C16 UNL     1      -4.817   4.652   0.834  1.00  0.00     0.204 C 
HETATM   50  C17 UNL     1      -4.111   3.923  -0.310  1.00  0.00     0.174 C 
BRANCH  47  51
HETATM   51  N9  UNL     1      -8.023   2.896   0.119  1.00  0.00    -0.073 N 
ATOM     52  H93 UNL     1      -8.356   2.240  -0.588  1.00  0.00     0.274 HD
ATOM     53  H92 UNL     1      -8.120   2.311   0.949  1.00  0.00     0.274 HD
ATOM     54  H91 UNL     1      -8.634   3.711   0.175  1.00  0.00     0.274 HD
ENDBRANCH  47  51
BRANCH  49  55
HETATM   55  N10 UNL     1      -4.999   6.017   0.424  1.00  0.00    -0.073 N 
ATOM     56 3H10 UNL     1      -5.631   6.108  -0.372  1.00  0.00     0.274 HD
ATOM     57 2H10 UNL     1      -5.543   6.560   1.095  1.00  0.00     0.274 HD
ATOM     58 1H10 UNL     1      -4.080   6.422   0.245  1.00  0.00     0.274 HD
ENDBRANCH  49  55
ENDBRANCH   7  45
TORSDOF 12
