REMARK  7 active torsions:
REMARK  status: ('A' for Active; 'I' for Inactive)
REMARK       I    between atoms: C1_4  and  N3_6 
REMARK    1  A    between atoms: N3_6  and  C2_8 
REMARK    2  A    between atoms: C6_17  and  N7_18 
REMARK    3  A    between atoms: C7_20  and  C8_21 
REMARK    4  A    between atoms: C10_23  and  N8_24 
REMARK    5  A    between atoms: C13_29  and  O3_30 
REMARK    6  A    between atoms: N10_35  and  C15_37 
REMARK    7  A    between atoms: C18_40  and  S1_41 
ROOT
HETATM    1  C2  UNL     1      -0.757   4.657  -0.113  1.00  0.00     0.687 A 
HETATM    2  N4  UNL     1       0.303   3.971  -0.585  1.00  0.00    -0.175 N 
ATOM      3  H4  UNL     1       0.894   4.389  -1.304  1.00  0.00     0.186 HD
HETATM    4  C3  UNL     1       0.591   2.744  -0.120  1.00  0.00     0.150 A 
HETATM    5  C4  UNL     1      -0.189   2.152   0.853  1.00  0.00     0.071 A 
HETATM    6  C5  UNL     1      -1.263   2.882   1.311  1.00  0.00     0.145 A 
HETATM    7  N5  UNL     1      -2.156   2.407   2.310  1.00  0.00    -0.081 NA
HETATM    8  N6  UNL     1      -1.533   4.128   0.821  1.00  0.00    -0.178 N 
ATOM      9  H6  UNL     1      -2.333   4.652   1.175  1.00  0.00     0.185 HD
HETATM   10  C6  UNL     1       0.088   0.817   1.399  1.00  0.00     0.240 A 
HETATM   11  N9  UNL     1       1.238   0.184   0.787  1.00  0.00    -0.200 N 
ATOM     12  H9  UNL     1       1.472  -0.757   1.102  1.00  0.00     0.180 HD
HETATM   13  C14 UNL     1       2.062   0.751  -0.204  1.00  0.00     0.682 A 
HETATM   14  N10 UNL     1       3.092   0.219  -0.740  1.00  0.00    -0.192 N 
ATOM     15  H10 UNL     1       3.564   0.787  -1.444  1.00  0.00     0.184 HD
HETATM   16  N11 UNL     1       1.720   2.075  -0.668  1.00  0.00    -0.175 N 
ATOM     17  H11 UNL     1       2.286   2.528  -1.386  1.00  0.00     0.186 HD
ENDROOT
BRANCH  10  18
HETATM   18  N7  UNL     1      -1.003  -0.099   1.295  1.00  0.00    -0.373 N 
HETATM   19  C7  UNL     1      -1.454  -0.635   0.260  1.00  0.00     0.099 C 
ATOM     20  H7  UNL     1      -1.469  -0.345   2.168  1.00  0.00     0.161 HD
BRANCH  19  21
HETATM   21  C8  UNL     1      -2.558  -1.565   0.141  1.00  0.00     0.015 A 
HETATM   22  C9  UNL     1      -2.910  -2.055  -1.125  1.00  0.00     0.051 A 
HETATM   23  C10 UNL     1      -3.933  -2.937  -1.350  1.00  0.00     0.103 A 
HETATM   24  C11 UNL     1      -4.631  -3.339  -0.230  1.00  0.00     0.039 A 
HETATM   25  C12 UNL     1      -4.342  -2.904   1.020  1.00  0.00     0.040 A 
HETATM   26  C13 UNL     1      -3.278  -1.990   1.233  1.00  0.00     0.077 A 
BRANCH  23  27
HETATM   27  N8  UNL     1      -4.278  -3.424  -2.637  1.00  0.00    -0.116 N 
HETATM   28  O1  UNL     1      -5.214  -4.219  -2.758  1.00  0.00    -0.532 OA
HETATM   29  O2  UNL     1      -3.608  -3.047  -3.776  1.00  0.00    -0.532 OA
ENDBRANCH  23  27
BRANCH  26  30
HETATM   30  O3  UNL     1      -3.059  -1.609   2.507  1.00  0.00    -0.360 OA
ATOM     31  H3  UNL     1      -3.556  -1.903   3.261  1.00  0.00     0.217 HD
ENDBRANCH  26  30
ENDBRANCH  19  21
ENDBRANCH  10  18
BRANCH  14  32
HETATM   32  C15 UNL     1       3.662  -1.032  -0.496  1.00  0.00     0.049 A 
HETATM   33  C16 UNL     1       3.975  -1.546   0.748  1.00  0.00     0.031 A 
HETATM   34  C17 UNL     1       4.531  -2.804   0.832  1.00  0.00     0.028 A 
HETATM   35  C18 UNL     1       4.798  -3.592  -0.268  1.00  0.00     0.080 A 
HETATM   36  C19 UNL     1       4.472  -3.044  -1.497  1.00  0.00     0.028 A 
HETATM   37  C20 UNL     1       3.923  -1.810  -1.632  1.00  0.00     0.031 A 
BRANCH  35  38
HETATM   38  S1  UNL     1       5.498  -5.178  -0.193  1.00  0.00     0.137 S 
HETATM   39  O4  UNL     1       5.027  -5.956  -1.413  1.00  0.00    -0.591 OA
HETATM   40  O5  UNL     1       5.026  -5.957   1.005  1.00  0.00    -0.591 OA
HETATM   41  O6  UNL     1       7.182  -5.140  -0.264  1.00  0.00    -0.591 OA
ENDBRANCH  35  38
ENDBRANCH  14  32
BRANCH   1  42
HETATM   42  N3  UNL     1      -1.000   5.845  -0.592  1.00  0.00    -0.164 N 
HETATM   43  C1  UNL     1      -2.086   6.645  -0.163  1.00  0.00     0.200 C 
HETATM   44  N1  UNL     1      -3.130   6.843  -0.920  1.00  0.00    -0.373 N 
HETATM   45  N2  UNL     1      -2.035   7.245   1.121  1.00  0.00    -0.063 NA
ATOM     46  H12 UNL     1      -3.913   7.420  -0.611  1.00  0.00     0.158 HD
ATOM     47  H11 UNL     1      -3.167   6.411  -1.843  1.00  0.00     0.158 HD
ATOM     48  H3  UNL     1      -0.378   6.216  -1.310  1.00  0.00     0.187 HD
ENDBRANCH   1  42
TORSDOF 7
