REMARK  8 active torsions:
REMARK  status: ('A' for Active; 'I' for Inactive)
REMARK    1  A    between atoms: C2_2  and  C8_12 
REMARK    2  A    between atoms: C3_3  and  C4_4 
REMARK    3  A    between atoms: C4_4  and  C5_5 
REMARK    4  A    between atoms: C8_12  and  O1_13 
REMARK    5  A    between atoms: C8_12  and  C9_15 
REMARK    6  A    between atoms: C9_15  and  N3_16 
REMARK    7  A    between atoms: C9_15  and  C10_20 
REMARK    8  A    between atoms: C10_20  and  N4_21 
ROOT
HETATM    1  C8  UNL     1      -1.512   0.635   1.060  1.00  0.00     0.178 C 
ENDROOT
BRANCH   1   2
HETATM    2  C2  UNL     1      -0.019   0.951   1.136  1.00  0.00    -0.053 C 
HETATM    3  C1  UNL     1       0.339   2.003   0.192  1.00  0.00     0.046 C 
HETATM    4  C3  UNL     1       0.783  -0.232   1.315  1.00  0.00     0.009 C 
BRANCH   4   5
HETATM    5  C4  UNL     1       1.709  -0.885   0.782  1.00  0.00     0.048 C 
BRANCH   5   6
HETATM    6  C5  UNL     1       2.561  -0.831  -0.383  1.00  0.00     0.096 C 
HETATM    7  N1  UNL     1       3.462  -1.802  -0.620  1.00  0.00    -0.375 N 
HETATM    8  C6  UNL     1       4.190  -1.551  -1.824  1.00  0.00     0.141 C 
ATOM      9  H1  UNL     1       3.607  -2.613  -0.018  1.00  0.00     0.161 HD
HETATM   10  C7  UNL     1       3.162  -0.692  -2.606  1.00  0.00     0.141 C 
HETATM   11  N2  UNL     1       2.736   0.104  -1.426  1.00  0.00    -0.375 N 
ATOM     12  H2  UNL     1       2.599   1.114  -1.379  1.00  0.00     0.161 HD
ENDBRANCH   5   6
ENDBRANCH   4   5
ENDBRANCH   1   2
BRANCH   1  13
HETATM   13  O1  UNL     1      -1.768  -0.380   2.011  1.00  0.00    -0.389 OA
ATOM     14  H1  UNL     1      -2.696  -0.576   1.964  1.00  0.00     0.210 HD
ENDBRANCH   1  13
BRANCH   1  15
HETATM   15  C9  UNL     1      -2.015   0.167  -0.246  1.00  0.00     0.241 C 
BRANCH  15  16
HETATM   16  N3  UNL     1      -1.891   1.068  -1.349  1.00  0.00    -0.071 N 
ATOM     17  H33 UNL     1      -2.331   1.957  -1.113  1.00  0.00     0.274 HD
ATOM     18  H32 UNL     1      -0.918   1.359  -1.443  1.00  0.00     0.274 HD
ATOM     19  H31 UNL     1      -2.239   0.745  -2.252  1.00  0.00     0.274 HD
ENDBRANCH  15  16
BRANCH  15  20
HETATM   20  C10 UNL     1      -3.522  -0.091  -0.090  1.00  0.00     0.265 C 
BRANCH  20  21
HETATM   21  N4  UNL     1      -3.823  -1.082   0.896  1.00  0.00    -0.077 N 
ATOM     22  H43 UNL     1      -3.324  -1.950   0.703  1.00  0.00     0.274 HD
ATOM     23  H42 UNL     1      -3.401  -0.842   1.793  1.00  0.00     0.274 HD
ATOM     24  H41 UNL     1      -4.823  -1.253   1.000  1.00  0.00     0.274 HD
ENDBRANCH  20  21
ENDBRANCH  15  20
ENDBRANCH   1  15
TORSDOF 8
