REMARK  7 active torsions:
REMARK  status: ('A' for Active; 'I' for Inactive)
REMARK    1  A    between atoms: N1_1  and  O1_4 
REMARK    2  A    between atoms: O1_4  and  C1_5 
REMARK    3  A    between atoms: C1_5  and  C2_6 
REMARK    4  A    between atoms: C2_6  and  C3_7 
REMARK    5  A    between atoms: C3_7  and  N2_8 
REMARK    6  A    between atoms: N2_8  and  C4_11 
REMARK    7  A    between atoms: C4_11  and  C5_12 
ROOT
HETATM    1  N2  UNL     1      -0.371  -0.791   0.733  1.00  0.00    -0.073 N 
ATOM      2  H21 UNL     1      -0.501  -0.443   1.683  1.00  0.00     0.277 HD
ATOM      3  H22 UNL     1      -0.261  -1.774   0.983  1.00  0.00     0.277 HD
ENDROOT
BRANCH   1   4
HETATM    4  C3  UNL     1       0.780  -0.225   0.051  1.00  0.00     0.234 C 
BRANCH   4   5
HETATM    5  C2  UNL     1       2.044  -0.343   0.866  1.00  0.00     0.056 C 
BRANCH   5   6
HETATM    6  C1  UNL     1       3.138   0.319   0.031  1.00  0.00     0.202 C 
BRANCH   6   7
HETATM    7  O1  UNL     1       4.358   0.296   0.653  1.00  0.00    -0.287 OA
BRANCH   7   8
HETATM    8  N1  UNL     1       5.245   0.913  -0.188  1.00  0.00    -0.311 N 
ATOM      9  H12 UNL     1       5.024   1.310  -1.101  1.00  0.00     0.184 HD
ATOM     10  H11 UNL     1       6.154   0.896   0.275  1.00  0.00     0.184 HD
ENDBRANCH   7   8
ENDBRANCH   6   7
ENDBRANCH   5   6
ENDBRANCH   4   5
ENDBRANCH   1   4
BRANCH   1  11
HETATM   11  C4  UNL     1      -1.503  -0.528  -0.156  1.00  0.00     0.258 C 
BRANCH  11  12
HETATM   12  C5  UNL     1      -2.811  -0.824   0.483  1.00  0.00     0.129 C 
HETATM   13  C6  UNL     1      -4.003  -0.566  -0.405  1.00  0.00     0.159 C 
HETATM   14  S1  UNL     1      -3.498   1.155  -0.256  1.00  0.00     0.112 S 
HETATM   15  O2  UNL     1      -4.793   2.221  -0.214  1.00  0.00    -0.236 OA
HETATM   16  N3  UNL     1      -3.271   0.353   1.271  1.00  0.00    -0.334 N 
ATOM     17  H3  UNL     1      -3.396   0.584   2.257  1.00  0.00     0.170 HD
ENDBRANCH  11  12
ENDBRANCH   1  11
TORSDOF 7
