REMARK  7 active torsions:
REMARK  status: ('A' for Active; 'I' for Inactive)
REMARK    1  A    between atoms: N1_1  and  C1_5 
REMARK    2  A    between atoms: C1_5  and  C2_6 
REMARK    3  A    between atoms: C2_6  and  O1_7 
REMARK    4  A    between atoms: O1_7  and  C3_8 
REMARK    5  A    between atoms: C3_8  and  C4_9 
REMARK    6  A    between atoms: C4_9  and  N2_10 
REMARK    7  A    between atoms: N2_10  and  C5_12 
ROOT
HETATM    1  C5  UNL     1       1.694   0.453   0.664  1.00  0.00     0.182 C 
HETATM    2  C6  UNL     1       1.988  -1.006   0.388  1.00  0.00     0.107 C 
HETATM    3  C7  UNL     1       3.475  -0.999   0.309  1.00  0.00     0.057 A 
HETATM    4  N3  UNL     1       4.596  -1.731   0.434  1.00  0.00    -0.303 N 
ATOM      5  H3  UNL     1       4.624  -2.717   0.694  1.00  0.00     0.186 HD
HETATM    6  N4  UNL     1       5.666  -0.979   0.168  1.00  0.00    -0.309 N 
ATOM      7  H4  UNL     1       6.640  -1.282   0.188  1.00  0.00     0.186 HD
HETATM    8  C8  UNL     1       5.216   0.264  -0.134  1.00  0.00     0.138 A 
HETATM    9  C9  UNL     1       3.844   0.296  -0.057  1.00  0.00     0.071 A 
HETATM   10  N5  UNL     1       2.668   1.092  -0.189  1.00  0.00    -0.366 N 
ATOM     11  H5  UNL     1       2.543   1.928  -0.760  1.00  0.00     0.162 HD
ENDROOT
BRANCH   1  12
HETATM   12  N2  UNL     1       0.337   0.808   0.406  1.00  0.00    -0.399 N 
ATOM     13  H2  UNL     1      -0.297   1.110   1.146  1.00  0.00     0.155 HD
BRANCH  12  14
HETATM   14  C4  UNL     1      -0.071   0.713  -0.950  1.00  0.00     0.142 C 
BRANCH  14  15
HETATM   15  C3  UNL     1      -1.581   0.981  -0.995  1.00  0.00     0.186 C 
BRANCH  15  16
HETATM   16  O1  UNL     1      -2.261   0.045  -0.235  1.00  0.00    -0.388 OA
BRANCH  16  17
HETATM   17  C2  UNL     1      -3.636   0.254  -0.245  1.00  0.00     0.195 C 
BRANCH  17  18
HETATM   18  C1  UNL     1      -4.341  -0.819   0.565  1.00  0.00     0.255 C 
BRANCH  18  19
HETATM   19  N1  UNL     1      -5.761  -0.569   0.528  1.00  0.00    -0.077 N 
ATOM     20  H13 UNL     1      -5.999   0.373   0.838  1.00  0.00     0.274 HD
ATOM     21  H12 UNL     1      -6.120  -0.500  -0.424  1.00  0.00     0.274 HD
ATOM     22  H11 UNL     1      -6.235  -1.290   1.072  1.00  0.00     0.274 HD
ENDBRANCH  18  19
ENDBRANCH  17  18
ENDBRANCH  16  17
ENDBRANCH  15  16
ENDBRANCH  14  15
ENDBRANCH  12  14
ENDBRANCH   1  12
TORSDOF 7
