REMARK  1 active torsions:
REMARK  status: ('A' for Active; 'I' for Inactive)
REMARK    1  A    between atoms: C4_5  and  C5_6 
ROOT
HETATM    1  C5  UNL     1       0.375  -0.586  -0.694  1.00  0.00     0.024 C 
HETATM    2  C6  UNL     1      -0.824  -0.280  -0.362  1.00  0.00    -0.010 A 
HETATM    3  C7  UNL     1      -1.964  -0.822  -1.169  1.00  0.00     0.002 A 
HETATM    4  C8  UNL     1      -1.741  -1.597  -2.258  1.00  0.00     0.014 A 
HETATM    5  C9  UNL     1      -2.780  -2.121  -3.043  1.00  0.00     0.001 A 
HETATM    6  C10 UNL     1      -4.058  -1.817  -2.662  1.00  0.00     0.002 A 
HETATM    7  C11 UNL     1      -4.351  -1.046  -1.580  1.00  0.00     0.030 A 
HETATM    8  C12 UNL     1      -3.280  -0.548  -0.832  1.00  0.00     0.043 A 
HETATM    9  N2  UNL     1      -3.584   0.254   0.289  1.00  0.00    -0.355 N 
ATOM     10  H2  UNL     1      -4.557   0.448   0.524  1.00  0.00     0.166 HD
HETATM   11  C13 UNL     1      -2.553   0.788   1.084  1.00  0.00     0.043 A 
HETATM   12  C14 UNL     1      -2.895   1.532   2.161  1.00  0.00     0.030 A 
HETATM   13  C15 UNL     1      -1.952   2.076   3.011  1.00  0.00     0.002 A 
HETATM   14  C16 UNL     1      -0.645   1.856   2.754  1.00  0.00     0.001 A 
HETATM   15  C17 UNL     1      -0.284   1.090   1.642  1.00  0.00     0.014 A 
HETATM   16  C18 UNL     1      -1.226   0.540   0.784  1.00  0.00     0.002 A 
ENDROOT
BRANCH   1  17
HETATM   17  C4  UNL     1       1.723  -0.344  -0.293  1.00  0.00    -0.033 A 
HETATM   18  C3  UNL     1       2.486  -1.220   0.449  1.00  0.00     0.028 A 
HETATM   19  C2  UNL     1       3.800  -0.937   0.692  1.00  0.00     0.090 A 
HETATM   20  N1  UNL     1       4.372   0.177   0.224  1.00  0.00    -0.371 N 
HETATM   21  C1  UNL     1       5.756   0.457   0.499  1.00  0.00     0.154 C 
HETATM   22  C20 UNL     1       3.675   1.074  -0.510  1.00  0.00     0.090 A 
HETATM   23  C19 UNL     1       2.349   0.820  -0.773  1.00  0.00     0.028 A 
ENDBRANCH   1  17
TORSDOF 1
