REMARK  0 active torsions:
REMARK  status: ('A' for Active; 'I' for Inactive)
ROOT
HETATM    1  C1  UNL     1      -0.695  -3.328  -0.827  1.00  0.00     0.044 C 
HETATM    2  C2  UNL     1      -1.372  -2.495  -0.038  1.00  0.00     0.037 A 
HETATM    3  N1  UNL     1      -2.721  -2.986   0.161  1.00  0.00    -0.352 N 
ATOM      4  H1  UNL     1      -2.911  -3.987   0.106  1.00  0.00     0.166 HD
HETATM    5  C3  UNL     1      -3.679  -2.163   0.407  1.00  0.00     0.181 A 
HETATM    6  N2  UNL     1      -3.427  -0.765   0.484  1.00  0.00    -0.351 N 
ATOM      7  H2  UNL     1      -4.208  -0.135   0.670  1.00  0.00     0.166 HD
HETATM    8  C4  UNL     1      -2.133  -0.214   0.312  1.00  0.00     0.057 A 
HETATM    9  C5  UNL     1      -1.055  -1.102   0.060  1.00  0.00     0.031 A 
HETATM   10  C6  UNL     1       0.181  -0.601  -0.152  1.00  0.00     0.019 A 
HETATM   11  C7  UNL     1       1.423  -1.209  -0.148  1.00  0.00     0.004 A 
HETATM   12  C8  UNL     1       1.937  -2.435   0.099  1.00  0.00     0.014 A 
HETATM   13  C9  UNL     1       3.280  -2.701   0.223  1.00  0.00     0.001 A 
HETATM   14  C10 UNL     1       4.202  -1.698   0.106  1.00  0.00     0.002 A 
HETATM   15  C11 UNL     1       3.713  -0.431  -0.133  1.00  0.00     0.030 A 
HETATM   16  C12 UNL     1       2.351  -0.209  -0.251  1.00  0.00     0.045 A 
HETATM   17  N3  UNL     1       1.714   1.015  -0.289  1.00  0.00    -0.349 N 
HETATM   18  C13 UNL     1       2.412   2.272  -0.413  1.00  0.00     0.156 C 
HETATM   19  C14 UNL     1       0.405   0.800  -0.217  1.00  0.00     0.058 A 
HETATM   20  C15 UNL     1      -0.694   1.646  -0.000  1.00  0.00     0.004 A 
HETATM   21  C16 UNL     1      -0.490   3.000  -0.060  1.00  0.00     0.014 A 
HETATM   22  C17 UNL     1      -1.598   3.838   0.176  1.00  0.00     0.001 A 
HETATM   23  C18 UNL     1      -2.851   3.358   0.457  1.00  0.00     0.001 A 
HETATM   24  C19 UNL     1      -3.027   1.968   0.510  1.00  0.00     0.014 A 
HETATM   25  C20 UNL     1      -1.953   1.143   0.281  1.00  0.00     0.004 A 
ENDROOT
TORSDOF 0
