REMARK  12 active torsions:
REMARK  status: ('A' for Active; 'I' for Inactive)
REMARK    1  A    between atoms: C2_2  and  C4_4 
REMARK    2  A    between atoms: C7_9  and  C8_10 
REMARK    3  A    between atoms: C8_10  and  O3_11 
REMARK    4  A    between atoms: C9_13  and  O4_15 
REMARK    5  A    between atoms: C13_21  and  O6_22 
REMARK    6  A    between atoms: O6_22  and  C14_23 
REMARK    7  A    between atoms: C14_23  and  C15_24 
REMARK    8  A    between atoms: C15_24  and  O7_25 
REMARK    9  A    between atoms: C16_27  and  O8_28 
REMARK   10  A    between atoms: C17_30  and  O9_31 
REMARK   11  A    between atoms: C17_30  and  C18_33 
REMARK   12  A    between atoms: C18_33  and  O10_34 
ROOT
HETATM    1  C4  UNL     1      -3.073   0.390  -0.632  1.00  0.00     0.157 C 
HETATM    2  O1  UNL     1      -1.923   0.612  -1.390  1.00  0.00    -0.372 OA
HETATM    3  C5  UNL     1      -1.213   0.702  -0.207  1.00  0.00     0.184 C 
HETATM    4  C6  UNL     1      -2.230  -0.061   0.525  1.00  0.00     0.183 C 
HETATM    5  O2  UNL     1      -2.016  -1.406   0.610  1.00  0.00    -0.370 OA
HETATM    6  C7  UNL     1      -0.846  -1.585   1.359  1.00  0.00     0.181 C 
HETATM    7  C9  UNL     1       0.193  -2.085   0.357  1.00  0.00     0.105 C 
HETATM    8  C10 UNL     1      -0.457  -3.339  -0.206  1.00  0.00     0.050 C 
HETATM    9  C11 UNL     1       0.537  -1.089  -0.688  1.00  0.00     0.116 C 
HETATM   10  S1  UNL     1      -0.449  -1.339  -2.192  1.00  0.00    -0.077 SA
HETATM   11  C12 UNL     1       0.190   0.298  -0.172  1.00  0.00     0.182 C 
HETATM   12  O5  UNL     1       0.881   1.228  -0.994  1.00  0.00    -0.349 OA
HETATM   13  C13 UNL     1       2.126   1.434  -0.341  1.00  0.00     0.292 C 
HETATM   14  C16 UNL     1       2.733   0.045  -0.250  1.00  0.00     0.211 C 
HETATM   15  C17 UNL     1       1.953  -0.973  -1.105  1.00  0.00     0.132 C 
ENDROOT
BRANCH  13  16
HETATM   16  O6  UNL     1       1.900   1.917   0.907  1.00  0.00    -0.356 OA
BRANCH  16  17
HETATM   17  C14 UNL     1       2.284   3.134   1.300  1.00  0.00     0.197 C 
BRANCH  17  18
HETATM   18  C15 UNL     1       3.751   3.386   1.320  1.00  0.00     0.190 C 
BRANCH  18  19
HETATM   19  O7  UNL     1       4.381   3.265   0.116  1.00  0.00    -0.399 OA
ATOM     20  H7  UNL     1       5.317   3.426   0.129  1.00  0.00     0.209 HD
ENDBRANCH  18  19
ENDBRANCH  17  18
ENDBRANCH  16  17
ENDBRANCH  13  16
BRANCH  14  21
HETATM   21  O8  UNL     1       3.979   0.108  -0.878  1.00  0.00    -0.387 OA
ATOM     22  H8  UNL     1       4.359  -0.761  -0.821  1.00  0.00     0.210 HD
ENDBRANCH  14  21
BRANCH  15  23
HETATM   23  O9  UNL     1       1.942  -0.346  -2.387  1.00  0.00    -0.383 OA
ATOM     24  H9  UNL     1       2.851  -0.272  -2.655  1.00  0.00     0.210 HD
ENDBRANCH  15  23
BRANCH  15  25
HETATM   25  C18 UNL     1       2.803  -2.153  -1.267  1.00  0.00     0.206 C 
BRANCH  25  26
HETATM   26  O10 UNL     1       2.351  -3.052  -2.236  1.00  0.00    -0.398 OA
ATOM     27  H10 UNL     1       2.903  -3.818  -2.341  1.00  0.00     0.209 HD
ENDBRANCH  25  26
ENDBRANCH  15  25
BRANCH   7  28
HETATM   28  O4  UNL     1       1.302  -2.394   1.161  1.00  0.00    -0.386 OA
ATOM     29  H4  UNL     1       1.948  -2.705   0.538  1.00  0.00     0.210 HD
ENDBRANCH   7  28
BRANCH   1  30
HETATM   30  C2  UNL     1      -3.834   1.658  -0.464  1.00  0.00     0.009 C 
HETATM   31  C1  UNL     1      -5.096   1.489   0.350  1.00  0.00     0.012 C 
HETATM   32  C3  UNL     1      -4.187   2.184  -1.841  1.00  0.00     0.012 C 
ENDBRANCH   1  30
BRANCH   6  33
HETATM   33  C8  UNL     1      -1.110  -2.715   2.362  1.00  0.00     0.199 C 
BRANCH  33  34
HETATM   34  O3  UNL     1      -2.166  -2.387   3.204  1.00  0.00    -0.398 OA
ATOM     35  H3  UNL     1      -2.330  -3.087   3.825  1.00  0.00     0.209 HD
ENDBRANCH  33  34
ENDBRANCH   6  33
TORSDOF 12
