REMARK  6 active torsions:
REMARK  status: ('A' for Active; 'I' for Inactive)
REMARK    1  A    between atoms: C2_3  and  N2_4 
REMARK       I    between atoms: N2_4  and  C3_6 
REMARK    2  A    between atoms: C3_6  and  C4_8 
REMARK    3  A    between atoms: C4_8  and  N3_9 
REMARK    4  A    between atoms: N3_9  and  S1_11 
REMARK    5  A    between atoms: S1_11  and  C5_14 
REMARK    6  A    between atoms: C8_17  and  C9_18 
ROOT
HETATM    1  N1  UNL     1      -8.382   1.844   1.099  1.00  0.00    -0.196 NA
HETATM    2  C1  UNL     1      -7.603   1.454   0.314  1.00  0.00     0.078 C 
HETATM    3  C2  UNL     1      -6.629   0.990  -0.670  1.00  0.00     0.247 C 
ENDROOT
BRANCH   3   4
HETATM    4  N2  UNL     1      -5.493   0.416   0.007  1.00  0.00    -0.344 N 
HETATM    5  C3  UNL     1      -4.377  -0.124  -0.689  1.00  0.00     0.284 C 
HETATM    6  O1  UNL     1      -4.403  -0.090  -1.934  1.00  0.00    -0.267 OA
ATOM      7  H2  UNL     1      -5.490   0.396   1.027  1.00  0.00     0.163 HD
BRANCH   5   8
HETATM    8  C4  UNL     1      -3.230  -0.703   0.042  1.00  0.00     0.300 C 
HETATM    9  N7  UNL     1      -3.649  -1.851   0.853  1.00  0.00    -0.067 NA
HETATM   10  N8  UNL     1      -2.898  -1.738   2.033  1.00  0.00    -0.017 NA
HETATM   11  N9  UNL     1      -2.962  -0.368   2.258  1.00  0.00    -0.017 NA
HETATM   12  N10 UNL     1      -2.782   0.211   1.034  1.00  0.00    -0.067 NA
BRANCH   8  13
HETATM   13  N3  UNL     1      -2.191  -1.170  -0.812  1.00  0.00    -0.266 N 
ATOM     14  H3  UNL     1      -1.956  -2.160  -0.879  1.00  0.00     0.176 HD
BRANCH  13  15
HETATM   15  S1  UNL     1      -1.363   0.007  -1.713  1.00  0.00     0.267 S 
HETATM   16  O2  UNL     1      -2.003   1.361  -1.431  1.00  0.00    -0.200 OA
HETATM   17  O3  UNL     1      -1.394  -0.206  -3.181  1.00  0.00    -0.200 OA
BRANCH  15  18
HETATM   18  C5  UNL     1       0.315   0.032  -1.162  1.00  0.00     0.147 A 
HETATM   19  C6  UNL     1       0.763  -0.819  -0.183  1.00  0.00     0.033 A 
HETATM   20  C7  UNL     1       2.096  -0.790   0.237  1.00  0.00     0.032 A 
HETATM   21  C8  UNL     1       3.006   0.086  -0.311  1.00  0.00     0.045 A 
HETATM   22  N6  UNL     1       2.525   0.904  -1.269  1.00  0.00    -0.322 N 
HETATM   23  C15 UNL     1       1.235   0.894  -1.693  1.00  0.00     0.269 A 
ATOM     24  H6  UNL     1       3.167   1.569  -1.700  1.00  0.00     0.169 HD
HETATM   25  O5  UNL     1       0.842   1.687  -2.598  1.00  0.00    -0.266 OA
BRANCH  21  26
HETATM   26  C9  UNL     1       4.412   0.127   0.123  1.00  0.00    -0.007 A 
HETATM   27  C10 UNL     1       4.853  -0.730   1.106  1.00  0.00     0.016 A 
HETATM   28  C11 UNL     1       6.189  -0.704   1.531  1.00  0.00     0.035 A 
HETATM   29  C12 UNL     1       7.068   0.185   0.963  1.00  0.00     0.085 A 
HETATM   30  N4  UNL     1       8.378   0.437   1.159  1.00  0.00    -0.240 N 
HETATM   31  C13 UNL     1       6.665   1.054  -0.018  1.00  0.00     0.086 A 
HETATM   32  O4  UNL     1       8.724   1.394   0.345  1.00  0.00    -0.156 OA
ATOM     33  H4  UNL     1       8.989  -0.036   1.825  1.00  0.00     0.197 HD
HETATM   34  N5  UNL     1       7.718   1.782  -0.371  1.00  0.00    -0.240 N 
ATOM     35  H5  UNL     1       7.732   2.516  -1.080  1.00  0.00     0.197 HD
HETATM   36  C14 UNL     1       5.340   0.994  -0.407  1.00  0.00     0.047 A 
ENDBRANCH  21  26
ENDBRANCH  15  18
ENDBRANCH  13  15
ENDBRANCH   8  13
ENDBRANCH   5   8
ENDBRANCH   3   4
TORSDOF 6
