REMARK  18 active torsions:
REMARK  status: ('A' for Active; 'I' for Inactive)
REMARK    1  A    between atoms: O1_2  and  C2_3 
REMARK    2  A    between atoms: C5_6  and  N1_7 
REMARK    3  A    between atoms: N1_7  and  C6_9 
REMARK    4  A    between atoms: C6_9  and  N2_10 
REMARK    5  A    between atoms: C6_9  and  C21_36 
REMARK    6  A    between atoms: N2_10  and  C7_11 
REMARK    7  A    between atoms: C9_13  and  O2_14 
REMARK    8  A    between atoms: C10_16  and  N3_17 
REMARK    9  A    between atoms: N3_17  and  S1_19 
REMARK   10  A    between atoms: S1_19  and  C11_22 
REMARK   11  A    between atoms: C14_25  and  O5_26 
REMARK   12  A    between atoms: C16_28  and  O6_29 
REMARK   13  A    between atoms: C20_33  and  O7_34 
REMARK   14  A    between atoms: C24_39  and  O8_40 
REMARK   15  A    between atoms: C26_42  and  O9_43 
REMARK   16  A    between atoms: C29_46  and  C30_47 
REMARK   17  A    between atoms: C30_47  and  N4_49 
REMARK   18  A    between atoms: N4_49  and  N5_51 
ROOT
HETATM    1  C6  UNL     1      -1.993   0.354   0.471  1.00  0.00     0.190 C 
ENDROOT
BRANCH   1   2
HETATM    2  N1  UNL     1      -3.209  -0.396   0.853  1.00  0.00    -0.330 N 
ATOM      3  H1  UNL     1      -3.631  -0.194   1.759  1.00  0.00     0.168 HD
BRANCH   2   4
HETATM    4  C5  UNL     1      -3.813  -1.361   0.051  1.00  0.00     0.048 A 
HETATM    5  C4  UNL     1      -3.352  -1.627  -1.201  1.00  0.00     0.033 A 
HETATM    6  C3  UNL     1      -4.004  -2.588  -1.955  1.00  0.00     0.039 A 
HETATM    7  C2  UNL     1      -5.092  -3.261  -1.453  1.00  0.00     0.069 A 
HETATM    8  C31 UNL     1      -5.538  -2.966  -0.169  1.00  0.00     0.053 A 
HETATM    9  C29 UNL     1      -4.913  -2.018   0.604  1.00  0.00     0.033 A 
BRANCH   7  10
HETATM   10  O1  UNL     1      -5.763  -4.238  -2.198  1.00  0.00    -0.356 OA
HETATM   11  C1  UNL     1      -6.877  -4.918  -1.653  1.00  0.00     0.210 C 
ENDBRANCH   7  10
BRANCH   9  12
HETATM   12  C30 UNL     1      -5.355  -1.712   1.965  1.00  0.00     0.127 C 
HETATM   13  S2  UNL     1      -4.504  -2.205   3.269  1.00  0.00    -0.058 SA
BRANCH  12  14
HETATM   14  N4  UNL     1      -6.545  -0.977   2.143  1.00  0.00    -0.296 N 
ATOM     15  H4  UNL     1      -6.851  -0.764   3.092  1.00  0.00     0.187 HD
BRANCH  14  16
HETATM   16  N5  UNL     1      -7.319  -0.531   1.076  1.00  0.00    -0.344 N 
ATOM     17  H52 UNL     1      -6.998  -0.753   0.134  1.00  0.00     0.176 HD
ATOM     18  H51 UNL     1      -8.180   0.001   1.205  1.00  0.00     0.176 HD
ENDBRANCH  14  16
ENDBRANCH  12  14
ENDBRANCH   9  12
ENDBRANCH   2   4
ENDBRANCH   1   2
BRANCH   1  19
HETATM   19  N2  UNL     1      -0.952  -0.188   0.307  1.00  0.00    -0.384 NA
BRANCH  19  20
HETATM   20  C7  UNL     1       0.200  -0.776   0.124  1.00  0.00     0.145 A 
HETATM   21  C8  UNL     1       0.227  -2.198   0.208  1.00  0.00     0.086 A 
HETATM   22  C9  UNL     1       1.312  -2.962   0.005  1.00  0.00     0.096 A 
HETATM   23  C10 UNL     1       2.535  -2.333  -0.321  1.00  0.00     0.078 A 
HETATM   24  C19 UNL     1       2.560  -0.991  -0.410  1.00  0.00     0.073 A 
HETATM   25  C20 UNL     1       1.409  -0.203  -0.192  1.00  0.00     0.108 A 
BRANCH  22  26
HETATM   26  O2  UNL     1       1.302  -4.349   0.097  1.00  0.00    -0.358 OA
ATOM     27  H2  UNL     1       2.070  -4.890  -0.047  1.00  0.00     0.217 HD
ENDBRANCH  22  26
BRANCH  23  28
HETATM   28  N3  UNL     1       3.610  -3.191  -0.577  1.00  0.00    -0.278 N 
ATOM     29  H3  UNL     1       3.471  -3.884  -1.312  1.00  0.00     0.179 HD
BRANCH  28  30
HETATM   30  S1  UNL     1       5.114  -3.209   0.195  1.00  0.00     0.263 S 
HETATM   31  O3  UNL     1       5.011  -3.497   1.676  1.00  0.00    -0.200 OA
HETATM   32  O4  UNL     1       5.955  -4.341  -0.398  1.00  0.00    -0.200 OA
BRANCH  30  33
HETATM   33  C11 UNL     1       5.990  -1.730  -0.033  1.00  0.00     0.082 A 
HETATM   34  C12 UNL     1       6.705  -1.558  -1.233  1.00  0.00     0.028 A 
HETATM   35  C13 UNL     1       7.452  -0.423  -1.423  1.00  0.00     0.041 A 
HETATM   36  C14 UNL     1       7.534   0.577  -0.479  1.00  0.00     0.101 A 
HETATM   37  C16 UNL     1       6.830   0.411   0.706  1.00  0.00     0.102 A 
HETATM   38  C18 UNL     1       6.066  -0.747   0.908  1.00  0.00     0.065 A 
BRANCH  36  39
HETATM   39  O5  UNL     1       8.285   1.678  -0.714  1.00  0.00    -0.353 OA
HETATM   40  C15 UNL     1       9.035   1.897  -1.902  1.00  0.00     0.210 C 
ENDBRANCH  36  39
BRANCH  37  41
HETATM   41  O6  UNL     1       6.918   1.393   1.625  1.00  0.00    -0.353 OA
HETATM   42  C17 UNL     1       6.277   1.380   2.873  1.00  0.00     0.210 C 
ENDBRANCH  37  41
ENDBRANCH  30  33
ENDBRANCH  28  30
ENDBRANCH  23  28
BRANCH  25  43
HETATM   43  O7  UNL     1       1.609   1.159  -0.321  1.00  0.00    -0.357 OA
ATOM     44  H7  UNL     1       2.444   1.555  -0.539  1.00  0.00     0.217 HD
ENDBRANCH  25  43
ENDBRANCH  19  20
ENDBRANCH   1  19
BRANCH   1  45
HETATM   45  C21 UNL     1      -2.272   1.782   0.388  1.00  0.00     0.025 A 
HETATM   46  C22 UNL     1      -3.306   2.181  -0.460  1.00  0.00     0.019 A 
HETATM   47  C23 UNL     1      -3.685   3.501  -0.565  1.00  0.00     0.040 A 
HETATM   48  C24 UNL     1      -3.062   4.487   0.164  1.00  0.00     0.101 A 
HETATM   49  C26 UNL     1      -2.041   4.097   1.002  1.00  0.00     0.102 A 
HETATM   50  C28 UNL     1      -1.661   2.759   1.102  1.00  0.00     0.056 A 
BRANCH  48  51
HETATM   51  O8  UNL     1      -3.422   5.821   0.078  1.00  0.00    -0.353 OA
HETATM   52  C25 UNL     1      -4.481   6.174  -0.796  1.00  0.00     0.210 C 
ENDBRANCH  48  51
BRANCH  49  53
HETATM   53  O9  UNL     1      -1.406   5.079   1.742  1.00  0.00    -0.353 OA
HETATM   54  C27 UNL     1      -0.358   4.762   2.634  1.00  0.00     0.210 C 
ENDBRANCH  49  53
ENDBRANCH   1  45
TORSDOF 18
