REMARK  16 active torsions:
REMARK  status: ('A' for Active; 'I' for Inactive)
REMARK    1  A    between atoms: O1_2  and  C2_3 
REMARK    2  A    between atoms: C4_5  and  C5_6 
REMARK    3  A    between atoms: N1_11  and  C8_12 
REMARK    4  A    between atoms: C8_12  and  C9_13 
REMARK       I    between atoms: C9_13  and  N2_15 
REMARK    5  A    between atoms: N2_15  and  N3_17 
REMARK       I    between atoms: N3_17  and  C10_19 
REMARK       I    between atoms: C10_19  and  N4_21 
REMARK    6  A    between atoms: N4_21  and  C11_23 
REMARK    7  A    between atoms: C13_25  and  O5_26 
REMARK    8  A    between atoms: C14_28  and  C15_29 
REMARK    9  A    between atoms: C15_29  and  O7_31 
REMARK   10  A    between atoms: O7_31  and  C16_32 
REMARK   11  A    between atoms: C16_32  and  C18_34 
REMARK   12  A    between atoms: C20_36  and  C21_37 
REMARK   13  A    between atoms: C21_37  and  C22_38 
REMARK   14  A    between atoms: C25_41  and  O8_42 
REMARK   15  A    between atoms: C30_48  and  O10_49 
REMARK   16  A    between atoms: C32_51  and  O11_52 
ROOT
HETATM    1  N3  UNL     1       2.372  -0.693   0.699  1.00  0.00    -0.249 N 
ATOM      2  H3  UNL     1       2.679   0.279   0.663  1.00  0.00     0.192 HD
HETATM    3  C10 UNL     1       0.983  -0.982   0.940  1.00  0.00     0.339 C 
HETATM    4  O4  UNL     1       0.646  -2.180   0.982  1.00  0.00    -0.245 OA
HETATM    5  N4  UNL     1       0.108   0.114   1.109  1.00  0.00    -0.307 N 
ATOM      6  H4  UNL     1       0.519   1.046   1.049  1.00  0.00     0.170 HD
ENDROOT
BRANCH   1   7
HETATM    7  N2  UNL     1       3.299  -1.701   0.515  1.00  0.00    -0.265 N 
HETATM    8  C9  UNL     1       3.610  -2.683   1.489  1.00  0.00     0.254 C 
HETATM    9  O3  UNL     1       3.055  -2.735   2.603  1.00  0.00    -0.270 OA
ATOM     10  H2  UNL     1       3.791  -1.741  -0.378  1.00  0.00     0.190 HD
BRANCH   8  11
HETATM   11  C8  UNL     1       4.649  -3.697   1.177  1.00  0.00     0.240 C 
BRANCH  11  12
HETATM   12  N1  UNL     1       5.198  -3.471  -0.175  1.00  0.00    -0.265 N 
HETATM   13  C7  UNL     1       4.635  -4.120  -1.280  1.00  0.00     0.294 A 
HETATM   14  S1  UNL     1       5.500  -3.495  -2.708  1.00  0.00    -0.023 SA
HETATM   15  O2  UNL     1       3.716  -4.972  -1.339  1.00  0.00    -0.259 OA
HETATM   16  C6  UNL     1       6.681  -2.462  -1.790  1.00  0.00     0.079 A 
HETATM   17  C5  UNL     1       7.624  -1.766  -2.376  1.00  0.00     0.036 C 
HETATM   18  C28 UNL     1       6.259  -2.607  -0.411  1.00  0.00     0.268 A 
HETATM   19  O9  UNL     1       6.858  -1.949   0.529  1.00  0.00    -0.266 OA
BRANCH  17  20
HETATM   20  C4  UNL     1       8.616  -0.918  -1.767  1.00  0.00    -0.029 A 
HETATM   21  C3  UNL     1       9.486  -1.244  -0.769  1.00  0.00     0.051 A 
HETATM   22  C2  UNL     1      10.366  -0.307  -0.215  1.00  0.00     0.104 A 
HETATM   23  C32 UNL     1      10.381   0.989  -0.669  1.00  0.00     0.133 A 
HETATM   24  C30 UNL     1       9.520   1.348  -1.676  1.00  0.00     0.104 A 
HETATM   25  C29 UNL     1       8.666   0.417  -2.203  1.00  0.00     0.051 A 
BRANCH  22  26
HETATM   26  O1  UNL     1      11.210  -0.708   0.787  1.00  0.00    -0.353 OA
HETATM   27  C1  UNL     1      11.275  -2.005   1.288  1.00  0.00     0.210 C 
ENDBRANCH  22  26
BRANCH  23  28
HETATM   28  O11 UNL     1      11.226   1.962  -0.165  1.00  0.00    -0.356 OA
ATOM     29  H11 UNL     1      11.236   2.859  -0.479  1.00  0.00     0.218 HD
ENDBRANCH  23  28
BRANCH  24  30
HETATM   30  O10 UNL     1       9.506   2.656  -2.166  1.00  0.00    -0.353 OA
HETATM   31  C31 UNL     1       8.599   3.004  -3.212  1.00  0.00     0.210 C 
ENDBRANCH  24  30
ENDBRANCH  17  20
ENDBRANCH  11  12
ENDBRANCH   8  11
ENDBRANCH   1   7
BRANCH   5  32
HETATM   32  C11 UNL     1      -1.283   0.042   1.353  1.00  0.00     0.041 A 
HETATM   33  C12 UNL     1      -1.950  -1.058   1.814  1.00  0.00     0.067 A 
HETATM   34  C13 UNL     1      -3.358  -1.035   2.002  1.00  0.00     0.086 A 
HETATM   35  C14 UNL     1      -4.102   0.076   1.733  1.00  0.00     0.105 A 
HETATM   36  C25 UNL     1      -3.390   1.193   1.263  1.00  0.00     0.089 A 
HETATM   37  C27 UNL     1      -2.057   1.174   1.083  1.00  0.00     0.067 A 
BRANCH  34  38
HETATM   38  O5  UNL     1      -3.905  -2.202   2.467  1.00  0.00    -0.359 OA
ATOM     39  H5  UNL     1      -4.847  -2.187   2.593  1.00  0.00     0.217 HD
ENDBRANCH  34  38
BRANCH  35  40
HETATM   40  C15 UNL     1      -5.534   0.184   1.885  1.00  0.00     0.299 C 
HETATM   41  O6  UNL     1      -6.290  -0.720   2.283  1.00  0.00    -0.259 OA
BRANCH  40  42
HETATM   42  O7  UNL     1      -6.155   1.388   1.566  1.00  0.00    -0.308 OA
BRANCH  42  43
HETATM   43  C16 UNL     1      -7.486   1.703   1.625  1.00  0.00     0.156 C 
HETATM   44  C17 UNL     1      -7.762   2.804   2.680  1.00  0.00     0.045 C 
BRANCH  43  45
HETATM   45  C18 UNL     1      -8.113   2.135   0.346  1.00  0.00    -0.059 C 
HETATM   46  C19 UNL     1      -7.647   3.473  -0.166  1.00  0.00     0.046 C 
HETATM   47  C20 UNL     1      -8.992   1.464  -0.353  1.00  0.00    -0.021 C 
BRANCH  47  48
HETATM   48  C21 UNL     1      -9.556   0.133  -0.038  1.00  0.00     0.031 C 
BRANCH  48  49
HETATM   49  C22 UNL     1      -9.313  -0.839  -1.196  1.00  0.00    -0.019 C 
HETATM   50  C23 UNL     1      -7.831  -0.959  -1.410  1.00  0.00     0.010 C 
HETATM   51  C24 UNL     1     -10.055  -0.392  -2.438  1.00  0.00     0.010 C 
ENDBRANCH  48  49
ENDBRANCH  47  48
ENDBRANCH  43  45
ENDBRANCH  42  43
ENDBRANCH  40  42
ENDBRANCH  35  40
BRANCH  36  52
HETATM   52  O8  UNL     1      -4.113   2.342   0.982  1.00  0.00    -0.355 OA
HETATM   53  C26 UNL     1      -3.504   3.501   0.515  1.00  0.00     0.210 C 
ENDBRANCH  36  52
ENDBRANCH   5  32
TORSDOF 16
