REMARK  17 active torsions:
REMARK  status: ('A' for Active; 'I' for Inactive)
REMARK    1  A    between atoms: O1_2  and  C2_3 
REMARK    2  A    between atoms: C5_6  and  C6_7 
REMARK    3  A    between atoms: C6_7  and  C7_13 
REMARK    4  A    between atoms: N1_8  and  N2_10 
REMARK    5  A    between atoms: C11_17  and  O2_18 
REMARK    6  A    between atoms: C12_20  and  O3_21 
REMARK    7  A    between atoms: C17_26  and  C18_27 
REMARK    8  A    between atoms: C18_27  and  O4_28 
REMARK    9  A    between atoms: C18_27  and  C19_30 
REMARK   10  A    between atoms: C22_33  and  N3_34 
REMARK   11  A    between atoms: N3_34  and  C23_36 
REMARK   12  A    between atoms: C23_36  and  C24_40 
REMARK   13  A    between atoms: C26_42  and  O5_43 
REMARK   14  A    between atoms: C28_45  and  O6_46 
REMARK   15  A    between atoms: C30_48  and  O7_49 
REMARK   16  A    between atoms: C33_52  and  O8_53 
REMARK   17  A    between atoms: C37_57  and  O9_58 
ROOT
HETATM    1  C7  UNL     1      -3.615   0.461   0.235  1.00  0.00     0.007 A 
HETATM    2  C8  UNL     1      -4.645  -0.030  -0.522  1.00  0.00     0.027 A 
HETATM    3  C9  UNL     1      -4.510  -0.503  -1.826  1.00  0.00    -0.022 A 
HETATM    4  C10 UNL     1      -5.597  -0.973  -2.533  1.00  0.00     0.051 A 
HETATM    5  C11 UNL     1      -5.411  -1.419  -3.825  1.00  0.00     0.099 A 
HETATM    6  C12 UNL     1      -4.158  -1.405  -4.423  1.00  0.00     0.102 A 
HETATM    7  C14 UNL     1      -3.088  -0.935  -3.703  1.00  0.00     0.052 A 
HETATM    8  C15 UNL     1      -3.269  -0.481  -2.396  1.00  0.00    -0.022 A 
HETATM    9  C16 UNL     1      -2.210  -0.002  -1.683  1.00  0.00     0.027 A 
HETATM   10  C17 UNL     1      -2.343   0.478  -0.369  1.00  0.00     0.011 A 
ENDROOT
BRANCH  10  11
HETATM   11  C18 UNL     1      -1.238   1.142   0.275  1.00  0.00     0.087 C 
BRANCH  11  12
HETATM   12  O4  UNL     1      -1.390   2.404   0.600  1.00  0.00    -0.359 OA
ATOM     13  H4  UNL     1      -0.662   2.842   1.025  1.00  0.00     0.217 HD
ENDBRANCH  11  12
BRANCH  11  14
HETATM   14  C19 UNL     1       0.037   0.606   0.624  1.00  0.00     0.001 A 
HETATM   15  C20 UNL     1       0.542  -0.531   0.055  1.00  0.00     0.017 A 
HETATM   16  C21 UNL     1       1.810  -1.040   0.376  1.00  0.00     0.033 A 
HETATM   17  C22 UNL     1       2.585  -0.394   1.291  1.00  0.00     0.067 A 
HETATM   18  C33 UNL     1       2.090   0.771   1.890  1.00  0.00     0.095 A 
HETATM   19  C35 UNL     1       0.860   1.255   1.568  1.00  0.00     0.053 A 
BRANCH  17  20
HETATM   20  N3  UNL     1       3.861  -0.887   1.632  1.00  0.00    -0.340 N 
ATOM     21  H3  UNL     1       4.376  -0.440   2.390  1.00  0.00     0.167 HD
BRANCH  20  22
HETATM   22  C23 UNL     1       4.452  -1.986   0.953  1.00  0.00     0.109 C 
HETATM   23  N4  UNL     1       3.958  -3.148   1.049  1.00  0.00    -0.385 N 
ATOM     24  H42 UNL     1       3.135  -3.299   1.633  1.00  0.00     0.157 HD
ATOM     25  H41 UNL     1       4.382  -3.937   0.561  1.00  0.00     0.157 HD
BRANCH  22  26
HETATM   26  C24 UNL     1       5.631  -1.769   0.116  1.00  0.00     0.013 A 
HETATM   27  C25 UNL     1       6.192  -0.479   0.148  1.00  0.00     0.055 A 
HETATM   28  C26 UNL     1       7.280  -0.181  -0.615  1.00  0.00     0.105 A 
HETATM   29  C28 UNL     1       7.817  -1.171  -1.420  1.00  0.00     0.135 A 
HETATM   30  C30 UNL     1       7.266  -2.446  -1.455  1.00  0.00     0.105 A 
HETATM   31  C32 UNL     1       6.165  -2.746  -0.680  1.00  0.00     0.055 A 
BRANCH  28  32
HETATM   32  O5  UNL     1       7.848   1.078  -0.592  1.00  0.00    -0.353 OA
HETATM   33  C27 UNL     1       7.298   2.070   0.236  1.00  0.00     0.210 C 
ENDBRANCH  28  32
BRANCH  29  34
HETATM   34  O6  UNL     1       8.914  -0.838  -2.179  1.00  0.00    -0.351 OA
HETATM   35  C29 UNL     1       8.693  -0.304  -3.491  1.00  0.00     0.210 C 
ENDBRANCH  29  34
BRANCH  30  36
HETATM   36  O7  UNL     1       7.858  -3.383  -2.288  1.00  0.00    -0.353 OA
HETATM   37  C31 UNL     1       7.280  -4.684  -2.318  1.00  0.00     0.210 C 
ENDBRANCH  30  36
ENDBRANCH  22  26
ENDBRANCH  20  22
ENDBRANCH  17  20
BRANCH  18  38
HETATM   38  O8  UNL     1       2.898   1.395   2.809  1.00  0.00    -0.354 OA
HETATM   39  C34 UNL     1       2.553   2.560   3.493  1.00  0.00     0.210 C 
ENDBRANCH  18  38
ENDBRANCH  11  14
ENDBRANCH  10  11
BRANCH   1  40
HETATM   40  C6  UNL     1      -3.769   0.768   1.664  1.00  0.00     0.069 C 
HETATM   41  N1  UNL     1      -2.769   0.703   2.376  1.00  0.00    -0.306 N 
ATOM     42  H1  UNL     1      -1.990   0.321   1.841  1.00  0.00     0.186 HD
BRANCH  40  43
HETATM   43  C5  UNL     1      -5.051   1.268   2.200  1.00  0.00    -0.004 A 
HETATM   44  C4  UNL     1      -5.350   1.191   3.545  1.00  0.00     0.017 A 
HETATM   45  C3  UNL     1      -6.479   1.736   4.124  1.00  0.00     0.040 A 
HETATM   46  C2  UNL     1      -7.372   2.401   3.318  1.00  0.00     0.101 A 
HETATM   47  C37 UNL     1      -7.113   2.504   1.951  1.00  0.00     0.099 A 
HETATM   48  C36 UNL     1      -5.973   1.942   1.432  1.00  0.00     0.053 A 
BRANCH  46  49
HETATM   49  O1  UNL     1      -8.511   2.956   3.868  1.00  0.00    -0.353 OA
HETATM   50  C1  UNL     1      -8.850   2.905   5.218  1.00  0.00     0.210 C 
ENDBRANCH  46  49
BRANCH  47  51
HETATM   51  O9  UNL     1      -8.049   3.187   1.171  1.00  0.00    -0.358 OA
ATOM     52  H9  UNL     1      -7.873   3.257   0.240  1.00  0.00     0.217 HD
ENDBRANCH  47  51
ENDBRANCH  40  43
BRANCH  41  53
HETATM   53  N2  UNL     1      -2.370   0.971   3.626  1.00  0.00    -0.345 N 
ATOM     54  H22 UNL     1      -3.166   1.351   4.139  1.00  0.00     0.176 HD
ATOM     55  H21 UNL     1      -1.540   0.917   4.217  1.00  0.00     0.176 HD
ENDBRANCH  41  53
ENDBRANCH   1  40
BRANCH   6  56
HETATM   56  O3  UNL     1      -3.991  -1.852  -5.713  1.00  0.00    -0.353 OA
HETATM   57  C13 UNL     1      -2.739  -1.850  -6.369  1.00  0.00     0.210 C 
ENDBRANCH   6  56
BRANCH   5  58
HETATM   58  O2  UNL     1      -6.460  -1.907  -4.601  1.00  0.00    -0.358 OA
ATOM     59  H2  UNL     1      -6.332  -2.214  -5.491  1.00  0.00     0.217 HD
ENDBRANCH   5  58
TORSDOF 17
