REMARK  15 active torsions:
REMARK  status: ('A' for Active; 'I' for Inactive)
REMARK    1  A    between atoms: N1_2  and  C2_4 
REMARK    2  A    between atoms: C3_5  and  C4_6 
REMARK    3  A    between atoms: C7_9  and  N2_10 
REMARK    4  A    between atoms: C10_17  and  S1_18 
REMARK    5  A    between atoms: S1_18  and  C11_19 
REMARK    6  A    between atoms: C11_19  and  C12_20 
REMARK    7  A    between atoms: C12_20  and  C13_22 
REMARK    8  A    between atoms: C21_33  and  C22_34 
REMARK    9  A    between atoms: C22_34  and  O5_35 
REMARK   10  A    between atoms: C22_34  and  N5_37 
REMARK   11  A    between atoms: N5_37  and  N6_38 
REMARK       I    between atoms: N6_38  and  C23_40 
REMARK   12  A    between atoms: C23_40  and  C24_42 
REMARK   13  A    between atoms: C27_45  and  N7_46 
REMARK   14  A    between atoms: N7_46  and  N8_48 
REMARK   15  A    between atoms: N8_48  and  C28_49 
ROOT
HETATM    1  C13 UNL     1      -0.796  -2.072  -0.644  1.00  0.00     0.102 A 
HETATM    2  N4  UNL     1      -1.609  -2.930  -1.324  1.00  0.00    -0.319 N 
ATOM      3  H4  UNL     1      -2.273  -2.575  -2.012  1.00  0.00     0.169 HD
HETATM    4  C14 UNL     1      -1.524  -4.258  -1.075  1.00  0.00     0.257 A 
HETATM    5  O4  UNL     1      -2.296  -5.044  -1.732  1.00  0.00    -0.267 OA
HETATM    6  C15 UNL     1      -0.621  -4.750  -0.142  1.00  0.00     0.043 A 
HETATM    7  C16 UNL     1      -0.534  -6.108   0.108  1.00  0.00     0.018 A 
HETATM    8  C17 UNL     1       0.368  -6.627   1.030  1.00  0.00     0.001 A 
HETATM    9  C18 UNL     1       1.197  -5.741   1.709  1.00  0.00     0.001 A 
HETATM   10  C19 UNL     1       1.129  -4.379   1.485  1.00  0.00     0.013 A 
HETATM   11  C20 UNL     1       0.206  -3.908   0.547  1.00  0.00    -0.002 A 
HETATM   12  C21 UNL     1       0.109  -2.576   0.286  1.00  0.00     0.073 A 
ENDROOT
BRANCH   1  13
HETATM   13  C12 UNL     1      -0.888  -0.654  -0.875  1.00  0.00     0.206 C 
HETATM   14  O3  UNL     1      -0.155   0.116  -0.165  1.00  0.00    -0.285 OA
BRANCH  13  15
HETATM   15  C11 UNL     1      -1.745  -0.017  -1.854  1.00  0.00     0.110 C 
BRANCH  15  16
HETATM   16  S1  UNL     1      -3.375  -0.607  -2.075  1.00  0.00    -0.061 SA
BRANCH  16  17
HETATM   17  C10 UNL     1      -4.666   0.003  -1.028  1.00  0.00     0.152 A 
HETATM   18  N3  UNL     1      -5.458   1.060  -1.430  1.00  0.00    -0.333 N 
HETATM   19  C3  UNL     1      -6.403   1.328  -0.498  1.00  0.00     0.089 A 
ATOM     20  H3  UNL     1      -5.347   1.568  -2.307  1.00  0.00     0.168 HD
HETATM   21  C2  UNL     1      -6.200   0.413   0.520  1.00  0.00     0.132 A 
HETATM   22  N9  UNL     1      -5.154  -0.364   0.175  1.00  0.00    -0.316 N 
HETATM   23  C33 UNL     1      -4.574  -1.456   0.979  1.00  0.00     0.160 C 
BRANCH  19  24
HETATM   24  C4  UNL     1      -7.429   2.341  -0.658  1.00  0.00    -0.005 A 
HETATM   25  C5  UNL     1      -7.830   3.221   0.299  1.00  0.00     0.016 A 
HETATM   26  C6  UNL     1      -8.838   4.178   0.015  1.00  0.00     0.037 A 
HETATM   27  C7  UNL     1      -9.442   4.258  -1.210  1.00  0.00     0.102 A 
HETATM   28  C8  UNL     1      -9.011   3.351  -2.171  1.00  0.00     0.037 A 
HETATM   29  C9  UNL     1      -8.050   2.435  -1.918  1.00  0.00     0.016 A 
BRANCH  27  30
HETATM   30  N2  UNL     1     -10.469   5.199  -1.493  1.00  0.00    -0.116 N 
HETATM   31  O1  UNL     1     -10.986   5.188  -2.621  1.00  0.00    -0.532 OA
HETATM   32  O2  UNL     1     -10.926   6.105  -0.573  1.00  0.00    -0.532 OA
ENDBRANCH  27  30
ENDBRANCH  19  24
BRANCH  21  33
HETATM   33  N1  UNL     1      -7.021   0.337   1.663  1.00  0.00    -0.379 N 
HETATM   34  C1  UNL     1      -6.915  -0.485   2.807  1.00  0.00     0.147 C 
ATOM     35  H1  UNL     1      -7.816   0.976   1.664  1.00  0.00     0.160 HD
ENDBRANCH  21  33
ENDBRANCH  16  17
ENDBRANCH  15  16
ENDBRANCH  13  15
ENDBRANCH   1  13
BRANCH  12  36
HETATM   36  C22 UNL     1       1.041  -1.688   1.008  1.00  0.00     0.252 C 
BRANCH  36  37
HETATM   37  O5  UNL     1       0.550  -1.416   2.184  1.00  0.00    -0.333 OA
ATOM     38  H5  UNL     1       1.150  -0.844   2.649  1.00  0.00     0.220 HD
ENDBRANCH  36  37
BRANCH  36  39
HETATM   39  N5  UNL     1       2.240  -1.190   0.588  1.00  0.00    -0.296 NA
BRANCH  39  40
HETATM   40  N6  UNL     1       3.405  -0.704   0.184  1.00  0.00    -0.196 N 
HETATM   41  C23 UNL     1       4.659  -1.404   0.248  1.00  0.00     0.280 C 
HETATM   42  O6  UNL     1       4.786  -2.562   0.653  1.00  0.00    -0.265 OA
ATOM     43  H6  UNL     1       3.412   0.240  -0.202  1.00  0.00     0.205 HD
BRANCH  41  44
HETATM   44  C24 UNL     1       5.872  -0.685  -0.185  1.00  0.00     0.034 A 
HETATM   45  C25 UNL     1       7.078  -0.957   0.444  1.00  0.00     0.019 A 
HETATM   46  C26 UNL     1       8.229  -0.282   0.111  1.00  0.00     0.033 A 
HETATM   47  C27 UNL     1       8.185   0.682  -0.863  1.00  0.00     0.060 A 
HETATM   48  C31 UNL     1       7.019   0.956  -1.486  1.00  0.00     0.033 A 
HETATM   49  C32 UNL     1       5.844   0.261  -1.142  1.00  0.00     0.019 A 
BRANCH  47  50
HETATM   50  N7  UNL     1       9.392   1.408  -1.186  1.00  0.00    -0.236 N 
ATOM     51  H7  UNL     1      10.007   1.089  -1.935  1.00  0.00     0.202 HD
BRANCH  50  52
HETATM   52  N8  UNL     1       9.681   2.489  -0.494  1.00  0.00    -0.335 NA
BRANCH  52  53
HETATM   53  C28 UNL     1      10.330   3.330   0.075  1.00  0.00     0.079 C 
HETATM   54  C29 UNL     1       9.559   4.496   0.730  1.00  0.00     0.081 C 
HETATM   55  C30 UNL     1      11.823   3.368   0.213  1.00  0.00     0.081 C 
ENDBRANCH  52  53
ENDBRANCH  50  52
ENDBRANCH  47  50
ENDBRANCH  41  44
ENDBRANCH  39  40
ENDBRANCH  36  39
ENDBRANCH  12  36
TORSDOF 15
