REMARK  5 active torsions:
REMARK  status: ('A' for Active; 'I' for Inactive)
REMARK    1  A    between atoms: C2_2  and  C3_3 
REMARK    2  A    between atoms: C4_4  and  S1_5 
REMARK    3  A    between atoms: S1_5  and  C5_7 
REMARK    4  A    between atoms: C5_7  and  C6_8 
REMARK    5  A    between atoms: C7_9  and  C8_10 
REMARK       I    between atoms: N3_16  and  C10_18 
REMARK       I    between atoms: C10_18  and  N4_20 
ROOT
HETATM    1  C8  UNL     1       0.101  -0.073  -0.178  1.00  0.00     0.091 A 
HETATM    2  N1  UNL     1      -0.143  -1.299   0.203  1.00  0.00    -0.292 N 
ATOM      3  H1  UNL     1       0.623  -1.972   0.230  1.00  0.00     0.187 HD
HETATM    4  N2  UNL     1      -1.306  -1.676   0.540  1.00  0.00    -0.279 N 
ATOM      5  H2  UNL     1      -1.478  -2.637   0.834  1.00  0.00     0.189 HD
HETATM    6  C9  UNL     1      -2.303  -0.784   0.501  1.00  0.00     0.169 A 
HETATM    7  N3  UNL     1      -3.562  -0.969   0.807  1.00  0.00    -0.288 N 
ATOM      8  H3  UNL     1      -3.909  -1.875   1.123  1.00  0.00     0.172 HD
HETATM    9  C10 UNL     1      -4.420   0.154   0.677  1.00  0.00     0.323 C 
HETATM   10  O2  UNL     1      -4.002   1.264   1.111  1.00  0.00    -0.247 OA
HETATM   11  N4  UNL     1      -5.699   0.065   0.089  1.00  0.00    -0.343 N 
HETATM   12  C11 UNL     1      -6.167  -1.216  -0.405  1.00  0.00     0.154 C 
HETATM   13  C12 UNL     1      -6.542   1.217  -0.027  1.00  0.00     0.154 C 
HETATM   14  S2  UNL     1      -1.487   0.617  -0.042  1.00  0.00    -0.033 SA
ENDROOT
BRANCH   1  15
HETATM   15  C7  UNL     1       1.334   0.576  -0.603  1.00  0.00     0.035 C 
HETATM   16  C6  UNL     1       2.519   0.064  -0.709  1.00  0.00    -0.011 C 
BRANCH  16  17
HETATM   17  C5  UNL     1       2.992  -1.288  -0.447  1.00  0.00     0.150 C 
BRANCH  17  18
HETATM   18  S1  UNL     1       4.243  -1.350   0.815  1.00  0.00     0.098 S 
HETATM   19  O1  UNL     1       3.602  -0.898   2.307  1.00  0.00    -0.244 OA
BRANCH  18  20
HETATM   20  C4  UNL     1       5.620  -0.437   0.406  1.00  0.00     0.003 C 
HETATM   21  C3  UNL     1       6.576   0.218   0.113  1.00  0.00    -0.065 C 
BRANCH  21  22
HETATM   22  C2  UNL     1       7.708   1.020  -0.247  1.00  0.00     0.055 C 
HETATM   23  C1  UNL     1       7.662   2.347  -0.193  1.00  0.00     0.021 C 
ENDBRANCH  21  22
ENDBRANCH  18  20
ENDBRANCH  17  18
ENDBRANCH  16  17
ENDBRANCH   1  15
TORSDOF 5
