REMARK  3 active torsions:
REMARK  status: ('A' for Active; 'I' for Inactive)
REMARK    1  A    between atoms: C4_7  and  C5_8 
REMARK    2  A    between atoms: C5_8  and  N2_9 
REMARK    3  A    between atoms: N3_12  and  C8_13 
ROOT
HETATM    1  C1  UNL     1      -4.635  -1.618   0.044  1.00  0.00     0.069 C 
HETATM    2  C2  UNL     1      -3.295  -1.236  -0.298  1.00  0.00     0.015 A 
HETATM    3  N1  UNL     1      -2.442  -2.179  -0.793  1.00  0.00    -0.326 N 
ATOM      4  H1  UNL     1      -2.801  -3.099  -1.048  1.00  0.00     0.169 HD
HETATM    5  C3  UNL     1      -1.150  -1.913  -0.946  1.00  0.00     0.257 A 
HETATM    6  O1  UNL     1      -0.412  -2.849  -1.410  1.00  0.00    -0.267 OA
HETATM    7  C4  UNL     1      -0.526  -0.691  -0.631  1.00  0.00     0.049 A 
HETATM    8  C11 UNL     1      -1.379   0.266  -0.124  1.00  0.00    -0.031 A 
HETATM    9  C12 UNL     1      -2.767  -0.037   0.019  1.00  0.00    -0.026 A 
HETATM   10  C13 UNL     1      -3.821   0.956   0.150  1.00  0.00     0.067 C 
HETATM   11  C14 UNL     1      -3.785   1.765   1.357  1.00  0.00     0.172 C 
HETATM   12  O3  UNL     1      -2.659   2.642   1.206  1.00  0.00    -0.391 OA
HETATM   13  C15 UNL     1      -1.499   2.022   1.522  1.00  0.00     0.172 C 
HETATM   14  C16 UNL     1      -0.670   1.475   0.323  1.00  0.00     0.066 C 
ENDROOT
BRANCH   7  15
HETATM   15  C5  UNL     1       0.778  -0.409  -1.174  1.00  0.00     0.077 C 
BRANCH  15  16
HETATM   16  N2  UNL     1       1.852   0.015  -0.302  1.00  0.00    -0.289 NA
HETATM   17  C6  UNL     1       2.763   0.848  -1.061  1.00  0.00     0.114 C 
HETATM   18  C7  UNL     1       4.179   0.288  -1.154  1.00  0.00     0.140 C 
HETATM   19  N3  UNL     1       4.517  -0.049   0.213  1.00  0.00    -0.357 N 
HETATM   20  C9  UNL     1       3.747  -1.124   0.769  1.00  0.00     0.140 C 
HETATM   21  C10 UNL     1       2.540  -1.327  -0.071  1.00  0.00     0.114 C 
BRANCH  19  22
HETATM   22  C8  UNL     1       5.531   0.610   0.892  1.00  0.00     0.350 C 
HETATM   23  O2  UNL     1       6.168   1.576   0.375  1.00  0.00    -0.284 OA
ENDBRANCH  19  22
ENDBRANCH  15  16
ENDBRANCH   7  15
TORSDOF 3
