REMARK  7 active torsions:
REMARK  status: ('A' for Active; 'I' for Inactive)
REMARK    1  A    between atoms: C6_9  and  N3_10 
REMARK    2  A    between atoms: N4_13  and  C9_14 
REMARK    3  A    between atoms: C9_14  and  N5_16 
REMARK    4  A    between atoms: N5_16  and  C10_18 
REMARK    5  A    between atoms: C10_18  and  C11_19 
REMARK    6  A    between atoms: C11_19  and  N6_20 
REMARK    7  A    between atoms: N6_20  and  N7_21 
ROOT
HETATM    1  N3  UNL     1      -0.989  -0.103   0.391  1.00  0.00    -0.374 N 
HETATM    2  C7  UNL     1      -0.249  -1.334   0.611  1.00  0.00     0.143 C 
HETATM    3  C8  UNL     1       1.067  -1.062   1.380  1.00  0.00     0.145 C 
HETATM    4  N4  UNL     1       1.863  -0.256   0.482  1.00  0.00    -0.355 N 
HETATM    5  C12 UNL     1       1.238   0.932  -0.021  1.00  0.00     0.145 C 
HETATM    6  C13 UNL     1      -0.202   1.115   0.391  1.00  0.00     0.143 C 
ENDROOT
BRANCH   4   7
HETATM    7  C9  UNL     1       3.183  -0.589   0.092  1.00  0.00     0.170 C 
HETATM    8  S1  UNL     1       3.920  -1.940   0.644  1.00  0.00    -0.041 SA
BRANCH   7   9
HETATM    9  N5  UNL     1       3.903   0.253  -0.797  1.00  0.00    -0.361 N 
ATOM     10  H5  UNL     1       3.458   1.100  -1.152  1.00  0.00     0.162 HD
BRANCH   9  11
HETATM   11  C10 UNL     1       5.269  -0.066  -1.216  1.00  0.00     0.183 C 
BRANCH  11  12
HETATM   12  C11 UNL     1       6.223   0.045  -0.094  1.00  0.00     0.200 C 
BRANCH  12  13
HETATM   13  N6  UNL     1       7.362  -0.459  -0.226  1.00  0.00    -0.348 NA
BRANCH  13  14
HETATM   14  N7  UNL     1       8.345  -1.205  -0.295  1.00  0.00    -0.281 N 
ATOM     15  H72 UNL     1       7.782  -2.027  -0.075  1.00  0.00     0.191 HD
ATOM     16  H71 UNL     1       9.273  -1.615  -0.402  1.00  0.00     0.191 HD
ENDBRANCH  13  14
ENDBRANCH  12  13
ENDBRANCH  11  12
ENDBRANCH   9  11
ENDBRANCH   7   9
ENDBRANCH   4   7
BRANCH   1  17
HETATM   17  C6  UNL     1      -2.398  -0.108   0.152  1.00  0.00     0.078 A 
HETATM   18  C2  UNL     1      -3.151  -1.249  -0.010  1.00  0.00     0.050 A 
HETATM   19  C1  UNL     1      -2.834  -2.675  -0.054  1.00  0.00     0.072 C 
HETATM   20  N1  UNL     1      -4.448  -0.827  -0.169  1.00  0.00    -0.301 N 
HETATM   21  N2  UNL     1      -4.550   0.460  -0.119  1.00  0.00    -0.299 N 
ATOM     22  H1  UNL     1      -5.238  -1.456  -0.310  1.00  0.00     0.187 HD
HETATM   23  C3  UNL     1      -5.752   1.283  -0.247  1.00  0.00     0.177 C 
HETATM   24  C4  UNL     1      -3.288   0.933   0.081  1.00  0.00     0.052 A 
HETATM   25  C5  UNL     1      -3.004   2.358   0.213  1.00  0.00     0.072 C 
ENDBRANCH   1  17
TORSDOF 7
