REMARK  3 active torsions:
REMARK  status: ('A' for Active; 'I' for Inactive)
REMARK    1  A    between atoms: C2_2  and  N1_4 
REMARK    2  A    between atoms: N1_4  and  S1_6 
REMARK    3  A    between atoms: S1_6  and  N2_9 
ROOT
HETATM    1  N2  UNL     1       0.674  -0.304   0.210  1.00  0.00    -0.193 NA
HETATM    2  C4  UNL     1       0.031   0.730  -0.543  1.00  0.00     0.110 C 
HETATM    3  C5  UNL     1      -1.181   1.217   0.215  1.00  0.00     0.041 C 
HETATM    4  C6  UNL     1      -2.240   0.138   0.244  1.00  0.00     0.066 C 
HETATM    5  C7  UNL     1      -3.086   0.175  -0.954  1.00  0.00     0.026 C 
HETATM    6  C8  UNL     1      -4.493  -0.026  -0.706  1.00  0.00     0.017 C 
HETATM    7  C9  UNL     1      -4.842  -0.232   0.707  1.00  0.00     0.141 C 
HETATM    8  S2  UNL     1      -3.414   0.416   1.571  1.00  0.00     0.153 S 
HETATM    9  O3  UNL     1      -3.086  -0.375   2.779  1.00  0.00    -0.227 OA
HETATM   10  O4  UNL     1      -3.531   1.879   1.820  1.00  0.00    -0.227 OA
HETATM   11  C10 UNL     1      -1.601  -1.234   0.366  1.00  0.00     0.041 C 
HETATM   12  C11 UNL     1      -0.213  -1.163   0.928  1.00  0.00     0.110 C 
ENDROOT
BRANCH   1  13
HETATM   13  S1  UNL     1       1.832  -1.175  -0.739  1.00  0.00     0.299 S 
HETATM   14  O1  UNL     1       2.402  -2.252   0.131  1.00  0.00    -0.188 OA
HETATM   15  O2  UNL     1       1.086  -1.812  -1.860  1.00  0.00    -0.188 OA
BRANCH  13  16
HETATM   16  N1  UNL     1       3.035  -0.083  -1.242  1.00  0.00    -0.303 N 
ATOM     17  H1  UNL     1       2.967   0.439  -2.116  1.00  0.00     0.173 HD
BRANCH  16  18
HETATM   18  C2  UNL     1       4.146   0.052  -0.357  1.00  0.00     0.086 C 
HETATM   19  C1  UNL     1       4.240   1.461   0.181  1.00  0.00     0.032 C 
HETATM   20  C3  UNL     1       5.470  -0.328  -0.964  1.00  0.00     0.032 C 
ENDBRANCH  16  18
ENDBRANCH  13  16
ENDBRANCH   1  13
TORSDOF 3
