REMARK  4 active torsions:
REMARK  status: ('A' for Active; 'I' for Inactive)
REMARK    1  A    between atoms: C7_8  and  N2_9 
REMARK       I    between atoms: N2_9  and  C8_11 
REMARK       I    between atoms: C8_11  and  N3_13 
REMARK    2  A    between atoms: N3_13  and  C9_15 
REMARK    3  A    between atoms: N4_17  and  C11_18 
REMARK    4  A    between atoms: C11_18  and  C12_19 
ROOT
HETATM    1  N2  UNL     1      -1.176   0.207  -0.057  1.00  0.00    -0.338 N 
ATOM      2  H2  UNL     1      -1.396   1.149  -0.381  1.00  0.00     0.164 HD
HETATM    3  C8  UNL     1       0.179  -0.132   0.141  1.00  0.00     0.316 C 
HETATM    4  O1  UNL     1       0.473  -1.286   0.541  1.00  0.00    -0.247 OA
HETATM    5  N3  UNL     1       1.199   0.822  -0.109  1.00  0.00    -0.334 N 
ATOM      6  H3  UNL     1       0.956   1.758  -0.434  1.00  0.00     0.164 HD
ENDROOT
BRANCH   1   7
HETATM    7  C7  UNL     1      -2.273  -0.712   0.176  1.00  0.00     0.090 C 
HETATM    8  C6  UNL     1      -2.941  -0.984  -1.119  1.00  0.00     0.061 C 
HETATM    9  C5  UNL     1      -4.384  -0.547  -1.183  1.00  0.00     0.225 C 
HETATM   10  N1  UNL     1      -4.447   0.758  -0.573  1.00  0.00     0.093 N 
HETATM   11  C4  UNL     1      -5.180  -1.489  -0.307  1.00  0.00     0.038 C 
HETATM   12  C1  UNL     1      -5.618   1.505  -0.905  1.00  0.00     0.310 C 
HETATM   13  C2  UNL     1      -4.420   0.426   0.834  1.00  0.00     0.225 C 
HETATM   14  C3  UNL     1      -5.506  -0.654   0.904  1.00  0.00     0.038 C 
HETATM   15  C16 UNL     1      -3.133  -0.171   1.258  1.00  0.00     0.061 C 
ENDBRANCH   1   7
BRANCH   5  16
HETATM   16  C9  UNL     1       2.578   0.465   0.097  1.00  0.00     0.137 C 
HETATM   17  C10 UNL     1       3.392   0.584  -1.178  1.00  0.00     0.145 C 
HETATM   18  N4  UNL     1       4.739   0.221  -0.883  1.00  0.00    -0.408 N 
HETATM   19  C13 UNL     1       5.314   1.127   0.047  1.00  0.00     0.119 C 
HETATM   20  C14 UNL     1       4.620   0.948   1.384  1.00  0.00     0.058 C 
HETATM   21  C15 UNL     1       3.167   1.333   1.191  1.00  0.00     0.196 C 
HETATM   22  F2  UNL     1       3.026   2.663   0.925  1.00  0.00    -0.247 F 
BRANCH  18  23
HETATM   23  C11 UNL     1       4.998  -1.157  -0.714  1.00  0.00     0.148 C 
BRANCH  23  24
HETATM   24  C12 UNL     1       6.466  -1.357  -0.407  1.00  0.00     0.241 C 
HETATM   25  F1  UNL     1       6.663  -2.721  -0.265  1.00  0.00    -0.254 F 
ENDBRANCH  23  24
ENDBRANCH  18  23
ENDBRANCH   5  16
TORSDOF 4
