REMARK  5 active torsions:
REMARK  status: ('A' for Active; 'I' for Inactive)
REMARK       I    between atoms: C1_2  and  N1_3 
REMARK    1  A    between atoms: C1_2  and  C16_22 
REMARK    2  A    between atoms: N1_3  and  C2_5 
REMARK    3  A    between atoms: C5_8  and  C6_9 
REMARK    4  A    between atoms: C6_9  and  N2_10 
REMARK    5  A    between atoms: C11_15  and  O2_16 
ROOT
HETATM    1  C2  UNL     1       2.921   0.221   0.648  1.00  0.00     0.085 C 
HETATM    2  C3  UNL     1       2.573   0.840   1.983  1.00  0.00     0.026 C 
HETATM    3  C4  UNL     1       1.094   1.115   1.837  1.00  0.00     0.012 C 
HETATM    4  C5  UNL     1       1.020   1.690   0.415  1.00  0.00     0.026 C 
HETATM    5  C15 UNL     1       2.144   1.110  -0.342  1.00  0.00     0.035 C 
ENDROOT
BRANCH   4   6
HETATM    6  C6  UNL     1      -0.361   1.594  -0.138  1.00  0.00     0.063 C 
BRANCH   6   7
HETATM    7  N2  UNL     1      -0.871   0.302  -0.179  1.00  0.00    -0.388 N 
HETATM    8  C7  UNL     1      -0.418  -0.691  -1.024  1.00  0.00     0.123 C 
HETATM    9  C8  UNL     1      -1.574  -1.705  -1.110  1.00  0.00     0.026 C 
HETATM   10  C9  UNL     1      -2.454  -1.301   0.057  1.00  0.00     0.012 C 
HETATM   11  C10 UNL     1      -3.855  -1.779  -0.067  1.00  0.00     0.038 C 
HETATM   12  C14 UNL     1      -2.301   0.196  -0.019  1.00  0.00     0.087 C 
HETATM   13  C11 UNL     1      -4.852  -0.663  -0.231  1.00  0.00     0.118 C 
HETATM   14  C12 UNL     1      -4.413   0.188  -1.386  1.00  0.00     0.034 C 
HETATM   15  C13 UNL     1      -3.107   0.838  -1.083  1.00  0.00     0.028 C 
BRANCH  13  16
HETATM   16  O2  UNL     1      -4.952   0.023   0.963  1.00  0.00    -0.396 OA
ATOM     17  H2  UNL     1      -5.581   0.727   0.860  1.00  0.00     0.210 HD
ENDBRANCH  13  16
ENDBRANCH   6   7
ENDBRANCH   4   6
BRANCH   1  18
HETATM   18  N1  UNL     1       4.325   0.226   0.384  1.00  0.00    -0.349 N 
HETATM   19  C1  UNL     1       5.131  -0.901   0.141  1.00  0.00     0.325 C 
HETATM   20  O1  UNL     1       4.607  -2.039   0.146  1.00  0.00    -0.263 OA
ATOM     21  H1  UNL     1       4.788   1.135   0.370  1.00  0.00     0.163 HD
BRANCH  19  22
HETATM   22  C16 UNL     1       6.587  -0.784  -0.123  1.00  0.00     0.472 C 
HETATM   23  F1  UNL     1       7.235  -0.186   0.965  1.00  0.00    -0.162 F 
HETATM   24  F2  UNL     1       6.851   0.032  -1.214  1.00  0.00    -0.162 F 
HETATM   25  F3  UNL     1       7.139  -2.023  -0.398  1.00  0.00    -0.162 F 
ENDBRANCH  19  22
ENDBRANCH   1  18
TORSDOF 5
