REMARK  5 active torsions:
REMARK  status: ('A' for Active; 'I' for Inactive)
REMARK    1  A    between atoms: C2_2  and  N1_3 
REMARK    2  A    between atoms: N1_3  and  C3_6 
REMARK    3  A    between atoms: C3_6  and  C4_7 
REMARK    4  A    between atoms: C3_6  and  C12_20 
REMARK       I    between atoms: C4_7  and  N2_9 
REMARK       I    between atoms: N2_9  and  C5_11 
REMARK    5  A    between atoms: C5_11  and  C6_13 
ROOT
HETATM    1  C4  UNL     1       1.746   0.256   0.196  1.00  0.00     0.259 C 
HETATM    2  O1  UNL     1       1.972   0.114  -1.036  1.00  0.00    -0.271 OA
HETATM    3  N2  UNL     1       0.389   0.141   0.592  1.00  0.00    -0.294 N 
ATOM      4  H2  UNL     1       0.150   0.235   1.579  1.00  0.00     0.171 HD
HETATM    5  C5  UNL     1      -0.647  -0.102  -0.351  1.00  0.00     0.258 C 
HETATM    6  O2  UNL     1      -0.365  -0.222  -1.546  1.00  0.00    -0.271 OA
ENDROOT
BRANCH   1   7
HETATM    7  C3  UNL     1       2.873   0.519   1.096  1.00  0.00     0.331 C 
BRANCH   7   8
HETATM    8  N1  UNL     1       4.132   0.319   0.366  1.00  0.00    -0.058 N 
ATOM      9  H12 UNL     1       4.918   0.671   0.913  1.00  0.00     0.278 HD
ATOM     10  H11 UNL     1       4.180   0.947  -0.436  1.00  0.00     0.278 HD
BRANCH   8  11
HETATM   11  C2  UNL     1       4.375  -1.017  -0.041  1.00  0.00     0.229 C 
HETATM   12  C1  UNL     1       5.727  -1.006  -0.774  1.00  0.00     0.034 C 
ENDBRANCH   8  11
ENDBRANCH   7   8
BRANCH   7  13
HETATM   13  C12 UNL     1       2.815   2.004   1.511  1.00  0.00     0.225 C 
HETATM   14 CL1  UNL     1       2.846   3.001   0.051  1.00  0.00    -0.081 Cl
HETATM   15 CL2  UNL     1       1.438   2.284   2.552  1.00  0.00    -0.081 Cl
HETATM   16 CL3  UNL     1       4.287   2.402   2.450  1.00  0.00    -0.081 Cl
ENDBRANCH   7  13
ENDBRANCH   1   7
BRANCH   5  17
HETATM   17  C6  UNL     1      -2.039  -0.207   0.117  1.00  0.00     0.314 C 
HETATM   18  C7  UNL     1      -2.505   1.142   0.702  1.00  0.00     0.046 C 
HETATM   19  C8  UNL     1      -3.812   0.901   1.373  1.00  0.00     0.004 C 
HETATM   20  C9  UNL     1      -4.824   0.245   0.455  1.00  0.00     0.030 C 
HETATM   21  C10 UNL     1      -4.234  -0.974  -0.223  1.00  0.00     0.273 C 
HETATM   22  N3  UNL     1      -3.004  -0.557  -0.866  1.00  0.00     0.098 N 
HETATM   23  C11 UNL     1      -2.576  -1.501  -1.869  1.00  0.00     0.310 C 
ENDBRANCH   5  17
TORSDOF 5
