REMARK  5 active torsions:
REMARK  status: ('A' for Active; 'I' for Inactive)
REMARK    1  A    between atoms: N1_5  and  C5_6 
REMARK    2  A    between atoms: C14_18  and  C15_19 
REMARK    3  A    between atoms: C15_19  and  N3_20 
REMARK    4  A    between atoms: N3_20  and  C16_22 
REMARK    5  A    between atoms: C16_22  and  C17_23 
ROOT
HETATM    1  C1  UNL     1       0.770   2.319  -0.517  1.00  0.00     0.017 C 
HETATM    2  C2  UNL     1       1.180   1.411   0.620  1.00  0.00    -0.022 C 
HETATM    3  C3  UNL     1       2.153   2.121   1.551  1.00  0.00     0.017 C 
HETATM    4  C4  UNL     1      -0.064   1.080   1.411  1.00  0.00     0.132 C 
HETATM    5  N1  UNL     1      -0.423  -0.229   1.010  1.00  0.00    -0.385 N 
HETATM    6  C13 UNL     1       0.506  -0.823   0.166  1.00  0.00     0.066 C 
HETATM    7  C14 UNL     1       1.722   0.092   0.201  1.00  0.00     0.050 C 
ENDROOT
BRANCH   5   8
HETATM    8  C5  UNL     1      -1.810  -0.418   0.802  1.00  0.00     0.111 C 
HETATM    9  C6  UNL     1      -2.143  -1.605  -0.127  1.00  0.00     0.107 C 
HETATM   10  C7  UNL     1      -2.637  -1.079  -1.482  1.00  0.00     0.028 C 
HETATM   11  N2  UNL     1      -3.345  -2.155   0.478  1.00  0.00    -0.354 N 
HETATM   12  C8  UNL     1      -3.978  -0.347  -1.321  1.00  0.00     0.022 C 
HETATM   13  C9  UNL     1      -4.025   0.124   0.063  1.00  0.00     0.047 A 
HETATM   14  C10 UNL     1      -3.794   1.345   0.726  1.00  0.00     0.027 A 
HETATM   15  C11 UNL     1      -2.580   0.710   0.277  1.00  0.00     0.029 A 
HETATM   16  C12 UNL     1      -4.213  -1.118   0.909  1.00  0.00     0.227 C 
HETATM   17  O1  UNL     1      -5.028  -1.174   1.846  1.00  0.00    -0.273 OA
ATOM     18  H2  UNL     1      -3.538  -3.151   0.579  1.00  0.00     0.163 HD
ENDBRANCH   5   8
BRANCH   7  19
HETATM   19  C15 UNL     1       2.351   0.153  -1.189  1.00  0.00     0.124 C 
BRANCH  19  20
HETATM   20  N3  UNL     1       2.879  -1.125  -1.568  1.00  0.00    -0.413 N 
ATOM     21  H3  UNL     1       2.443  -1.675  -2.308  1.00  0.00     0.153 HD
BRANCH  20  22
HETATM   22  C16 UNL     1       4.022  -1.599  -0.885  1.00  0.00     0.231 C 
BRANCH  22  23
HETATM   23  C17 UNL     1       5.319  -0.923  -1.196  1.00  0.00     0.402 C 
HETATM   24  F1  UNL     1       5.585  -1.072  -2.553  1.00  0.00    -0.169 F 
HETATM   25  F2  UNL     1       6.390  -1.596  -0.573  1.00  0.00    -0.169 F 
HETATM   26  F3  UNL     1       5.417   0.373  -0.763  1.00  0.00    -0.169 F 
ENDBRANCH  22  23
ENDBRANCH  20  22
ENDBRANCH  19  20
ENDBRANCH   7  19
TORSDOF 5
