REMARK  7 active torsions:
REMARK  status: ('A' for Active; 'I' for Inactive)
REMARK    1  A    between atoms: C3_3  and  C4_4 
REMARK    2  A    between atoms: C5_10  and  N2_11 
REMARK    3  A    between atoms: N2_11  and  C6_13 
REMARK    4  A    between atoms: C9_18  and  N4_19 
REMARK    5  A    between atoms: N4_19  and  C10_21 
REMARK    6  A    between atoms: C10_21  and  C11_22 
REMARK    7  A    between atoms: C11_22  and  N5_23 
ROOT
HETATM    1  C1  UNL     1      -0.441  -3.371  -2.174  1.00  0.00     0.054 C 
HETATM    2  C2  UNL     1      -1.422  -2.439  -1.553  1.00  0.00     0.014 A 
HETATM    3  C3  UNL     1      -2.775  -2.695  -1.521  1.00  0.00     0.142 A 
HETATM    4  N1  UNL     1      -3.635  -1.806  -0.946  1.00  0.00    -0.186 N 
ATOM      5  H1  UNL     1      -4.632  -2.022  -0.937  1.00  0.00     0.184 HD
HETATM    6  C5  UNL     1      -3.217  -0.658  -0.392  1.00  0.00     0.680 A 
HETATM    7  N3  UNL     1      -1.891  -0.403  -0.421  1.00  0.00    -0.176 N 
ATOM      8  H3  UNL     1      -1.552   0.464  -0.005  1.00  0.00     0.186 HD
HETATM    9  C9  UNL     1      -1.003  -1.240  -0.972  1.00  0.00     0.125 A 
ENDROOT
BRANCH   9  10
HETATM   10  N4  UNL     1       0.246  -1.001  -1.001  1.00  0.00    -0.374 N 
ATOM     11  H4  UNL     1       0.806  -1.724  -1.453  1.00  0.00     0.161 HD
BRANCH  10  12
HETATM   12  C10 UNL     1       0.990   0.098  -0.513  1.00  0.00     0.151 C 
BRANCH  12  13
HETATM   13  C11 UNL     1       2.245  -0.293   0.226  1.00  0.00     0.292 C 
BRANCH  13  14
HETATM   14  N5  UNL     1       2.986   0.853   0.711  1.00  0.00     0.090 N 
HETATM   15  C12 UNL     1       3.548   1.604  -0.352  1.00  0.00     0.272 C 
HETATM   16  C13 UNL     1       4.780   2.378  -0.058  1.00  0.00     0.030 C 
HETATM   17  C14 UNL     1       5.750   1.631   0.839  1.00  0.00     0.003 C 
HETATM   18  C15 UNL     1       4.953   1.364   2.123  1.00  0.00     0.030 C 
HETATM   19  C16 UNL     1       3.871   0.399   1.731  1.00  0.00     0.272 C 
ENDBRANCH  13  14
ENDBRANCH  12  13
ENDBRANCH  10  12
ENDBRANCH   9  10
BRANCH   3  20
HETATM   20  C4  UNL     1      -3.277  -3.962  -2.123  1.00  0.00     0.433 C 
HETATM   21  F1  UNL     1      -4.671  -3.976  -1.975  1.00  0.00    -0.165 F 
HETATM   22  F2  UNL     1      -2.892  -4.124  -3.429  1.00  0.00    -0.165 F 
HETATM   23  F3  UNL     1      -2.812  -4.994  -1.306  1.00  0.00    -0.165 F 
ENDBRANCH   3  20
BRANCH   6  24
HETATM   24  N2  UNL     1      -4.099   0.120   0.128  1.00  0.00    -0.222 N 
ATOM     25  H2  UNL     1      -5.068  -0.197   0.082  1.00  0.00     0.178 HD
BRANCH  24  26
HETATM   26  C6  UNL     1      -3.872   1.376   0.762  1.00  0.00     0.091 C 
HETATM   27  C7  UNL     1      -4.924   1.532   1.869  1.00  0.00     0.032 C 
HETATM   28  C8  UNL     1      -4.130   2.546  -0.196  1.00  0.00     0.032 C 
ENDBRANCH  24  26
ENDBRANCH   6  24
TORSDOF 7
