REMARK  6 active torsions:
REMARK  status: ('A' for Active; 'I' for Inactive)
REMARK    1  A    between atoms: C1_2  and  C2_4 
REMARK    2  A    between atoms: C5_7  and  N2_8 
REMARK       I    between atoms: N2_8  and  C6_10 
REMARK       I    between atoms: C6_10  and  N3_12 
REMARK    3  A    between atoms: N3_12  and  C7_14 
REMARK    4  A    between atoms: C14_21  and  O3_22 
REMARK    5  A    between atoms: O3_22  and  C15_23 
REMARK    6  A    between atoms: C18_26  and  C19_27 
ROOT
HETATM    1  C2  UNL     1      -0.375  -3.197   0.120  1.00  0.00     0.063 A 
HETATM    2  C3  UNL     1       0.541  -3.791   1.013  1.00  0.00     0.022 A 
HETATM    3  C4  UNL     1       1.776  -3.251   1.206  1.00  0.00     0.030 A 
HETATM    4  C5  UNL     1       2.203  -2.084   0.533  1.00  0.00     0.039 A 
HETATM    5  C13 UNL     1       1.316  -1.509  -0.329  1.00  0.00     0.067 A 
HETATM    6  C14 UNL     1       0.024  -2.073  -0.528  1.00  0.00     0.093 A 
ENDROOT
BRANCH   6   7
HETATM    7  O3  UNL     1      -0.793  -1.397  -1.421  1.00  0.00    -0.310 OA
BRANCH   7   8
HETATM    8  C15 UNL     1      -1.898  -0.676  -0.996  1.00  0.00     0.076 A 
HETATM    9  C16 UNL     1      -2.726  -0.124  -1.983  1.00  0.00     0.038 A 
HETATM   10  C17 UNL     1      -3.841   0.609  -1.615  1.00  0.00     0.015 A 
HETATM   11  C18 UNL     1      -4.146   0.803  -0.285  1.00  0.00    -0.026 A 
HETATM   12  C25 UNL     1      -3.342   0.267   0.693  1.00  0.00     0.015 A 
HETATM   13  C26 UNL     1      -2.232  -0.463   0.332  1.00  0.00     0.038 A 
BRANCH  11  14
HETATM   14  C19 UNL     1      -5.322   1.577   0.086  1.00  0.00    -0.026 A 
HETATM   15  C20 UNL     1      -5.720   2.604  -0.727  1.00  0.00     0.012 A 
HETATM   16  C21 UNL     1      -6.840   3.326  -0.358  1.00  0.00     0.001 A 
HETATM   17  C22 UNL     1      -7.524   3.007   0.799  1.00  0.00     0.000 A 
HETATM   18  C23 UNL     1      -7.117   1.971   1.615  1.00  0.00     0.001 A 
HETATM   19  C24 UNL     1      -6.002   1.241   1.261  1.00  0.00     0.012 A 
ENDBRANCH  11  14
ENDBRANCH   7   8
ENDBRANCH   6   7
BRANCH   1  20
HETATM   20  C1  UNL     1      -1.634  -3.855  -0.078  1.00  0.00     0.267 C 
HETATM   21  N1  UNL     1      -2.509  -3.748  -1.177  1.00  0.00    -0.057 NA
HETATM   22  O1  UNL     1      -2.015  -4.657   0.867  1.00  0.00    -0.271 OA
ENDBRANCH   1  20
BRANCH   4  23
HETATM   23  N2  UNL     1       3.502  -1.591   0.781  1.00  0.00    -0.309 N 
HETATM   24  C6  UNL     1       4.108  -0.434   0.285  1.00  0.00     0.325 C 
HETATM   25  O2  UNL     1       3.479   0.319  -0.489  1.00  0.00    -0.247 OA
HETATM   26  N3  UNL     1       5.446  -0.153   0.688  1.00  0.00    -0.309 N 
ATOM     27  H3  UNL     1       5.883  -0.825   1.318  1.00  0.00     0.170 HD
ATOM     28  H2  UNL     1       4.076  -2.156   1.407  1.00  0.00     0.170 HD
BRANCH  26  29
HETATM   29  C7  UNL     1       6.220   0.944   0.312  1.00  0.00     0.036 A 
HETATM   30  C8  UNL     1       5.690   2.089  -0.209  1.00  0.00     0.029 A 
HETATM   31  C9  UNL     1       6.528   3.141  -0.587  1.00  0.00     0.002 A 
HETATM   32  C10 UNL     1       7.889   3.024  -0.434  1.00  0.00     0.000 A 
HETATM   33  C11 UNL     1       8.426   1.865   0.095  1.00  0.00     0.002 A 
HETATM   34  C12 UNL     1       7.607   0.830   0.467  1.00  0.00     0.029 A 
ENDBRANCH  26  29
ENDBRANCH   4  23
TORSDOF 6
