REMARK  6 active torsions:
REMARK  status: ('A' for Active; 'I' for Inactive)
REMARK    1  A    between atoms: C1_2  and  C2_4 
REMARK    2  A    between atoms: C5_7  and  C6_8 
REMARK    3  A    between atoms: C11_13  and  N2_14 
REMARK       I    between atoms: N2_14  and  C12_16 
REMARK       I    between atoms: C12_16  and  N3_18 
REMARK    4  A    between atoms: N3_18  and  C13_20 
REMARK    5  A    between atoms: C16_23  and  O3_24 
REMARK    6  A    between atoms: O3_24  and  C17_25 
ROOT
HETATM    1  N2  UNL     1       2.122  -0.533  -0.212  1.00  0.00    -0.308 N 
ATOM      2  H2  UNL     1       1.787  -1.164   0.516  1.00  0.00     0.170 HD
HETATM    3  C12 UNL     1       1.187   0.433  -0.660  1.00  0.00     0.325 C 
HETATM    4  O2  UNL     1       1.512   1.244  -1.539  1.00  0.00    -0.247 OA
HETATM    5  N3  UNL     1      -0.116   0.505  -0.133  1.00  0.00    -0.309 N 
ATOM      6  H3  UNL     1      -0.337  -0.179   0.591  1.00  0.00     0.170 HD
ENDROOT
BRANCH   1   7
HETATM    7  C11 UNL     1       3.443  -0.741  -0.630  1.00  0.00     0.047 A 
HETATM    8  C6  UNL     1       4.253  -1.668   0.034  1.00  0.00     0.001 A 
HETATM    9  C7  UNL     1       5.548  -1.921  -0.397  1.00  0.00     0.014 A 
HETATM   10  C8  UNL     1       6.098  -1.283  -1.481  1.00  0.00     0.001 A 
HETATM   11  C9  UNL     1       5.326  -0.376  -2.140  1.00  0.00     0.002 A 
HETATM   12  C10 UNL     1       4.026  -0.125  -1.706  1.00  0.00     0.030 A 
BRANCH   8  13
HETATM   13  C5  UNL     1       3.804  -2.377   1.222  1.00  0.00    -0.024 A 
HETATM   14  C4  UNL     1       3.871  -3.761   1.202  1.00  0.00     0.013 A 
HETATM   15  C3  UNL     1       3.506  -4.501   2.282  1.00  0.00     0.017 A 
HETATM   16  C2  UNL     1       3.057  -3.881   3.431  1.00  0.00     0.029 A 
HETATM   17  C26 UNL     1       2.992  -2.502   3.448  1.00  0.00     0.017 A 
HETATM   18  C25 UNL     1       3.361  -1.767   2.360  1.00  0.00     0.013 A 
BRANCH  16  19
HETATM   19  C1  UNL     1       2.665  -4.662   4.592  1.00  0.00     0.264 C 
HETATM   20  N1  UNL     1       2.184  -3.976   5.738  1.00  0.00    -0.057 NA
HETATM   21  O1  UNL     1       2.764  -5.913   4.542  1.00  0.00    -0.271 OA
ENDBRANCH  16  19
ENDBRANCH   8  13
ENDBRANCH   1   7
BRANCH   5  22
HETATM   22  C13 UNL     1      -1.153   1.391  -0.469  1.00  0.00     0.036 A 
HETATM   23  C14 UNL     1      -1.199   2.178  -1.589  1.00  0.00     0.032 A 
HETATM   24  C15 UNL     1      -2.264   3.062  -1.845  1.00  0.00     0.039 A 
HETATM   25  C16 UNL     1      -3.310   3.167  -0.966  1.00  0.00     0.076 A 
HETATM   26  C23 UNL     1      -3.291   2.387   0.169  1.00  0.00     0.039 A 
HETATM   27  C24 UNL     1      -2.252   1.535   0.404  1.00  0.00     0.032 A 
BRANCH  25  28
HETATM   28  O3  UNL     1      -4.386   4.004  -1.142  1.00  0.00    -0.311 OA
BRANCH  28  29
HETATM   29  C17 UNL     1      -5.548   3.636  -1.804  1.00  0.00     0.076 A 
HETATM   30  C18 UNL     1      -6.576   4.546  -1.934  1.00  0.00     0.037 A 
HETATM   31  C19 UNL     1      -7.756   4.219  -2.588  1.00  0.00     0.003 A 
HETATM   32  C20 UNL     1      -7.948   2.968  -3.136  1.00  0.00     0.000 A 
HETATM   33  C21 UNL     1      -6.919   2.059  -3.005  1.00  0.00     0.003 A 
HETATM   34  C22 UNL     1      -5.735   2.382  -2.350  1.00  0.00     0.037 A 
ENDBRANCH  28  29
ENDBRANCH  25  28
ENDBRANCH   5  22
TORSDOF 6
