REMARK  6 active torsions:
REMARK  status: ('A' for Active; 'I' for Inactive)
REMARK       I    between atoms: C1_2  and  N1_3 
REMARK    1  A    between atoms: C1_2  and  C9_12 
REMARK    2  A    between atoms: N1_3  and  C2_5 
REMARK    3  A    between atoms: C2_5  and  C3_6 
REMARK    4  A    between atoms: C13_16  and  N2_17 
REMARK    5  A    between atoms: N2_17  and  C14_19 
REMARK    6  A    between atoms: C19_24  and  C20_25 
ROOT
HETATM    1  N2  UNL     1      -1.541  -1.212   0.691  1.00  0.00    -0.355 N 
ATOM      2  H2  UNL     1      -1.756  -0.583  -0.082  1.00  0.00     0.166 HD
ENDROOT
BRANCH   1   3
HETATM    3  C13 UNL     1      -0.193  -1.292   1.097  1.00  0.00     0.033 A 
HETATM    4  C12 UNL     1       0.129  -1.558   2.400  1.00  0.00     0.029 A 
HETATM    5  C11 UNL     1       1.457  -1.660   2.829  1.00  0.00     0.003 A 
HETATM    6  C10 UNL     1       2.464  -1.477   1.867  1.00  0.00     0.017 A 
HETATM    7  C9  UNL     1       2.164  -1.210   0.562  1.00  0.00     0.034 A 
HETATM    8  C27 UNL     1       0.851  -1.116   0.169  1.00  0.00     0.046 A 
BRANCH   7   9
HETATM    9  C1  UNL     1       3.206  -1.024  -0.427  1.00  0.00     0.252 C 
HETATM   10  O1  UNL     1       2.894  -0.694  -1.634  1.00  0.00    -0.268 OA
HETATM   11  N1  UNL     1       4.594  -1.172  -0.205  1.00  0.00    -0.353 N 
ATOM     12  H1  UNL     1       4.906  -1.434   0.730  1.00  0.00     0.163 HD
BRANCH  11  13
HETATM   13  C2  UNL     1       5.593  -0.974  -1.225  1.00  0.00     0.161 C 
BRANCH  13  14
HETATM   14  C3  UNL     1       5.848   0.452  -1.522  1.00  0.00    -0.041 A 
HETATM   15  C4  UNL     1       5.226   1.454  -0.817  1.00  0.00     0.009 A 
HETATM   16  C5  UNL     1       5.512   2.765  -1.150  1.00  0.00     0.001 A 
HETATM   17  C6  UNL     1       6.398   3.100  -2.161  1.00  0.00     0.000 A 
HETATM   18  C7  UNL     1       7.023   2.090  -2.867  1.00  0.00     0.001 A 
HETATM   19  C8  UNL     1       6.728   0.787  -2.524  1.00  0.00     0.009 A 
ENDBRANCH  13  14
ENDBRANCH  11  13
ENDBRANCH   7   9
ENDBRANCH   1   3
BRANCH   1  20
HETATM   20  C14 UNL     1      -2.615  -1.921   1.256  1.00  0.00     0.046 A 
HETATM   21  C15 UNL     1      -2.419  -3.184   1.847  1.00  0.00     0.030 A 
HETATM   22  C16 UNL     1      -3.470  -3.977   2.270  1.00  0.00     0.002 A 
HETATM   23  C17 UNL     1      -4.746  -3.506   2.102  1.00  0.00     0.001 A 
HETATM   24  C18 UNL     1      -4.987  -2.290   1.537  1.00  0.00     0.017 A 
HETATM   25  C19 UNL     1      -3.902  -1.490   1.112  1.00  0.00     0.035 A 
BRANCH  25  26
HETATM   26  C20 UNL     1      -4.256  -0.164   0.661  1.00  0.00     0.118 A 
HETATM   27  N3  UNL     1      -5.509   0.143   0.177  1.00  0.00    -0.340 N 
HETATM   28  C21 UNL     1      -5.577   1.414  -0.217  1.00  0.00     0.060 A 
ATOM     29  H3  UNL     1      -6.285  -0.518   0.127  1.00  0.00     0.167 HD
HETATM   30  C22 UNL     1      -6.584   2.192  -0.763  1.00  0.00     0.032 A 
HETATM   31  C26 UNL     1      -4.339   1.967   0.011  1.00  0.00     0.060 A 
HETATM   32  C23 UNL     1      -6.387   3.516  -1.089  1.00  0.00     0.002 A 
HETATM   33  C24 UNL     1      -5.128   4.058  -0.852  1.00  0.00     0.002 A 
HETATM   34  C25 UNL     1      -4.124   3.285  -0.308  1.00  0.00     0.032 A 
HETATM   35  N4  UNL     1      -3.577   0.965   0.545  1.00  0.00    -0.340 N 
ATOM     36  H4  UNL     1      -2.601   1.075   0.821  1.00  0.00     0.167 HD
ENDBRANCH  25  26
ENDBRANCH   1  20
TORSDOF 6
