REMARK  7 active torsions:
REMARK  status: ('A' for Active; 'I' for Inactive)
REMARK    1  A    between atoms: C2_2  and  C4_4 
REMARK    2  A    between atoms: N1_11  and  C11_12 
REMARK    3  A    between atoms: C11_12  and  C12_13 
REMARK    4  A    between atoms: C12_13  and  O1_14 
REMARK    5  A    between atoms: C12_13  and  C13_16 
REMARK    6  A    between atoms: C13_16  and  N2_17 
REMARK    7  A    between atoms: N3_20  and  C16_21 
ROOT
HETATM    1  C11 UNL     1       0.018   1.730  -0.626  1.00  0.00     0.096 C 
ENDROOT
BRANCH   1   2
HETATM    2  N1  UNL     1      -1.076   1.340   0.145  1.00  0.00    -0.371 N 
HETATM    3  C10 UNL     1      -2.285   2.087  -0.054  1.00  0.00     0.128 C 
HETATM    4  C9  UNL     1      -3.406   1.392   0.717  1.00  0.00     0.030 C 
HETATM    5  C8  UNL     1      -3.621   0.073   0.070  1.00  0.00    -0.031 C 
HETATM    6  C4  UNL     1      -4.814  -0.690   0.499  1.00  0.00    -0.002 C 
HETATM    7  C7  UNL     1      -3.756   0.159  -1.437  1.00  0.00     0.010 C 
HETATM    8  C22 UNL     1      -2.352  -0.754   0.322  1.00  0.00     0.054 C 
HETATM    9  C5  UNL     1      -4.983  -1.750  -0.559  1.00  0.00     0.006 C 
HETATM   10  C6  UNL     1      -4.346  -1.182  -1.820  1.00  0.00     0.001 C 
HETATM   11  C21 UNL     1      -1.189   0.103   0.757  1.00  0.00     0.064 C 
BRANCH   6  12
HETATM   12  C2  UNL     1      -6.047   0.079   0.787  1.00  0.00    -0.018 C 
HETATM   13  C1  UNL     1      -6.638   0.824  -0.357  1.00  0.00     0.010 C 
HETATM   14  C3  UNL     1      -7.101  -0.924   1.279  1.00  0.00     0.010 C 
ENDBRANCH   6  12
ENDBRANCH   1   2
BRANCH   1  15
HETATM   15  C12 UNL     1       1.252   0.903  -0.345  1.00  0.00     0.184 C 
BRANCH  15  16
HETATM   16  O1  UNL     1       1.538   1.054   1.005  1.00  0.00    -0.389 OA
ATOM     17  H1  UNL     1       2.313   0.534   1.182  1.00  0.00     0.210 HD
ENDBRANCH  15  16
BRANCH  15  18
HETATM   18  C13 UNL     1       2.428   1.455  -1.139  1.00  0.00     0.309 C 
BRANCH  18  19
HETATM   19  N2  UNL     1       3.672   0.841  -0.913  1.00  0.00     0.094 N 
HETATM   20  C14 UNL     1       4.311   1.029   0.342  1.00  0.00     0.302 C 
HETATM   21  C15 UNL     1       4.628  -0.273   1.050  1.00  0.00     0.303 C 
HETATM   22  N3  UNL     1       5.479  -1.122   0.233  1.00  0.00     0.095 N 
HETATM   23  C19 UNL     1       5.012  -1.208  -1.129  1.00  0.00     0.303 C 
HETATM   24  C20 UNL     1       3.666  -0.545  -1.341  1.00  0.00     0.302 C 
BRANCH  22  25
HETATM   25  C16 UNL     1       6.842  -0.665   0.213  1.00  0.00     0.215 C 
HETATM   26  C17 UNL     1       7.476  -0.692   1.591  1.00  0.00     0.042 C 
HETATM   27  C18 UNL     1       7.651  -1.639  -0.638  1.00  0.00     0.042 C 
ENDBRANCH  22  25
ENDBRANCH  18  19
ENDBRANCH  15  18
ENDBRANCH   1  15
TORSDOF 7
