REMARK  7 active torsions:
REMARK  status: ('A' for Active; 'I' for Inactive)
REMARK    1  A    between atoms: C2_2  and  C3_3 
REMARK    2  A    between atoms: N1_7  and  C7_8 
REMARK    3  A    between atoms: N2_11  and  C10_12 
REMARK    4  A    between atoms: C10_12  and  C11_13 
REMARK    5  A    between atoms: C11_13  and  C12_14 
REMARK    6  A    between atoms: C15_21  and  N5_22 
REMARK    7  A    between atoms: N5_22  and  C16_24 
ROOT
HETATM    1  C11 UNL     1       0.948   2.202   1.681  1.00  0.00     0.061 C 
ENDROOT
BRANCH   1   2
HETATM    2  C10 UNL     1       0.182   2.655   0.481  1.00  0.00     0.130 C 
BRANCH   2   3
HETATM    3  N2  UNL     1      -0.774   1.673   0.046  1.00  0.00    -0.350 N 
HETATM    4  C9  UNL     1      -0.542   0.631  -0.930  1.00  0.00     0.128 C 
HETATM    5  C8  UNL     1      -1.833   0.714  -1.732  1.00  0.00     0.055 C 
HETATM    6  C7  UNL     1      -2.880   0.855  -0.692  1.00  0.00     0.178 C 
HETATM    7  C19 UNL     1      -2.152   1.492   0.437  1.00  0.00     0.242 C 
HETATM    8  O1  UNL     1      -2.572   1.852   1.576  1.00  0.00    -0.271 OA
BRANCH   6   9
HETATM    9  N1  UNL     1      -3.578  -0.251  -0.277  1.00  0.00    -0.372 N 
HETATM   10  C3  UNL     1      -4.397  -1.022  -1.080  1.00  0.00     0.107 C 
HETATM   11  C4  UNL     1      -4.374  -2.388  -0.380  1.00  0.00     0.034 C 
HETATM   12  C5  UNL     1      -4.335  -2.005   1.063  1.00  0.00     0.046 C 
HETATM   13  C6  UNL     1      -3.553  -0.702   1.056  1.00  0.00     0.060 C 
BRANCH  10  14
HETATM   14  C2  UNL     1      -5.838  -0.563  -1.015  1.00  0.00    -0.012 C 
HETATM   15  C1  UNL     1      -6.395   0.069  -2.031  1.00  0.00     0.009 C 
ENDBRANCH  10  14
ENDBRANCH   6   9
ENDBRANCH   2   3
ENDBRANCH   1   2
BRANCH   1  16
HETATM   16  C12 UNL     1       1.736   0.985   1.519  1.00  0.00    -0.020 A 
HETATM   17  C13 UNL     1       1.536  -0.300   1.961  1.00  0.00     0.098 A 
HETATM   18  N3  UNL     1       2.552  -1.071   1.561  1.00  0.00    -0.351 N 
HETATM   19  C14 UNL     1       3.466  -0.345   0.843  1.00  0.00     0.125 A 
ATOM     20  H3  UNL     1       2.636  -2.067   1.763  1.00  0.00     0.166 HD
HETATM   21  N4  UNL     1       4.612  -0.556   0.226  1.00  0.00    -0.322 N 
HETATM   22  C18 UNL     1       2.958   0.918   0.821  1.00  0.00     0.060 A 
HETATM   23  C15 UNL     1       5.206   0.470  -0.379  1.00  0.00     0.146 A 
ATOM     24  H4  UNL     1       5.034  -1.485   0.213  1.00  0.00     0.169 HD
HETATM   25  S1  UNL     1       4.137   1.766  -0.081  1.00  0.00    -0.050 SA
BRANCH  23  26
HETATM   26  N5  UNL     1       6.345   0.463  -1.042  1.00  0.00    -0.371 N 
ATOM     27  H5  UNL     1       6.694   1.324  -1.463  1.00  0.00     0.161 HD
BRANCH  26  28
HETATM   28  C16 UNL     1       7.099  -0.759  -1.174  1.00  0.00     0.117 C 
HETATM   29  C17 UNL     1       8.203  -0.656  -2.177  1.00  0.00     0.026 C 
ENDBRANCH  26  28
ENDBRANCH  23  26
ENDBRANCH   1  16
TORSDOF 7
