REMARK  6 active torsions:
REMARK  status: ('A' for Active; 'I' for Inactive)
REMARK    1  A    between atoms: N1_2  and  C2_5 
REMARK    2  A    between atoms: C2_5  and  C3_6 
REMARK    3  A    between atoms: C3_6  and  N2_7 
REMARK    4  A    between atoms: C11_15  and  N3_16 
REMARK       I    between atoms: N3_16  and  C12_17 
REMARK    5  A    between atoms: N3_16  and  C15_22 
REMARK    6  A    between atoms: C12_17  and  C13_19 
ROOT
HETATM    1  C13 UNL     1      -2.193   0.590  -2.999  1.00  0.00     0.226 C 
HETATM    2  C14 UNL     1      -2.812   1.495  -3.979  1.00  0.00     0.068 C 
HETATM    3  N4  UNL     1      -3.313   2.205  -4.737  1.00  0.00    -0.197 NA
ENDROOT
BRANCH   1   4
HETATM    4  C12 UNL     1      -2.723   0.834  -1.635  1.00  0.00     0.233 C 
HETATM    5  N3  UNL     1      -2.236   0.084  -0.497  1.00  0.00    -0.336 N 
HETATM    6  O1  UNL     1      -3.600   1.710  -1.515  1.00  0.00    -0.272 OA
BRANCH   5   7
HETATM    7  C11 UNL     1      -1.223  -0.925  -0.707  1.00  0.00     0.097 C 
HETATM    8  C6  UNL     1       0.063  -0.839  -0.001  1.00  0.00    -0.014 C 
HETATM    9  C5  UNL     1       0.564   0.523   0.345  1.00  0.00     0.056 C 
HETATM   10  C7  UNL     1       0.180  -1.703   1.228  1.00  0.00     0.012 C 
HETATM   11  C20 UNL     1       1.143  -1.400  -0.964  1.00  0.00     0.031 C 
HETATM   12  C4  UNL     1       1.987   0.592   0.767  1.00  0.00     0.059 C 
HETATM   13  N2  UNL     1       2.912  -0.241   0.148  1.00  0.00    -0.392 N 
HETATM   14  C21 UNL     1       2.496  -1.488  -0.378  1.00  0.00     0.122 C 
HETATM   15  C8  UNL     1      -0.378  -3.088   1.043  1.00  0.00     0.001 C 
HETATM   16  C9  UNL     1      -1.831  -2.967   0.683  1.00  0.00     0.002 C 
HETATM   17  C10 UNL     1      -1.834  -2.325  -0.673  1.00  0.00     0.026 C 
BRANCH  13  18
HETATM   18  C3  UNL     1       4.277  -0.116   0.498  1.00  0.00     0.149 C 
BRANCH  18  19
HETATM   19  C2  UNL     1       4.875   1.179   0.041  1.00  0.00     0.251 C 
BRANCH  19  20
HETATM   20  N1  UNL     1       6.284   1.219   0.443  1.00  0.00    -0.077 N 
HETATM   21  C1  UNL     1       6.834   2.478  -0.015  1.00  0.00     0.267 C 
ATOM     22  H12 UNL     1       6.814   0.411   0.115  1.00  0.00     0.276 HD
ATOM     23  H11 UNL     1       6.416   1.068   1.443  1.00  0.00     0.276 HD
ENDBRANCH  19  20
ENDBRANCH  18  19
ENDBRANCH  13  18
ENDBRANCH   5   7
BRANCH   5  24
HETATM   24  C15 UNL     1      -2.887   0.404   0.749  1.00  0.00     0.133 C 
HETATM   25  C16 UNL     1      -4.370  -0.037   0.674  1.00  0.00     0.032 C 
HETATM   26  C17 UNL     1      -5.133   0.895   1.539  1.00  0.00     0.008 C 
HETATM   27  C18 UNL     1      -4.239   2.023   1.959  1.00  0.00     0.054 C 
HETATM   28  C19 UNL     1      -3.009   1.817   1.113  1.00  0.00     0.003 C 
HETATM   29  N5  UNL     1      -2.296   2.845   0.851  1.00  0.00    -0.404 N 
ATOM     30  H52 UNL     1      -1.463   2.706   0.278  1.00  0.00     0.155 HD
ATOM     31  H51 UNL     1      -2.381   3.829   1.105  1.00  0.00     0.155 HD
ENDBRANCH   5  24
ENDBRANCH   1   4
TORSDOF 6
