REMARK  9 active torsions:
REMARK  status: ('A' for Active; 'I' for Inactive)
REMARK    1  A    between atoms: C3_3  and  C4_4 
REMARK    2  A    between atoms: C3_3  and  C10_10 
REMARK    3  A    between atoms: C4_4  and  C5_5 
REMARK    4  A    between atoms: C10_10  and  N1_11 
REMARK    5  A    between atoms: C10_10  and  C16_20 
REMARK       I    between atoms: N1_11  and  C11_13 
REMARK    6  A    between atoms: C11_13  and  O2_15 
REMARK    7  A    between atoms: O2_15  and  C12_16 
REMARK       I    between atoms: C16_20  and  N2_22 
REMARK    8  A    between atoms: C20_26  and  C21_27 
REMARK    9  A    between atoms: C21_27  and  O4_28 
ROOT
HETATM    1  C1  UNL     1       0.867  -3.241  -0.429  1.00  0.00     0.097 C 
HETATM    2  C2  UNL     1       0.915  -2.141   0.122  1.00  0.00    -0.180 C 
HETATM    3  C3  UNL     1       0.925  -0.841   0.770  1.00  0.00     0.084 C 
ENDROOT
BRANCH   3   4
HETATM    4  C4  UNL     1       2.200  -0.138   0.562  1.00  0.00     0.023 C 
BRANCH   4   5
HETATM    5  C5  UNL     1       3.446  -0.763   1.072  1.00  0.00    -0.013 C 
HETATM    6  C6  UNL     1       4.579   0.234   0.714  1.00  0.00     0.005 C 
HETATM    7  C7  UNL     1       5.846  -0.571   0.865  1.00  0.00     0.000 C 
HETATM    8  C8  UNL     1       5.456  -1.958   0.469  1.00  0.00     0.000 C 
HETATM    9  C9  UNL     1       3.932  -1.984   0.357  1.00  0.00     0.005 C 
ENDBRANCH   4   5
ENDBRANCH   3   4
BRANCH   3  10
HETATM   10  C10 UNL     1      -0.283  -0.056   0.288  1.00  0.00     0.193 C 
BRANCH  10  11
HETATM   11  N1  UNL     1      -1.505  -0.770   0.638  1.00  0.00    -0.322 N 
HETATM   12  C11 UNL     1      -2.402  -1.281  -0.311  1.00  0.00     0.362 C 
HETATM   13  O1  UNL     1      -2.129  -1.110  -1.534  1.00  0.00    -0.238 OA
ATOM     14  H1  UNL     1      -1.719  -0.905   1.626  1.00  0.00     0.165 HD
BRANCH  12  15
HETATM   15  O2  UNL     1      -3.562  -1.958  -0.006  1.00  0.00    -0.294 OA
BRANCH  15  16
HETATM   16  C12 UNL     1      -4.465  -2.473  -0.940  1.00  0.00     0.061 C 
HETATM   17  C13 UNL     1      -3.859  -3.490  -1.863  1.00  0.00     0.046 C 
HETATM   18  C14 UNL     1      -5.576  -3.167  -0.154  1.00  0.00     0.046 C 
HETATM   19  C15 UNL     1      -5.127  -1.407  -1.782  1.00  0.00     0.046 C 
ENDBRANCH  15  16
ENDBRANCH  12  15
ENDBRANCH  10  11
BRANCH  10  20
HETATM   20  C16 UNL     1      -0.405   1.287   0.859  1.00  0.00     0.244 C 
HETATM   21  O3  UNL     1      -0.939   1.322   2.028  1.00  0.00    -0.271 OA
HETATM   22  N2  UNL     1       0.013   2.482   0.220  1.00  0.00    -0.344 N 
HETATM   23  C17 UNL     1       0.589   2.532  -1.115  1.00  0.00     0.126 C 
HETATM   24  C20 UNL     1       0.015   3.857   0.594  1.00  0.00     0.111 C 
HETATM   25  C18 UNL     1      -0.171   3.715  -1.730  1.00  0.00     0.022 C 
HETATM   26  C19 UNL     1      -0.784   4.466  -0.538  1.00  0.00     0.029 C 
BRANCH  24  27
HETATM   27  C21 UNL     1      -0.386   4.235   1.947  1.00  0.00     0.189 C 
BRANCH  27  28
HETATM   28  O4  UNL     1       0.454   3.655   2.883  1.00  0.00    -0.399 OA
ATOM     29  H4  UNL     1       0.193   3.901   3.763  1.00  0.00     0.209 HD
ENDBRANCH  27  28
ENDBRANCH  24  27
ENDBRANCH  10  20
ENDBRANCH   3  10
TORSDOF 9
