REMARK  8 active torsions:
REMARK  status: ('A' for Active; 'I' for Inactive)
REMARK    1  A    between atoms: N1_2  and  C2_4 
REMARK    2  A    between atoms: C2_4  and  N2_6 
REMARK    3  A    between atoms: C3_7  and  C4_8 
REMARK       I    between atoms: C4_8  and  N3_10 
REMARK    4  A    between atoms: N3_10  and  C5_12 
REMARK    5  A    between atoms: C5_12  and  C6_13 
REMARK    6  A    between atoms: C6_13  and  C7_14 
REMARK    7  A    between atoms: C7_14  and  C8_15 
REMARK    8  A    between atoms: C8_15  and  C9_16 
ROOT
HETATM    1  N2  UNL     1      -3.502   0.663   0.274  1.00  0.00    -0.307 N 
HETATM    2  C3  UNL     1      -2.569   1.727   0.532  1.00  0.00     0.152 C 
HETATM    3  C13 UNL     1      -3.087   2.740  -0.395  1.00  0.00     0.184 C 
HETATM    4  O2  UNL     1      -2.630   3.469  -1.219  1.00  0.00    -0.290 OA
HETATM    5  C14 UNL     1      -4.578   2.691  -0.059  1.00  0.00     0.116 C 
HETATM    6  C15 UNL     1      -4.762   1.298   0.618  1.00  0.00     0.040 C 
HETATM    7  C16 UNL     1      -4.840   1.432   2.116  1.00  0.00     0.039 C 
HETATM    8  C17 UNL     1      -5.996   0.663   0.046  1.00  0.00     0.039 C 
ENDROOT
BRANCH   2   9
HETATM    9  C4  UNL     1      -1.179   1.521   0.711  1.00  0.00     0.272 C 
HETATM   10  O1  UNL     1      -0.371   2.271   0.050  1.00  0.00    -0.266 OA
HETATM   11  N3  UNL     1      -0.563   0.563   1.565  1.00  0.00    -0.356 N 
ATOM     12  H3  UNL     1      -1.145  -0.063   2.121  1.00  0.00     0.162 HD
BRANCH  11  13
HETATM   13  C5  UNL     1       0.856   0.467   1.653  1.00  0.00     0.123 C 
BRANCH  13  14
HETATM   14  C6  UNL     1       1.581   0.126   0.403  1.00  0.00     0.020 C 
BRANCH  14  15
HETATM   15  C7  UNL     1       3.080   0.072   0.729  1.00  0.00     0.003 C 
BRANCH  15  16
HETATM   16  C8  UNL     1       3.865  -0.276  -0.527  1.00  0.00     0.015 C 
BRANCH  16  17
HETATM   17  C9  UNL     1       5.336  -0.337  -0.243  1.00  0.00     0.047 C 
HETATM   18  C10 UNL     1       6.097  -0.683  -1.504  1.00  0.00     0.016 C 
HETATM   19  C11 UNL     1       5.921  -2.152  -1.760  1.00  0.00     0.011 C 
HETATM   20  C12 UNL     1       6.432  -2.882  -0.524  1.00  0.00     0.074 C 
HETATM   21  S2  UNL     1       5.733  -1.804   0.791  1.00  0.00    -0.164 SA
ENDBRANCH  16  17
ENDBRANCH  15  16
ENDBRANCH  14  15
ENDBRANCH  13  14
ENDBRANCH  11  13
ENDBRANCH   2   9
BRANCH   1  22
HETATM   22  C2  UNL     1      -3.332  -0.594  -0.280  1.00  0.00     0.175 C 
HETATM   23  S1  UNL     1      -4.611  -1.661  -0.316  1.00  0.00    -0.041 SA
BRANCH  22  24
HETATM   24  N1  UNL     1      -2.135  -1.122  -0.811  1.00  0.00    -0.371 N 
HETATM   25  C1  UNL     1      -2.034  -2.479  -1.356  1.00  0.00     0.148 C 
ATOM     26  H1  UNL     1      -1.303  -0.532  -0.816  1.00  0.00     0.161 HD
ENDBRANCH  22  24
ENDBRANCH   1  22
TORSDOF 8
