REMARK  7 active torsions:
REMARK  status: ('A' for Active; 'I' for Inactive)
REMARK    1  A    between atoms: C1_2  and  C2_3 
REMARK       I    between atoms: C1_2  and  N1_10 
REMARK    2  A    between atoms: C2_3  and  C3_4 
REMARK    3  A    between atoms: C3_4  and  C4_5 
REMARK    4  A    between atoms: N1_10  and  C8_12 
REMARK    5  A    between atoms: C8_12  and  C9_13 
REMARK    6  A    between atoms: C8_12  and  C13_23 
REMARK       I    between atoms: C9_13  and  N2_15 
REMARK    7  A    between atoms: N2_15  and  C10_17 
ROOT
HETATM    1  C8  UNL     1      -0.919  -0.092  -0.453  1.00  0.00     0.181 C 
ENDROOT
BRANCH   1   2
HETATM    2  N1  UNL     1       0.150  -0.016   0.537  1.00  0.00    -0.347 N 
HETATM    3  C1  UNL     1       1.434  -0.555   0.275  1.00  0.00     0.218 C 
HETATM    4  O1  UNL     1       1.641  -1.098  -0.821  1.00  0.00    -0.274 OA
ATOM      5  H1  UNL     1      -0.030   0.434   1.435  1.00  0.00     0.163 HD
BRANCH   3   6
HETATM    6  C2  UNL     1       2.484  -0.461   1.292  1.00  0.00     0.103 C 
BRANCH   6   7
HETATM    7  C3  UNL     1       3.773  -0.997   0.795  1.00  0.00     0.016 C 
BRANCH   7   8
HETATM    8  C4  UNL     1       4.382  -0.315  -0.377  1.00  0.00     0.012 C 
HETATM    9  C5  UNL     1       4.658   1.142  -0.070  1.00  0.00     0.033 C 
HETATM   10  C6  UNL     1       6.127   1.272  -0.404  1.00  0.00     0.168 C 
HETATM   11  O2  UNL     1       6.655   0.058   0.033  1.00  0.00    -0.391 OA
HETATM   12  C7  UNL     1       5.802  -0.869  -0.510  1.00  0.00     0.172 C 
ENDBRANCH   7   8
ENDBRANCH   6   7
ENDBRANCH   3   6
ENDBRANCH   1   2
BRANCH   1  13
HETATM   13  C9  UNL     1      -1.297   1.250  -0.869  1.00  0.00     0.246 C 
HETATM   14  O3  UNL     1      -0.709   2.242  -0.372  1.00  0.00    -0.271 OA
HETATM   15  N2  UNL     1      -2.311   1.532  -1.825  1.00  0.00    -0.305 N 
ATOM     16  H2  UNL     1      -2.429   0.959  -2.661  1.00  0.00     0.171 HD
BRANCH  15  17
HETATM   17  C10 UNL     1      -3.093   2.568  -1.583  1.00  0.00     0.150 A 
HETATM   18  N3  UNL     1      -4.100   3.014  -2.333  1.00  0.00    -0.346 N 
HETATM   19  C11 UNL     1      -4.763   4.061  -1.928  1.00  0.00     0.097 A 
ATOM     20  H3  UNL     1      -4.347   2.546  -3.205  1.00  0.00     0.167 HD
HETATM   21  C12 UNL     1      -4.384   4.644  -0.749  1.00  0.00     0.070 A 
HETATM   22  S1  UNL     1      -3.079   3.655  -0.268  1.00  0.00    -0.064 SA
ENDBRANCH  15  17
ENDBRANCH   1  13
BRANCH   1  23
HETATM   23  C13 UNL     1      -2.051  -0.944   0.040  1.00  0.00     0.018 C 
HETATM   24  C14 UNL     1      -1.481  -2.341   0.299  1.00  0.00     0.007 C 
HETATM   25  C15 UNL     1      -2.696  -3.256   0.444  1.00  0.00     0.000 C 
HETATM   26  C16 UNL     1      -3.382  -2.824   1.740  1.00  0.00     0.000 C 
HETATM   27  C17 UNL     1      -3.862  -1.395   1.592  1.00  0.00     0.000 C 
HETATM   28  C18 UNL     1      -2.681  -0.472   1.300  1.00  0.00     0.007 C 
ENDBRANCH   1  23
TORSDOF 7
