REMARK  6 active torsions:
REMARK  status: ('A' for Active; 'I' for Inactive)
REMARK    1  A    between atoms: N1_8  and  C8_9 
REMARK    2  A    between atoms: C8_9  and  C9_10 
REMARK    3  A    between atoms: C9_10  and  C10_11 
REMARK    4  A    between atoms: C10_11  and  N2_12 
REMARK       I    between atoms: N2_12  and  C11_14 
REMARK    5  A    between atoms: C11_14  and  C12_16 
REMARK    6  A    between atoms: C14_19  and  C15_20 
ROOT
HETATM    1  N2  UNL     1      -0.427  -1.994  -0.519  1.00  0.00    -0.359 N 
ATOM      2  H2  UNL     1      -0.661  -1.126  -1.001  1.00  0.00     0.162 HD
HETATM    3  C11 UNL     1       0.933  -2.419  -0.483  1.00  0.00     0.242 C 
HETATM    4  O1  UNL     1       1.172  -3.494   0.123  1.00  0.00    -0.271 OA
ENDROOT
BRANCH   3   5
HETATM    5  C12 UNL     1       2.036  -1.682  -1.102  1.00  0.00     0.200 C 
HETATM    6  C13 UNL     1       2.098  -0.237  -0.672  1.00  0.00     0.203 C 
HETATM    7  O2  UNL     1       3.060   0.032   0.282  1.00  0.00    -0.373 OA
HETATM    8  C14 UNL     1       4.329  -0.224  -0.301  1.00  0.00     0.217 C 
HETATM    9  C20 UNL     1       4.425  -1.714  -0.297  1.00  0.00     0.247 C 
HETATM   10  O3  UNL     1       5.391  -2.359   0.166  1.00  0.00    -0.271 OA
HETATM   11  N3  UNL     1       3.287  -2.380  -0.885  1.00  0.00    -0.344 N 
ATOM     12  H3  UNL     1       3.365  -3.361  -1.153  1.00  0.00     0.163 HD
BRANCH   8  13
HETATM   13  C15 UNL     1       5.408   0.423   0.539  1.00  0.00     0.024 C 
HETATM   14  C16 UNL     1       5.199   1.898   0.669  1.00  0.00     0.007 C 
HETATM   15  C17 UNL     1       6.489   2.549   0.171  1.00  0.00     0.000 C 
HETATM   16  C18 UNL     1       7.014   1.547  -0.820  1.00  0.00     0.000 C 
HETATM   17  C19 UNL     1       6.727   0.225  -0.157  1.00  0.00     0.007 C 
ENDBRANCH   8  13
ENDBRANCH   3   5
BRANCH   1  18
HETATM   18  C10 UNL     1      -1.481  -2.753   0.105  1.00  0.00     0.124 C 
BRANCH  18  19
HETATM   19  C9  UNL     1      -2.784  -2.028  -0.107  1.00  0.00     0.050 C 
BRANCH  19  20
HETATM   20  C8  UNL     1      -2.717  -0.690   0.533  1.00  0.00     0.275 C 
BRANCH  20  21
HETATM   21  N1  UNL     1      -3.930   0.091   0.389  1.00  0.00     0.097 N 
HETATM   22  C2  UNL     1      -5.046  -0.462   1.134  1.00  0.00     0.219 C 
HETATM   23  C1  UNL     1      -5.966  -1.293   0.301  1.00  0.00     0.043 C 
HETATM   24  C3  UNL     1      -5.893   0.638   1.775  1.00  0.00     0.035 C 
HETATM   25  C4  UNL     1      -6.091   1.731   0.756  1.00  0.00     0.004 C 
HETATM   26  C5  UNL     1      -4.772   2.402   0.538  1.00  0.00     0.035 C 
HETATM   27  C6  UNL     1      -3.684   1.404   0.958  1.00  0.00     0.219 C 
HETATM   28  C7  UNL     1      -2.381   2.002   0.494  1.00  0.00     0.043 C 
ENDBRANCH  20  21
ENDBRANCH  19  20
ENDBRANCH  18  19
ENDBRANCH   1  18
TORSDOF 6
