REMARK  8 active torsions:
REMARK  status: ('A' for Active; 'I' for Inactive)
REMARK    1  A    between atoms: C2_2  and  C4_4 
REMARK    2  A    between atoms: C4_4  and  N1_5 
REMARK    3  A    between atoms: C4_4  and  C12_17 
REMARK       I    between atoms: N1_5  and  C5_7 
REMARK       I    between atoms: C5_7  and  N2_9 
REMARK    4  A    between atoms: N2_9  and  C6_11 
REMARK    5  A    between atoms: C12_17  and  O3_19 
REMARK    6  A    between atoms: O3_19  and  C13_20 
REMARK    7  A    between atoms: C13_20  and  C14_22 
REMARK    8  A    between atoms: C14_22  and  N3_24 
ROOT
HETATM    1  C4  UNL     1       0.319   0.524  -0.749  1.00  0.00     0.190 C 
ENDROOT
BRANCH   1   2
HETATM    2  C2  UNL     1      -0.031   1.959  -1.099  1.00  0.00     0.010 C 
HETATM    3  C1  UNL     1       1.039   2.575  -1.969  1.00  0.00     0.012 C 
HETATM    4  C3  UNL     1      -1.326   1.952  -1.890  1.00  0.00     0.012 C 
ENDBRANCH   1   2
BRANCH   1   5
HETATM    5  N1  UNL     1       1.580   0.564  -0.038  1.00  0.00    -0.329 N 
HETATM    6  C5  UNL     1       2.742  -0.047  -0.559  1.00  0.00     0.317 C 
HETATM    7  O1  UNL     1       2.684  -0.642  -1.664  1.00  0.00    -0.247 OA
HETATM    8  N2  UNL     1       3.974  -0.005   0.139  1.00  0.00    -0.339 N 
ATOM      9  H2  UNL     1       4.015   0.479   1.036  1.00  0.00     0.164 HD
ATOM     10  H1  UNL     1       1.630   1.045   0.860  1.00  0.00     0.165 HD
BRANCH   8  11
HETATM   11  C6  UNL     1       5.168  -0.621  -0.372  1.00  0.00     0.086 C 
HETATM   12  C7  UNL     1       6.266   0.364  -0.625  1.00  0.00     0.025 C 
HETATM   13  C8  UNL     1       7.273   0.463   0.472  1.00  0.00     0.002 C 
HETATM   14  C9  UNL     1       6.753   0.082   1.822  1.00  0.00     0.000 C 
HETATM   15  C10 UNL     1       6.094  -1.258   1.867  1.00  0.00     0.002 C 
HETATM   16  C11 UNL     1       5.678  -1.742   0.511  1.00  0.00     0.025 C 
ENDBRANCH   8  11
ENDBRANCH   1   5
BRANCH   1  17
HETATM   17  C12 UNL     1      -0.749  -0.108   0.066  1.00  0.00     0.289 C 
HETATM   18  O2  UNL     1      -0.533  -0.540   1.235  1.00  0.00    -0.262 OA
BRANCH  17  19
HETATM   19  O3  UNL     1      -2.011  -0.235  -0.446  1.00  0.00    -0.242 OA
BRANCH  19  20
HETATM   20  C13 UNL     1      -3.046  -0.812   0.259  1.00  0.00     0.299 C 
HETATM   21  O4  UNL     1      -2.823  -1.236   1.412  1.00  0.00    -0.262 OA
BRANCH  20  22
HETATM   22  C14 UNL     1      -4.376  -0.909  -0.371  1.00  0.00     0.318 C 
HETATM   23  C15 UNL     1      -4.791   0.421  -0.904  1.00  0.00     0.054 C 
BRANCH  22  24
HETATM   24  N3  UNL     1      -5.354  -1.534   0.484  1.00  0.00     0.102 N 
HETATM   25  C16 UNL     1      -6.646  -1.647  -0.105  1.00  0.00     0.273 C 
HETATM   26  C17 UNL     1      -7.587  -0.795   0.744  1.00  0.00     0.032 C 
HETATM   27  C18 UNL     1      -6.973  -0.969   2.120  1.00  0.00     0.032 C 
HETATM   28  C19 UNL     1      -5.479  -0.929   1.773  1.00  0.00     0.273 C 
ENDBRANCH  22  24
ENDBRANCH  20  22
ENDBRANCH  19  20
ENDBRANCH  17  19
ENDBRANCH   1  17
TORSDOF 8
