REMARK  8 active torsions:
REMARK  status: ('A' for Active; 'I' for Inactive)
REMARK    1  A    between atoms: N1_2  and  C3_4 
REMARK    2  A    between atoms: C3_4  and  C4_5 
REMARK    3  A    between atoms: C4_5  and  C5_6 
REMARK    4  A    between atoms: C5_6  and  C6_7 
REMARK    5  A    between atoms: C10_11  and  O1_12 
REMARK    6  A    between atoms: N2_19  and  C16_20 
REMARK    7  A    between atoms: C16_20  and  C17_21 
REMARK    8  A    between atoms: C21_26  and  O3_27 
ROOT
HETATM    1  C6  UNL     1       1.312   0.291  -0.974  1.00  0.00     0.027 C 
HETATM    2  C7  UNL     1       1.139   1.568  -0.257  1.00  0.00    -0.043 A 
HETATM    3  C8  UNL     1       1.808   2.647   0.384  1.00  0.00     0.011 A 
HETATM    4  C9  UNL     1       1.088   3.544   1.202  1.00  0.00     0.040 A 
HETATM    5  C10 UNL     1      -0.308   3.409   1.422  1.00  0.00     0.099 A 
HETATM    6  C11 UNL     1      -0.951   2.367   0.801  1.00  0.00     0.112 A 
HETATM    7  C12 UNL     1      -0.125   1.638   0.066  1.00  0.00    -0.003 A 
HETATM    8  C13 UNL     1      -0.823   0.702  -0.904  1.00  0.00     0.035 A 
HETATM    9  C14 UNL     1      -1.879   1.019  -1.792  1.00  0.00     0.048 C 
HETATM   10  C15 UNL     1      -3.079   0.054  -1.694  1.00  0.00     0.277 C 
HETATM   11  N2  UNL     1      -3.472   0.176  -0.327  1.00  0.00     0.121 N 
HETATM   12  C20 UNL     1      -2.360   0.376   0.577  1.00  0.00     0.401 C 
HETATM   13  O2  UNL     1      -2.233   1.843   0.752  1.00  0.00    -0.310 OA
HETATM   14  C21 UNL     1      -1.120  -0.334   0.188  1.00  0.00     0.130 A 
HETATM   15  C22 UNL     1      -0.090  -0.458  -0.823  1.00  0.00     0.050 A 
ENDROOT
BRANCH   1  16
HETATM   16  C5  UNL     1       2.245  -0.684  -0.369  1.00  0.00     0.011 C 
BRANCH  16  17
HETATM   17  C4  UNL     1       3.654  -0.285  -0.151  1.00  0.00     0.031 C 
BRANCH  17  18
HETATM   18  C3  UNL     1       4.366  -1.499   0.454  1.00  0.00     0.271 C 
BRANCH  18  19
HETATM   19  N1  UNL     1       5.723  -1.268   0.747  1.00  0.00     0.080 N 
HETATM   20  C1  UNL     1       6.376  -2.447   1.245  1.00  0.00     0.309 C 
HETATM   21  C2  UNL     1       6.541  -0.576  -0.161  1.00  0.00     0.309 C 
ENDBRANCH  18  19
ENDBRANCH  17  18
ENDBRANCH  16  17
ENDBRANCH   1  16
BRANCH  14  22
HETATM   22  O3  UNL     1      -0.379  -0.434   1.375  1.00  0.00    -0.384 OA
ATOM     23  H3  UNL     1      -0.563  -1.075   2.051  1.00  0.00     0.210 HD
ENDBRANCH  14  22
BRANCH   5  24
HETATM   24  O1  UNL     1      -1.051   4.236   2.197  1.00  0.00    -0.358 OA
ATOM     25  H1  UNL     1      -1.985   4.146   2.344  1.00  0.00     0.217 HD
ENDBRANCH   5  24
BRANCH  11  26
HETATM   26  C16 UNL     1      -4.372  -0.846   0.052  1.00  0.00     0.280 C 
BRANCH  26  27
HETATM   27  C17 UNL     1      -5.718  -0.736  -0.583  1.00  0.00     0.014 A 
HETATM   28  C18 UNL     1      -6.715  -1.836  -0.174  1.00  0.00     0.007 A 
HETATM   29  C19 UNL     1      -6.922  -0.451   0.329  1.00  0.00     0.007 A 
ENDBRANCH  26  27
ENDBRANCH  11  26
TORSDOF 8
