REMARK  6 active torsions:
REMARK  status: ('A' for Active; 'I' for Inactive)
REMARK    1  A    between atoms: C2_2  and  C4_4 
REMARK    2  A    between atoms: C4_4  and  C5_5 
REMARK    3  A    between atoms: C6_9  and  C7_10 
REMARK    4  A    between atoms: C7_10  and  C8_11 
REMARK       I    between atoms: C8_11  and  N2_13 
REMARK    5  A    between atoms: N2_13  and  C10_15 
REMARK    6  A    between atoms: C17_22  and  N3_23 
ROOT
HETATM    1  C5  UNL     1      -2.071   1.161   0.588  1.00  0.00     0.220 C 
HETATM    2  N1  UNL     1      -0.610   1.236   0.797  1.00  0.00    -0.064 N 
ATOM      3  H11 UNL     1      -0.309   1.879   1.529  1.00  0.00     0.278 HD
ATOM      4  H12 UNL     1      -0.087   1.693   0.050  1.00  0.00     0.278 HD
HETATM    5  C6  UNL     1      -0.282  -0.126   1.018  1.00  0.00     0.197 C 
HETATM    6  C16 UNL     1      -0.908  -0.835  -0.150  1.00  0.00     0.071 C 
HETATM    7  C17 UNL     1      -2.199  -0.038  -0.283  1.00  0.00     0.255 C 
ENDROOT
BRANCH   5   8
HETATM    8  C7  UNL     1       1.132  -0.435   1.287  1.00  0.00     0.136 C 
BRANCH   8   9
HETATM    9  C8  UNL     1       2.089  -0.073   0.248  1.00  0.00     0.221 C 
HETATM   10  O1  UNL     1       1.793   0.482  -0.843  1.00  0.00    -0.273 OA
HETATM   11  N2  UNL     1       3.468  -0.352   0.449  1.00  0.00    -0.352 N 
HETATM   12  C9  UNL     1       3.896  -0.995   1.690  1.00  0.00     0.153 C 
BRANCH  11  13
HETATM   13  C10 UNL     1       4.494  -0.028  -0.528  1.00  0.00     0.086 C 
HETATM   14  C11 UNL     1       5.402   0.985   0.088  1.00  0.00     0.025 C 
HETATM   15  C12 UNL     1       6.614   1.219  -0.797  1.00  0.00     0.002 C 
HETATM   16  C13 UNL     1       7.365  -0.118  -0.824  1.00  0.00     0.000 C 
HETATM   17  C14 UNL     1       6.507  -1.059  -1.634  1.00  0.00     0.002 C 
HETATM   18  C15 UNL     1       5.166  -1.270  -1.012  1.00  0.00     0.025 C 
ENDBRANCH  11  13
ENDBRANCH   8   9
ENDBRANCH   5   8
BRANCH   1  19
HETATM   19  C4  UNL     1      -2.550   2.431  -0.087  1.00  0.00     0.039 C 
BRANCH  19  20
HETATM   20  C2  UNL     1      -4.045   2.370  -0.301  1.00  0.00    -0.021 C 
HETATM   21  C1  UNL     1      -4.476   3.669  -0.998  1.00  0.00     0.009 C 
HETATM   22  C3  UNL     1      -4.817   2.297   1.005  1.00  0.00     0.009 C 
ENDBRANCH  19  20
ENDBRANCH   1  19
BRANCH   7  23
HETATM   23  N3  UNL     1      -3.363  -0.831  -0.122  1.00  0.00     0.098 N 
HETATM   24  C18 UNL     1      -3.336  -1.877  -1.141  1.00  0.00     0.292 C 
HETATM   25  C19 UNL     1      -4.694  -2.519  -1.177  1.00  0.00     0.144 C 
HETATM   26  N4  UNL     1      -5.470  -2.351  -0.006  1.00  0.00    -0.418 N 
HETATM   27  C20 UNL     1      -4.742  -2.302   1.225  1.00  0.00     0.144 C 
ATOM     28  H4  UNL     1      -6.486  -2.270  -0.037  1.00  0.00     0.153 HD
HETATM   29  C21 UNL     1      -3.471  -1.504   1.150  1.00  0.00     0.292 C 
ENDBRANCH   7  23
TORSDOF 6
