REMARK  7 active torsions:
REMARK  status: ('A' for Active; 'I' for Inactive)
REMARK    1  A    between atoms: N1_1  and  C1_4 
REMARK    2  A    between atoms: C1_4  and  C2_6 
REMARK    3  A    between atoms: C2_6  and  C3_7 
REMARK    4  A    between atoms: N4_15  and  C8_16 
REMARK    5  A    between atoms: C8_16  and  O1_17 
REMARK    6  A    between atoms: N5_19  and  C9_21 
REMARK    7  A    between atoms: C11_23  and  C12_24 
ROOT
HETATM    1  C3  UNL     1      -4.606   1.093   0.648  1.00  0.00     0.030 A 
HETATM    2  N3  UNL     1      -5.449   0.282   1.315  1.00  0.00    -0.329 N 
ATOM      3  H3  UNL     1      -6.315   0.543   1.786  1.00  0.00     0.174 HD
HETATM    4  S1  UNL     1      -4.774  -1.247   1.207  1.00  0.00    -0.013 SA
HETATM    5  C4  UNL     1      -3.366  -0.851   0.304  1.00  0.00     0.044 A 
HETATM    6  C5  UNL     1      -3.513   0.508   0.107  1.00  0.00    -0.014 A 
HETATM    7  C6  UNL     1      -2.516   1.253  -0.759  1.00  0.00     0.062 C 
HETATM    8  C7  UNL     1      -1.119   1.212  -0.240  1.00  0.00     0.139 C 
HETATM    9  N4  UNL     1      -0.393  -0.053  -0.240  1.00  0.00    -0.298 N 
HETATM   10  C16 UNL     1      -0.960  -1.385  -0.154  1.00  0.00     0.122 A 
HETATM   11  N9  UNL     1      -0.040  -2.348  -0.215  1.00  0.00    -0.341 N 
ATOM     12  H9  UNL     1       0.947  -2.113  -0.320  1.00  0.00     0.167 HD
HETATM   13  C17 UNL     1      -0.433  -3.650  -0.136  1.00  0.00     0.044 A 
HETATM   14  C18 UNL     1       0.574  -4.617  -0.160  1.00  0.00     0.030 A 
HETATM   15  C19 UNL     1       0.221  -5.941  -0.040  1.00  0.00     0.002 A 
HETATM   16  C20 UNL     1      -1.102  -6.368   0.110  1.00  0.00     0.001 A 
HETATM   17  C21 UNL     1      -2.088  -5.405   0.132  1.00  0.00     0.014 A 
HETATM   18  C22 UNL     1      -1.739  -4.059   0.010  1.00  0.00    -0.009 A 
HETATM   19  C23 UNL     1      -2.712  -3.064   0.072  1.00  0.00     0.030 A 
HETATM   20  C24 UNL     1      -2.270  -1.766  -0.013  1.00  0.00     0.028 A 
ENDROOT
BRANCH   9  21
HETATM   21  C8  UNL     1       0.970   0.024  -0.247  1.00  0.00     0.226 C 
HETATM   22  N5  UNL     1       2.291   0.095  -0.248  1.00  0.00    -0.308 N 
ATOM     23  H5  UNL     1       2.747  -0.816  -0.202  1.00  0.00     0.171 HD
BRANCH  21  24
HETATM   24  O1  UNL     1       0.999  -0.617   1.228  1.00  0.00    -0.332 OA
ATOM     25  H1  UNL     1       1.947  -0.563   1.223  1.00  0.00     0.221 HD
ENDBRANCH  21  24
BRANCH  22  26
HETATM   26  C9  UNL     1       3.095   1.055  -0.294  1.00  0.00     0.108 A 
HETATM   27  C10 UNL     1       4.461   0.777  -0.251  1.00  0.00     0.064 A 
HETATM   28  C11 UNL     1       5.384   1.812  -0.217  1.00  0.00     0.015 A 
HETATM   29  C14 UNL     1       4.937   3.101  -0.243  1.00  0.00     0.032 A 
HETATM   30  C15 UNL     1       3.588   3.330  -0.295  1.00  0.00     0.090 A 
HETATM   31  N8  UNL     1       2.684   2.312  -0.315  1.00  0.00    -0.352 N 
ATOM     32  H8  UNL     1       1.686   2.520  -0.346  1.00  0.00     0.166 HD
BRANCH  28  33
HETATM   33  C12 UNL     1       6.805   1.484  -0.205  1.00  0.00     0.140 A 
HETATM   34  N6  UNL     1       7.622   2.058   0.704  1.00  0.00    -0.285 N 
HETATM   35  C13 UNL     1       8.808   1.421   0.610  1.00  0.00     0.388 A 
ATOM     36  H6  UNL     1       7.389   2.823   1.337  1.00  0.00     0.172 HD
HETATM   37  O2  UNL     1       9.844   1.627   1.281  1.00  0.00    -0.236 OA
HETATM   38  O3  UNL     1       8.680   0.489  -0.361  1.00  0.00    -0.179 OA
HETATM   39  N7  UNL     1       7.464   0.539  -0.847  1.00  0.00    -0.239 N 
ATOM     40  H7  UNL     1       7.092  -0.050  -1.592  1.00  0.00     0.196 HD
ENDBRANCH  28  33
ENDBRANCH  22  26
ENDBRANCH   9  21
BRANCH   1  41
HETATM   41  C2  UNL     1      -4.912   2.582   0.667  1.00  0.00     0.130 C 
BRANCH  41  42
HETATM   42  C1  UNL     1      -5.655   3.031  -0.470  1.00  0.00     0.092 C 
HETATM   43  N2  UNL     1      -6.953   2.537  -0.794  1.00  0.00    -0.088 NA
BRANCH  42  44
HETATM   44  N1  UNL     1      -5.176   3.979  -1.259  1.00  0.00    -0.391 N 
ATOM     45  H12 UNL     1      -5.706   4.299  -2.070  1.00  0.00     0.157 HD
ATOM     46  H11 UNL     1      -4.248   4.332  -1.027  1.00  0.00     0.157 HD
ENDBRANCH  42  44
ENDBRANCH  41  42
ENDBRANCH   1  41
TORSDOF 7
