REMARK  4 active torsions:
REMARK  status: ('A' for Active; 'I' for Inactive)
REMARK    1  A    between atoms: C5_5  and  S1_6 
REMARK    2  A    between atoms: S1_6  and  N1_9 
REMARK    3  A    between atoms: N1_9  and  C6_11 
REMARK    4  A    between atoms: C14_21  and  N3_22 
ROOT
HETATM    1  C6  UNL     1       1.364   1.369   0.279  1.00  0.00     0.043 A 
HETATM    2  C7  UNL     1       1.592   0.041   0.522  1.00  0.00     0.031 A 
HETATM    3  C8  UNL     1       0.497  -0.811   0.652  1.00  0.00     0.017 A 
HETATM    4  C9  UNL     1      -0.815  -0.371   0.545  1.00  0.00     0.003 A 
HETATM    5  C10 UNL     1      -1.057   0.958   0.304  1.00  0.00     0.007 A 
HETATM    6  C11 UNL     1       0.028   1.803   0.174  1.00  0.00     0.044 A 
HETATM    7  C12 UNL     1      -2.388   1.594   0.195  1.00  0.00     0.059 A 
HETATM    8  C13 UNL     1      -2.504   2.949   0.546  1.00  0.00     0.120 A 
HETATM    9  N2  UNL     1      -3.719   3.518   0.459  1.00  0.00    -0.348 N 
ATOM     10  H2  UNL     1      -3.807   4.502   0.711  1.00  0.00     0.167 HD
HETATM   11  C14 UNL     1      -4.814   2.873   0.063  1.00  0.00     0.131 A 
HETATM   12  C15 UNL     1      -4.688   1.512  -0.286  1.00  0.00     0.146 A 
HETATM   13  N4  UNL     1      -3.494   1.003  -0.189  1.00  0.00    -0.347 N 
ATOM     14  H4  UNL     1      -3.407   0.019  -0.444  1.00  0.00     0.166 HD
HETATM   15  C16 UNL     1      -5.878   0.759  -0.701  1.00  0.00     0.285 C 
HETATM   16  O3  UNL     1      -6.719   1.476  -1.374  1.00  0.00    -0.265 OA
HETATM   17  N5  UNL     1      -6.213  -0.578  -0.474  1.00  0.00    -0.243 N 
ATOM     18  H5  UNL     1      -7.086  -0.721   0.034  1.00  0.00     0.182 HD
HETATM   19  S2  UNL     1      -5.390  -2.019  -0.914  1.00  0.00     0.281 S 
HETATM   20  O4  UNL     1      -5.013  -2.062  -2.379  1.00  0.00    -0.199 OA
HETATM   21  O5  UNL     1      -6.241  -3.254  -0.705  1.00  0.00    -0.199 OA
HETATM   22  C17 UNL     1      -3.929  -2.272   0.069  1.00  0.00     0.149 A 
HETATM   23  C18 UNL     1      -3.801  -3.332   0.926  1.00  0.00     0.044 A 
HETATM   24  C19 UNL     1      -2.649  -3.476   1.710  1.00  0.00     0.005 A 
HETATM   25  C20 UNL     1      -1.681  -2.504   1.565  1.00  0.00     0.030 A 
HETATM   26  C21 UNL     1      -1.833  -1.431   0.685  1.00  0.00     0.044 A 
HETATM   27  N6  UNL     1      -2.954  -1.415   0.010  1.00  0.00    -0.345 N 
ATOM     28  H6  UNL     1      -3.077  -0.638  -0.639  1.00  0.00     0.167 HD
ENDROOT
BRANCH   1  29
HETATM   29  N1  UNL     1       2.423   2.290   0.165  1.00  0.00    -0.281 N 
ATOM     30  H1  UNL     1       2.395   3.110   0.771  1.00  0.00     0.179 HD
BRANCH  29  31
HETATM   31  S1  UNL     1       3.738   2.153  -0.891  1.00  0.00     0.263 S 
HETATM   32  O1  UNL     1       4.587   3.398  -0.741  1.00  0.00    -0.200 OA
HETATM   33  O2  UNL     1       3.194   2.121  -2.324  1.00  0.00    -0.200 OA
BRANCH  31  34
HETATM   34  C5  UNL     1       4.746   0.784  -0.681  1.00  0.00     0.079 A 
HETATM   35  C4  UNL     1       5.673   0.735   0.342  1.00  0.00     0.026 A 
HETATM   36  C3  UNL     1       6.477  -0.373   0.442  1.00  0.00     0.008 A 
HETATM   37  C2  UNL     1       6.377  -1.418  -0.443  1.00  0.00    -0.062 A 
HETATM   38  C1  UNL     1       7.295  -2.570  -0.246  1.00  0.00     0.048 C 
HETATM   39  C23 UNL     1       5.459  -1.388  -1.469  1.00  0.00     0.008 A 
HETATM   40  C22 UNL     1       4.651  -0.281  -1.574  1.00  0.00     0.026 A 
ENDBRANCH  31  34
ENDBRANCH  29  31
ENDBRANCH   1  29
BRANCH  11  41
HETATM   41  N3  UNL     1      -5.982   3.457  -0.012  1.00  0.00    -0.383 N 
ATOM     42  H32 UNL     1      -6.073   4.441   0.240  1.00  0.00     0.157 HD
ATOM     43  H31 UNL     1      -6.821   2.963  -0.315  1.00  0.00     0.157 HD
ENDBRANCH  11  41
TORSDOF 4
