REMARK  7 active torsions:
REMARK  status: ('A' for Active; 'I' for Inactive)
REMARK    1  A    between atoms: N1_1  and  C1_4 
REMARK    2  A    between atoms: N3_8  and  C3_9 
REMARK    3  A    between atoms: C3_9  and  C4_10 
REMARK    4  A    between atoms: C4_10  and  C5_11 
REMARK    5  A    between atoms: C5_11  and  C6_12 
REMARK    6  A    between atoms: C6_12  and  N4_13 
REMARK    7  A    between atoms: C7_17  and  N5_18 
ROOT
HETATM    1  C1  UNL     1      -3.711   0.491  -0.223  1.00  0.00     0.691 A 
HETATM    2  N2  UNL     1      -2.841   0.824  -1.203  1.00  0.00    -0.187 N 
ATOM      3  H2  UNL     1      -3.172   1.346  -2.015  1.00  0.00     0.185 HD
HETATM    4  C2  UNL     1      -1.531   0.472  -1.120  1.00  0.00     0.218 A 
HETATM    5  N3  UNL     1      -1.081  -0.217  -0.058  1.00  0.00    -0.179 N 
HETATM    6  C7  UNL     1      -1.957  -0.539   0.905  1.00  0.00     0.693 A 
HETATM    7  N6  UNL     1      -3.260  -0.195   0.835  1.00  0.00    -0.023 N 
ATOM      8  H6  UNL     1      -3.899  -0.457   1.585  1.00  0.00     0.203 HD
ENDROOT
BRANCH   5   9
HETATM    9  C3  UNL     1       0.289  -0.596   0.048  1.00  0.00     0.148 C 
BRANCH   9  10
HETATM   10  C4  UNL     1       1.162   0.406   0.735  1.00  0.00     0.022 C 
BRANCH  10  11
HETATM   11  C5  UNL     1       2.588  -0.103   0.791  1.00  0.00     0.029 C 
BRANCH  11  12
HETATM   12  C6  UNL     1       3.179  -0.354  -0.558  1.00  0.00     0.229 C 
BRANCH  12  13
HETATM   13  N4  UNL     1       3.224   0.820  -1.391  1.00  0.00    -0.079 N 
ATOM     14  H43 UNL     1       2.298   1.240  -1.474  1.00  0.00     0.274 HD
ATOM     15  H42 UNL     1       3.713   1.580  -0.918  1.00  0.00     0.274 HD
ATOM     16  H41 UNL     1       3.627   0.649  -2.312  1.00  0.00     0.274 HD
ENDBRANCH  12  13
ENDBRANCH  11  12
ENDBRANCH  10  11
ENDBRANCH   9  10
ENDBRANCH   5   9
BRANCH   6  17
HETATM   17  N5  UNL     1      -1.539  -1.187   1.909  1.00  0.00    -0.234 N 
ATOM     18  H52 UNL     1      -0.554  -1.447   1.962  1.00  0.00     0.174 HD
ATOM     19  H51 UNL     1      -2.205  -1.432   2.641  1.00  0.00     0.174 HD
ENDBRANCH   6  17
BRANCH   1  20
HETATM   20  N1  UNL     1      -4.948   0.838  -0.326  1.00  0.00    -0.234 N 
ATOM     21  H12 UNL     1      -5.292   1.361  -1.132  1.00  0.00     0.174 HD
ATOM     22  H11 UNL     1      -5.604   0.587   0.413  1.00  0.00     0.174 HD
ENDBRANCH   1  20
TORSDOF 7
