REMARK  4 active torsions:
REMARK  status: ('A' for Active; 'I' for Inactive)
REMARK    1  A    between atoms: C3_11  and  S1_12 
REMARK    2  A    between atoms: S1_12  and  C4_13 
REMARK    3  A    between atoms: C4_13  and  C5_14 
REMARK    4  A    between atoms: C5_14  and  N5_15 
ROOT
HETATM    1  N1  UNL     1       1.619   0.967  -2.513  1.00  0.00    -0.234 N 
ATOM      2  H11 UNL     1       0.758   1.261  -2.975  1.00  0.00     0.174 HD
ATOM      3  H12 UNL     1       2.472   1.034  -3.068  1.00  0.00     0.174 HD
HETATM    4  C1  UNL     1       1.680   0.529  -1.303  1.00  0.00     0.680 A 
HETATM    5  N2  UNL     1       2.812   0.143  -0.696  1.00  0.00    -0.163 N 
ATOM      6  H2  UNL     1       3.686   0.194  -1.220  1.00  0.00     0.187 HD
HETATM    7  C2  UNL     1       2.850  -0.311   0.577  1.00  0.00     0.208 A 
HETATM    8  N3  UNL     1       4.075  -0.710   1.181  1.00  0.00    -0.063 NA
HETATM    9  N4  UNL     1       1.685  -0.380   1.272  1.00  0.00    -0.310 N 
ATOM     10  H4  UNL     1       1.688  -0.720   2.234  1.00  0.00     0.170 HD
HETATM   11  C3  UNL     1       0.528  -0.003   0.699  1.00  0.00     0.161 A 
HETATM   12  N6  UNL     1       0.548   0.440  -0.566  1.00  0.00    -0.170 N 
ATOM     13  H6  UNL     1      -0.333   0.724  -0.994  1.00  0.00     0.186 HD
ENDROOT
BRANCH  11  14
HETATM   14  S1  UNL     1      -0.949  -0.126   1.673  1.00  0.00    -0.092 SA
BRANCH  14  15
HETATM   15  C4  UNL     1      -2.416   0.410   0.795  1.00  0.00     0.109 C 
BRANCH  15  16
HETATM   16  C5  UNL     1      -2.765  -0.489  -0.371  1.00  0.00     0.240 C 
BRANCH  16  17
HETATM   17  N5  UNL     1      -3.962   0.019  -1.019  1.00  0.00    -0.079 N 
ATOM     18  H53 UNL     1      -4.739   0.129  -0.368  1.00  0.00     0.274 HD
ATOM     19  H52 UNL     1      -3.868   0.996  -1.297  1.00  0.00     0.274 HD
ATOM     20  H51 UNL     1      -4.197  -0.587  -1.805  1.00  0.00     0.274 HD
ENDBRANCH  16  17
ENDBRANCH  15  16
ENDBRANCH  14  15
ENDBRANCH  11  14
TORSDOF 4
