REMARK  4 active torsions:
REMARK  status: ('A' for Active; 'I' for Inactive)
REMARK    1  A    between atoms: C2_3  and  N2_4 
REMARK    2  A    between atoms: C2_3  and  S1_8 
REMARK    3  A    between atoms: S1_8  and  C3_9 
REMARK    4  A    between atoms: C4_14  and  N5_15 
ROOT
HETATM    1  N1  UNL     1       2.680   1.772   0.759  1.00  0.00    -0.194 NA
HETATM    2  C1  UNL     1       2.432   0.693   0.391  1.00  0.00     0.103 C 
HETATM    3  C2  UNL     1       2.129  -0.642  -0.070  1.00  0.00     0.358 C 
ENDROOT
BRANCH   3   4
HETATM    4  N2  UNL     1       3.280  -1.311  -0.597  1.00  0.00    -0.053 N 
ATOM      5  H23 UNL     1       3.722  -0.759  -1.332  1.00  0.00     0.276 HD
ATOM      6  H22 UNL     1       4.043  -1.320   0.080  1.00  0.00     0.276 HD
ATOM      7  H21 UNL     1       3.066  -2.254  -0.923  1.00  0.00     0.276 HD
ENDBRANCH   3   4
BRANCH   3   8
HETATM    8  S1  UNL     1       0.930  -0.492  -1.429  1.00  0.00    -0.044 SA
BRANCH   8   9
HETATM    9  C3  UNL     1      -0.635   0.147  -0.797  1.00  0.00     0.177 A 
HETATM   10  N3  UNL     1      -0.975   1.443  -0.723  1.00  0.00    -0.265 N 
HETATM   11  N4  UNL     1      -2.190   1.495  -0.211  1.00  0.00    -0.130 N 
ATOM     12  H3  UNL     1      -0.403   2.238  -1.008  1.00  0.00     0.189 HD
HETATM   13  C4  UNL     1      -2.610   0.264   0.033  1.00  0.00     0.692 A 
ATOM     14  H4  UNL     1      -2.721   2.348  -0.032  1.00  0.00     0.205 HD
HETATM   15  N6  UNL     1      -1.642  -0.606  -0.330  1.00  0.00    -0.168 N 
ATOM     16  H6  UNL     1      -1.671  -1.623  -0.263  1.00  0.00     0.186 HD
BRANCH  13  17
HETATM   17  N5  UNL     1      -3.745  -0.102   0.531  1.00  0.00    -0.233 N 
ATOM     18  H52 UNL     1      -4.476   0.555   0.805  1.00  0.00     0.174 HD
ATOM     19  H51 UNL     1      -4.069  -1.051   0.719  1.00  0.00     0.174 HD
ENDBRANCH  13  17
ENDBRANCH   8   9
ENDBRANCH   3   8
TORSDOF 4
