REMARK  4 active torsions:
REMARK  status: ('A' for Active; 'I' for Inactive)
REMARK    1  A    between atoms: N1_1  and  C1_4 
REMARK    2  A    between atoms: N6_15  and  C4_16 
REMARK    3  A    between atoms: C4_16  and  C5_17 
REMARK    4  A    between atoms: C5_17  and  N7_18 
ROOT
HETATM    1  C1  UNL     1      -2.433  -0.823  -0.711  1.00  0.00     0.146 A 
HETATM    2  N2  UNL     1      -2.207   0.436  -1.050  1.00  0.00    -0.282 N 
ATOM      3  H2  UNL     1      -2.793   0.969  -1.693  1.00  0.00     0.188 HD
HETATM    4  N3  UNL     1      -1.133   0.919  -0.457  1.00  0.00    -0.281 N 
ATOM      5  H3  UNL     1      -0.757   1.862  -0.559  1.00  0.00     0.188 HD
HETATM    6  C2  UNL     1      -0.622  -0.075   0.315  1.00  0.00     0.170 A 
HETATM    7  C3  UNL     1      -1.425  -1.185   0.172  1.00  0.00     0.141 A 
HETATM    8  N4  UNL     1      -0.878  -2.119   0.949  1.00  0.00    -0.279 N 
ATOM      9  H4  UNL     1      -1.243  -3.065   1.061  1.00  0.00     0.189 HD
HETATM   10  N5  UNL     1       0.196  -1.657   1.552  1.00  0.00    -0.238 N 
ATOM     11  H5  UNL     1       0.792  -2.175   2.198  1.00  0.00     0.208 HD
HETATM   12  N6  UNL     1       0.368  -0.387   1.167  1.00  0.00    -0.257 N 
ENDROOT
BRANCH  12  13
HETATM   13  C4  UNL     1       1.455   0.491   1.606  1.00  0.00     0.179 C 
BRANCH  13  14
HETATM   14  C5  UNL     1       2.640   0.331   0.708  1.00  0.00     0.251 C 
BRANCH  14  15
HETATM   15  N7  UNL     1       2.273   0.684  -0.640  1.00  0.00    -0.078 N 
ATOM     16  H73 UNL     1       1.465   0.156  -0.970  1.00  0.00     0.274 HD
ATOM     17  H72 UNL     1       1.870   1.619  -0.697  1.00  0.00     0.274 HD
ATOM     18  H71 UNL     1       3.081   0.575  -1.253  1.00  0.00     0.274 HD
ENDBRANCH  14  15
ENDBRANCH  13  14
ENDBRANCH  12  13
BRANCH   1  19
HETATM   19  N1  UNL     1      -3.376  -1.637  -1.075  1.00  0.00    -0.382 N 
ATOM     20  H12 UNL     1      -4.117  -1.371  -1.724  1.00  0.00     0.157 HD
ATOM     21  H11 UNL     1      -3.550  -2.607  -0.814  1.00  0.00     0.157 HD
ENDBRANCH   1  19
TORSDOF 4
