REMARK  5 active torsions:
REMARK  status: ('A' for Active; 'I' for Inactive)
REMARK    1  A    between atoms: N1_1  and  C1_4 
REMARK    2  A    between atoms: C2_7  and  C3_8 
REMARK    3  A    between atoms: N3_9  and  N4_11 
REMARK    4  A    between atoms: N4_11  and  C4_13 
REMARK    5  A    between atoms: N5_14  and  N6_16 
ROOT
HETATM    1  C1  UNL     1      -3.543  -0.169  -0.459  1.00  0.00     0.692 A 
HETATM    2  N2  UNL     1      -2.311  -0.507  -0.809  1.00  0.00    -0.173 N 
ATOM      3  H2  UNL     1      -2.050  -1.078  -1.613  1.00  0.00     0.186 HD
HETATM    4  C2  UNL     1      -1.467   0.035   0.083  1.00  0.00     0.152 A 
HETATM    5  N7  UNL     1      -2.188   0.713   0.992  1.00  0.00    -0.270 N 
ATOM      6  H7  UNL     1      -1.823   1.230   1.792  1.00  0.00     0.189 HD
HETATM    7  N8  UNL     1      -3.462   0.584   0.653  1.00  0.00    -0.131 N 
ATOM      8  H8  UNL     1      -4.253   0.990   1.154  1.00  0.00     0.205 HD
ENDROOT
BRANCH   4   9
HETATM    9  C3  UNL     1      -0.003  -0.114   0.036  1.00  0.00     0.157 C 
HETATM   10  N3  UNL     1       0.681   0.466   0.964  1.00  0.00    -0.307 N 
ATOM     11  H3  UNL     1       0.226   1.006   1.700  1.00  0.00     0.186 HD
BRANCH  10  12
HETATM   12  N4  UNL     1       2.071   0.325   0.920  1.00  0.00    -0.295 N 
ATOM     13  H4  UNL     1       2.694   1.098   1.153  1.00  0.00     0.187 HD
BRANCH  12  14
HETATM   14  C4  UNL     1       2.576  -0.947   0.535  1.00  0.00     0.213 C 
HETATM   15  N5  UNL     1       3.776  -0.986   0.034  1.00  0.00    -0.301 N 
ATOM     16  H5  UNL     1       4.162  -1.886  -0.250  1.00  0.00     0.187 HD
BRANCH  15  17
HETATM   17  N6  UNL     1       4.551   0.160  -0.127  1.00  0.00    -0.344 N 
ATOM     18  H62 UNL     1       4.149   1.052   0.163  1.00  0.00     0.176 HD
ATOM     19  H61 UNL     1       5.492   0.129  -0.520  1.00  0.00     0.176 HD
ENDBRANCH  15  17
ENDBRANCH  12  14
ENDBRANCH  10  12
ENDBRANCH   4   9
BRANCH   1  20
HETATM   20  N1  UNL     1      -4.682  -0.458  -1.015  1.00  0.00    -0.233 N 
ATOM     21  H12 UNL     1      -4.743  -1.029  -1.858  1.00  0.00     0.174 HD
ATOM     22  H11 UNL     1      -5.631  -0.198  -0.745  1.00  0.00     0.174 HD
ENDBRANCH   1  20
TORSDOF 5
