REMARK  12 active torsions:
REMARK  status: ('A' for Active; 'I' for Inactive)
REMARK    1  A    between atoms: C2_2  and  C3_3 
REMARK    2  A    between atoms: C3_3  and  C4_4 
REMARK    3  A    between atoms: C4_4  and  C5_5 
REMARK    4  A    between atoms: C5_5  and  C6_6 
REMARK    5  A    between atoms: C6_6  and  C7_7 
REMARK    6  A    between atoms: C7_7  and  C8_8 
REMARK    7  A    between atoms: C8_8  and  C9_9 
REMARK    8  A    between atoms: C9_9  and  C10_10 
REMARK    9  A    between atoms: C10_10  and  C11_11 
REMARK   10  A    between atoms: C11_11  and  C12_12 
REMARK   11  A    between atoms: C12_12  and  C13_13 
REMARK   12  A    between atoms: N1_22  and  C19_23 
ROOT
HETATM    1  C13 UNL     1      -3.718  -0.131   0.385  1.00  0.00     0.187 C 
HETATM    2  C14 UNL     1      -3.915   1.292   0.717  1.00  0.00     0.284 C 
HETATM    3  O1  UNL     1      -3.208   1.865   1.542  1.00  0.00    -0.263 OA
HETATM    4  O2  UNL     1      -4.931   1.952   0.062  1.00  0.00    -0.286 OA
HETATM    5  C15 UNL     1      -5.890   1.186  -0.686  1.00  0.00     0.292 C 
HETATM    6  O3  UNL     1      -7.090   1.879  -0.612  1.00  0.00    -0.359 OA
HETATM    7  C16 UNL     1      -8.066   1.084  -0.086  1.00  0.00     0.173 C 
HETATM    8  C17 UNL     1      -7.280   0.162   0.857  1.00  0.00     0.057 C 
HETATM    9  C18 UNL     1      -6.135  -0.175  -0.083  1.00  0.00     0.145 C 
HETATM   10  N1  UNL     1      -5.005  -0.756   0.574  1.00  0.00    -0.336 N 
ENDROOT
BRANCH   1  11
HETATM   11  C12 UNL     1      -2.617  -0.819   1.109  1.00  0.00     0.035 C 
BRANCH  11  12
HETATM   12  C11 UNL     1      -1.249  -0.218   0.864  1.00  0.00     0.002 C 
BRANCH  12  13
HETATM   13  C10 UNL     1      -0.856  -0.238  -0.565  1.00  0.00     0.000 C 
BRANCH  13  14
HETATM   14  C9  UNL     1       0.492   0.407  -0.763  1.00  0.00     0.000 C 
BRANCH  14  15
HETATM   15  C8  UNL     1       1.551  -0.300  -0.008  1.00  0.00     0.000 C 
BRANCH  15  16
HETATM   16  C7  UNL     1       2.954   0.285  -0.163  1.00  0.00     0.004 C 
BRANCH  16  17
HETATM   17  C6  UNL     1       3.392   0.234  -1.588  1.00  0.00     0.027 C 
BRANCH  17  18
HETATM   18  C5  UNL     1       4.719   0.775  -1.916  1.00  0.00    -0.031 C 
BRANCH  18  19
HETATM   19  C4  UNL     1       5.965   0.217  -1.412  1.00  0.00    -0.031 C 
BRANCH  19  20
HETATM   20  C3  UNL     1       6.267   0.145   0.030  1.00  0.00     0.026 C 
BRANCH  20  21
HETATM   21  C2  UNL     1       7.711  -0.427   0.127  1.00  0.00    -0.001 C 
HETATM   22  C1  UNL     1       8.079  -0.524   1.592  1.00  0.00     0.005 C 
ENDBRANCH  20  21
ENDBRANCH  19  20
ENDBRANCH  18  19
ENDBRANCH  17  18
ENDBRANCH  16  17
ENDBRANCH  15  16
ENDBRANCH  14  15
ENDBRANCH  13  14
ENDBRANCH  12  13
ENDBRANCH  11  12
ENDBRANCH   1  11
BRANCH  10  23
HETATM   23  C19 UNL     1      -5.134  -1.895   1.377  1.00  0.00     0.352 C 
HETATM   24  O4  UNL     1      -6.245  -2.477   1.570  1.00  0.00    -0.283 OA
ENDBRANCH  10  23
TORSDOF 12
