REMARK  12 active torsions:
REMARK  status: ('A' for Active; 'I' for Inactive)
REMARK    1  A    between atoms: N1_2  and  C2_3 
REMARK    2  A    between atoms: C2_3  and  C3_4 
REMARK    3  A    between atoms: C3_4  and  C4_5 
REMARK    4  A    between atoms: C4_5  and  S1_6 
REMARK    5  A    between atoms: S1_6  and  C5_7 
REMARK    6  A    between atoms: C5_7  and  C7_10 
REMARK    7  A    between atoms: C7_10  and  C8_11 
REMARK    8  A    between atoms: C8_11  and  C9_12 
REMARK    9  A    between atoms: C9_12  and  C10_13 
REMARK   10  A    between atoms: C10_13  and  C11_14 
REMARK   11  A    between atoms: C11_14  and  C12_15 
REMARK   12  A    between atoms: C12_15  and  C13_16 
ROOT
HETATM    1  C5  UNL     1       1.201  -0.837  -2.497  1.00  0.00     0.154 C 
HETATM    2  C6  UNL     1       0.505  -0.165  -3.563  1.00  0.00     0.074 C 
HETATM    3  N2  UNL     1      -0.062   0.386  -4.407  1.00  0.00    -0.196 NA
ENDROOT
BRANCH   1   4
HETATM    4  S1  UNL     1       0.036  -1.666  -1.385  1.00  0.00    -0.149 SA
BRANCH   4   5
HETATM    5  C4  UNL     1      -0.992  -0.424  -0.504  1.00  0.00     0.077 C 
BRANCH   5   6
HETATM    6  C3  UNL     1      -1.904  -1.186   0.391  1.00  0.00     0.038 C 
BRANCH   6   7
HETATM    7  C2  UNL     1      -2.843  -0.384   1.216  1.00  0.00     0.240 C 
BRANCH   7   8
HETATM    8  N1  UNL     1      -3.771   0.439   0.524  1.00  0.00    -0.038 N 
HETATM    9  C1  UNL     1      -3.171   1.702   0.198  1.00  0.00     0.275 C 
HETATM   10  C15 UNL     1      -4.910   0.749   1.400  1.00  0.00     0.508 C 
HETATM   11  N4  UNL     1      -6.114   0.604   0.609  1.00  0.00     0.116 N 
HETATM   12  C16 UNL     1      -6.362  -0.847   0.547  1.00  0.00     0.277 C 
HETATM   13  C19 UNL     1      -5.587   0.791  -0.755  1.00  0.00     0.308 C 
HETATM   14  C17 UNL     1      -5.149  -1.415  -0.177  1.00  0.00     0.065 C 
HETATM   15  C18 UNL     1      -4.413  -0.197  -0.605  1.00  0.00     0.222 C 
ENDBRANCH   7   8
ENDBRANCH   6   7
ENDBRANCH   5   6
ENDBRANCH   4   5
ENDBRANCH   1   4
BRANCH   1  16
HETATM   16  C7  UNL     1       2.002   0.134  -1.617  1.00  0.00     0.030 C 
BRANCH  16  17
HETATM   17  C8  UNL     1       2.680  -0.742  -0.586  1.00  0.00     0.002 C 
BRANCH  17  18
HETATM   18  C9  UNL     1       3.516   0.025   0.382  1.00  0.00     0.000 C 
BRANCH  18  19
HETATM   19  C10 UNL     1       4.594   0.765  -0.339  1.00  0.00     0.000 C 
BRANCH  19  20
HETATM   20  C11 UNL     1       5.482   1.560   0.597  1.00  0.00     0.001 C 
BRANCH  20  21
HETATM   21  C12 UNL     1       6.178   0.688   1.620  1.00  0.00     0.014 C 
BRANCH  21  22
HETATM   22  C13 UNL     1       7.055  -0.343   0.945  1.00  0.00     0.124 C 
HETATM   23  C14 UNL     1       7.692  -1.143   2.009  1.00  0.00     0.059 C 
HETATM   24  N3  UNL     1       8.178  -1.771   2.854  1.00  0.00    -0.197 NA
ENDBRANCH  21  22
ENDBRANCH  20  21
ENDBRANCH  19  20
ENDBRANCH  18  19
ENDBRANCH  17  18
ENDBRANCH  16  17
ENDBRANCH   1  16
TORSDOF 12
