REMARK  20 active torsions:
REMARK  status: ('A' for Active; 'I' for Inactive)
REMARK    1  A    between atoms: C2_2  and  O1_4 
REMARK    2  A    between atoms: O1_4  and  C4_5 
REMARK    3  A    between atoms: C4_5  and  C5_7 
REMARK    4  A    between atoms: C5_7  and  N1_8 
REMARK    5  A    between atoms: C5_7  and  C22_44 
REMARK    6  A    between atoms: N1_8  and  C6_11 
REMARK    7  A    between atoms: C6_11  and  C7_12 
REMARK    8  A    between atoms: C6_11  and  C12_21 
REMARK    9  A    between atoms: C7_12  and  C8_13 
REMARK   10  A    between atoms: C8_13  and  C9_14 
REMARK   11  A    between atoms: C9_14  and  C10_15 
REMARK   12  A    between atoms: C10_15  and  N2_16 
REMARK       I    between atoms: C12_21  and  N5_23 
REMARK   13  A    between atoms: N5_23  and  C13_25 
REMARK   14  A    between atoms: C13_25  and  C14_26 
REMARK   15  A    between atoms: C13_25  and  C15_31 
REMARK   16  A    between atoms: C14_26  and  N6_27 
REMARK   17  A    between atoms: C15_31  and  O4_32 
REMARK   18  A    between atoms: C15_31  and  C16_34 
REMARK   19  A    between atoms: C20_38  and  C21_39 
REMARK   20  A    between atoms: C21_39  and  N7_40 
ROOT
HETATM    1  C6  UNL     1      -1.004   0.309  -0.036  1.00  0.00     0.278 C 
ENDROOT
BRANCH   1   2
HETATM    2  N1  UNL     1      -1.688   0.608  -1.252  1.00  0.00    -0.049 N 
ATOM      3  H12 UNL     1      -2.675   0.357  -1.190  1.00  0.00     0.279 HD
ATOM      4  H11 UNL     1      -1.404  -0.026  -1.999  1.00  0.00     0.279 HD
BRANCH   2   5
HETATM    5  C5  UNL     1      -1.525   1.995  -1.652  1.00  0.00     0.288 C 
BRANCH   5   6
HETATM    6  C4  UNL     1      -2.169   2.949  -0.746  1.00  0.00     0.290 C 
HETATM    7  O2  UNL     1      -3.350   2.807  -0.281  1.00  0.00    -0.263 OA
BRANCH   6   8
HETATM    8  O1  UNL     1      -1.527   4.113  -0.310  1.00  0.00    -0.315 OA
BRANCH   8   9
HETATM    9  C2  UNL     1      -2.104   5.050   0.562  1.00  0.00     0.123 C 
HETATM   10  C1  UNL     1      -2.212   6.420  -0.012  1.00  0.00     0.040 C 
HETATM   11  C3  UNL     1      -1.417   5.024   1.925  1.00  0.00     0.040 C 
ENDBRANCH   8   9
ENDBRANCH   6   8
ENDBRANCH   5   6
BRANCH   5  12
HETATM   12  C22 UNL     1      -2.067   2.161  -3.040  1.00  0.00     0.018 C 
HETATM   13  C23 UNL     1      -3.535   1.961  -3.169  1.00  0.00     0.012 C 
HETATM   14  C24 UNL     1      -1.327   1.287  -4.038  1.00  0.00     0.012 C 
ENDBRANCH   5  12
ENDBRANCH   2   5
ENDBRANCH   1   2
BRANCH   1  15
HETATM   15  C7  UNL     1      -1.937  -0.051   1.068  1.00  0.00     0.043 C 
BRANCH  15  16
HETATM   16  C8  UNL     1      -2.736  -1.296   0.654  1.00  0.00     0.004 C 
BRANCH  16  17
HETATM   17  C9  UNL     1      -3.679  -1.718   1.767  1.00  0.00     0.020 C 
BRANCH  17  18
HETATM   18  C10 UNL     1      -4.472  -2.923   1.337  1.00  0.00     0.122 C 
BRANCH  18  19
HETATM   19  N2  UNL     1      -3.619  -4.041   1.006  1.00  0.00    -0.367 N 
HETATM   20  C11 UNL     1      -3.988  -4.837   0.069  1.00  0.00     0.196 C 
HETATM   21  N3  UNL     1      -5.212  -4.586  -0.600  1.00  0.00    -0.067 NA
HETATM   22  N4  UNL     1      -3.221  -5.949  -0.323  1.00  0.00    -0.067 NA
ATOM     23  H2  UNL     1      -2.743  -4.194   1.506  1.00  0.00     0.161 HD
ENDBRANCH  18  19
ENDBRANCH  17  18
ENDBRANCH  16  17
ENDBRANCH  15  16
ENDBRANCH   1  15
BRANCH   1  24
HETATM   24  C12 UNL     1       0.040  -0.735  -0.178  1.00  0.00     0.249 C 
HETATM   25  O3  UNL     1       0.066  -1.398  -1.240  1.00  0.00    -0.271 OA
HETATM   26  N5  UNL     1       0.998  -1.002   0.821  1.00  0.00    -0.351 N 
ATOM     27  H5  UNL     1       0.974  -0.464   1.687  1.00  0.00     0.163 HD
BRANCH  26  28
HETATM   28  C13 UNL     1       2.004  -2.008   0.653  1.00  0.00     0.139 C 
BRANCH  28  29
HETATM   29  C14 UNL     1       2.189  -2.829   1.881  1.00  0.00     0.257 C 
BRANCH  29  30
HETATM   30  N6  UNL     1       3.193  -3.839   1.715  1.00  0.00    -0.077 N 
ATOM     31  H63 UNL     1       2.993  -4.427   0.906  1.00  0.00     0.274 HD
ATOM     32  H62 UNL     1       4.077  -3.433   1.407  1.00  0.00     0.274 HD
ATOM     33  H61 UNL     1       3.320  -4.402   2.556  1.00  0.00     0.274 HD
ENDBRANCH  29  30
ENDBRANCH  28  29
BRANCH  28  34
HETATM   34  C15 UNL     1       3.292  -1.511   0.020  1.00  0.00     0.147 C 
BRANCH  34  35
HETATM   35  O4  UNL     1       2.897  -0.995  -1.216  1.00  0.00    -0.393 OA
ATOM     36  H4  UNL     1       3.703  -0.684  -1.612  1.00  0.00     0.210 HD
ENDBRANCH  34  35
BRANCH  34  37
HETATM   37  C16 UNL     1       4.129  -0.608   0.831  1.00  0.00     0.022 C 
HETATM   38  C17 UNL     1       3.537   0.705   1.231  1.00  0.00     0.007 C 
HETATM   39  C18 UNL     1       4.583   1.781   0.874  1.00  0.00     0.001 C 
HETATM   40  C19 UNL     1       5.312   1.098  -0.305  1.00  0.00     0.007 C 
HETATM   41  C20 UNL     1       5.488  -0.267   0.334  1.00  0.00     0.017 C 
BRANCH  41  42
HETATM   42  C21 UNL     1       6.230  -1.222  -0.500  1.00  0.00     0.234 C 
BRANCH  42  43
HETATM   43  N7  UNL     1       5.666  -1.598  -1.755  1.00  0.00    -0.079 N 
ATOM     44  H73 UNL     1       4.721  -1.951  -1.604  1.00  0.00     0.274 HD
ATOM     45  H72 UNL     1       5.475  -0.757  -2.300  1.00  0.00     0.274 HD
ATOM     46  H71 UNL     1       6.181  -2.261  -2.334  1.00  0.00     0.274 HD
ENDBRANCH  42  43
ENDBRANCH  41  42
ENDBRANCH  34  37
ENDBRANCH  28  34
ENDBRANCH  26  28
ENDBRANCH   1  24
TORSDOF 20
