REMARK  16 active torsions:
REMARK  status: ('A' for Active; 'I' for Inactive)
REMARK    1  A    between atoms: C2_2  and  C3_3 
REMARK    2  A    between atoms: C3_3  and  C4_4 
REMARK    3  A    between atoms: C4_4  and  O1_6 
REMARK    4  A    between atoms: O1_6  and  C6_7 
REMARK    5  A    between atoms: C6_7  and  C7_8 
REMARK    6  A    between atoms: C6_7  and  C12_16 
REMARK    7  A    between atoms: C7_8  and  C8_9 
REMARK       I    between atoms: C12_16  and  N2_18 
REMARK    8  A    between atoms: N2_18  and  C13_20 
REMARK    9  A    between atoms: C13_20  and  O3_21 
REMARK   10  A    between atoms: C13_20  and  C14_23 
REMARK   11  A    between atoms: C14_23  and  C15_24 
REMARK   12  A    between atoms: C14_23  and  C19_32 
REMARK   13  A    between atoms: C15_24  and  C16_25 
REMARK   14  A    between atoms: C16_25  and  C17_26 
REMARK   15  A    between atoms: C17_26  and  N3_27 
REMARK       I    between atoms: C19_32  and  N6_34 
REMARK   16  A    between atoms: N6_34  and  C20_36 
ROOT
HETATM    1  C13 UNL     1      -0.920   0.127   2.325  1.00  0.00     0.233 C 
ENDROOT
BRANCH   1   2
HETATM    2  N2  UNL     1       0.325  -0.224   1.738  1.00  0.00    -0.332 N 
HETATM    3  C12 UNL     1       1.428   0.635   1.590  1.00  0.00     0.248 C 
HETATM    4  O2  UNL     1       1.380   1.797   1.981  1.00  0.00    -0.271 OA
ATOM      5  H2  UNL     1       0.427  -1.179   1.395  1.00  0.00     0.165 HD
BRANCH   3   6
HETATM    6  C6  UNL     1       2.741   0.121   0.920  1.00  0.00     0.214 C 
BRANCH   6   7
HETATM    7  O1  UNL     1       3.695   1.063   1.013  1.00  0.00    -0.372 OA
BRANCH   7   8
HETATM    8  C4  UNL     1       4.738   0.742   1.908  1.00  0.00     0.118 C 
HETATM    9  C5  UNL     1       6.073   0.544   1.305  1.00  0.00     0.039 C 
BRANCH   8  10
HETATM   10  C3  UNL     1       4.756   1.775   2.972  1.00  0.00     0.031 C 
BRANCH  10  11
HETATM   11  C2  UNL     1       5.585   1.604   4.178  1.00  0.00    -0.002 C 
HETATM   12  C1  UNL     1       7.060   1.559   4.040  1.00  0.00     0.005 C 
ENDBRANCH  10  11
ENDBRANCH   8  10
ENDBRANCH   7   8
ENDBRANCH   6   7
BRANCH   6  13
HETATM   13  C7  UNL     1       2.252  -0.157  -0.449  1.00  0.00     0.048 C 
BRANCH  13  14
HETATM   14  C8  UNL     1       3.157  -0.595  -1.516  1.00  0.00     0.016 C 
HETATM   15  C9  UNL     1       4.199   0.381  -1.907  1.00  0.00     0.034 C 
HETATM   16  C10 UNL     1       3.884   0.714  -3.353  1.00  0.00     0.232 C 
HETATM   17  N1  UNL     1       3.203  -0.465  -3.835  1.00  0.00    -0.075 N 
HETATM   18  C11 UNL     1       2.306  -0.863  -2.758  1.00  0.00     0.237 C 
ATOM     19  H12 UNL     1       2.734  -0.331  -4.731  1.00  0.00     0.277 HD
ATOM     20  H11 UNL     1       3.833  -1.207  -4.140  1.00  0.00     0.277 HD
ENDBRANCH  13  14
ENDBRANCH   6  13
ENDBRANCH   3   6
ENDBRANCH   1   2
BRANCH   1  21
HETATM   21  O3  UNL     1      -1.015  -0.596   3.541  1.00  0.00    -0.376 OA
ATOM     22  H3  UNL     1      -1.848  -0.361   3.934  1.00  0.00     0.212 HD
ENDBRANCH   1  21
BRANCH   1  23
HETATM   23  C14 UNL     1      -2.144  -0.166   1.473  1.00  0.00     0.126 C 
BRANCH  23  24
HETATM   24  C15 UNL     1      -2.229  -1.641   1.171  1.00  0.00     0.020 C 
BRANCH  24  25
HETATM   25  C16 UNL     1      -3.384  -2.067   0.337  1.00  0.00     0.021 C 
BRANCH  25  26
HETATM   26  C17 UNL     1      -3.383  -3.578   0.130  1.00  0.00     0.122 C 
BRANCH  26  27
HETATM   27  N3  UNL     1      -4.512  -3.923  -0.674  1.00  0.00    -0.367 N 
HETATM   28  C18 UNL     1      -5.526  -4.508  -0.154  1.00  0.00     0.196 C 
HETATM   29  N4  UNL     1      -6.677  -4.874  -0.911  1.00  0.00    -0.067 NA
HETATM   30  N5  UNL     1      -5.500  -4.804   1.236  1.00  0.00    -0.067 NA
ATOM     31  H3  UNL     1      -4.511  -3.702  -1.670  1.00  0.00     0.161 HD
ENDBRANCH  26  27
ENDBRANCH  25  26
ENDBRANCH  24  25
ENDBRANCH  23  24
BRANCH  23  32
HETATM   32  C19 UNL     1      -2.208   0.688   0.283  1.00  0.00     0.226 C 
HETATM   33  O4  UNL     1      -1.176   1.266  -0.156  1.00  0.00    -0.273 OA
HETATM   34  N6  UNL     1      -3.426   0.884  -0.401  1.00  0.00    -0.356 N 
ATOM     35  H6  UNL     1      -4.264   0.421  -0.050  1.00  0.00     0.162 HD
BRANCH  34  36
HETATM   36  C20 UNL     1      -3.533   1.704  -1.565  1.00  0.00     0.087 C 
HETATM   37  C21 UNL     1      -4.448   2.892  -1.375  1.00  0.00     0.044 C 
HETATM   38  C22 UNL     1      -4.226   3.813  -2.557  1.00  0.00     0.115 C 
HETATM   39  N7  UNL     1      -3.385   3.241  -3.558  1.00  0.00    -0.421 N 
HETATM   40  C23 UNL     1      -3.758   1.924  -3.977  1.00  0.00     0.115 C 
ATOM     41  H7  UNL     1      -2.580   3.733  -3.945  1.00  0.00     0.153 HD
HETATM   42  C24 UNL     1      -3.966   0.972  -2.808  1.00  0.00     0.044 C 
ENDBRANCH  34  36
ENDBRANCH  23  32
ENDBRANCH   1  23
TORSDOF 16
