REMARK  21 active torsions:
REMARK  status: ('A' for Active; 'I' for Inactive)
REMARK    1  A    between atoms: O1_2  and  C2_3 
REMARK    2  A    between atoms: C2_3  and  O2_4 
REMARK    3  A    between atoms: O2_4  and  C3_5 
REMARK    4  A    between atoms: C3_5  and  C4_6 
REMARK    5  A    between atoms: C4_6  and  N1_7 
REMARK    6  A    between atoms: C8_12  and  N2_13 
REMARK    7  A    between atoms: N2_13  and  C9_15 
REMARK    8  A    between atoms: C9_15  and  O3_16 
REMARK    9  A    between atoms: C9_15  and  C10_18 
REMARK   10  A    between atoms: N3_21  and  C12_22 
REMARK   11  A    between atoms: C12_22  and  C13_23 
REMARK   12  A    between atoms: C12_22  and  C20_44 
REMARK   13  A    between atoms: C13_23  and  O5_24 
REMARK   14  A    between atoms: C13_23  and  N4_26 
REMARK   15  A    between atoms: N4_26  and  C14_28 
REMARK   16  A    between atoms: C14_28  and  C15_29 
REMARK   17  A    between atoms: C15_29  and  N5_30 
REMARK   18  A    between atoms: C15_29  and  C16_34 
REMARK   19  A    between atoms: C16_34  and  C17_35 
REMARK   20  A    between atoms: C17_35  and  C18_36 
REMARK   21  A    between atoms: C18_36  and  N6_37 
REMARK       I    between atoms: N6_37  and  C19_39 
ROOT
HETATM    1  C12 UNL     1      -1.012  -1.122   1.836  1.00  0.00     0.163 C 
ENDROOT
BRANCH   1   2
HETATM    2  N3  UNL     1      -2.021  -1.412   0.801  1.00  0.00    -0.353 N 
HETATM    3  C5  UNL     1      -2.690  -0.414   0.056  1.00  0.00     0.076 C 
HETATM    4  N1  UNL     1      -2.272   0.809   0.074  1.00  0.00    -0.378 N 
HETATM    5  C6  UNL     1      -3.891  -0.828  -0.718  1.00  0.00     0.081 C 
ATOM      6  H1  UNL     1      -1.447   1.076   0.611  1.00  0.00     0.160 HD
HETATM    7  C7  UNL     1      -3.631  -2.033  -1.585  1.00  0.00     0.061 C 
HETATM    8  C8  UNL     1      -2.556  -2.942  -1.007  1.00  0.00     0.003 C 
HETATM    9  C11 UNL     1      -2.412  -2.804   0.474  1.00  0.00     0.177 C 
BRANCH   4  10
HETATM   10  C4  UNL     1      -3.013   1.784  -0.692  1.00  0.00     0.147 C 
BRANCH  10  11
HETATM   11  C3  UNL     1      -2.504   3.188  -0.474  1.00  0.00     0.190 C 
BRANCH  11  12
HETATM   12  O2  UNL     1      -1.186   3.311  -0.843  1.00  0.00    -0.365 OA
BRANCH  12  13
HETATM   13  C2  UNL     1      -0.921   3.025  -2.157  1.00  0.00     0.337 C 
BRANCH  13  14
HETATM   14  O1  UNL     1      -1.590   3.820  -3.074  1.00  0.00    -0.372 OA
HETATM   15  C1  UNL     1      -1.269   5.157  -2.922  1.00  0.00     0.204 C 
ENDBRANCH  13  14
ENDBRANCH  12  13
ENDBRANCH  11  12
ENDBRANCH  10  11
ENDBRANCH   4  10
BRANCH   8  16
HETATM   16  N2  UNL     1      -2.505  -4.231  -1.496  1.00  0.00    -0.364 N 
ATOM     17  H2  UNL     1      -1.640  -4.525  -1.950  1.00  0.00     0.162 HD
BRANCH  16  18
HETATM   18  C9  UNL     1      -3.537  -5.166  -1.422  1.00  0.00     0.280 C 
BRANCH  18  19
HETATM   19  O3  UNL     1      -3.181  -6.373  -2.116  1.00  0.00    -0.370 OA
ATOM     20  H3  UNL     1      -3.884  -7.010  -2.066  1.00  0.00     0.212 HD
ENDBRANCH  18  19
BRANCH  18  21
HETATM   21  C10 UNL     1      -3.908  -5.587  -0.065  1.00  0.00     0.284 C 
HETATM   22  O4  UNL     1      -3.763  -6.786   0.267  1.00  0.00    -0.302 OA
ENDBRANCH  18  21
ENDBRANCH  16  18
ENDBRANCH   8  16
ENDBRANCH   1   2
BRANCH   1  23
HETATM   23  C13 UNL     1       0.181  -0.552   1.235  1.00  0.00     0.135 C 
BRANCH  23  24
HETATM   24  O5  UNL     1       0.234  -0.664  -0.075  1.00  0.00    -0.348 OA
ATOM     25  H5  UNL     1       1.014  -0.291  -0.468  1.00  0.00     0.219 HD
ENDBRANCH  23  24
BRANCH  23  26
HETATM   26  N4  UNL     1       1.296   0.097   1.758  1.00  0.00    -0.371 N 
ATOM     27  H4  UNL     1       1.340   0.236   2.768  1.00  0.00     0.161 HD
BRANCH  26  28
HETATM   28  C14 UNL     1       2.404   0.590   0.949  1.00  0.00     0.154 C 
BRANCH  28  29
HETATM   29  C15 UNL     1       3.152  -0.480   0.225  1.00  0.00     0.201 C 
BRANCH  29  30
HETATM   30  N5  UNL     1       3.688  -1.375   1.271  1.00  0.00    -0.073 N 
ATOM     31  H53 UNL     1       4.246  -0.892   1.975  1.00  0.00     0.274 HD
ATOM     32  H52 UNL     1       2.975  -1.734   1.906  1.00  0.00     0.274 HD
ATOM     33  H51 UNL     1       4.199  -2.106   0.776  1.00  0.00     0.274 HD
ENDBRANCH  29  30
BRANCH  29  34
HETATM   34  C16 UNL     1       4.366   0.039  -0.514  1.00  0.00     0.036 C 
BRANCH  34  35
HETATM   35  C17 UNL     1       5.331   0.684   0.427  1.00  0.00     0.022 C 
BRANCH  35  36
HETATM   36  C18 UNL     1       6.566   1.200  -0.306  1.00  0.00     0.122 C 
BRANCH  36  37
HETATM   37  N6  UNL     1       6.261   2.169  -1.311  1.00  0.00    -0.365 N 
HETATM   38  C19 UNL     1       5.766   3.462  -1.006  1.00  0.00     0.181 C 
HETATM   39  N7  UNL     1       6.269   4.121  -0.032  1.00  0.00    -0.374 N 
HETATM   40  N8  UNL     1       4.707   3.983  -1.816  1.00  0.00    -0.064 NA
ATOM     41  H72 UNL     1       7.024   3.750   0.545  1.00  0.00     0.158 HD
ATOM     42  H71 UNL     1       5.913   5.051   0.187  1.00  0.00     0.158 HD
ATOM     43  H6  UNL     1       6.406   1.920  -2.289  1.00  0.00     0.162 HD
ENDBRANCH  36  37
ENDBRANCH  35  36
ENDBRANCH  34  35
ENDBRANCH  29  34
ENDBRANCH  28  29
ENDBRANCH  26  28
ENDBRANCH  23  26
ENDBRANCH   1  23
BRANCH   1  44
HETATM   44  C20 UNL     1      -1.677  -0.389   2.960  1.00  0.00     0.008 C 
HETATM   45  C21 UNL     1      -0.762  -0.097   4.105  1.00  0.00     0.012 C 
HETATM   46  C22 UNL     1      -2.790  -1.273   3.502  1.00  0.00     0.012 C 
ENDBRANCH   1  44
TORSDOF 21
