REMARK  19 active torsions:
REMARK  status: ('A' for Active; 'I' for Inactive)
REMARK    1  A    between atoms: C2_2  and  C3_3 
REMARK    2  A    between atoms: C3_3  and  C4_4 
REMARK    3  A    between atoms: C4_4  and  C6_6 
REMARK    4  A    between atoms: C6_6  and  N1_7 
REMARK    5  A    between atoms: C6_6  and  C7_11 
REMARK       I    between atoms: C7_11  and  N2_13 
REMARK    6  A    between atoms: N2_13  and  C8_15 
REMARK    7  A    between atoms: C8_15  and  N3_16 
REMARK    8  A    between atoms: C8_15  and  C9_20 
REMARK    9  A    between atoms: N3_16  and  O2_18 
REMARK   10  A    between atoms: C9_20  and  C11_22 
REMARK       I    between atoms: C11_22  and  N4_24 
REMARK   11  A    between atoms: N4_24  and  C12_26 
REMARK   12  A    between atoms: C12_26  and  C13_27 
REMARK   13  A    between atoms: C12_26  and  C20_34 
REMARK   14  A    between atoms: C13_27  and  C14_28 
REMARK       I    between atoms: C20_34  and  N5_36 
REMARK   15  A    between atoms: N5_36  and  C21_38 
REMARK   16  A    between atoms: C21_38  and  C22_39 
REMARK   17  A    between atoms: C21_38  and  C23_41 
REMARK   18  A    between atoms: C23_41  and  O6_42 
REMARK   19  A    between atoms: C23_41  and  O7_44 
ROOT
HETATM    1  C11 UNL     1       0.339  -1.241  -0.943  1.00  0.00     0.226 C 
HETATM    2  O3  UNL     1       0.423  -1.791   0.192  1.00  0.00    -0.273 OA
HETATM    3  N4  UNL     1      -0.844  -0.519  -1.204  1.00  0.00    -0.347 N 
ATOM      4  H4  UNL     1      -0.944  -0.060  -2.110  1.00  0.00     0.163 HD
ENDROOT
BRANCH   1   5
HETATM    5  C9  UNL     1       1.449  -1.386  -1.889  1.00  0.00     0.118 C 
HETATM    6  C10 UNL     1       1.026  -2.029  -3.193  1.00  0.00     0.024 C 
BRANCH   5   7
HETATM    7  C8  UNL     1       2.099  -0.055  -2.237  1.00  0.00     0.218 C 
BRANCH   7   8
HETATM    8  N2  UNL     1       2.527   0.598  -1.020  1.00  0.00    -0.336 N 
HETATM    9  C7  UNL     1       3.897   0.882  -0.799  1.00  0.00     0.250 C 
HETATM   10  O1  UNL     1       4.729   0.564  -1.669  1.00  0.00    -0.271 OA
ATOM     11  H2  UNL     1       1.837   0.856  -0.315  1.00  0.00     0.164 HD
BRANCH   9  12
HETATM   12  C6  UNL     1       4.358   1.549   0.443  1.00  0.00     0.278 C 
BRANCH  12  13
HETATM   13  C4  UNL     1       5.250   0.704   1.285  1.00  0.00     0.021 C 
HETATM   14  C5  UNL     1       4.493  -0.491   1.826  1.00  0.00     0.012 C 
BRANCH  13  15
HETATM   15  C3  UNL     1       6.504   0.331   0.583  1.00  0.00     0.006 C 
BRANCH  15  16
HETATM   16  C2  UNL     1       7.477  -0.395   1.528  1.00  0.00    -0.004 C 
HETATM   17  C1  UNL     1       7.794   0.519   2.663  1.00  0.00     0.005 C 
ENDBRANCH  15  16
ENDBRANCH  13  15
ENDBRANCH  12  13
BRANCH  12  18
HETATM   18  N1  UNL     1       3.142   1.907   1.192  1.00  0.00    -0.066 N 
ATOM     19  H13 UNL     1       2.659   1.083   1.551  1.00  0.00     0.275 HD
ATOM     20  H12 UNL     1       3.361   2.353   2.083  1.00  0.00     0.275 HD
ATOM     21  H11 UNL     1       2.531   2.486   0.615  1.00  0.00     0.275 HD
ENDBRANCH  12  18
ENDBRANCH   9  12
ENDBRANCH   7   8
BRANCH   7  22
HETATM   22  N3  UNL     1       1.265   0.769  -3.039  1.00  0.00    -0.281 N 
ATOM     23  H3  UNL     1       0.674   0.324  -3.741  1.00  0.00     0.189 HD
BRANCH  22  24
HETATM   24  O2  UNL     1       1.221   1.962  -2.931  1.00  0.00    -0.292 OA
ATOM     25  H2  UNL     1       0.663   2.513  -3.467  1.00  0.00     0.244 HD
ENDBRANCH  22  24
ENDBRANCH   7  22
ENDBRANCH   5   7
ENDBRANCH   1   5
BRANCH   3  26
HETATM   26  C12 UNL     1      -1.948  -0.396  -0.223  1.00  0.00     0.177 C 
BRANCH  26  27
HETATM   27  C13 UNL     1      -3.149  -0.949  -0.941  1.00  0.00     0.039 C 
BRANCH  27  28
HETATM   28  C14 UNL     1      -4.430  -0.984  -0.210  1.00  0.00    -0.012 C 
HETATM   29  C15 UNL     1      -4.410  -1.817   1.044  1.00  0.00     0.005 C 
HETATM   30  C16 UNL     1      -5.121  -3.140   0.909  1.00  0.00     0.000 C 
HETATM   31  C17 UNL     1      -4.651  -3.879  -0.325  1.00  0.00     0.000 C 
HETATM   32  C18 UNL     1      -5.042  -3.056  -1.514  1.00  0.00     0.000 C 
HETATM   33  C19 UNL     1      -5.448  -1.665  -1.144  1.00  0.00     0.005 C 
ENDBRANCH  27  28
ENDBRANCH  26  27
BRANCH  26  34
HETATM   34  C20 UNL     1      -2.029   1.068   0.053  1.00  0.00     0.241 C 
HETATM   35  O4  UNL     1      -1.277   1.892  -0.584  1.00  0.00    -0.271 OA
HETATM   36  N5  UNL     1      -2.894   1.643   0.989  1.00  0.00    -0.344 N 
ATOM     37  H5  UNL     1      -3.513   1.041   1.532  1.00  0.00     0.163 HD
BRANCH  36  38
HETATM   38  C21 UNL     1      -2.931   3.068   1.204  1.00  0.00     0.200 C 
BRANCH  38  39
HETATM   39  C22 UNL     1      -2.966   3.331   2.650  1.00  0.00     0.261 C 
HETATM   40  O5  UNL     1      -2.962   2.419   3.440  1.00  0.00    -0.304 OA
ENDBRANCH  38  39
BRANCH  38  41
HETATM   41  C23 UNL     1      -4.196   3.664   0.585  1.00  0.00     0.283 C 
BRANCH  41  42
HETATM   42  O6  UNL     1      -4.194   5.033   0.829  1.00  0.00    -0.369 OA
ATOM     43  H6  UNL     1      -4.980   5.403   0.444  1.00  0.00     0.212 HD
ENDBRANCH  41  42
BRANCH  41  44
HETATM   44  O7  UNL     1      -4.165   3.506  -0.804  1.00  0.00    -0.369 OA
ATOM     45  H7  UNL     1      -4.951   3.876  -1.189  1.00  0.00     0.212 HD
ENDBRANCH  41  44
ENDBRANCH  38  41
ENDBRANCH  36  38
ENDBRANCH  26  34
ENDBRANCH   3  26
TORSDOF 19
