REMARK  0 active torsions:
REMARK  status: ('A' for Active; 'I' for Inactive)
ROOT
HETATM    1  C1  UNL     1       1.961  -0.486   0.057  1.00  0.00     0.168 C 
HETATM    2  N1  UNL     1       0.555  -0.146   0.017  1.00  0.00    -0.221 N 
HETATM    3  C2  UNL     1      -0.528  -1.119   0.014  1.00  0.00     0.161 A 
HETATM    4  C3  UNL     1      -1.807  -0.369   0.006  1.00  0.00     0.158 A 
HETATM    5  N2  UNL     1      -1.446   1.011  -0.049  1.00  0.00    -0.225 N 
ATOM      6  H2  UNL     1      -2.106   1.787  -0.098  1.00  0.00     0.177 HD
HETATM    7  C4  UNL     1      -0.031   1.145  -0.025  1.00  0.00     0.669 A 
HETATM    8  N3  UNL     1       0.559   2.285  -0.042  1.00  0.00    -0.235 N 
ATOM      9  H31 UNL     1       0.138   3.213  -0.072  1.00  0.00     0.174 HD
ATOM     10  H32 UNL     1       1.574   2.381  -0.025  1.00  0.00     0.174 HD
ENDROOT
TORSDOF 0
