REMARK  1 active torsions:
REMARK  status: ('A' for Active; 'I' for Inactive)
REMARK    1  A    between atoms: C2_6  and  N4_7 
ROOT
HETATM    1  C1  UNL     1      -2.090  -0.275  -0.225  1.00  0.00     0.198 C 
HETATM    2  N1  UNL     1      -0.647  -0.278  -0.200  1.00  0.00    -0.208 N 
HETATM    3  N2  UNL     1       0.145  -1.164  -0.790  1.00  0.00     0.011 NA
HETATM    4  N3  UNL     1       1.413  -0.863  -0.561  1.00  0.00    -0.114 N 
ATOM      5  H3  UNL     1       2.224  -1.381  -0.900  1.00  0.00     0.203 HD
HETATM    6  C2  UNL     1       1.444   0.244   0.195  1.00  0.00     0.704 A 
HETATM    7  N5  UNL     1       0.161   0.579   0.399  1.00  0.00    -0.117 N 
ATOM      8  H5  UNL     1      -0.148   1.385   0.942  1.00  0.00     0.207 HD
ENDROOT
BRANCH   6   9
HETATM    9  N4  UNL     1       2.499   0.874   0.643  1.00  0.00    -0.232 N 
ATOM     10  H42 UNL     1       3.474   0.619   0.488  1.00  0.00     0.174 HD
ATOM     11  H41 UNL     1       2.523   1.716   1.218  1.00  0.00     0.174 HD
ENDBRANCH   6   9
TORSDOF 1
