REMARK  0 active torsions:
REMARK  status: ('A' for Active; 'I' for Inactive)
ROOT
HETATM    1  C1  UNL     1       1.799   0.236   0.062  1.00  0.00     0.315 C 
HETATM    2  N1  UNL     1       0.697  -0.735   0.072  1.00  0.00     0.146 N 
HETATM    3  C2  UNL     1      -0.109  -0.469  -1.140  1.00  0.00     0.339 C 
HETATM    4  C3  UNL     1      -1.233   0.275  -0.512  1.00  0.00     0.420 C 
HETATM    5  N2  UNL     1      -0.559   1.094   0.507  1.00  0.00     0.012 N 
ATOM      6  H21 UNL     1      -1.023   1.835   1.033  1.00  0.00     0.284 HD
ATOM      7  H22 UNL     1       0.148   1.796   0.289  1.00  0.00     0.284 HD
HETATM    8  C4  UNL     1      -0.246  -0.232   1.070  1.00  0.00     0.620 C 
HETATM    9  N3  UNL     1      -1.562  -0.611   0.619  1.00  0.00     0.012 N 
ATOM     10  H31 UNL     1      -1.853  -1.582   0.501  1.00  0.00     0.284 HD
ATOM     11  H32 UNL     1      -2.400  -0.499   1.189  1.00  0.00     0.284 HD
ENDROOT
TORSDOF 0
