REMARK  0 active torsions:
REMARK  status: ('A' for Active; 'I' for Inactive)
ROOT
HETATM    1  C1  UNL     1      -0.858   1.271  -0.038  1.00  0.00     0.107 C 
HETATM    2  N1  UNL     1       0.246   1.430   0.653  1.00  0.00    -0.317 N 
ATOM      3  H1  UNL     1       0.361   2.220   1.287  1.00  0.00     0.185 HD
HETATM    4  N2  UNL     1       1.260   0.479   0.491  1.00  0.00    -0.312 N 
ATOM      5  H2  UNL     1       2.239   0.744   0.383  1.00  0.00     0.182 HD
HETATM    6  C2  UNL     1       0.833  -0.908   0.486  1.00  0.00     0.371 C 
HETATM    7  N3  UNL     1      -0.404  -1.121  -0.192  1.00  0.00    -0.054 N 
ATOM      8  H31 UNL     1      -1.121  -1.458   0.451  1.00  0.00     0.279 HD
ATOM      9  H32 UNL     1      -0.347  -1.928  -0.813  1.00  0.00     0.279 HD
HETATM   10  C3  UNL     1      -0.862   0.067  -0.914  1.00  0.00     0.280 C 
ENDROOT
TORSDOF 0
