REMARK  6 active torsions:
REMARK  status: ('A' for Active; 'I' for Inactive)
REMARK    1  A    between atoms: N1_1  and  C1_5 
REMARK    2  A    between atoms: C1_5  and  C2_6 
REMARK    3  A    between atoms: C2_6  and  C3_7 
REMARK    4  A    between atoms: C3_7  and  N2_8 
REMARK    5  A    between atoms: N2_8  and  C4_10 
REMARK    6  A    between atoms: C4_10  and  C5_11 
ROOT
HETATM    1  C5  UNL     1       0.435   0.127  -0.728  1.00  0.00     0.042 C 
HETATM    2  C6  UNL     1       0.210   0.966   0.449  1.00  0.00     0.119 C 
HETATM    3  S1  UNL     1       1.843   1.628   0.830  1.00  0.00     0.020 S 
HETATM    4  O1  UNL     1       1.839   3.272   0.993  1.00  0.00    -0.258 OA
HETATM    5  C7  UNL     1       2.623   1.100  -0.711  1.00  0.00     0.087 C 
HETATM    6  C8  UNL     1       4.102   0.986  -0.548  1.00  0.00     0.045 C 
HETATM    7  C9  UNL     1       4.440   0.028   0.550  1.00  0.00     0.233 C 
HETATM    8  N3  UNL     1       3.750  -1.206   0.342  1.00  0.00    -0.075 N 
ATOM      9  H31 UNL     1       4.036  -1.896   1.037  1.00  0.00     0.277 HD
ATOM     10  H32 UNL     1       4.085  -1.664  -0.506  1.00  0.00     0.277 HD
HETATM   11  C10 UNL     1       2.302  -1.082   0.314  1.00  0.00     0.238 C 
HETATM   12  C11 UNL     1       1.913  -0.228  -0.834  1.00  0.00     0.037 C 
ENDROOT
BRANCH   1  13
HETATM   13  C4  UNL     1      -0.371  -1.116  -0.822  1.00  0.00     0.066 C 
BRANCH  13  14
HETATM   14  N2  UNL     1      -1.717  -1.169  -0.923  1.00  0.00    -0.382 N 
ATOM     15  H2  UNL     1      -2.001  -1.492  -1.848  1.00  0.00     0.164 HD
BRANCH  14  16
HETATM   16  C3  UNL     1      -2.802  -0.914  -0.142  1.00  0.00     0.061 C 
BRANCH  16  17
HETATM   17  C2  UNL     1      -3.252   0.463   0.211  1.00  0.00     0.072 C 
BRANCH  17  18
HETATM   18  C1  UNL     1      -4.548   0.379   1.055  1.00  0.00     0.234 C 
BRANCH  18  19
HETATM   19  N1  UNL     1      -5.544  -0.294   0.264  1.00  0.00    -0.079 N 
ATOM     20  H13 UNL     1      -5.691   0.145  -0.645  1.00  0.00     0.274 HD
ATOM     21  H12 UNL     1      -5.232  -1.204  -0.075  1.00  0.00     0.274 HD
ATOM     22  H11 UNL     1      -6.397  -0.349   0.820  1.00  0.00     0.274 HD
ENDBRANCH  18  19
ENDBRANCH  17  18
ENDBRANCH  16  17
ENDBRANCH  14  16
ENDBRANCH  13  14
ENDBRANCH   1  13
TORSDOF 6
