REMARK  8 active torsions:
REMARK  status: ('A' for Active; 'I' for Inactive)
REMARK    1  A    between atoms: N1_7  and  C8_9 
REMARK    2  A    between atoms: C8_9  and  C9_10 
REMARK    3  A    between atoms: C9_10  and  O1_11 
REMARK    4  A    between atoms: O1_11  and  C10_12 
REMARK    5  A    between atoms: C10_12  and  C11_13 
REMARK    6  A    between atoms: C11_13  and  O2_15 
REMARK    7  A    between atoms: C11_13  and  C13_17 
REMARK    8  A    between atoms: C13_17  and  O3_18 
ROOT
HETATM    1  C9  UNL     1       0.657   0.310   0.413  1.00  0.00     0.195 C 
ENDROOT
BRANCH   1   2
HETATM    2  C8  UNL     1      -0.723   0.892   0.054  1.00  0.00     0.263 C 
BRANCH   2   3
HETATM    3  N1  UNL     1      -1.554  -0.090  -0.606  1.00  0.00    -0.065 N 
HETATM    4  C2  UNL     1      -2.143  -1.006   0.322  1.00  0.00     0.186 C 
HETATM    5  C1  UNL     1      -2.368  -2.337  -0.414  1.00  0.00     0.040 C 
HETATM    6  C3  UNL     1      -3.371  -0.582   1.004  1.00  0.00     0.033 C 
HETATM    7  C4  UNL     1      -4.136   0.542   0.432  1.00  0.00     0.004 C 
HETATM    8  C5  UNL     1      -3.363   1.470  -0.445  1.00  0.00     0.028 C 
HETATM    9  C6  UNL     1      -2.521   0.664  -1.377  1.00  0.00     0.237 C 
HETATM   10  C7  UNL     1      -0.723  -0.768  -1.585  1.00  0.00     0.273 C 
ENDBRANCH   2   3
ENDBRANCH   1   2
BRANCH   1  11
HETATM   11  O1  UNL     1       1.408   1.238   1.033  1.00  0.00    -0.386 OA
BRANCH  11  12
HETATM   12  C10 UNL     1       2.613   0.995   1.536  1.00  0.00     0.207 C 
BRANCH  12  13
HETATM   13  C11 UNL     1       3.738   0.502   0.701  1.00  0.00     0.096 C 
HETATM   14  C12 UNL     1       4.075   1.301  -0.503  1.00  0.00     0.050 C 
BRANCH  13  15
HETATM   15  O2  UNL     1       4.859   0.491   1.620  1.00  0.00    -0.386 OA
ATOM     16  H2  UNL     1       5.579   0.176   1.086  1.00  0.00     0.210 HD
ENDBRANCH  13  15
BRANCH  13  17
HETATM   17  C13 UNL     1       3.645  -0.974   0.313  1.00  0.00     0.203 C 
BRANCH  17  18
HETATM   18  O3  UNL     1       4.916  -1.272  -0.225  1.00  0.00    -0.398 OA
ATOM     19  H3  UNL     1       4.858  -2.189  -0.466  1.00  0.00     0.209 HD
ENDBRANCH  17  18
ENDBRANCH  13  17
ENDBRANCH  12  13
ENDBRANCH  11  12
ENDBRANCH   1  11
TORSDOF 8
