REMARK  5 active torsions:
REMARK  status: ('A' for Active; 'I' for Inactive)
REMARK    1  A    between atoms: N2_6  and  C5_7 
REMARK    2  A    between atoms: C5_7  and  C6_8 
REMARK    3  A    between atoms: C6_8  and  C7_9 
REMARK    4  A    between atoms: C7_9  and  C8_10 
REMARK    5  A    between atoms: C8_10  and  N3_11 
REMARK       I    between atoms: N3_11  and  C9_13 
REMARK       I    between atoms: C9_13  and  N5_17 
ROOT
HETATM    1  N3  UNL     1       3.656   0.899   0.069  1.00  0.00    -0.226 N 
ATOM      2  H3  UNL     1       2.903   1.409  -0.393  1.00  0.00     0.177 HD
HETATM    3  C9  UNL     1       4.940   0.881  -0.529  1.00  0.00     0.680 C 
HETATM    4  N4  UNL     1       5.496   1.991  -0.929  1.00  0.00    -0.234 N 
ATOM      5  H41 UNL     1       6.421   1.978  -1.360  1.00  0.00     0.174 HD
ATOM      6  H42 UNL     1       4.988   2.866  -0.802  1.00  0.00     0.174 HD
HETATM    7  N5  UNL     1       5.642  -0.328  -0.705  1.00  0.00    -0.127 N 
ATOM      8  H5  UNL     1       6.650  -0.358  -0.552  1.00  0.00     0.197 HD
HETATM    9  C10 UNL     1       4.959  -1.488  -1.090  1.00  0.00     0.196 C 
HETATM   10  N6  UNL     1       4.389  -2.446  -1.393  1.00  0.00    -0.171 NA
ENDROOT
BRANCH   1  11
HETATM   11  C8  UNL     1       3.377   0.210   1.326  1.00  0.00     0.138 C 
BRANCH  11  12
HETATM   12  C7  UNL     1       1.935   0.403   1.731  1.00  0.00     0.022 C 
BRANCH  12  13
HETATM   13  C6  UNL     1       0.970  -0.132   0.707  1.00  0.00     0.032 C 
BRANCH  13  14
HETATM   14  C5  UNL     1      -0.424   0.132   1.242  1.00  0.00     0.275 C 
BRANCH  14  15
HETATM   15  N2  UNL     1      -1.451  -0.336   0.348  1.00  0.00     0.116 N 
HETATM   16  C4  UNL     1      -1.504   0.429  -0.886  1.00  0.00     0.302 C 
HETATM   17  C3  UNL     1      -2.939   0.199  -1.326  1.00  0.00     0.269 C 
HETATM   18  N1  UNL     1      -3.623  -0.387  -0.188  1.00  0.00    -0.047 N 
HETATM   19  C1  UNL     1      -4.959   0.134  -0.032  1.00  0.00     0.274 C 
HETATM   20  C2  UNL     1      -3.614  -1.845  -0.235  1.00  0.00     0.274 C 
HETATM   21  C11 UNL     1      -2.753  -0.008   0.907  1.00  0.00     0.506 C 
ENDBRANCH  14  15
ENDBRANCH  13  14
ENDBRANCH  12  13
ENDBRANCH  11  12
ENDBRANCH   1  11
TORSDOF 5
