REMARK  8 active torsions:
REMARK  status: ('A' for Active; 'I' for Inactive)
REMARK    1  A    between atoms: N2_7  and  C6_8 
REMARK    2  A    between atoms: C6_8  and  C7_9 
REMARK    3  A    between atoms: C7_9  and  C8_10 
REMARK    4  A    between atoms: C8_10  and  C9_11 
REMARK    5  A    between atoms: C9_11  and  O1_12 
REMARK    6  A    between atoms: C11_15  and  O2_16 
REMARK    7  A    between atoms: C11_15  and  C12_18 
REMARK    8  A    between atoms: C12_18  and  O3_19 
ROOT
HETATM    1  C1  UNL     1      -3.356  -0.894  -0.932  1.00  0.00     0.276 C 
HETATM    2  N1  UNL     1      -2.118  -0.647  -0.170  1.00  0.00    -0.032 N 
HETATM    3  C2  UNL     1      -2.099  -1.635   0.868  1.00  0.00     0.276 C 
HETATM    4  C3  UNL     1      -1.045  -0.848  -1.119  1.00  0.00     0.223 C 
HETATM    5  C4  UNL     1      -0.905   0.580  -1.681  1.00  0.00     0.076 C 
HETATM    6  C5  UNL     1      -0.763   1.193  -0.300  1.00  0.00     0.290 C 
HETATM    7  N2  UNL     1       0.360   0.427   0.238  1.00  0.00     0.100 N 
HETATM    8  C10 UNL     1       0.283  -0.874  -0.383  1.00  0.00     0.306 C 
HETATM    9  C11 UNL     1      -2.077   0.707   0.280  1.00  0.00     0.280 C 
ENDROOT
BRANCH   7  10
HETATM   10  C6  UNL     1       1.538   1.133  -0.170  1.00  0.00     0.273 C 
BRANCH  10  11
HETATM   11  C7  UNL     1       2.808   0.705   0.445  1.00  0.00     0.032 C 
BRANCH  11  12
HETATM   12  C8  UNL     1       3.271  -0.688   0.229  1.00  0.00     0.028 C 
BRANCH  12  13
HETATM   13  C9  UNL     1       4.621  -0.928   0.929  1.00  0.00     0.164 C 
BRANCH  13  14
HETATM   14  O1  UNL     1       5.582  -0.059   0.422  1.00  0.00    -0.401 OA
ATOM     15  H1  UNL     1       6.415  -0.207   0.854  1.00  0.00     0.209 HD
ENDBRANCH  13  14
ENDBRANCH  12  13
ENDBRANCH  11  12
ENDBRANCH  10  11
ENDBRANCH   7  10
BRANCH   9  16
HETATM   16  O2  UNL     1      -3.074   1.422  -0.386  1.00  0.00    -0.361 OA
ATOM     17  H2  UNL     1      -3.047   2.323  -0.087  1.00  0.00     0.212 HD
ENDBRANCH   9  16
BRANCH   9  18
HETATM   18  C12 UNL     1      -2.222   0.922   1.732  1.00  0.00     0.235 C 
BRANCH  18  19
HETATM   19  O3  UNL     1      -2.161   2.288   2.000  1.00  0.00    -0.396 OA
ATOM     20  H3  UNL     1      -2.254   2.426   2.935  1.00  0.00     0.209 HD
ENDBRANCH  18  19
ENDBRANCH   9  18
TORSDOF 8
