REMARK  15 active torsions:
REMARK  status: ('A' for Active; 'I' for Inactive)
REMARK    1  A    between atoms: C3_7  and  N3_8 
REMARK    2  A    between atoms: N4_11  and  C6_12 
REMARK    3  A    between atoms: C8_19  and  S1_20 
REMARK    4  A    between atoms: S1_20  and  C9_22 
REMARK    5  A    between atoms: C9_22  and  C10_23 
REMARK    6  A    between atoms: C10_23  and  O3_24 
REMARK    7  A    between atoms: C10_23  and  O4_26 
REMARK    8  A    between atoms: C14_38  and  N11_39 
REMARK    9  A    between atoms: N11_39  and  C15_41 
REMARK   10  A    between atoms: C18_44  and  O5_45 
REMARK   11  A    between atoms: O5_45  and  S2_46 
REMARK   12  A    between atoms: C20_51  and  O9_52 
REMARK   13  A    between atoms: O9_52  and  C21_53 
REMARK   14  A    between atoms: C21_53  and  C22_54 
REMARK   15  A    between atoms: C22_54  and  O10_55 
ROOT
HETATM    1  C1  UNL     1      -3.672   0.155  -4.493  1.00  0.00     0.180 C 
HETATM    2  N1  UNL     1      -2.741   0.134  -3.385  1.00  0.00    -0.136 N 
HETATM    3  C2  UNL     1      -1.458  -0.214  -3.533  1.00  0.00     0.354 A 
HETATM    4  O1  UNL     1      -1.074  -0.532  -4.715  1.00  0.00    -0.245 OA
HETATM    5  N2  UNL     1      -0.583  -0.242  -2.513  1.00  0.00    -0.140 N 
ATOM      6  H2  UNL     1       0.387  -0.514  -2.671  1.00  0.00     0.189 HD
HETATM    7  C3  UNL     1      -1.015   0.102  -1.253  1.00  0.00     0.700 A 
HETATM    8  N10 UNL     1      -2.291   0.443  -1.133  1.00  0.00    -0.022 N 
ATOM      9  H10 UNL     1      -2.622   0.699  -0.203  1.00  0.00     0.203 HD
HETATM   10  C14 UNL     1      -3.180   0.478  -2.134  1.00  0.00     0.703 A 
ENDROOT
BRANCH   7  11
HETATM   11  N3  UNL     1      -0.122   0.069  -0.164  1.00  0.00    -0.199 N 
HETATM   12  C4  UNL     1      -0.143  -0.785   1.022  1.00  0.00     0.163 C 
HETATM   13  C5  UNL     1       1.344  -1.026   1.297  1.00  0.00     0.146 C 
HETATM   14  N4  UNL     1       2.020  -0.281   0.239  1.00  0.00    -0.346 N 
HETATM   15  C13 UNL     1       1.112   0.869   0.048  1.00  0.00     0.269 C 
BRANCH  14  16
HETATM   16  C6  UNL     1       3.186  -0.509  -0.498  1.00  0.00     0.153 A 
HETATM   17  N5  UNL     1       3.197  -1.086  -1.761  1.00  0.00    -0.269 N 
HETATM   18  N6  UNL     1       4.423  -1.230  -2.169  1.00  0.00    -0.234 N 
ATOM     19  H5  UNL     1       2.368  -1.356  -2.289  1.00  0.00     0.190 HD
HETATM   20  N7  UNL     1       5.270  -0.776  -1.245  1.00  0.00    -0.243 N 
ATOM     21  H6  UNL     1       4.697  -1.632  -3.066  1.00  0.00     0.209 HD
HETATM   22  C7  UNL     1       6.616  -0.726  -1.242  1.00  0.00     0.157 A 
HETATM   23  C12 UNL     1       4.511  -0.324  -0.203  1.00  0.00     0.146 A 
HETATM   24  C8  UNL     1       7.286  -0.199  -0.151  1.00  0.00     0.119 A 
HETATM   25  N8  UNL     1       6.544   0.245   0.864  1.00  0.00    -0.332 N 
HETATM   26  C11 UNL     1       5.170   0.202   0.877  1.00  0.00     0.133 A 
ATOM     27  H8  UNL     1       7.022   0.638   1.675  1.00  0.00     0.168 HD
HETATM   28  N9  UNL     1       4.554   0.676   1.869  1.00  0.00    -0.383 N 
ATOM     29  H92 UNL     1       5.045   1.068   2.673  1.00  0.00     0.157 HD
ATOM     30  H91 UNL     1       3.535   0.644   1.879  1.00  0.00     0.157 HD
BRANCH  24  31
HETATM   31  S1  UNL     1       9.008  -0.109  -0.080  1.00  0.00     0.072 S 
HETATM   32  O2  UNL     1       9.663   1.296  -0.656  1.00  0.00    -0.251 OA
BRANCH  31  33
HETATM   33  C9  UNL     1       9.712  -0.630   1.437  1.00  0.00     0.176 C 
BRANCH  33  34
HETATM   34  C10 UNL     1      11.233  -0.474   1.291  1.00  0.00     0.265 C 
BRANCH  34  35
HETATM   35  O3  UNL     1      11.895  -0.859   2.434  1.00  0.00    -0.371 OA
ATOM     36  H3  UNL     1      12.836  -0.763   2.344  1.00  0.00     0.212 HD
ENDBRANCH  34  35
BRANCH  34  37
HETATM   37  O4  UNL     1      11.659  -1.222   0.185  1.00  0.00    -0.371 OA
ATOM     38  H4  UNL     1      12.600  -1.126   0.095  1.00  0.00     0.212 HD
ENDBRANCH  34  37
ENDBRANCH  33  34
ENDBRANCH  31  33
ENDBRANCH  24  31
ENDBRANCH  14  16
ENDBRANCH   7  11
BRANCH  10  39
HETATM   39  N11 UNL     1      -4.409   0.805  -2.014  1.00  0.00    -0.188 N 
ATOM     40  H11 UNL     1      -4.957   0.781  -2.874  1.00  0.00     0.184 HD
BRANCH  39  41
HETATM   41  C15 UNL     1      -5.103   1.190  -0.868  1.00  0.00     0.082 A 
HETATM   42  C16 UNL     1      -5.177   2.454  -0.368  1.00  0.00     0.036 A 
HETATM   43  C17 UNL     1      -5.898   2.761   0.774  1.00  0.00     0.040 A 
HETATM   44  C18 UNL     1      -6.583   1.788   1.464  1.00  0.00     0.094 A 
HETATM   45  C19 UNL     1      -6.505   0.488   0.946  1.00  0.00     0.077 A 
HETATM   46  C20 UNL     1      -5.792   0.171  -0.187  1.00  0.00     0.098 A 
BRANCH  44  47
HETATM   47  O5  UNL     1      -7.317   2.053   2.609  1.00  0.00    -0.214 OA
BRANCH  47  48
HETATM   48  S2  UNL     1      -8.974   2.441   2.559  1.00  0.00     0.256 S 
HETATM   49  O6  UNL     1      -9.126   3.885   2.936  1.00  0.00    -0.572 OA
HETATM   50  O7  UNL     1      -9.716   1.527   3.502  1.00  0.00    -0.572 OA
HETATM   51  O8  UNL     1      -9.602   2.202   1.017  1.00  0.00    -0.572 OA
ENDBRANCH  47  48
ENDBRANCH  44  47
BRANCH  46  52
HETATM   52  O9  UNL     1      -5.738  -1.093  -0.662  1.00  0.00    -0.347 OA
BRANCH  52  53
HETATM   53  C21 UNL     1      -6.247  -2.293  -0.279  1.00  0.00     0.201 C 
BRANCH  53  54
HETATM   54  C22 UNL     1      -5.815  -2.851   1.042  1.00  0.00     0.190 C 
BRANCH  54  55
HETATM   55  O10 UNL     1      -4.431  -3.040   1.085  1.00  0.00    -0.399 OA
ATOM     56  H10 UNL     1      -4.157  -3.394   1.923  1.00  0.00     0.209 HD
ENDBRANCH  54  55
ENDBRANCH  53  54
ENDBRANCH  52  53
ENDBRANCH  46  52
ENDBRANCH  39  41
ENDBRANCH  10  39
TORSDOF 15
