REMARK  14 active torsions:
REMARK  status: ('A' for Active; 'I' for Inactive)
REMARK    1  A    between atoms: C1_4  and  C2_5 
REMARK    2  A    between atoms: C1_4  and  C19_42 
REMARK       I    between atoms: C2_5  and  N2_7 
REMARK    3  A    between atoms: C3_9  and  C4_10 
REMARK    4  A    between atoms: C4_10  and  S1_11 
REMARK    5  A    between atoms: S1_11  and  C5_12 
REMARK    6  A    between atoms: C7_14  and  S2_15 
REMARK    7  A    between atoms: S2_15  and  S3_16 
REMARK    8  A    between atoms: S3_16  and  C8_17 
REMARK    9  A    between atoms: N3_21  and  O2_22 
REMARK       I    between atoms: N4_24  and  C12_25 
REMARK   10  A    between atoms: C12_25  and  C13_27 
REMARK   11  A    between atoms: C14_30  and  C15_31 
REMARK   12  A    between atoms: C17_35  and  C18_36 
REMARK   13  A    between atoms: C20_43  and  O9_44 
REMARK   14  A    between atoms: N7_49  and  N8_50 
ROOT
HETATM    1  C5  UNL     1      -0.602   0.364  -0.445  1.00  0.00     0.249 C 
HETATM    2  C6  UNL     1      -0.931   0.263  -1.912  1.00  0.00     0.060 C 
HETATM    3  C7  UNL     1       0.127  -0.622  -2.580  1.00  0.00     0.064 C 
HETATM    4  C16 UNL     1       0.490  -1.809  -1.787  1.00  0.00     0.058 C 
HETATM    5  C17 UNL     1       0.364  -1.735  -0.308  1.00  0.00     0.276 C 
HETATM    6  N6  UNL     1      -0.815  -0.969   0.109  1.00  0.00    -0.050 N 
ATOM      7  H61 UNL     1      -1.703  -1.394  -0.159  1.00  0.00     0.279 HD
ATOM      8  H62 UNL     1      -0.983  -0.979   1.115  1.00  0.00     0.279 HD
ENDROOT
BRANCH   1   9
HETATM    9  S1  UNL     1      -1.530   1.660   0.328  1.00  0.00    -0.131 SA
BRANCH   9  10
HETATM   10  C4  UNL     1      -3.276   1.379   0.404  1.00  0.00     0.120 C 
BRANCH  10  11
HETATM   11  C3  UNL     1      -3.908   1.439  -0.919  1.00  0.00     0.074 C 
HETATM   12  N2  UNL     1      -5.206   1.421  -1.064  1.00  0.00    -0.335 N 
HETATM   13  C2  UNL     1      -5.965   1.340   0.190  1.00  0.00     0.273 C 
ATOM     14  H2  UNL     1      -5.657   1.460  -1.978  1.00  0.00     0.168 HD
HETATM   15  O1  UNL     1      -6.137   2.441   0.711  1.00  0.00    -0.266 OA
BRANCH  13  16
HETATM   16  C1  UNL     1      -6.375   0.025   0.602  1.00  0.00     0.129 C 
HETATM   17  N1  UNL     1      -6.014  -0.912  -0.208  1.00  0.00    -0.393 N 
ATOM     18  H12 UNL     1      -5.492  -0.657  -1.046  1.00  0.00     0.156 HD
ATOM     19  H11 UNL     1      -6.305  -1.845   0.084  1.00  0.00     0.156 HD
BRANCH  16  20
HETATM   20  C19 UNL     1      -7.127  -0.342   1.809  1.00  0.00     0.151 A 
HETATM   21  C20 UNL     1      -7.462  -1.656   2.135  1.00  0.00     0.220 A 
HETATM   22  O10 UNL     1      -8.133  -1.601   3.275  1.00  0.00    -0.234 OA
HETATM   23  C21 UNL     1      -8.244  -0.405   3.677  1.00  0.00     0.393 A 
HETATM   24  O11 UNL     1      -8.816   0.007   4.716  1.00  0.00    -0.236 OA
HETATM   25  N7  UNL     1      -7.630   0.408   2.792  1.00  0.00    -0.198 N 
BRANCH  21  26
HETATM   26  O9  UNL     1      -7.200  -2.846   1.478  1.00  0.00    -0.339 OA
ATOM     27  H9  UNL     1      -7.428  -3.741   1.700  1.00  0.00     0.220 HD
ENDBRANCH  21  26
BRANCH  25  28
HETATM   28  N8  UNL     1      -7.571   1.802   2.940  1.00  0.00    -0.334 N 
ATOM     29  H82 UNL     1      -7.107   2.416   2.271  1.00  0.00     0.177 HD
ATOM     30  H81 UNL     1      -7.955   2.375   3.691  1.00  0.00     0.177 HD
ENDBRANCH  25  28
ENDBRANCH  16  20
ENDBRANCH  13  16
ENDBRANCH  10  11
ENDBRANCH   9  10
ENDBRANCH   1   9
BRANCH   3  31
HETATM   31  S2  UNL     1       1.429   0.336  -3.322  1.00  0.00    -0.092 SA
BRANCH  31  32
HETATM   32  S3  UNL     1       2.672   1.424  -2.093  1.00  0.00    -0.088 SA
BRANCH  32  33
HETATM   33  C8  UNL     1       4.192   0.660  -1.561  1.00  0.00     0.112 C 
HETATM   34  C9  UNL     1       4.125  -0.475  -0.637  1.00  0.00     0.108 C 
HETATM   35  C10 UNL     1       5.580  -0.950  -0.420  1.00  0.00     0.067 C 
HETATM   36  N3  UNL     1       4.096  -0.131   0.760  1.00  0.00    -0.170 NA
HETATM   37  C11 UNL     1       5.546   0.047   0.670  1.00  0.00     0.191 C 
HETATM   38  N4  UNL     1       5.681   1.435   0.181  1.00  0.00    -0.308 N 
HETATM   39  C12 UNL     1       6.265   2.394   1.075  1.00  0.00     0.322 C 
HETATM   40  C14 UNL     1       5.221   1.683  -1.141  1.00  0.00     0.206 C 
HETATM   41  O3  UNL     1       6.637   2.016   2.228  1.00  0.00    -0.261 OA
BRANCH  39  42
HETATM   42  C13 UNL     1       6.440   3.764   0.702  1.00  0.00     0.270 C 
HETATM   43  O4  UNL     1       6.138   4.310  -0.380  1.00  0.00    -0.640 OA
HETATM   44  O5  UNL     1       7.031   4.609   1.690  1.00  0.00    -0.640 OA
ENDBRANCH  39  42
BRANCH  40  45
HETATM   45  C15 UNL     1       6.306   1.773  -2.136  1.00  0.00     0.198 C 
HETATM   46  O6  UNL     1       6.014   1.974  -3.337  1.00  0.00    -0.646 OA
HETATM   47  O7  UNL     1       7.616   1.640  -1.766  1.00  0.00    -0.646 OA
ENDBRANCH  40  45
BRANCH  36  48
HETATM   48  O2  UNL     1       3.749  -1.207   1.509  1.00  0.00    -0.311 OA
ATOM     49  H2  UNL     1       3.730  -0.980   2.431  1.00  0.00     0.237 HD
ENDBRANCH  36  48
ENDBRANCH  32  33
ENDBRANCH  31  32
ENDBRANCH   3  31
BRANCH   5  50
HETATM   50  C18 UNL     1       0.256  -3.140   0.206  1.00  0.00     0.262 C 
HETATM   51  N5  UNL     1       1.298  -4.071  -0.081  1.00  0.00    -0.060 NA
HETATM   52  O8  UNL     1      -0.719  -3.517   0.877  1.00  0.00    -0.275 OA
ENDBRANCH   5  50
TORSDOF 14
