REMARK  17 active torsions:
REMARK  status: ('A' for Active; 'I' for Inactive)
REMARK    1  A    between atoms: C3_4  and  C4_5 
REMARK    2  A    between atoms: C4_5  and  C8_12 
REMARK    3  A    between atoms: C5_6  and  C6_7 
REMARK    4  A    between atoms: C6_7  and  O1_8 
REMARK    5  A    between atoms: O1_8  and  C7_9 
REMARK    6  A    between atoms: C8_12  and  C9_14 
REMARK    7  A    between atoms: N2_15  and  O5_17 
REMARK    8  A    between atoms: C10_20  and  O7_21 
REMARK    9  A    between atoms: C10_20  and  C23_54 
REMARK   10  A    between atoms: O7_21  and  C11_22 
REMARK   11  A    between atoms: C11_22  and  C12_24 
REMARK   12  A    between atoms: C14_30  and  C15_31 
REMARK   13  A    between atoms: C15_31  and  O10_32 
REMARK   14  A    between atoms: C15_31  and  N4_34 
REMARK   15  A    between atoms: C17_38  and  N6_39 
REMARK       I    between atoms: N6_39  and  C18_41 
REMARK   16  A    between atoms: C18_41  and  C19_43 
REMARK   17  A    between atoms: C19_43  and  N7_46 
ROOT
HETATM    1  C12 UNL     1       0.212  -0.402   2.625  1.00  0.00     0.129 A 
HETATM    2  N3  UNL     1       0.010   0.395   3.659  1.00  0.00    -0.311 N 
ATOM      3  H3  UNL     1      -0.626   1.189   3.583  1.00  0.00     0.170 HD
HETATM    4  C13 UNL     1       0.641   0.151   4.790  1.00  0.00     0.289 A 
HETATM    5  O9  UNL     1       0.539   0.841   5.867  1.00  0.00    -0.260 OA
HETATM    6  S1  UNL     1       1.560  -1.233   4.445  1.00  0.00    -0.027 SA
HETATM    7  C14 UNL     1       1.079  -1.445   2.810  1.00  0.00     0.070 A 
ENDROOT
BRANCH   1   8
HETATM    8  C11 UNL     1      -0.459  -0.230   1.294  1.00  0.00     0.315 C 
HETATM    9  O8  UNL     1      -0.258  -0.996   0.335  1.00  0.00    -0.257 OA
BRANCH   8  10
HETATM   10  O7  UNL     1      -1.351   0.808   1.057  1.00  0.00    -0.242 OA
BRANCH  10  11
HETATM   11  C10 UNL     1      -1.974   0.957  -0.206  1.00  0.00     0.471 C 
HETATM   12  N1  UNL     1      -2.830   2.122  -0.095  1.00  0.00     0.162 N 
HETATM   13  C1  UNL     1      -2.584   3.145  -1.048  1.00  0.00     0.318 C 
HETATM   14  C2  UNL     1      -4.197   1.652  -0.028  1.00  0.00     0.317 C 
HETATM   15  C3  UNL     1      -4.015   0.190   0.123  1.00  0.00     0.193 C 
HETATM   16  O6  UNL     1      -2.815  -0.130  -0.511  1.00  0.00    -0.310 OA
BRANCH  15  17
HETATM   17  C4  UNL     1      -5.200  -0.549  -0.416  1.00  0.00     0.022 C 
HETATM   18  C5  UNL     1      -5.900  -1.184   0.509  1.00  0.00     0.013 C 
BRANCH  18  19
HETATM   19  C6  UNL     1      -7.095  -1.999   0.387  1.00  0.00     0.210 C 
BRANCH  19  20
HETATM   20  O1  UNL     1      -8.209  -1.491   1.132  1.00  0.00    -0.292 OA
BRANCH  20  21
HETATM   21  C7  UNL     1      -8.244  -1.332   2.483  1.00  0.00     0.333 C 
HETATM   22  O2  UNL     1      -7.252  -1.640   3.183  1.00  0.00    -0.624 OA
HETATM   23  O3  UNL     1      -9.350  -0.830   3.173  1.00  0.00    -0.624 OA
ENDBRANCH  20  21
ENDBRANCH  19  20
ENDBRANCH  18  19
BRANCH  17  24
HETATM   24  C8  UNL     1      -5.544  -0.522  -1.815  1.00  0.00     0.197 C 
HETATM   25  O4  UNL     1      -6.557  -1.103  -2.249  1.00  0.00    -0.286 OA
BRANCH  24  26
HETATM   26  C9  UNL     1      -4.743   0.175  -2.804  1.00  0.00     0.169 C 
HETATM   27  N2  UNL     1      -5.087   0.181  -4.065  1.00  0.00    -0.277 N 
ATOM     28  H2  UNL     1      -5.933  -0.317  -4.341  1.00  0.00     0.193 HD
BRANCH  27  29
HETATM   29  O5  UNL     1      -4.363   0.825  -5.032  1.00  0.00    -0.290 OA
ATOM     30  H5  UNL     1      -4.613   0.829  -5.948  1.00  0.00     0.244 HD
ENDBRANCH  27  29
ENDBRANCH  24  26
ENDBRANCH  17  24
ENDBRANCH  15  17
BRANCH  11  31
HETATM   31  C23 UNL     1      -0.990   1.069  -1.301  1.00  0.00     0.274 C 
HETATM   32  O13 UNL     1      -0.974   0.296  -2.289  1.00  0.00    -0.642 OA
HETATM   33  O14 UNL     1      -0.013   2.080  -1.259  1.00  0.00    -0.642 OA
ENDBRANCH  11  31
ENDBRANCH  10  11
ENDBRANCH   8  10
ENDBRANCH   1   8
BRANCH   7  34
HETATM   34  C15 UNL     1       1.534  -2.513   1.841  1.00  0.00     0.289 C 
BRANCH  34  35
HETATM   35  O10 UNL     1       2.198  -3.477   2.645  1.00  0.00    -0.370 OA
ATOM     36  H10 UNL     1       2.484  -4.148   2.036  1.00  0.00     0.212 HD
ENDBRANCH  34  35
BRANCH  34  37
HETATM   37  N4  UNL     1       2.546  -1.997   0.948  1.00  0.00    -0.208 N 
HETATM   38  N5  UNL     1       3.150  -0.853   1.192  1.00  0.00    -0.299 N 
HETATM   39  C16 UNL     1       4.112  -0.373   0.350  1.00  0.00     0.156 A 
ATOM     40  H5  UNL     1       2.896  -0.317   2.022  1.00  0.00     0.186 HD
HETATM   41  C17 UNL     1       4.483  -1.068  -0.781  1.00  0.00     0.129 A 
HETATM   42  N8  UNL     1       3.844  -2.240  -1.002  1.00  0.00    -0.292 N 
HETATM   43  C22 UNL     1       2.901  -2.678  -0.149  1.00  0.00     0.345 A 
ATOM     44  H8  UNL     1       4.080  -2.797  -1.824  1.00  0.00     0.172 HD
HETATM   45  O12 UNL     1       2.300  -3.781  -0.358  1.00  0.00    -0.245 OA
BRANCH  41  46
HETATM   46  N6  UNL     1       5.382  -0.675  -1.615  1.00  0.00    -0.310 N 
HETATM   47  C18 UNL     1       6.126   0.507  -1.521  1.00  0.00     0.258 C 
HETATM   48  O11 UNL     1       5.549   1.614  -1.674  1.00  0.00    -0.270 OA
ATOM     49  H6  UNL     1       5.569  -1.279  -2.416  1.00  0.00     0.170 HD
BRANCH  47  50
HETATM   50  C19 UNL     1       7.581   0.494  -1.246  1.00  0.00     0.196 C 
HETATM   51  C20 UNL     1       7.900   1.226   0.052  1.00  0.00     0.056 C 
HETATM   52  C21 UNL     1       8.373   1.185  -2.343  1.00  0.00     0.056 C 
BRANCH  50  53
HETATM   53  N7  UNL     1       7.998  -0.887  -1.102  1.00  0.00    -0.062 N 
ATOM     54  H73 UNL     1       7.459  -1.390  -0.397  1.00  0.00     0.275 HD
ATOM     55  H72 UNL     1       7.743  -1.462  -1.905  1.00  0.00     0.275 HD
ATOM     56  H71 UNL     1       9.000  -0.896  -0.913  1.00  0.00     0.275 HD
ENDBRANCH  50  53
ENDBRANCH  47  50
ENDBRANCH  41  46
ENDBRANCH  34  37
ENDBRANCH   7  34
TORSDOF 17
