REMARK  18 active torsions:
REMARK  status: ('A' for Active; 'I' for Inactive)
REMARK    1  A    between atoms: O1_2  and  C2_3 
REMARK    2  A    between atoms: C2_3  and  O2_4 
REMARK    3  A    between atoms: C2_3  and  C3_6 
REMARK    4  A    between atoms: C5_9  and  C6_10 
REMARK    5  A    between atoms: C6_10  and  C7_11 
REMARK    6  A    between atoms: C7_11  and  O5_13 
REMARK    7  A    between atoms: O5_13  and  C8_14 
REMARK    8  A    between atoms: C8_14  and  C9_15 
REMARK    9  A    between atoms: C9_15  and  O6_16 
REMARK   10  A    between atoms: C9_15  and  C10_18 
REMARK   11  A    between atoms: C10_18  and  O7_19 
REMARK   12  A    between atoms: C14_27  and  O11_28 
REMARK   13  A    between atoms: C16_31  and  O12_32 
REMARK   14  A    between atoms: C21_39  and  O14_40 
REMARK   15  A    between atoms: O14_40  and  C22_41 
REMARK   16  A    between atoms: C22_41  and  C23_43 
REMARK   17  A    between atoms: C23_43  and  C24_44 
REMARK   18  A    between atoms: C24_44  and  C26_46 
ROOT
HETATM    1  C3  UNL     1      -0.129  -2.358  -0.599  1.00  0.00     0.182 C 
HETATM    2  O3  UNL     1       0.574  -1.516  -1.372  1.00  0.00    -0.356 OA
HETATM    3  C4  UNL     1       0.939  -0.333  -1.383  1.00  0.00     0.206 C 
HETATM    4  C5  UNL     1       2.194   0.266  -0.823  1.00  0.00     0.105 C 
HETATM    5  C11 UNL     1       1.365   1.539  -0.704  1.00  0.00     0.199 C 
HETATM    6  O8  UNL     1       1.676   2.706  -0.819  1.00  0.00    -0.291 OA
HETATM    7  C12 UNL     1       0.237   0.639  -0.429  1.00  0.00     0.265 C 
HETATM    8  O9  UNL     1       0.249   0.193   0.877  1.00  0.00    -0.270 OA
HETATM    9  C13 UNL     1       0.511  -1.048   1.405  1.00  0.00     0.300 C 
HETATM   10  O10 UNL     1       0.991  -1.068   2.562  1.00  0.00    -0.262 OA
HETATM   11  C14 UNL     1       0.323  -2.428   0.838  1.00  0.00     0.189 C 
HETATM   12  C15 UNL     1      -0.597  -3.158   1.747  1.00  0.00     0.122 C 
HETATM   13  C16 UNL     1      -1.738  -3.872   1.167  1.00  0.00     0.186 C 
HETATM   14  O13 UNL     1      -1.902  -3.723  -0.200  1.00  0.00    -0.338 OA
HETATM   15  C17 UNL     1      -1.590  -2.369  -0.616  1.00  0.00     0.218 C 
HETATM   16  C18 UNL     1      -2.473  -1.512   0.170  1.00  0.00     0.045 C 
HETATM   17  C19 UNL     1      -2.639  -0.233   0.347  1.00  0.00    -0.004 C 
HETATM   18  C20 UNL     1      -3.749   0.279   1.318  1.00  0.00     0.051 C 
HETATM   19  C21 UNL     1      -1.969   0.962  -0.216  1.00  0.00     0.305 C 
HETATM   20  O18 UNL     1      -0.967   0.825  -1.081  1.00  0.00    -0.311 OA
HETATM   21  N1  UNL     1      -3.456  -2.307   0.939  1.00  0.00    -0.381 N 
ATOM     22  H1  UNL     1      -4.439  -2.038   0.897  1.00  0.00     0.160 HD
HETATM   23  C27 UNL     1      -3.085  -3.448   1.747  1.00  0.00     0.140 C 
HETATM   24  C28 UNL     1      -3.041  -3.200   3.208  1.00  0.00     0.037 C 
ENDROOT
BRANCH   4  25
HETATM   25  C6  UNL     1       3.308   0.410  -1.842  1.00  0.00     0.126 C 
BRANCH  25  26
HETATM   26  C7  UNL     1       4.479   1.020  -1.124  1.00  0.00     0.259 C 
HETATM   27  O4  UNL     1       4.401   1.305   0.091  1.00  0.00    -0.265 OA
BRANCH  26  28
HETATM   28  O5  UNL     1       5.623   1.262  -1.801  1.00  0.00    -0.319 OA
BRANCH  28  29
HETATM   29  C8  UNL     1       6.810   1.790  -1.389  1.00  0.00     0.212 C 
BRANCH  29  30
HETATM   30  C9  UNL     1       7.615   1.045  -0.386  1.00  0.00     0.166 C 
BRANCH  30  31
HETATM   31  O6  UNL     1       6.997   0.866   0.817  1.00  0.00    -0.391 OA
ATOM     32  H6  UNL     1       7.512   0.390   1.458  1.00  0.00     0.210 HD
ENDBRANCH  30  31
BRANCH  30  33
HETATM   33  C10 UNL     1       8.944   1.744  -0.121  1.00  0.00     0.198 C 
BRANCH  33  34
HETATM   34  O7  UNL     1       8.760   2.972   0.487  1.00  0.00    -0.398 OA
ATOM     35  H7  UNL     1       9.588   3.407   0.652  1.00  0.00     0.209 HD
ENDBRANCH  33  34
ENDBRANCH  30  33
ENDBRANCH  29  30
ENDBRANCH  28  29
ENDBRANCH  26  28
ENDBRANCH  25  26
ENDBRANCH   4  25
BRANCH   1  36
HETATM   36  C2  UNL     1       0.384  -3.613  -1.239  1.00  0.00     0.297 C 
BRANCH  36  37
HETATM   37  O1  UNL     1       0.031  -4.896  -1.001  1.00  0.00    -0.363 OA
HETATM   38  C1  UNL     1       0.538  -6.044  -1.629  1.00  0.00     0.204 C 
ENDBRANCH  36  37
BRANCH  36  39
HETATM   39  O2  UNL     1       1.303  -3.558  -2.172  1.00  0.00    -0.368 OA
ATOM     40  H2  UNL     1       1.551  -2.656  -2.339  1.00  0.00     0.212 HD
ENDBRANCH  36  39
ENDBRANCH   1  36
BRANCH  11  41
HETATM   41  O11 UNL     1       1.595  -2.986   0.865  1.00  0.00    -0.376 OA
ATOM     42  H11 UNL     1       1.880  -3.030   1.770  1.00  0.00     0.211 HD
ENDBRANCH  11  41
BRANCH  19  43
HETATM   43  O14 UNL     1      -2.951   1.780  -0.908  1.00  0.00    -0.285 OA
BRANCH  43  44
HETATM   44  C22 UNL     1      -3.316   3.035  -0.525  1.00  0.00     0.262 C 
HETATM   45  O15 UNL     1      -2.799   3.553   0.476  1.00  0.00    -0.265 OA
BRANCH  44  46
HETATM   46  C23 UNL     1      -4.332   3.816  -1.281  1.00  0.00     0.126 C 
BRANCH  46  47
HETATM   47  C24 UNL     1      -4.591   5.161  -0.677  1.00  0.00     0.092 C 
HETATM   48  C25 UNL     1      -5.650   5.829  -1.569  1.00  0.00     0.021 C 
BRANCH  47  49
HETATM   49  C26 UNL     1      -5.276   5.021   0.656  1.00  0.00     0.177 C 
HETATM   50  O16 UNL     1      -5.578   3.917   1.138  1.00  0.00    -0.648 OA
HETATM   51  O17 UNL     1      -5.579   6.172   1.365  1.00  0.00    -0.648 OA
ENDBRANCH  47  49
ENDBRANCH  46  47
ENDBRANCH  44  46
ENDBRANCH  43  44
ENDBRANCH  19  43
BRANCH  13  52
HETATM   52  O12 UNL     1      -1.718  -5.262   1.455  1.00  0.00    -0.363 OA
ATOM     53  H12 UNL     1      -2.458  -5.725   1.079  1.00  0.00     0.213 HD
ENDBRANCH  13  52
TORSDOF 18
