REMARK  4 active torsions:
REMARK  status: ('A' for Active; 'I' for Inactive)
REMARK    1  A    between atoms: N1_2  and  N2_4 
REMARK    2  A    between atoms: N2_4  and  C2_6 
REMARK    3  A    between atoms: N6_13  and  N7_14 
REMARK       I    between atoms: N7_14  and  C3_16 
REMARK       I    between atoms: C3_16  and  N8_18 
REMARK    4  A    between atoms: N8_18  and  C4_20 
ROOT
HETATM    1  N7  UNL     1       0.791   0.409   0.989  1.00  0.00    -0.213 N 
ATOM      2  H7  UNL     1       0.779   1.342   0.578  1.00  0.00     0.194 HD
HETATM    3  C3  UNL     1      -0.356  -0.099   1.649  1.00  0.00     0.342 C 
HETATM    4  O1  UNL     1      -0.368  -1.258   2.170  1.00  0.00    -0.245 OA
HETATM    5  N8  UNL     1      -1.523   0.708   1.732  1.00  0.00    -0.292 N 
ATOM      6  H8  UNL     1      -1.582   1.499   2.373  1.00  0.00     0.172 HD
ENDROOT
BRANCH   1   7
HETATM    7  N6  UNL     1       1.947  -0.391   0.908  1.00  0.00     0.003 N 
HETATM    8  C2  UNL     1       3.121  -0.090   0.329  1.00  0.00     0.750 A 
HETATM    9  N3  UNL     1       3.964  -1.127   0.472  1.00  0.00    -0.112 N 
HETATM   10  N4  UNL     1       3.307  -2.053   1.133  1.00  0.00    -0.212 N 
ATOM     11  H3  UNL     1       4.925  -1.184   0.134  1.00  0.00     0.207 HD
HETATM   12  N5  UNL     1       2.092  -1.611   1.396  1.00  0.00    -0.191 N 
ATOM     13  H4  UNL     1       3.676  -2.966   1.400  1.00  0.00     0.210 HD
ATOM     14  H5  UNL     1       1.374  -2.132   1.899  1.00  0.00     0.212 HD
BRANCH   8  15
HETATM   15  N2  UNL     1       3.349   1.037  -0.259  1.00  0.00    -0.129 N 
ATOM     16  H2  UNL     1       2.629   1.758  -0.307  1.00  0.00     0.205 HD
BRANCH  15  17
HETATM   17  N1  UNL     1       4.604   1.240  -0.825  1.00  0.00    -0.308 N 
HETATM   18  C1  UNL     1       4.862   0.976  -2.066  1.00  0.00     0.139 C 
ATOM     19  H1  UNL     1       5.351   1.612  -0.238  1.00  0.00     0.185 HD
ENDBRANCH  15  17
ENDBRANCH   8  15
ENDBRANCH   1   7
BRANCH   5  20
HETATM   20  C4  UNL     1      -2.504   0.390   0.956  1.00  0.00     0.123 A 
HETATM   21  C5  UNL     1      -2.468  -0.669   0.076  1.00  0.00     0.055 A 
HETATM   22  C6  UNL     1      -3.548  -0.980  -0.745  1.00  0.00     0.079 A 
HETATM   23  C7  UNL     1      -4.661  -0.172  -0.634  1.00  0.00     0.259 A 
HETATM   24  O2  UNL     1      -5.660  -0.444  -1.380  1.00  0.00    -0.267 OA
HETATM   25  N9  UNL     1      -4.679   0.857   0.231  1.00  0.00    -0.265 N 
HETATM   26  N10 UNL     1      -3.636   1.115   0.988  1.00  0.00    -0.283 N 
ATOM     27  H9  UNL     1      -5.511   1.444   0.301  1.00  0.00     0.190 HD
ATOM     28  H10 UNL     1      -3.688   1.904   1.632  1.00  0.00     0.188 HD
ENDBRANCH   5  20
TORSDOF 4
