REMARK  3 active torsions:
REMARK  status: ('A' for Active; 'I' for Inactive)
REMARK    1  A    between atoms: N3_12  and  N4_14 
REMARK       I    between atoms: N4_14  and  C8_16 
REMARK       I    between atoms: C8_16  and  N5_18 
REMARK    2  A    between atoms: N5_18  and  N6_20 
REMARK    3  A    between atoms: N6_20  and  N7_21 
ROOT
HETATM    1  C1  UNL     1      -2.570  -1.346  -2.505  1.00  0.00     0.050 C 
HETATM    2  C2  UNL     1      -2.780  -0.566  -1.255  1.00  0.00    -0.026 A 
HETATM    3  C3  UNL     1      -4.015  -0.072  -0.894  1.00  0.00     0.083 A 
HETATM    4  C4  UNL     1      -4.176   0.654   0.282  1.00  0.00     0.249 A 
HETATM    5  O1  UNL     1      -5.289   1.114   0.632  1.00  0.00    -0.268 OA
HETATM    6  N1  UNL     1      -3.135   0.898   1.106  1.00  0.00    -0.302 N 
HETATM    7  C5  UNL     1      -3.305   1.653   2.330  1.00  0.00     0.161 C 
HETATM    8  C6  UNL     1      -1.925   0.426   0.774  1.00  0.00     0.153 A 
HETATM    9  N2  UNL     1      -0.759   0.533   1.412  1.00  0.00    -0.173 N 
ATOM     10  H2  UNL     1      -0.597   1.014   2.297  1.00  0.00     0.186 HD
HETATM   11  C7  UNL     1       0.164  -0.109   0.677  1.00  0.00     0.699 A 
HETATM   12  N3  UNL     1       1.401  -0.184   1.033  1.00  0.00    -0.128 N 
ATOM     13  H3  UNL     1       1.698   0.257   1.903  1.00  0.00     0.205 HD
HETATM   14  N8  UNL     1      -0.422  -0.623  -0.431  1.00  0.00    -0.186 N 
ATOM     15  H8  UNL     1       0.047  -1.158  -1.162  1.00  0.00     0.184 HD
HETATM   16  C9  UNL     1      -1.726  -0.308  -0.402  1.00  0.00     0.100 A 
ENDROOT
BRANCH  12  17
HETATM   17  N4  UNL     1       2.339  -0.855   0.253  1.00  0.00    -0.236 N 
HETATM   18  C8  UNL     1       3.692  -0.428   0.308  1.00  0.00     0.352 C 
HETATM   19  O2  UNL     1       3.999   0.525   1.045  1.00  0.00    -0.244 OA
HETATM   20  N5  UNL     1       4.695  -1.080  -0.470  1.00  0.00    -0.234 N 
ATOM     21  H5  UNL     1       4.456  -1.863  -1.078  1.00  0.00     0.189 HD
ATOM     22  H4  UNL     1       2.061  -1.634  -0.343  1.00  0.00     0.192 HD
BRANCH  20  23
HETATM   23  N6  UNL     1       6.007  -0.624  -0.381  1.00  0.00    -0.026 NA
BRANCH  23  24
HETATM   24  N7  UNL     1       6.116   0.739  -0.664  1.00  0.00    -0.329 N 
ATOM     25  H72 UNL     1       5.315   1.321  -0.907  1.00  0.00     0.174 HD
ATOM     26  H71 UNL     1       7.077   1.073  -0.599  1.00  0.00     0.174 HD
ENDBRANCH  23  24
ENDBRANCH  20  23
ENDBRANCH  12  17
TORSDOF 3
