REMARK  7 active torsions:
REMARK  status: ('A' for Active; 'I' for Inactive)
REMARK    1  A    between atoms: C2_3  and  C3_4 
REMARK    2  A    between atoms: C4_5  and  C5_6 
REMARK    3  A    between atoms: C5_6  and  O1_7 
REMARK    4  A    between atoms: O1_7  and  S1_8 
REMARK    5  A    between atoms: S1_8  and  N2_9 
REMARK    6  A    between atoms: C7_16  and  N4_17 
REMARK    7  A    between atoms: C8_22  and  N6_23 
ROOT
HETATM    1  C1  UNL     1      -1.807   2.425  -0.269  1.00  0.00     0.176 C 
HETATM    2  N1  UNL     1      -2.307   1.075  -0.163  1.00  0.00    -0.178 N 
HETATM    3  C2  UNL     1      -1.447   0.031   0.020  1.00  0.00     0.133 A 
HETATM    4  C6  UNL     1      -1.915  -1.270   0.123  1.00  0.00     0.126 A 
HETATM    5  N3  UNL     1      -1.065  -2.393   0.313  1.00  0.00    -0.095 NA
HETATM    6  C7  UNL     1      -3.271  -1.486   0.038  1.00  0.00     0.142 A 
HETATM    7  N5  UNL     1      -4.086  -0.439  -0.141  1.00  0.00    -0.175 N 
ATOM      8  H5  UNL     1      -5.091  -0.603  -0.203  1.00  0.00     0.186 HD
HETATM    9  C8  UNL     1      -3.624   0.827  -0.242  1.00  0.00     0.680 A 
ENDROOT
BRANCH   3  10
HETATM   10  C3  UNL     1      -0.044   0.278   0.106  1.00  0.00    -0.044 C 
HETATM   11  C4  UNL     1       1.142   0.490   0.172  1.00  0.00    -0.072 C 
BRANCH  11  12
HETATM   12  C5  UNL     1       2.583   0.725   0.259  1.00  0.00     0.286 C 
BRANCH  12  13
HETATM   13  O1  UNL     1       3.269  -0.501   0.195  1.00  0.00    -0.248 OA
BRANCH  13  14
HETATM   14  S1  UNL     1       4.909  -0.141   0.301  1.00  0.00     0.356 S 
HETATM   15  O2  UNL     1       5.120   1.159  -0.414  1.00  0.00    -0.176 OA
HETATM   16  O3  UNL     1       5.233   0.059   1.741  1.00  0.00    -0.176 OA
BRANCH  14  17
HETATM   17  N2  UNL     1       5.859  -1.416  -0.368  1.00  0.00    -0.306 N 
ATOM     18  H22 UNL     1       5.465  -2.267  -0.770  1.00  0.00     0.171 HD
ATOM     19  H21 UNL     1       6.853  -1.198  -0.304  1.00  0.00     0.171 HD
ENDBRANCH  14  17
ENDBRANCH  13  14
ENDBRANCH  12  13
ENDBRANCH  11  12
ENDBRANCH   3  10
BRANCH   9  20
HETATM   20  N6  UNL     1      -4.423   1.832  -0.415  1.00  0.00    -0.234 N 
ATOM     21  H62 UNL     1      -4.074   2.788  -0.491  1.00  0.00     0.174 HD
ATOM     22  H61 UNL     1      -5.424   1.644  -0.475  1.00  0.00     0.174 HD
ENDBRANCH   9  20
BRANCH   6  23
HETATM   23  N4  UNL     1      -3.728  -2.683   0.131  1.00  0.00    -0.383 N 
ATOM     24  H42 UNL     1      -3.107  -3.481   0.267  1.00  0.00     0.157 HD
ATOM     25  H41 UNL     1      -4.733  -2.843   0.068  1.00  0.00     0.157 HD
ENDBRANCH   6  23
TORSDOF 7
