REMARK  5 active torsions:
REMARK  status: ('A' for Active; 'I' for Inactive)
REMARK    1  A    between atoms: N1_2  and  C2_4 
REMARK    2  A    between atoms: C4_8  and  N3_9 
REMARK    3  A    between atoms: N6_20  and  C8_21 
REMARK    4  A    between atoms: C8_21  and  C9_22 
REMARK       I    between atoms: C9_22  and  N7_24 
REMARK    5  A    between atoms: N7_24  and  N8_26 
ROOT
HETATM    1  C2  UNL     1      -0.208  -0.086  -0.321  1.00  0.00     0.138 A 
HETATM    2  C3  UNL     1      -1.534   0.157   0.034  1.00  0.00     0.125 A 
HETATM    3  N2  UNL     1      -2.495  -0.752   0.052  1.00  0.00    -0.186 N 
ATOM      4  H2  UNL     1      -2.267  -1.711  -0.211  1.00  0.00     0.184 HD
HETATM    5  C4  UNL     1      -3.772  -0.459   0.406  1.00  0.00     0.679 A 
HETATM    6  N4  UNL     1      -4.132   0.784   0.761  1.00  0.00    -0.154 N 
ATOM      7  H4  UNL     1      -5.093   1.001   1.027  1.00  0.00     0.187 HD
HETATM    8  C5  UNL     1      -3.190   1.723   0.753  1.00  0.00     0.288 A 
HETATM    9  O1  UNL     1      -3.464   2.918   1.077  1.00  0.00    -0.265 OA
HETATM   10  C6  UNL     1      -1.867   1.444   0.391  1.00  0.00     0.133 A 
HETATM   11  N5  UNL     1      -0.973   2.446   0.408  1.00  0.00    -0.346 N 
ATOM     12  H5  UNL     1      -1.252   3.389   0.678  1.00  0.00     0.167 HD
HETATM   13  C7  UNL     1       0.296   2.179   0.062  1.00  0.00     0.185 A 
HETATM   14  N6  UNL     1       0.681   0.971  -0.291  1.00  0.00    -0.319 N 
ENDROOT
BRANCH  14  15
HETATM   15  C8  UNL     1       2.035   0.708  -0.656  1.00  0.00     0.235 C 
BRANCH  15  16
HETATM   16  C9  UNL     1       2.896   0.313   0.487  1.00  0.00     0.253 C 
HETATM   17  O2  UNL     1       2.481   0.218   1.665  1.00  0.00    -0.270 OA
HETATM   18  N7  UNL     1       4.254   0.033   0.216  1.00  0.00    -0.275 N 
ATOM     19  H7  UNL     1       4.618   0.103  -0.734  1.00  0.00     0.189 HD
BRANCH  18  20
HETATM   20  N8  UNL     1       5.089  -0.340   1.268  1.00  0.00    -0.343 N 
ATOM     21  H82 UNL     1       4.710  -0.405   2.213  1.00  0.00     0.176 HD
ATOM     22  H81 UNL     1       6.069  -0.542   1.072  1.00  0.00     0.176 HD
ENDBRANCH  18  20
ENDBRANCH  15  16
ENDBRANCH  14  15
BRANCH   1  23
HETATM   23  N1  UNL     1       0.178  -1.189  -0.651  1.00  0.00    -0.360 N 
HETATM   24  C1  UNL     1      -0.047  -2.505  -0.888  1.00  0.00     0.120 C 
ATOM     25  H1  UNL     1       1.170  -1.061  -0.850  1.00  0.00     0.165 HD
ENDBRANCH   1  23
BRANCH   5  26
HETATM   26  N3  UNL     1      -4.647  -1.427   0.393  1.00  0.00    -0.234 N 
ATOM     27  H32 UNL     1      -4.373  -2.372   0.123  1.00  0.00     0.174 HD
ATOM     28  H31 UNL     1      -5.607  -1.207   0.659  1.00  0.00     0.174 HD
ENDBRANCH   5  26
TORSDOF 5
