REMARK  7 active torsions:
REMARK  status: ('A' for Active; 'I' for Inactive)
REMARK    1  A    between atoms: C3_3  and  C4_4 
REMARK    2  A    between atoms: C3_3  and  N1_7 
REMARK    3  A    between atoms: C3_3  and  N7_23 
REMARK    4  A    between atoms: C4_4  and  O1_5 
REMARK    5  A    between atoms: N1_7  and  C5_9 
REMARK    6  A    between atoms: C9_17  and  N5_18 
REMARK    7  A    between atoms: N7_23  and  O2_24 
ROOT
HETATM    1  C1  UNL     1      -3.893   2.367  -0.025  1.00  0.00     0.016 C 
HETATM    2  C2  UNL     1      -3.143   1.427  -0.103  1.00  0.00    -0.063 C 
HETATM    3  C3  UNL     1      -2.215   0.267  -0.177  1.00  0.00     0.227 C 
ENDROOT
BRANCH   3   4
HETATM    4  C4  UNL     1      -2.642  -0.668   0.946  1.00  0.00     0.230 C 
BRANCH   4   5
HETATM    5  O1  UNL     1      -3.909  -1.176   0.764  1.00  0.00    -0.396 OA
ATOM      6  H1  UNL     1      -4.175  -1.759   1.465  1.00  0.00     0.209 HD
ENDBRANCH   4   5
ENDBRANCH   3   4
BRANCH   3   7
HETATM    7  N1  UNL     1      -0.931   0.728   0.092  1.00  0.00    -0.187 N 
ATOM      8  H1  UNL     1      -0.917   1.686   0.441  1.00  0.00     0.181 HD
BRANCH   7   9
HETATM    9  C5  UNL     1       0.225   0.220  -0.001  1.00  0.00     0.683 A 
HETATM   10  N2  UNL     1       0.467  -1.024  -0.433  1.00  0.00    -0.177 N 
HETATM   11  C6  UNL     1       1.718  -1.479  -0.499  1.00  0.00     0.156 A 
ATOM     12  H2  UNL     1      -0.308  -1.625  -0.712  1.00  0.00     0.185 HD
HETATM   13  N3  UNL     1       1.987  -2.801  -0.958  1.00  0.00    -0.080 NA
HETATM   14  C7  UNL     1       2.833  -0.725  -0.137  1.00  0.00     0.130 A 
HETATM   15  C8  UNL     1       4.158  -1.272  -0.231  1.00  0.00     0.107 C 
HETATM   16  C9  UNL     1       2.551   0.548   0.303  1.00  0.00     0.141 A 
HETATM   17  N4  UNL     1       5.231  -1.701  -0.310  1.00  0.00    -0.191 NA
HETATM   18  N6  UNL     1       1.281   0.978   0.358  1.00  0.00    -0.175 N 
ATOM     19  H6  UNL     1       1.105   1.927   0.688  1.00  0.00     0.186 HD
BRANCH  16  20
HETATM   20  N5  UNL     1       3.529   1.300   0.653  1.00  0.00    -0.379 N 
HETATM   21  C10 UNL     1       3.358   2.658   1.133  1.00  0.00     0.147 C 
ATOM     22  H5  UNL     1       4.475   0.924   0.591  1.00  0.00     0.160 HD
ENDBRANCH  16  20
ENDBRANCH   7   9
ENDBRANCH   3   7
BRANCH   3  23
HETATM   23  N7  UNL     1      -2.438  -0.312  -1.485  1.00  0.00    -0.055 NA
BRANCH  23  24
HETATM   24  O2  UNL     1      -3.736  -0.688  -1.558  1.00  0.00    -0.293 OA
ATOM     25  H2  UNL     1      -3.882  -1.068  -2.416  1.00  0.00     0.238 HD
ENDBRANCH  23  24
ENDBRANCH   3  23
TORSDOF 7
