REMARK  17 active torsions:
REMARK  status: ('A' for Active; 'I' for Inactive)
REMARK    1  A    between atoms: C2_2  and  O2_4 
REMARK    2  A    between atoms: O2_4  and  C3_5 
REMARK    3  A    between atoms: C3_5  and  C4_6 
REMARK    4  A    between atoms: C4_6  and  O3_7 
REMARK    5  A    between atoms: O3_7  and  C5_8 
REMARK       I    between atoms: C5_8  and  N1_10 
REMARK    6  A    between atoms: N1_10  and  C6_12 
REMARK    7  A    between atoms: C6_12  and  C7_13 
REMARK    8  A    between atoms: C6_12  and  C9_20 
REMARK       I    between atoms: C7_13  and  N2_15 
REMARK       I    between atoms: N2_15  and  C8_17 
REMARK    9  A    between atoms: C11_23  and  N5_24 
REMARK   10  A    between atoms: N5_24  and  C12_26 
REMARK   11  A    between atoms: N10_42  and  C20_43 
REMARK   12  A    between atoms: C20_43  and  C21_44 
REMARK   13  A    between atoms: C21_44  and  O8_45 
REMARK   14  A    between atoms: C21_44  and  C22_47 
REMARK   15  A    between atoms: C22_47  and  O9_48 
REMARK   16  A    between atoms: C22_47  and  C23_50 
REMARK   17  A    between atoms: C23_50  and  O10_51 
ROOT
HETATM    1  C9  UNL     1       0.683  -1.033  -0.315  1.00  0.00     0.084 A 
HETATM    2  C10 UNL     1      -0.126  -1.884   0.375  1.00  0.00     0.155 A 
HETATM    3  N4  UNL     1      -1.386  -1.416   0.258  1.00  0.00    -0.086 N 
HETATM    4  C11 UNL     1      -2.525  -2.004   0.684  1.00  0.00     0.700 A 
HETATM    5  N6  UNL     1      -3.711  -1.452   0.351  1.00  0.00    -0.184 N 
ATOM      6  H6  UNL     1      -4.576  -1.894   0.662  1.00  0.00     0.184 HD
HETATM    7  C15 UNL     1      -3.767  -0.345  -0.374  1.00  0.00     0.126 A 
HETATM    8  C16 UNL     1      -4.984   0.165  -0.723  1.00  0.00     0.117 A 
HETATM    9  C17 UNL     1      -6.263  -0.248  -0.478  1.00  0.00     0.054 A 
HETATM   10  C18 UNL     1      -6.845  -1.381   0.240  1.00  0.00     0.072 C 
HETATM   11  N7  UNL     1      -7.046   0.674  -1.129  1.00  0.00    -0.288 N 
ATOM     12  H7  UNL     1      -8.066   0.668  -1.155  1.00  0.00     0.188 HD
HETATM   13  N8  UNL     1      -6.282   1.559  -1.710  1.00  0.00    -0.231 N 
ATOM     14  H8  UNL     1      -6.612   2.353  -2.259  1.00  0.00     0.209 HD
HETATM   15  N9  UNL     1      -4.996   1.261  -1.473  1.00  0.00    -0.186 N 
HETATM   16  C19 UNL     1      -3.878   1.859  -1.865  1.00  0.00     0.351 A 
HETATM   17  O7  UNL     1      -3.923   2.883  -2.565  1.00  0.00    -0.244 OA
HETATM   18  N10 UNL     1      -2.614   1.377  -1.531  1.00  0.00    -0.278 N 
HETATM   19  C24 UNL     1      -2.562   0.279  -0.809  1.00  0.00     0.168 A 
HETATM   20  N11 UNL     1      -1.372  -0.308  -0.469  1.00  0.00    -0.179 N 
HETATM   21  C25 UNL     1      -0.135  -0.025  -0.859  1.00  0.00     0.283 A 
HETATM   22  O11 UNL     1       0.443   0.802  -1.520  1.00  0.00    -0.265 OA
ENDROOT
BRANCH   1  23
HETATM   23  C6  UNL     1       2.142  -1.151  -0.403  1.00  0.00     0.122 C 
BRANCH  23  24
HETATM   24  N1  UNL     1       2.903   0.003  -0.494  1.00  0.00    -0.297 N 
HETATM   25  C5  UNL     1       4.318   0.133  -0.545  1.00  0.00     0.365 C 
HETATM   26  O4  UNL     1       5.175  -0.789  -0.532  1.00  0.00    -0.238 OA
ATOM     27  H1  UNL     1       2.378   0.877  -0.529  1.00  0.00     0.171 HD
BRANCH  25  28
HETATM   28  O3  UNL     1       4.883   1.421  -0.623  1.00  0.00    -0.302 OA
BRANCH  28  29
HETATM   29  C4  UNL     1       6.196   1.792  -0.726  1.00  0.00     0.207 C 
BRANCH  29  30
HETATM   30  C3  UNL     1       7.069   1.267   0.372  1.00  0.00     0.205 C 
BRANCH  30  31
HETATM   31  O2  UNL     1       6.731   1.644   1.673  1.00  0.00    -0.320 OA
BRANCH  31  32
HETATM   32  C2  UNL     1       6.661   2.896   2.150  1.00  0.00     0.254 C 
HETATM   33  C1  UNL     1       6.300   3.206   3.577  1.00  0.00     0.126 C 
HETATM   34  O1  UNL     1       6.906   3.890   1.408  1.00  0.00    -0.266 OA
ENDBRANCH  31  32
ENDBRANCH  30  31
ENDBRANCH  29  30
ENDBRANCH  28  29
ENDBRANCH  25  28
ENDBRANCH  23  24
BRANCH  23  35
HETATM   35  C7  UNL     1       2.471  -2.384  -1.129  1.00  0.00     0.277 C 
HETATM   36  O5  UNL     1       3.614  -2.871  -1.156  1.00  0.00    -0.266 OA
HETATM   37  N2  UNL     1       1.457  -3.095  -1.865  1.00  0.00    -0.276 N 
HETATM   38  C8  UNL     1       1.801  -4.308  -2.549  1.00  0.00     0.335 C 
ATOM     39  H2  UNL     1       0.502  -2.739  -1.899  1.00  0.00     0.173 HD
HETATM   40  N3  UNL     1       0.787  -4.990  -3.291  1.00  0.00    -0.040 NA
HETATM   41  O6  UNL     1       2.978  -4.736  -2.478  1.00  0.00    -0.251 OA
ENDBRANCH  23  35
ENDBRANCH   1  23
BRANCH   4  42
HETATM   42  N5  UNL     1      -2.530  -3.008   1.379  1.00  0.00    -0.220 N 
ATOM     43  H5  UNL     1      -3.531  -3.168   1.493  1.00  0.00     0.178 HD
BRANCH  42  44
HETATM   44  C12 UNL     1      -2.020  -4.026   2.082  1.00  0.00     0.091 C 
HETATM   45  C13 UNL     1      -1.673  -5.307   1.338  1.00  0.00     0.032 C 
HETATM   46  C14 UNL     1      -2.931  -4.526   3.239  1.00  0.00     0.032 C 
ENDBRANCH  42  44
ENDBRANCH   4  42
BRANCH  18  47
HETATM   47  C20 UNL     1      -1.585   2.306  -1.830  1.00  0.00     0.170 C 
BRANCH  47  48
HETATM   48  C21 UNL     1      -1.441   3.240  -0.591  1.00  0.00     0.167 C 
BRANCH  48  49
HETATM   49  O8  UNL     1      -2.641   3.892  -0.276  1.00  0.00    -0.391 OA
ATOM     50  H8  UNL     1      -2.553   4.461   0.479  1.00  0.00     0.210 HD
ENDBRANCH  48  49
BRANCH  48  51
HETATM   51  C22 UNL     1      -0.519   4.431  -0.946  1.00  0.00     0.172 C 
BRANCH  51  52
HETATM   52  O9  UNL     1       0.745   4.023  -1.371  1.00  0.00    -0.391 OA
ATOM     53  H9  UNL     1       1.311   4.754  -1.589  1.00  0.00     0.210 HD
ENDBRANCH  51  52
BRANCH  51  54
HETATM   54  C23 UNL     1      -0.298   5.254   0.293  1.00  0.00     0.198 C 
BRANCH  54  55
HETATM   55  O10 UNL     1      -1.402   5.762   0.908  1.00  0.00    -0.398 OA
ATOM     56  H10 UNL     1      -1.262   6.282   1.691  1.00  0.00     0.209 HD
ENDBRANCH  54  55
ENDBRANCH  51  54
ENDBRANCH  48  51
ENDBRANCH  47  48
ENDBRANCH  18  47
TORSDOF 17
