REMARK  16 active torsions:
REMARK  status: ('A' for Active; 'I' for Inactive)
REMARK    1  A    between atoms: O1_2  and  C2_3 
REMARK    2  A    between atoms: C2_3  and  C3_4 
REMARK    3  A    between atoms: C3_4  and  N1_5 
REMARK    4  A    between atoms: C3_4  and  C26_59 
REMARK       I    between atoms: N1_5  and  C4_7 
REMARK    5  A    between atoms: C4_7  and  C5_9 
REMARK    6  A    between atoms: C6_10  and  N2_11 
REMARK    7  A    between atoms: C8_13  and  C9_14 
REMARK    8  A    between atoms: C9_14  and  C10_16 
REMARK    9  A    between atoms: C10_16  and  N3_17 
REMARK   10  A    between atoms: C11_22  and  C12_23 
REMARK   11  A    between atoms: C15_29  and  C16_30 
REMARK   12  A    between atoms: C16_30  and  C17_31 
REMARK   13  A    between atoms: C19_38  and  O6_39 
REMARK   14  A    between atoms: C23_44  and  O7_45 
REMARK   15  A    between atoms: C24_51  and  N11_52 
REMARK   16  A    between atoms: C26_59  and  O9_61 
ROOT
HETATM    1  C9  UNL     1      -0.761  -0.455   1.458  1.00  0.00     0.198 C 
HETATM    2  O3  UNL     1      -0.883   0.387   2.425  1.00  0.00    -0.289 OA
ENDROOT
BRANCH   1   3
HETATM    3  C8  UNL     1      -1.591  -0.257   0.284  1.00  0.00     0.114 A 
HETATM    4  C7  UNL     1      -2.522   0.769   0.088  1.00  0.00     0.153 A 
HETATM    5  N2  UNL     1      -3.103   0.626  -1.124  1.00  0.00    -0.245 N 
HETATM    6  N10 UNL     1      -2.570  -0.441  -1.677  1.00  0.00    -0.235 N 
HETATM    7  N9  UNL     1      -1.665  -0.976  -0.845  1.00  0.00    -0.281 N 
ATOM      8  H10 UNL     1      -2.809  -0.806  -2.599  1.00  0.00     0.209 HD
ATOM      9  H9  UNL     1      -1.112  -1.810  -1.043  1.00  0.00     0.188 HD
BRANCH   5  10
HETATM   10  C6  UNL     1      -4.104   1.466  -1.694  1.00  0.00     0.136 A 
HETATM   11  C5  UNL     1      -5.487   1.437  -1.400  1.00  0.00     0.151 A 
HETATM   12  N13 UNL     1      -6.089   2.388  -2.119  1.00  0.00    -0.288 N 
HETATM   13  N12 UNL     1      -5.152   3.016  -2.853  1.00  0.00    -0.281 N 
HETATM   14  C25 UNL     1      -7.491   2.744  -2.173  1.00  0.00     0.178 C 
HETATM   15  C24 UNL     1      -3.957   2.474  -2.609  1.00  0.00     0.145 A 
ATOM     16  H12 UNL     1      -5.328   3.787  -3.497  1.00  0.00     0.189 HD
BRANCH  11  17
HETATM   17  C4  UNL     1      -6.030   0.480  -0.487  1.00  0.00     0.273 C 
HETATM   18  N1  UNL     1      -7.316   0.497   0.133  1.00  0.00    -0.340 N 
ATOM     19  H1  UNL     1      -7.955   1.266  -0.070  1.00  0.00     0.163 HD
HETATM   20  O2  UNL     1      -5.324  -0.537  -0.141  1.00  0.00    -0.266 OA
BRANCH  18  21
HETATM   21  C3  UNL     1      -7.732  -0.535   1.030  1.00  0.00     0.208 C 
BRANCH  21  22
HETATM   22  C2  UNL     1      -9.177  -0.597   1.307  1.00  0.00     0.202 C 
BRANCH  22  23
HETATM   23  O1  UNL     1      -9.784   0.392   2.001  1.00  0.00    -0.393 OA
HETATM   24  C1  UNL     1      -9.763   1.683   1.634  1.00  0.00     0.201 C 
ENDBRANCH  22  23
ENDBRANCH  21  22
BRANCH  21  25
HETATM   25  C26 UNL     1      -7.074  -0.323   2.387  1.00  0.00     0.283 C 
HETATM   26  O8  UNL     1      -6.326   0.660   2.495  1.00  0.00    -0.263 OA
BRANCH  25  27
HETATM   27  O9  UNL     1      -7.285  -1.162   3.443  1.00  0.00    -0.325 OA
HETATM   28  C27 UNL     1      -6.663  -0.952   4.717  1.00  0.00     0.213 C 
ENDBRANCH  25  27
ENDBRANCH  21  25
ENDBRANCH  18  21
ENDBRANCH  11  17
BRANCH  15  29
HETATM   29  N11 UNL     1      -2.830   2.838  -3.141  1.00  0.00    -0.382 N 
ATOM     30 2H11 UNL     1      -1.917   2.424  -2.955  1.00  0.00     0.157 HD
ATOM     31 1H11 UNL     1      -2.720   3.589  -3.823  1.00  0.00     0.157 HD
ENDBRANCH  15  29
ENDBRANCH   5  10
ENDBRANCH   1   3
BRANCH   1  32
HETATM   32  C10 UNL     1       0.213  -1.515   1.682  1.00  0.00     0.238 C 
BRANCH  32  33
HETATM   33  N3  UNL     1       1.540  -1.025   1.313  1.00  0.00    -0.247 N 
HETATM   34  N4  UNL     1       2.342  -0.328   2.128  1.00  0.00    -0.238 N 
HETATM   35  N5  UNL     1       3.446  -0.022   1.487  1.00  0.00    -0.282 N 
ATOM     36  H4  UNL     1       2.129  -0.075   3.093  1.00  0.00     0.208 HD
HETATM   37  C11 UNL     1       3.440  -0.490   0.237  1.00  0.00     0.102 A 
ATOM     38  H5  UNL     1       4.215   0.509   1.895  1.00  0.00     0.188 HD
HETATM   39  C23 UNL     1       2.179  -1.140   0.155  1.00  0.00     0.187 A 
BRANCH  37  40
HETATM   40  C12 UNL     1       4.380  -0.444  -0.862  1.00  0.00     0.053 C 
HETATM   41  C13 UNL     1       5.612  -0.744  -1.034  1.00  0.00     0.040 A 
HETATM   42  C14 UNL     1       6.173  -0.512  -2.385  1.00  0.00     0.256 A 
HETATM   43  C21 UNL     1       6.547  -1.311  -0.083  1.00  0.00    -0.044 A 
HETATM   44  O4  UNL     1       5.515  -0.030  -3.334  1.00  0.00    -0.267 OA
HETATM   45  N6  UNL     1       7.519  -0.843  -2.639  1.00  0.00    -0.326 N 
HETATM   46  C15 UNL     1       8.310  -1.342  -1.769  1.00  0.00     0.018 A 
ATOM     47  H6  UNL     1       7.884  -0.674  -3.576  1.00  0.00     0.169 HD
HETATM   48  C20 UNL     1       7.807  -1.586  -0.437  1.00  0.00     0.033 A 
HETATM   49  C22 UNL     1       6.138  -1.653   1.295  1.00  0.00     0.049 C 
BRANCH  46  50
HETATM   50  C16 UNL     1       9.702  -1.654  -2.125  1.00  0.00     0.118 C 
BRANCH  50  51
HETATM   51  C17 UNL     1      10.604  -0.797  -1.280  1.00  0.00     0.070 A 
HETATM   52  N7  UNL     1      11.322  -1.182  -0.219  1.00  0.00    -0.308 N 
HETATM   53  C18 UNL     1      12.002  -0.123   0.262  1.00  0.00     0.326 A 
ATOM     54  H7  UNL     1      11.350  -2.127   0.165  1.00  0.00     0.170 HD
HETATM   55  O5  UNL     1      12.777  -0.136   1.260  1.00  0.00    -0.247 OA
HETATM   56  N8  UNL     1      11.729   0.953  -0.485  1.00  0.00    -0.287 N 
HETATM   57  C19 UNL     1      10.858   0.548  -1.451  1.00  0.00     0.167 A 
ATOM     58  H8  UNL     1      12.101   1.894  -0.356  1.00  0.00     0.172 HD
BRANCH  57  59
HETATM   59  O6  UNL     1      10.354   1.390  -2.410  1.00  0.00    -0.345 OA
ATOM     60  H6  UNL     1      10.529   2.316  -2.528  1.00  0.00     0.219 HD
ENDBRANCH  57  59
ENDBRANCH  50  51
ENDBRANCH  46  50
ENDBRANCH  37  40
BRANCH  39  61
HETATM   61  O7  UNL     1       1.739  -1.782  -0.988  1.00  0.00    -0.343 OA
ATOM     62  H7  UNL     1       2.196  -1.864  -1.817  1.00  0.00     0.219 HD
ENDBRANCH  39  61
ENDBRANCH  32  33
ENDBRANCH   1  32
TORSDOF 16
