REMARK  16 active torsions:
REMARK  status: ('A' for Active; 'I' for Inactive)
REMARK    1  A    between atoms: C1_2  and  C2_4 
REMARK    2  A    between atoms: C2_4  and  C3_5 
REMARK    3  A    between atoms: C3_5  and  O3_6 
REMARK    4  A    between atoms: C3_5  and  C18_38 
REMARK    5  A    between atoms: O3_6  and  C4_7 
REMARK    6  A    between atoms: C4_7  and  C5_9 
REMARK    7  A    between atoms: C6_10  and  O5_11 
REMARK    8  A    between atoms: C7_13  and  O6_14 
REMARK    9  A    between atoms: O6_14  and  S1_15 
REMARK   10  A    between atoms: C8_19  and  O10_20 
REMARK   11  A    between atoms: C12_27  and  C13_28 
REMARK   12  A    between atoms: C18_38  and  O17_40 
REMARK   13  A    between atoms: O17_40  and  C19_41 
REMARK   14  A    between atoms: C19_41  and  C20_42 
REMARK   15  A    between atoms: C20_42  and  O19_44 
REMARK   16  A    between atoms: O19_44  and  S2_45 
ROOT
HETATM    1  C5  UNL     1      -1.182   0.429  -0.678  1.00  0.00     0.103 A 
HETATM    2  C6  UNL     1      -1.250   1.788  -0.926  1.00  0.00     0.122 A 
HETATM    3  C7  UNL     1      -2.406   2.516  -0.577  1.00  0.00     0.160 A 
HETATM    4  C8  UNL     1      -3.463   1.881   0.008  1.00  0.00     0.120 A 
HETATM    5  C9  UNL     1      -3.424   0.526   0.268  1.00  0.00     0.081 A 
HETATM    6  C10 UNL     1      -4.521  -0.062   0.858  1.00  0.00     0.223 A 
HETATM    7  O11 UNL     1      -5.547   0.602   1.166  1.00  0.00    -0.284 OA
HETATM    8  C11 UNL     1      -4.524  -1.407   1.132  1.00  0.00     0.158 A 
HETATM    9  O12 UNL     1      -5.559  -1.988   1.694  1.00  0.00    -0.297 OA
HETATM   10  C12 UNL     1      -5.596  -3.281   1.971  1.00  0.00     0.156 A 
HETATM   11  C14 UNL     1      -4.480  -4.026   1.641  1.00  0.00     0.101 A 
HETATM   12  C15 UNL     1      -3.372  -3.459   1.050  1.00  0.00     0.204 A 
HETATM   13  O15 UNL     1      -2.345  -4.137   0.745  1.00  0.00    -0.286 OA
HETATM   14  C16 UNL     1      -3.387  -2.096   0.782  1.00  0.00     0.121 A 
HETATM   15  N1  UNL     1      -2.315  -1.495   0.200  1.00  0.00    -0.349 N 
ATOM     16  H1  UNL     1      -1.505  -2.070  -0.032  1.00  0.00     0.166 HD
HETATM   17  C17 UNL     1      -2.269  -0.183  -0.085  1.00  0.00     0.069 A 
ENDROOT
BRANCH   1  18
HETATM   18  C4  UNL     1       0.018  -0.312  -1.036  1.00  0.00     0.299 C 
HETATM   19  O4  UNL     1       0.224  -1.536  -0.874  1.00  0.00    -0.259 OA
BRANCH  18  20
HETATM   20  O3  UNL     1       1.112   0.317  -1.626  1.00  0.00    -0.301 OA
BRANCH  20  21
HETATM   21  C3  UNL     1       2.273  -0.467  -1.959  1.00  0.00     0.241 C 
BRANCH  21  22
HETATM   22  C2  UNL     1       2.354  -0.343  -3.459  1.00  0.00     0.156 C 
BRANCH  22  23
HETATM   23  C1  UNL     1       3.417  -1.099  -4.079  1.00  0.00     0.175 C 
HETATM   24  O1  UNL     1       4.121  -1.924  -3.490  1.00  0.00    -0.648 OA
HETATM   25  O2  UNL     1       3.684  -0.902  -5.437  1.00  0.00    -0.648 OA
ENDBRANCH  22  23
ENDBRANCH  21  22
BRANCH  21  26
HETATM   26  C18 UNL     1       3.448   0.152  -1.280  1.00  0.00     0.289 C 
HETATM   27  O16 UNL     1       3.296   1.207  -0.583  1.00  0.00    -0.262 OA
BRANCH  26  28
HETATM   28  O17 UNL     1       4.683  -0.363  -1.369  1.00  0.00    -0.309 OA
BRANCH  28  29
HETATM   29  C19 UNL     1       5.862   0.093  -0.795  1.00  0.00     0.291 C 
BRANCH  29  30
HETATM   30  C20 UNL     1       5.870   0.132   0.675  1.00  0.00     0.300 C 
HETATM   31  O18 UNL     1       4.877  -0.232   1.347  1.00  0.00    -0.262 OA
BRANCH  30  32
HETATM   32  O19 UNL     1       6.985   0.576   1.338  1.00  0.00    -0.175 OA
BRANCH  32  33
HETATM   33  S2  UNL     1       7.090   0.655   3.040  1.00  0.00     0.259 S 
HETATM   34  O20 UNL     1       6.450  -0.580   3.659  1.00  0.00    -0.572 OA
HETATM   35  O21 UNL     1       6.477   1.903   3.550  1.00  0.00    -0.572 OA
HETATM   36  O22 UNL     1       8.734   0.544   3.428  1.00  0.00    -0.572 OA
ENDBRANCH  32  33
ENDBRANCH  30  32
ENDBRANCH  29  30
ENDBRANCH  28  29
ENDBRANCH  26  28
ENDBRANCH  21  26
ENDBRANCH  20  21
ENDBRANCH  18  20
ENDBRANCH   1  18
BRANCH   2  37
HETATM   37  O5  UNL     1      -0.282   2.529  -1.494  1.00  0.00    -0.357 OA
ATOM     38  H5  UNL     1      -0.329   3.462  -1.664  1.00  0.00     0.218 HD
ENDBRANCH   2  37
BRANCH   3  39
HETATM   39  O6  UNL     1      -2.497   3.877  -0.816  1.00  0.00    -0.208 OA
BRANCH  39  40
HETATM   40  S1  UNL     1      -2.026   5.100   0.231  1.00  0.00     0.257 S 
HETATM   41  O7  UNL     1      -2.550   6.408  -0.350  1.00  0.00    -0.572 OA
HETATM   42  O8  UNL     1      -0.528   5.257   0.285  1.00  0.00    -0.572 OA
HETATM   43  O9  UNL     1      -2.667   4.842   1.753  1.00  0.00    -0.572 OA
ENDBRANCH  39  40
ENDBRANCH   3  39
BRANCH   4  44
HETATM   44  O10 UNL     1      -4.627   2.579   0.367  1.00  0.00    -0.357 OA
ATOM     45  H10 UNL     1      -5.363   2.137   0.774  1.00  0.00     0.218 HD
ENDBRANCH   4  44
BRANCH  10  46
HETATM   46  C13 UNL     1      -6.746  -3.905   2.592  1.00  0.00     0.234 C 
HETATM   47  O13 UNL     1      -6.725  -5.129   2.824  1.00  0.00    -0.642 OA
HETATM   48  O14 UNL     1      -7.859  -3.161   2.927  1.00  0.00    -0.642 OA
ENDBRANCH  10  46
TORSDOF 16
