REMARK  16 active torsions:
REMARK  status: ('A' for Active; 'I' for Inactive)
REMARK    1  A    between atoms: O1_2  and  C2_3 
REMARK    2  A    between atoms: C2_3  and  C3_5 
REMARK    3  A    between atoms: C4_6  and  C5_7 
REMARK    4  A    between atoms: C5_7  and  O4_9 
REMARK    5  A    between atoms: C10_17  and  C11_18 
REMARK    6  A    between atoms: C11_18  and  N2_19 
REMARK    7  A    between atoms: C11_18  and  O6_28 
REMARK       I    between atoms: N2_19  and  C12_21 
REMARK       I    between atoms: C12_21  and  N3_23 
REMARK    8  A    between atoms: N3_23  and  N4_25 
REMARK    9  A    between atoms: C13_32  and  O8_33 
REMARK   10  A    between atoms: O8_33  and  C14_34 
REMARK   11  A    between atoms: C14_34  and  C16_36 
REMARK   12  A    between atoms: C16_36  and  O9_37 
REMARK   13  A    between atoms: O9_37  and  C17_38 
REMARK   14  A    between atoms: C17_38  and  C18_39 
REMARK   15  A    between atoms: C18_39  and  O10_40 
REMARK   16  A    between atoms: C22_50  and  N8_51 
ROOT
HETATM    1  C3  UNL     1      -1.391   0.725  -1.918  1.00  0.00     0.130 A 
HETATM    2  C4  UNL     1      -0.781  -0.440  -1.963  1.00  0.00     0.112 A 
HETATM    3  C7  UNL     1      -0.152  -1.010  -0.736  1.00  0.00     0.227 A 
HETATM    4  N1  UNL     1      -0.253  -0.165   0.385  1.00  0.00    -0.338 N 
ATOM      5  H1  UNL     1       0.190  -0.488   1.245  1.00  0.00     0.164 HD
HETATM    6  C8  UNL     1      -0.860   0.996   0.434  1.00  0.00     0.093 A 
HETATM    7  C9  UNL     1      -0.894   1.801   1.695  1.00  0.00     0.152 C 
HETATM    8  S1  UNL     1      -1.175   3.434   0.974  1.00  0.00    -0.131 SA
HETATM    9  C10 UNL     1      -2.128   2.790  -0.502  1.00  0.00     0.203 C 
HETATM   10  N5  UNL     1      -1.476   1.540  -0.689  1.00  0.00    -0.312 N 
HETATM   11  O7  UNL     1       1.221  -1.141  -1.002  1.00  0.00    -0.317 OA
HETATM   12  C13 UNL     1       1.842  -1.829   0.075  1.00  0.00     0.293 C 
HETATM   13  C19 UNL     1       1.453  -3.240   0.099  1.00  0.00     0.194 C 
HETATM   14  N6  UNL     1       1.748  -3.920   1.338  1.00  0.00    -0.328 N 
ATOM     15  H6  UNL     1       2.464  -3.677   2.023  1.00  0.00     0.165 HD
HETATM   16  C20 UNL     1       0.799  -5.035   1.401  1.00  0.00     0.321 C 
HETATM   17  O11 UNL     1       0.927  -6.101   2.026  1.00  0.00    -0.247 OA
HETATM   18  N7  UNL     1      -0.320  -4.635   0.580  1.00  0.00    -0.308 N 
ATOM     19  H7  UNL     1      -1.161  -5.184   0.404  1.00  0.00     0.170 HD
HETATM   20  C21 UNL     1      -0.039  -3.327   0.055  1.00  0.00     0.075 C 
HETATM   21  C22 UNL     1      -0.741  -2.318  -0.326  1.00  0.00     0.166 C 
ENDROOT
BRANCH   2  22
HETATM   22  C5  UNL     1      -0.660  -1.275  -3.189  1.00  0.00     0.296 C 
HETATM   23  O3  UNL     1      -1.040  -1.120  -4.322  1.00  0.00    -0.259 OA
BRANCH  22  24
HETATM   24  O4  UNL     1       0.041  -2.511  -3.009  1.00  0.00    -0.323 OA
HETATM   25  C6  UNL     1       0.224  -3.399  -4.108  1.00  0.00     0.213 C 
ENDBRANCH  22  24
ENDBRANCH   2  22
BRANCH  21  26
HETATM   26  N8  UNL     1      -2.180  -2.472  -0.360  1.00  0.00    -0.112 N 
HETATM   27  O12 UNL     1      -2.774  -3.232  -1.112  1.00  0.00    -0.532 OA
HETATM   28  O13 UNL     1      -2.893  -1.701   0.518  1.00  0.00    -0.532 OA
ENDBRANCH  21  26
BRANCH   1  29
HETATM   29  C2  UNL     1      -2.010   1.308  -3.080  1.00  0.00     0.310 C 
HETATM   30  O2  UNL     1      -2.038   0.776  -4.190  1.00  0.00    -0.258 OA
BRANCH  29  31
HETATM   31  O1  UNL     1      -2.636   2.542  -3.051  1.00  0.00    -0.321 OA
HETATM   32  C1  UNL     1      -3.217   3.054  -4.219  1.00  0.00     0.213 C 
ENDBRANCH  29  31
ENDBRANCH   1  29
BRANCH  12  33
HETATM   33  O8  UNL     1       3.211  -1.727  -0.157  1.00  0.00    -0.352 OA
BRANCH  33  34
HETATM   34  C14 UNL     1       3.871  -1.048   0.856  1.00  0.00     0.144 C 
HETATM   35  C15 UNL     1       4.930  -1.831   1.545  1.00  0.00     0.042 C 
BRANCH  34  36
HETATM   36  C16 UNL     1       4.480   0.252   0.379  1.00  0.00     0.199 C 
BRANCH  36  37
HETATM   37  O9  UNL     1       5.112   0.839   1.489  1.00  0.00    -0.387 OA
BRANCH  37  38
HETATM   38  C17 UNL     1       5.692   2.054   1.082  1.00  0.00     0.193 C 
BRANCH  38  39
HETATM   39  C18 UNL     1       6.372   2.681   2.283  1.00  0.00     0.190 C 
BRANCH  39  40
HETATM   40  O10 UNL     1       5.449   2.922   3.294  1.00  0.00    -0.399 OA
ATOM     41  H10 UNL     1       5.875   3.315   4.047  1.00  0.00     0.209 HD
ENDBRANCH  39  40
ENDBRANCH  38  39
ENDBRANCH  37  38
ENDBRANCH  36  37
ENDBRANCH  34  36
ENDBRANCH  33  34
ENDBRANCH  12  33
BRANCH   9  42
HETATM   42  C11 UNL     1      -3.555   2.807  -0.115  1.00  0.00     0.274 C 
BRANCH  42  43
HETATM   43  N2  UNL     1      -3.838   2.390   1.251  1.00  0.00    -0.311 N 
HETATM   44  C12 UNL     1      -4.742   1.300   1.424  1.00  0.00     0.336 C 
HETATM   45  O5  UNL     1      -5.268   0.729   0.407  1.00  0.00    -0.246 OA
HETATM   46  N3  UNL     1      -5.094   0.806   2.695  1.00  0.00    -0.258 N 
ATOM     47  H3  UNL     1      -4.695   1.232   3.531  1.00  0.00     0.191 HD
ATOM     48  H2  UNL     1      -3.409   2.857   2.050  1.00  0.00     0.167 HD
BRANCH  46  49
HETATM   49  N4  UNL     1      -5.975  -0.251   2.819  1.00  0.00    -0.341 N 
ATOM     50  H42 UNL     1      -6.365  -0.666   1.973  1.00  0.00     0.177 HD
ATOM     51  H41 UNL     1      -6.230  -0.609   3.740  1.00  0.00     0.177 HD
ENDBRANCH  46  49
ENDBRANCH  42  43
BRANCH  42  52
HETATM   52  O6  UNL     1      -3.925   4.184  -0.099  1.00  0.00    -0.279 OA
HETATM   53  S2  UNL     1      -5.212   4.514  -1.145  1.00  0.00     0.095 SA
ENDBRANCH  42  52
ENDBRANCH   9  42
TORSDOF 16
