REMARK  12 active torsions:
REMARK  status: ('A' for Active; 'I' for Inactive)
REMARK       I    between atoms: C2_2  and  N1_4 
REMARK    1  A    between atoms: N2_6  and  C4_8 
REMARK    2  A    between atoms: C6_12  and  S1_13 
REMARK    3  A    between atoms: S1_13  and  N4_16 
REMARK       I    between atoms: N4_16  and  C7_18 
REMARK    4  A    between atoms: C7_18  and  C8_20 
REMARK    5  A    between atoms: C8_20  and  C9_21 
REMARK    6  A    between atoms: C9_21  and  C10_22 
REMARK    7  A    between atoms: C10_22  and  S2_23 
REMARK    8  A    between atoms: S2_23  and  C11_24 
REMARK    9  A    between atoms: N6_32  and  N7_33 
REMARK   10  A    between atoms: C18_44  and  N12_45 
REMARK   11  A    between atoms: N12_45  and  C19_47 
REMARK   12  A    between atoms: C19_47  and  C20_48 
ROOT
HETATM    1  C4  UNL     1      -3.775  -0.438   0.944  1.00  0.00     0.701 A 
HETATM    2  N3  UNL     1      -2.556  -0.173   0.364  1.00  0.00    -0.170 N 
ATOM      3  H3  UNL     1      -2.316   0.657  -0.177  1.00  0.00     0.186 HD
HETATM    4  C5  UNL     1      -1.742  -1.199   0.637  1.00  0.00     0.188 A 
HETATM    5  C6  UNL     1      -0.437  -1.667   0.447  1.00  0.00     0.170 A 
HETATM    6  C16 UNL     1      -0.330  -2.883   1.086  1.00  0.00     0.160 A 
HETATM    7  N8  UNL     1       0.832  -3.699   1.143  1.00  0.00    -0.079 NA
HETATM    8  N9  UNL     1      -1.542  -3.131   1.639  1.00  0.00    -0.263 N 
ATOM      9  H9  UNL     1      -1.778  -3.963   2.180  1.00  0.00     0.190 HD
HETATM   10  N10 UNL     1      -2.388  -2.123   1.371  1.00  0.00    -0.162 N 
HETATM   11  N11 UNL     1      -3.603  -1.636   1.537  1.00  0.00    -0.109 N 
ATOM     12  H11 UNL     1      -4.336  -2.116   2.060  1.00  0.00     0.208 HD
ENDROOT
BRANCH   5  13
HETATM   13  S1  UNL     1       0.778  -0.841  -0.467  1.00  0.00     0.272 S 
HETATM   14  O2  UNL     1       1.834  -1.821  -0.971  1.00  0.00    -0.200 OA
HETATM   15  O3  UNL     1       0.187  -0.212  -1.725  1.00  0.00    -0.200 OA
BRANCH  13  16
HETATM   16  N4  UNL     1       1.554   0.409   0.412  1.00  0.00    -0.250 N 
HETATM   17  C7  UNL     1       2.848   0.272   0.982  1.00  0.00     0.231 C 
HETATM   18  O4  UNL     1       3.454  -0.811   0.846  1.00  0.00    -0.273 OA
ATOM     19  H4  UNL     1       1.063   1.295   0.532  1.00  0.00     0.181 HD
BRANCH  17  20
HETATM   20  C8  UNL     1       3.454   1.394   1.715  1.00  0.00     0.104 C 
BRANCH  20  21
HETATM   21  C9  UNL     1       4.830   1.184   2.215  1.00  0.00     0.020 C 
BRANCH  21  22
HETATM   22  C10 UNL     1       5.875   0.896   1.190  1.00  0.00     0.081 C 
BRANCH  22  23
HETATM   23  S2  UNL     1       7.496   0.726   2.047  1.00  0.00    -0.110 SA
BRANCH  23  24
HETATM   24  C11 UNL     1       8.757   0.307   0.840  1.00  0.00     0.102 A 
HETATM   25  C12 UNL     1       9.410   1.326   0.198  1.00  0.00     0.113 A 
HETATM   26  C13 UNL     1      10.371   0.960  -0.724  1.00  0.00     0.253 A 
HETATM   27  O5  UNL     1      10.998   1.874  -1.339  1.00  0.00    -0.268 OA
HETATM   28  N5  UNL     1      10.602  -0.342  -0.929  1.00  0.00    -0.269 N 
HETATM   29  C14 UNL     1      11.623  -0.711  -1.908  1.00  0.00     0.164 C 
HETATM   30  C15 UNL     1       9.958  -1.340  -0.296  1.00  0.00     0.350 A 
HETATM   31  O6  UNL     1      10.198  -2.554  -0.513  1.00  0.00    -0.244 OA
HETATM   32  N6  UNL     1       9.023  -0.994   0.600  1.00  0.00    -0.205 N 
BRANCH  32  33
HETATM   33  N7  UNL     1       8.348  -2.007   1.280  1.00  0.00    -0.334 N 
ATOM     34  H72 UNL     1       7.637  -1.744   1.962  1.00  0.00     0.177 HD
ATOM     35  H71 UNL     1       8.549  -2.990   1.099  1.00  0.00     0.177 HD
ENDBRANCH  32  33
ENDBRANCH  23  24
ENDBRANCH  22  23
ENDBRANCH  21  22
ENDBRANCH  20  21
ENDBRANCH  17  20
ENDBRANCH  13  16
ENDBRANCH   5  13
BRANCH   1  36
HETATM   36  N2  UNL     1      -4.859   0.420   0.906  1.00  0.00    -0.174 N 
HETATM   37  C3  UNL     1      -5.863   0.611   0.217  1.00  0.00     0.138 A 
HETATM   38  N1  UNL     1      -6.714   1.634   0.571  1.00  0.00    -0.218 N 
HETATM   39  C17 UNL     1      -6.175  -0.134  -0.892  1.00  0.00     0.098 A 
HETATM   40  C2  UNL     1      -6.400   2.423   1.728  1.00  0.00     0.229 C 
HETATM   41  C21 UNL     1      -7.788   1.851  -0.176  1.00  0.00     0.336 A 
HETATM   42  C1  UNL     1      -7.251   3.536   2.197  1.00  0.00     0.118 C 
HETATM   43  O1  UNL     1      -5.344   2.171   2.397  1.00  0.00    -0.273 OA
HETATM   44  N14 UNL     1      -8.114   1.124  -1.281  1.00  0.00    -0.294 N 
HETATM   45  O8  UNL     1      -8.602   2.788   0.115  1.00  0.00    -0.246 OA
HETATM   46  C18 UNL     1      -7.312   0.105  -1.671  1.00  0.00     0.108 A 
ATOM     47  H14 UNL     1      -8.957   1.346  -1.811  1.00  0.00     0.172 HD
ATOM     48  H2  UNL     1      -4.815   1.091   1.673  1.00  0.00     0.186 HD
BRANCH  46  49
HETATM   49  N12 UNL     1      -7.600  -0.667  -2.817  1.00  0.00    -0.368 N 
ATOM     50  H12 UNL     1      -6.958  -1.415  -3.081  1.00  0.00     0.161 HD
BRANCH  49  51
HETATM   51  C19 UNL     1      -8.756  -0.438  -3.618  1.00  0.00     0.220 C 
BRANCH  51  52
HETATM   52  C20 UNL     1      -9.972  -0.830  -2.830  1.00  0.00     0.248 C 
HETATM   53  N13 UNL     1     -11.244  -0.639  -3.475  1.00  0.00    -0.061 NA
HETATM   54  O7  UNL     1      -9.934  -1.299  -1.676  1.00  0.00    -0.275 OA
ENDBRANCH  51  52
ENDBRANCH  49  51
ENDBRANCH  46  49
ENDBRANCH   1  36
TORSDOF 12
