REMARK  20 active torsions:
REMARK  status: ('A' for Active; 'I' for Inactive)
REMARK    1  A    between atoms: C2_2  and  C3_3 
REMARK    2  A    between atoms: C3_3  and  O1_4 
REMARK    3  A    between atoms: C4_7  and  O3_8 
REMARK    4  A    between atoms: O3_8  and  C5_9 
REMARK    5  A    between atoms: C7_13  and  O6_14 
REMARK    6  A    between atoms: C8_16  and  O7_17 
REMARK    7  A    between atoms: C8_16  and  C11_22 
REMARK    8  A    between atoms: O7_17  and  C9_18 
REMARK    9  A    between atoms: C9_18  and  C10_19 
REMARK   10  A    between atoms: C11_22  and  O11_24 
REMARK   11  A    between atoms: C13_26  and  C14_27 
REMARK   12  A    between atoms: C16_31  and  O14_32 
REMARK   13  A    between atoms: C17_34  and  C18_35 
REMARK   14  A    between atoms: C18_35  and  O16_37 
REMARK   15  A    between atoms: C20_39  and  O17_40 
REMARK   16  A    between atoms: O17_40  and  C21_41 
REMARK   17  A    between atoms: C21_41  and  C22_43 
REMARK   18  A    between atoms: C22_43  and  C23_44 
REMARK   19  A    between atoms: C23_44  and  C24_45 
REMARK   20  A    between atoms: C25_48  and  O21_49 
ROOT
HETATM    1  C3  UNL     1      -0.236   1.104   1.216  1.00  0.00     0.206 C 
HETATM    2  O2  UNL     1      -1.153   2.169   1.103  1.00  0.00    -0.296 OA
HETATM    3  C4  UNL     1      -1.965   2.213   0.038  1.00  0.00     0.427 C 
HETATM    4  O5  UNL     1      -2.278   0.991  -0.548  1.00  0.00    -0.296 OA
HETATM    5  C7  UNL     1      -2.085   0.006   0.329  1.00  0.00     0.233 C 
HETATM    6  C8  UNL     1      -2.614  -1.321   0.142  1.00  0.00     0.241 C 
HETATM    7  C13 UNL     1      -1.568  -2.160   0.827  1.00  0.00     0.075 C 
HETATM    8  C15 UNL     1      -0.492  -1.480   1.084  1.00  0.00    -0.007 C 
HETATM    9  C16 UNL     1       0.769  -1.889   1.728  1.00  0.00     0.191 C 
HETATM   10  C17 UNL     1       1.927  -1.249   0.990  1.00  0.00     0.082 C 
HETATM   11  C20 UNL     1       1.691  -0.541  -0.094  1.00  0.00     0.102 C 
HETATM   12  C25 UNL     1       0.292  -0.313  -0.675  1.00  0.00     0.200 C 
HETATM   13  C26 UNL     1      -0.581  -0.135   0.553  1.00  0.00     0.139 C 
ENDROOT
BRANCH   6  14
HETATM   14  O7  UNL     1      -3.739  -1.609   0.952  1.00  0.00    -0.350 OA
BRANCH  14  15
HETATM   15  C9  UNL     1      -4.888  -0.980   0.760  1.00  0.00     0.283 C 
BRANCH  15  16
HETATM   16  C10 UNL     1      -5.868  -1.486   1.806  1.00  0.00     0.197 C 
HETATM   17  O8  UNL     1      -5.440  -2.346   2.605  1.00  0.00    -0.646 OA
HETATM   18  O9  UNL     1      -7.154  -0.998   1.844  1.00  0.00    -0.646 OA
ENDBRANCH  15  16
ENDBRANCH  14  15
ENDBRANCH   6  14
BRANCH   6  19
HETATM   19  C11 UNL     1      -2.910  -1.755  -1.235  1.00  0.00     0.304 C 
HETATM   20  O10 UNL     1      -3.935  -2.504  -1.485  1.00  0.00    -0.261 OA
BRANCH  19  21
HETATM   21  O11 UNL     1      -2.185  -1.438  -2.356  1.00  0.00    -0.324 OA
HETATM   22  C12 UNL     1      -2.526  -1.887  -3.665  1.00  0.00     0.213 C 
ENDBRANCH  19  21
ENDBRANCH   6  19
BRANCH   5  23
HETATM   23  O6  UNL     1      -2.584   0.401   1.610  1.00  0.00    -0.361 OA
ATOM     24  H6  UNL     1      -2.446  -0.301   2.235  1.00  0.00     0.213 HD
ENDBRANCH   5  23
BRANCH   7  25
HETATM   25  C14 UNL     1      -1.862  -3.578   1.116  1.00  0.00     0.209 C 
HETATM   26  O12 UNL     1      -2.950  -4.071   0.794  1.00  0.00    -0.644 OA
HETATM   27  O13 UNL     1      -0.927  -4.363   1.748  1.00  0.00    -0.644 OA
ENDBRANCH   7  25
BRANCH   3  28
HETATM   28  O3  UNL     1      -1.584   3.203  -0.922  1.00  0.00    -0.265 OA
BRANCH  28  29
HETATM   29  C5  UNL     1      -2.361   4.296  -1.212  1.00  0.00     0.258 C 
HETATM   30  C6  UNL     1      -1.903   5.285  -2.221  1.00  0.00     0.126 C 
HETATM   31  O4  UNL     1      -3.452   4.439  -0.613  1.00  0.00    -0.266 OA
ENDBRANCH  28  29
ENDBRANCH   3  28
BRANCH   1  32
HETATM   32  C2  UNL     1       0.198   1.183   2.618  1.00  0.00     0.032 C 
HETATM   33  C1  UNL     1      -0.523   1.547   3.667  1.00  0.00     0.012 C 
ENDBRANCH   1  32
BRANCH   1  34
HETATM   34  O1  UNL     1       0.868   1.713   0.489  1.00  0.00    -0.361 OA
ATOM     35  H1  UNL     1       0.587   1.662  -0.417  1.00  0.00     0.213 HD
ENDBRANCH   1  34
BRANCH  12  36
HETATM   36  O21 UNL     1       0.363   0.669  -1.569  1.00  0.00    -0.387 OA
ATOM     37  H21 UNL     1      -0.505   0.810  -1.929  1.00  0.00     0.210 HD
ENDBRANCH  12  36
BRANCH   9  38
HETATM   38  O14 UNL     1       0.793  -1.791   3.069  1.00  0.00    -0.386 OA
ATOM     39  H14 UNL     1       1.606  -2.055   3.484  1.00  0.00     0.210 HD
ENDBRANCH   9  38
BRANCH  11  40
HETATM   40  O17 UNL     1       2.775   0.034  -0.755  1.00  0.00    -0.280 OA
BRANCH  40  41
HETATM   41  C21 UNL     1       3.392  -0.670  -1.793  1.00  0.00     0.264 C 
HETATM   42  O18 UNL     1       2.945  -1.800  -2.095  1.00  0.00    -0.265 OA
BRANCH  41  43
HETATM   43  C22 UNL     1       4.543  -0.075  -2.504  1.00  0.00     0.122 C 
BRANCH  43  44
HETATM   44  C23 UNL     1       4.853   1.286  -1.925  1.00  0.00     0.123 C 
BRANCH  44  45
HETATM   45  C24 UNL     1       6.009   1.917  -2.618  1.00  0.00     0.172 C 
HETATM   46  O19 UNL     1       6.585   1.304  -3.558  1.00  0.00    -0.648 OA
HETATM   47  O20 UNL     1       6.474   3.171  -2.254  1.00  0.00    -0.648 OA
ENDBRANCH  44  45
ENDBRANCH  43  44
ENDBRANCH  41  43
ENDBRANCH  40  41
ENDBRANCH  11  40
BRANCH  10  48
HETATM   48  C18 UNL     1       3.237  -1.458   1.562  1.00  0.00     0.294 C 
HETATM   49  O15 UNL     1       3.352  -2.157   2.600  1.00  0.00    -0.259 OA
BRANCH  48  50
HETATM   50  O16 UNL     1       4.418  -0.940   1.056  1.00  0.00    -0.323 OA
HETATM   51  C19 UNL     1       5.678  -1.181   1.666  1.00  0.00     0.213 C 
ENDBRANCH  48  50
ENDBRANCH  10  48
TORSDOF 20
