REMARK  0 active torsions:
REMARK  status: ('A' for Active; 'I' for Inactive)
ROOT
HETATM    1  C1  UNL     1       1.929   0.196   0.376  1.00  0.00     0.031 C 
HETATM    2  C2  UNL     1       1.612  -0.284  -1.017  1.00  0.00     0.031 C 
HETATM    3  C3  UNL     1       0.269  -0.946  -0.881  1.00  0.00     0.260 C 
HETATM    4  N1  UNL     1      -0.363  -0.161   0.178  1.00  0.00     0.012 N 
HETATM    5  C4  UNL     1       0.661  -0.071   1.154  1.00  0.00     0.260 C 
HETATM    6  C5  UNL     1      -1.035   1.019  -0.231  1.00  0.00     0.278 C 
HETATM    7  C6  UNL     1      -2.264   0.549   0.491  1.00  0.00     0.172 C 
HETATM    8  N2  UNL     1      -1.565  -0.725   0.534  1.00  0.00    -0.045 NA
ENDROOT
TORSDOF 0
