REMARK  1 active torsions:
REMARK  status: ('A' for Active; 'I' for Inactive)
REMARK    1  A    between atoms: C2_2  and  N1_3 
ROOT
HETATM    1  N1  UNL     1      -0.357  -0.068   0.063  1.00  0.00     0.117 N 
HETATM    2  C3  UNL     1       0.076   0.108  -1.332  1.00  0.00     0.304 C 
HETATM    3  C4  UNL     1       1.542  -0.257  -1.321  1.00  0.00     0.304 C 
HETATM    4  N2  UNL     1       1.830  -0.566   0.072  1.00  0.00     0.114 N 
HETATM    5  C5  UNL     1       2.163   0.605   0.840  1.00  0.00     0.312 C 
HETATM    6  C6  UNL     1       0.534  -1.122   0.491  1.00  0.00     0.542 C 
ENDROOT
BRANCH   1   7
HETATM    7  C2  UNL     1      -1.742  -0.429   0.121  1.00  0.00     0.270 C 
HETATM    8  C1  UNL     1      -2.548   0.698   0.769  1.00  0.00     0.037 C 
ENDBRANCH   1   7
TORSDOF 1
