REMARK  1 active torsions:
REMARK  status: ('A' for Active; 'I' for Inactive)
REMARK    1  A    between atoms: C3_6  and  N2_7 
ROOT
HETATM    1  C1  UNL     1       2.779  -0.401   0.195  1.00  0.00     0.044 C 
HETATM    2  C2  UNL     1       1.513   0.178  -0.424  1.00  0.00     0.242 A 
HETATM    3  N1  UNL     1       1.108   1.517  -0.036  1.00  0.00    -0.036 N 
ATOM      4  H11 UNL     1       0.851   2.363  -0.546  1.00  0.00     0.280 HD
ATOM      5  H12 UNL     1       1.584   2.313   0.388  1.00  0.00     0.280 HD
HETATM    6  C3  UNL     1       0.388   0.402   0.470  1.00  0.00     0.416 A 
ENDROOT
BRANCH   6   7
HETATM    7  N2  UNL     1      -0.921   0.057   0.010  1.00  0.00    -0.048 N 
HETATM    8  C4  UNL     1      -0.891  -1.391  -0.260  1.00  0.00     0.274 C 
HETATM    9  C5  UNL     1      -1.888   0.237   1.097  1.00  0.00     0.274 C 
HETATM   10  C6  UNL     1      -1.334   0.700  -1.190  1.00  0.00     0.274 C 
ENDBRANCH   6   7
TORSDOF 1
