REMARK  1 active torsions:
REMARK  status: ('A' for Active; 'I' for Inactive)
REMARK    1  A    between atoms: C2_2  and  N1_3 
ROOT
HETATM    1  N1  UNL     1      -0.532  -0.254   0.125  1.00  0.00     0.089 N 
HETATM    2  C3  UNL     1      -1.201  -1.538   0.131  1.00  0.00     0.323 C 
HETATM    3  N2  UNL     1      -0.018  -0.015   1.380  1.00  0.00    -0.026 NA
HETATM    4  C4  UNL     1       1.320   0.514   1.198  1.00  0.00     0.167 C 
HETATM    5  C5  UNL     1       1.750  -0.282  -0.043  1.00  0.00     0.121 C 
HETATM    6  C6  UNL     1       2.790   0.499  -0.787  1.00  0.00     0.031 C 
HETATM    7  N3  UNL     1       0.520  -0.334  -0.779  1.00  0.00    -0.022 NA
ENDROOT
BRANCH   1   8
HETATM    8  C2  UNL     1      -1.384   0.827  -0.264  1.00  0.00     0.279 C 
HETATM    9  C1  UNL     1      -2.836   0.594   0.019  1.00  0.00     0.038 C 
ENDBRANCH   1   8
TORSDOF 1
