REMARK  3 active torsions:
REMARK  status: ('A' for Active; 'I' for Inactive)
REMARK    1  A    between atoms: C2_2  and  C4_4 
REMARK    2  A    between atoms: C5_5  and  C6_6 
REMARK    3  A    between atoms: N1_7  and  C7_9 
ROOT
HETATM    1  C4  UNL     1      -0.438   0.380   0.319  1.00  0.00    -0.097 C 
HETATM    2  C5  UNL     1       0.731   0.391   0.033  1.00  0.00    -0.061 C 
ENDROOT
BRANCH   2   3
HETATM    3  C6  UNL     1       2.144   0.427  -0.324  1.00  0.00     0.155 C 
HETATM    4  N1  UNL     1       2.957  -0.317   0.309  1.00  0.00    -0.337 N 
ATOM      5  H1  UNL     1       2.618  -0.926   1.053  1.00  0.00     0.168 HD
BRANCH   4   6
HETATM    6  C7  UNL     1       4.332  -0.299  -0.020  1.00  0.00     0.353 C 
HETATM    7  O1  UNL     1       5.158   0.361   0.639  1.00  0.00    -0.283 OA
ENDBRANCH   4   6
ENDBRANCH   2   3
BRANCH   1   8
HETATM    8  C2  UNL     1      -1.873   0.384   0.652  1.00  0.00     0.057 C 
HETATM    9  C1  UNL     1      -2.236  -1.013   1.058  1.00  0.00     0.023 C 
HETATM   10  C3  UNL     1      -2.696   0.800  -0.572  1.00  0.00     0.023 C 
ENDBRANCH   1   8
TORSDOF 3
