REMARK  4 active torsions:
REMARK  status: ('A' for Active; 'I' for Inactive)
REMARK    1  A    between atoms: C3_3  and  N1_4 
REMARK    2  A    between atoms: N1_4  and  C4_7 
REMARK    3  A    between atoms: C4_7  and  C5_8 
REMARK    4  A    between atoms: C6_9  and  C7_10 
ROOT
HETATM    1  C1  UNL     1      -4.432   1.852   0.493  1.00  0.00     0.013 C 
HETATM    2  C2  UNL     1      -3.723   0.898   0.409  1.00  0.00    -0.090 C 
HETATM    3  C3  UNL     1      -2.893  -0.268   0.316  1.00  0.00     0.325 C 
ENDROOT
BRANCH   3   4
HETATM    4  N1  UNL     1      -1.476   0.001   0.112  1.00  0.00    -0.055 N 
ATOM      5  H12 UNL     1      -1.319   0.646  -0.662  1.00  0.00     0.279 HD
ATOM      6  H11 UNL     1      -1.084   0.569   0.863  1.00  0.00     0.279 HD
BRANCH   4   7
HETATM    7  C4  UNL     1      -0.763  -1.218  -0.059  1.00  0.00     0.326 C 
BRANCH   7   8
HETATM    8  C5  UNL     1       0.666  -0.968  -0.011  1.00  0.00    -0.079 C 
HETATM    9  C6  UNL     1       1.875  -0.763   0.061  1.00  0.00    -0.105 C 
BRANCH   9  10
HETATM   10  C7  UNL     1       3.326  -0.546   0.179  1.00  0.00     0.089 C 
HETATM   11  C8  UNL     1       3.565   0.921   0.264  1.00  0.00     0.018 C 
ENDBRANCH   9  10
ENDBRANCH   7   8
ENDBRANCH   4   7
ENDBRANCH   3   4
TORSDOF 4
