REMARK  4 active torsions:
REMARK  status: ('A' for Active; 'I' for Inactive)
REMARK    1  A    between atoms: N1_2  and  C2_3 
REMARK    2  A    between atoms: C2_3  and  C3_4 
REMARK    3  A    between atoms: C4_5  and  C5_6 
REMARK    4  A    between atoms: C5_6  and  O1_7 
ROOT
HETATM    1  C2  UNL     1      -0.490  -0.839   0.836  1.00  0.00     0.330 C 
ENDROOT
BRANCH   1   2
HETATM    2  N1  UNL     1      -1.396  -0.140  -0.044  1.00  0.00    -0.058 N 
HETATM    3  C1  UNL     1      -1.051  -0.236  -1.445  1.00  0.00     0.273 C 
HETATM    4  C6  UNL     1      -1.882   1.112   0.486  1.00  0.00     0.266 A 
HETATM    5  C7  UNL     1      -2.794  -0.053   0.280  1.00  0.00     0.266 A 
ENDBRANCH   1   2
BRANCH   1   6
HETATM    6  C3  UNL     1       0.876  -0.400   0.485  1.00  0.00    -0.076 C 
HETATM    7  C4  UNL     1       1.992  -0.035   0.187  1.00  0.00    -0.079 C 
BRANCH   7   8
HETATM    8  C5  UNL     1       3.329   0.404  -0.196  1.00  0.00     0.257 C 
BRANCH   8   9
HETATM    9  O1  UNL     1       4.187   0.096   0.872  1.00  0.00    -0.389 OA
ATOM     10  H1  UNL     1       5.058   0.382   0.623  1.00  0.00     0.210 HD
ENDBRANCH   8   9
ENDBRANCH   7   8
ENDBRANCH   1   6
TORSDOF 4
