REMARK  1 active torsions:
REMARK  status: ('A' for Active; 'I' for Inactive)
REMARK    1  A    between atoms: C2_2  and  C3_3 
ROOT
HETATM    1  C3  UNL     1       0.237  -0.331  -0.620  1.00  0.00     0.238 C 
HETATM    2  C4  UNL     1      -1.210  -0.515  -0.715  1.00  0.00     0.111 C 
HETATM    3  C5  UNL     1      -1.973  -1.654  -0.681  1.00  0.00     0.040 C 
HETATM    4  C6  UNL     1      -1.319   0.703   0.112  1.00  0.00     0.291 C 
HETATM    5  N1  UNL     1      -0.252   0.997  -0.768  1.00  0.00     0.016 N 
HETATM    6  C7  UNL     1       0.427   2.114  -0.923  1.00  0.00     0.298 C 
HETATM    7  N2  UNL     1      -1.105   0.444  -1.780  1.00  0.00    -0.032 NA
ENDROOT
BRANCH   1   8
HETATM    8  C2  UNL     1       0.907  -0.734   0.643  1.00  0.00     0.033 C 
HETATM    9  C1  UNL     1       2.418  -0.485   0.583  1.00  0.00     0.007 C 
ENDBRANCH   1   8
TORSDOF 1
