REMARK  4 active torsions:
REMARK  status: ('A' for Active; 'I' for Inactive)
REMARK    1  A    between atoms: C2_2  and  C3_3 
REMARK    2  A    between atoms: C3_3  and  C4_4 
REMARK    3  A    between atoms: C5_5  and  C6_6 
REMARK    4  A    between atoms: C7_7  and  C8_8 
ROOT
HETATM    1  C6  UNL     1       2.326  -0.562   0.192  1.00  0.00    -0.009 C 
HETATM    2  C7  UNL     1       3.531  -0.492   0.352  1.00  0.00    -0.048 C 
ENDROOT
BRANCH   1   3
HETATM    3  C5  UNL     1       0.928  -0.665  -0.008  1.00  0.00    -0.015 C 
HETATM    4  C4  UNL     1      -0.264  -0.772  -0.185  1.00  0.00    -0.092 C 
BRANCH   4   5
HETATM    5  C3  UNL     1      -1.704  -0.926  -0.394  1.00  0.00     0.094 C 
BRANCH   5   6
HETATM    6  C2  UNL     1      -2.379   0.422  -0.199  1.00  0.00     0.007 C 
HETATM    7  C1  UNL     1      -3.871   0.197  -0.428  1.00  0.00     0.006 C 
ENDBRANCH   5   6
ENDBRANCH   4   5
ENDBRANCH   1   3
BRANCH   2   8
HETATM    8  C8  UNL     1       4.956  -0.421   0.520  1.00  0.00     0.147 C 
HETATM    9  N1  UNL     1       5.425   0.400   1.367  1.00  0.00    -0.401 N 
ATOM     10  H12 UNL     1       4.791   0.988   1.908  1.00  0.00     0.156 HD
ATOM     11  H11 UNL     1       6.437   0.450   1.486  1.00  0.00     0.156 HD
ENDBRANCH   2   8
TORSDOF 4
