REMARK  0 active torsions:
REMARK  status: ('A' for Active; 'I' for Inactive)
ROOT
HETATM    1  C1  UNL     1      -2.216   0.524   0.024  1.00  0.00     0.048 C 
HETATM    2  C2  UNL     1      -1.846  -0.910   0.350  1.00  0.00     0.144 C 
HETATM    3  N1  UNL     1      -0.504  -0.704   0.911  1.00  0.00    -0.045 NA
HETATM    4  N2  UNL     1       0.087   0.149   0.000  1.00  0.00     0.036 N 
HETATM    5  C3  UNL     1      -0.889   1.076  -0.453  1.00  0.00     0.264 C 
HETATM    6  C4  UNL     1       1.238   0.806   0.612  1.00  0.00     0.290 C 
HETATM    7  C5  UNL     1       2.323  -0.225   0.473  1.00  0.00     0.264 C 
HETATM    8  N3  UNL     1       1.717  -1.359  -0.243  1.00  0.00    -0.048 N 
ATOM      9  H31 UNL     1       1.366  -2.121   0.337  1.00  0.00     0.279 HD
ATOM     10  H32 UNL     1       2.358  -1.953  -0.769  1.00  0.00     0.279 HD
HETATM   11  C6  UNL     1       0.711  -0.630  -1.034  1.00  0.00     0.490 C 
ENDROOT
TORSDOF 0
