REMARK  0 active torsions:
REMARK  status: ('A' for Active; 'I' for Inactive)
ROOT
HETATM    1  C1  UNL     1      -1.200  -0.381  -1.299  1.00  0.00     0.272 C 
HETATM    2  N1  UNL     1      -0.700  -0.016   0.018  1.00  0.00    -0.069 N 
HETATM    3  C2  UNL     1      -1.884   0.346   0.818  1.00  0.00     0.272 C 
HETATM    4  C3  UNL     1       0.017  -1.083   0.622  1.00  0.00     0.280 C 
HETATM    5  C4  UNL     1       1.464  -0.919   0.803  1.00  0.00     0.083 C 
HETATM    6  N2  UNL     1       2.153   0.033   0.036  1.00  0.00    -0.399 N 
ATOM      7  H2  UNL     1       3.173   0.057   0.030  1.00  0.00     0.158 HD
HETATM    8  C5  UNL     1       1.406   0.956  -0.726  1.00  0.00     0.146 C 
HETATM    9  C6  UNL     1       0.087   1.215  -0.047  1.00  0.00     0.256 C 
ENDROOT
TORSDOF 0
