REMARK  6 active torsions:
REMARK  status: ('A' for Active; 'I' for Inactive)
REMARK    1  A    between atoms: C3_3  and  C4_4 
REMARK    2  A    between atoms: C4_4  and  O2_6 
REMARK    3  A    between atoms: O2_6  and  C5_7 
REMARK    4  A    between atoms: C12_16  and  C13_17 
REMARK    5  A    between atoms: C13_17  and  C14_18 
REMARK    6  A    between atoms: C20_25  and  C21_26 
ROOT
HETATM    1  C1  UNL     1       3.295  -2.742   1.607  1.00  0.00     0.069 C 
HETATM    2  C2  UNL     1       2.237  -1.901   0.995  1.00  0.00     0.024 A 
HETATM    3  C3  UNL     1       2.484  -0.647   0.695  1.00  0.00     0.074 A 
HETATM    4  C9  UNL     1       1.374   0.099   0.113  1.00  0.00     0.012 A 
HETATM    5  C10 UNL     1       1.351   1.392  -0.331  1.00  0.00     0.104 A 
HETATM    6  N1  UNL     1       0.128   1.672  -0.841  1.00  0.00    -0.359 N 
HETATM    7  C11 UNL     1      -0.212   2.959  -1.369  1.00  0.00     0.156 C 
HETATM    8  C12 UNL     1      -0.656   0.564  -0.735  1.00  0.00     0.049 A 
HETATM    9  C19 UNL     1       0.100  -0.447  -0.124  1.00  0.00     0.027 A 
HETATM   10  C20 UNL     1      -0.122  -1.715   0.201  1.00  0.00     0.029 A 
HETATM   11  N2  UNL     1       0.949  -2.491   0.765  1.00  0.00    -0.356 N 
HETATM   12  C26 UNL     1       0.868  -3.943   0.986  1.00  0.00     0.156 C 
ENDROOT
BRANCH   3  13
HETATM   13  C4  UNL     1       3.785  -0.042   0.942  1.00  0.00     0.301 C 
HETATM   14  O1  UNL     1       4.760  -0.657   1.437  1.00  0.00    -0.259 OA
BRANCH  13  15
HETATM   15  O2  UNL     1       4.110   1.289   0.660  1.00  0.00    -0.273 OA
BRANCH  15  16
HETATM   16  C5  UNL     1       5.355   1.849   0.902  1.00  0.00     0.097 A 
HETATM   17  C6  UNL     1       5.995   2.483   1.867  1.00  0.00     0.045 A 
HETATM   18 BR1  UNL     1       5.490   3.013   3.612  1.00  0.00    -0.048 Br
HETATM   19  C7  UNL     1       7.204   2.598   1.060  1.00  0.00     0.025 A 
HETATM   20  C8  UNL     1       6.568   1.964   0.088  1.00  0.00     0.040 A 
ENDBRANCH  15  16
ENDBRANCH  13  15
ENDBRANCH   3  13
BRANCH  10  21
HETATM   21  C21 UNL     1      -1.420  -2.406   0.025  1.00  0.00     0.045 A 
HETATM   22  C22 UNL     1      -1.824  -3.444   1.017  1.00  0.00     0.021 A 
HETATM   23  C23 UNL     1      -2.578  -2.168   0.935  1.00  0.00    -0.038 A 
HETATM   24  C24 UNL     1      -4.012  -2.398   0.545  1.00  0.00     0.015 C 
HETATM   25  C25 UNL     1      -2.457  -1.212   2.134  1.00  0.00     0.015 C 
ENDBRANCH  10  21
BRANCH   8  26
HETATM   26  C13 UNL     1      -1.864   0.425  -1.210  1.00  0.00     0.067 C 
BRANCH  26  27
HETATM   27  C14 UNL     1      -2.669   1.407  -1.957  1.00  0.00     0.077 A 
HETATM   28  C15 UNL     1      -2.928   1.425  -3.320  1.00  0.00     0.040 A 
HETATM   29  C16 UNL     1      -3.731   2.519  -3.561  1.00  0.00     0.035 A 
HETATM   30  C17 UNL     1      -3.934   3.129  -2.352  1.00  0.00     0.050 A 
HETATM   31  C18 UNL     1      -4.719   4.347  -2.022  1.00  0.00     0.076 C 
HETATM   32  O3  UNL     1      -3.285   2.428  -1.456  1.00  0.00    -0.316 OA
ENDBRANCH  26  27
ENDBRANCH   8  26
TORSDOF 6
