REMARK  4 active torsions:
REMARK  status: ('A' for Active; 'I' for Inactive)
REMARK    1  A    between atoms: C2_2  and  C4_5 
REMARK    2  A    between atoms: N3_10  and  C8_11 
REMARK    3  A    between atoms: C19_23  and  C20_24 
REMARK       I    between atoms: N5_27  and  C23_28 
REMARK    4  A    between atoms: C23_28  and  C24_30 
ROOT
HETATM    1  C1  UNL     1       7.263   0.533   1.817  1.00  0.00     0.027 C 
HETATM    2  C2  UNL     1       7.152   1.305   0.509  1.00  0.00     0.113 C 
HETATM    3  C3  UNL     1       8.416   1.098  -0.198  1.00  0.00     0.065 C 
HETATM    4  N1  UNL     1       9.424   0.944  -0.757  1.00  0.00    -0.197 NA
ENDROOT
BRANCH   2   5
HETATM    5  C4  UNL     1       6.049   0.676  -0.299  1.00  0.00     0.092 C 
HETATM    6  C5  UNL     1       6.382  -0.726  -0.557  1.00  0.00     0.072 C 
HETATM    7  N2  UNL     1       6.644  -1.834  -0.750  1.00  0.00    -0.196 NA
HETATM    8  C6  UNL     1       5.806   1.392  -1.609  1.00  0.00     0.058 C 
HETATM    9  C7  UNL     1       4.309   1.719  -1.596  1.00  0.00     0.275 C 
HETATM   10  N3  UNL     1       3.809   0.747  -0.684  1.00  0.00     0.095 N 
HETATM   11  C29 UNL     1       4.700   0.782   0.412  1.00  0.00     0.298 C 
BRANCH  10  12
HETATM   12  C8  UNL     1       2.419   0.840  -0.393  1.00  0.00     0.223 C 
HETATM   13  C9  UNL     1       1.694   0.602  -1.701  1.00  0.00     0.036 C 
HETATM   14  C10 UNL     1       0.191   0.572  -1.468  1.00  0.00     0.014 C 
HETATM   15  C11 UNL     1      -0.062  -0.583  -0.563  1.00  0.00    -0.007 C 
HETATM   16  C12 UNL     1       0.511  -0.316   0.796  1.00  0.00     0.014 C 
HETATM   17  C14 UNL     1       0.775  -1.757  -1.123  1.00  0.00     0.047 C 
HETATM   18  C19 UNL     1      -1.374  -1.225  -0.620  1.00  0.00     0.237 C 
HETATM   19  C13 UNL     1       1.962   0.003   0.745  1.00  0.00     0.036 C 
HETATM   20  C15 UNL     1       0.061  -2.948  -0.486  1.00  0.00     0.224 C 
HETATM   21  C16 UNL     1      -0.396  -3.851  -1.595  1.00  0.00     0.037 C 
HETATM   22  N4  UNL     1      -1.129  -2.431   0.165  1.00  0.00     0.099 N 
HETATM   23  C17 UNL     1      -1.894  -3.985  -1.448  1.00  0.00     0.032 C 
HETATM   24  C18 UNL     1      -2.108  -3.447  -0.050  1.00  0.00     0.273 C 
BRANCH  18  25
HETATM   25  C20 UNL     1      -2.614  -0.554  -0.362  1.00  0.00     0.039 C 
HETATM   26  C21 UNL     1      -2.964   0.603  -1.267  1.00  0.00     0.028 C 
HETATM   27  C22 UNL     1      -4.351   0.940  -0.691  1.00  0.00     0.126 C 
HETATM   28  N5  UNL     1      -4.277   0.522   0.717  1.00  0.00    -0.351 N 
HETATM   29  C23 UNL     1      -5.351   0.579   1.606  1.00  0.00     0.224 C 
HETATM   30  C28 UNL     1      -2.898   0.054   0.968  1.00  0.00     0.132 C 
HETATM   31  O1  UNL     1      -5.191   0.200   2.791  1.00  0.00    -0.273 OA
BRANCH  29  32
HETATM   32  C24 UNL     1      -6.686   1.074   1.202  1.00  0.00     0.083 C 
HETATM   33  C25 UNL     1      -6.736   2.494   0.704  1.00  0.00     0.051 C 
HETATM   34  C26 UNL     1      -7.838   2.786   1.696  1.00  0.00     0.171 C 
HETATM   35  F1  UNL     1      -7.590   3.839   2.553  1.00  0.00    -0.249 F 
HETATM   36  C27 UNL     1      -7.607   1.429   2.344  1.00  0.00     0.051 C 
ENDBRANCH  29  32
ENDBRANCH  18  25
ENDBRANCH  10  12
ENDBRANCH   2   5
TORSDOF 4
