REMARK  6 active torsions:
REMARK  status: ('A' for Active; 'I' for Inactive)
REMARK    1  A    between atoms: C2_2  and  N1_4 
REMARK       I    between atoms: N1_4  and  C4_5 
REMARK    2  A    between atoms: N1_4  and  C25_34 
REMARK    3  A    between atoms: C4_5  and  C5_7 
REMARK       I    between atoms: N2_9  and  C7_10 
REMARK    4  A    between atoms: C7_10  and  C8_12 
REMARK       I    between atoms: N3_16  and  C12_17 
REMARK    5  A    between atoms: C12_17  and  O4_19 
REMARK    6  A    between atoms: O4_19  and  C13_20 
ROOT
HETATM    1  C8  UNL     1       0.985   0.598   1.401  1.00  0.00     0.181 C 
HETATM    2  C9  UNL     1       0.302   1.913   1.809  1.00  0.00     0.037 C 
HETATM    3  C10 UNL     1       1.033   2.307   3.073  1.00  0.00     0.022 C 
HETATM    4  C11 UNL     1       2.129   1.278   3.243  1.00  0.00     0.129 C 
HETATM    5  N3  UNL     1       2.322   0.866   1.817  1.00  0.00    -0.314 N 
HETATM    6  C12 UNL     1       3.605   0.814   1.276  1.00  0.00     0.365 C 
HETATM    7  O3  UNL     1       4.600   1.166   1.994  1.00  0.00    -0.238 OA
ENDROOT
BRANCH   1   8
HETATM    8  C7  UNL     1       0.724   0.291   0.006  1.00  0.00     0.242 C 
HETATM    9  N2  UNL     1      -0.544  -0.359  -0.272  1.00  0.00    -0.349 N 
HETATM   10  C6  UNL     1      -1.589  -0.769   0.629  1.00  0.00     0.140 C 
HETATM   11  C21 UNL     1      -1.055  -0.748  -1.587  1.00  0.00     0.135 C 
HETATM   12  C5  UNL     1      -2.877  -0.292  -0.086  1.00  0.00     0.105 C 
HETATM   13  C22 UNL     1      -2.470  -0.153  -1.513  1.00  0.00    -0.018 C 
HETATM   14  C23 UNL     1      -3.369  -0.769  -2.525  1.00  0.00     0.017 C 
HETATM   15  C24 UNL     1      -2.262   1.322  -1.898  1.00  0.00     0.017 C 
HETATM   16  O2  UNL     1       1.507   0.550  -0.918  1.00  0.00    -0.271 OA
BRANCH  12  17
HETATM   17  C4  UNL     1      -3.970  -1.238   0.171  1.00  0.00     0.227 C 
HETATM   18  N1  UNL     1      -5.291  -0.916   0.543  1.00  0.00    -0.344 N 
HETATM   19  O1  UNL     1      -3.660  -2.478   0.035  1.00  0.00    -0.273 OA
BRANCH  18  20
HETATM   20  C2  UNL     1      -6.213  -2.054   0.719  1.00  0.00     0.079 C 
HETATM   21  C1  UNL     1      -7.360  -1.947  -0.273  1.00  0.00     0.032 C 
HETATM   22  C3  UNL     1      -6.791  -2.084   2.095  1.00  0.00     0.032 C 
ENDBRANCH  18  20
BRANCH  18  23
HETATM   23  C25 UNL     1      -5.820   0.397   0.781  1.00  0.00     0.079 C 
HETATM   24  C26 UNL     1      -5.852   1.304  -0.415  1.00  0.00     0.032 C 
HETATM   25  C27 UNL     1      -5.159   1.109   1.920  1.00  0.00     0.032 C 
ENDBRANCH  18  23
ENDBRANCH  12  17
ENDBRANCH   1   8
BRANCH   6  26
HETATM   26  O4  UNL     1       4.037   0.435   0.045  1.00  0.00    -0.272 OA
BRANCH  26  27
HETATM   27  C13 UNL     1       5.321   0.397  -0.453  1.00  0.00     0.278 C 
HETATM   28  O5  UNL     1       5.543   1.363  -1.464  1.00  0.00    -0.355 OA
HETATM   29  C14 UNL     1       6.772   1.135  -2.054  1.00  0.00     0.128 C 
HETATM   30  C15 UNL     1       6.563   0.078  -3.125  1.00  0.00     0.033 C 
HETATM   31  C20 UNL     1       7.796   0.578  -1.097  1.00  0.00     0.075 C 
HETATM   32  C16 UNL     1       5.733  -1.029  -2.477  1.00  0.00     0.015 C 
HETATM   33  C17 UNL     1       5.858  -0.879  -0.954  1.00  0.00     0.081 C 
HETATM   34  C18 UNL     1       7.387  -0.843  -0.750  1.00  0.00     0.110 C 
HETATM   35  C19 UNL     1       7.721  -1.045   0.714  1.00  0.00     0.052 C 
HETATM   36  F1  UNL     1       8.006  -1.769  -1.551  1.00  0.00    -0.243 F 
ENDBRANCH  26  27
ENDBRANCH   6  26
TORSDOF 6
