REMARK  5 active torsions:
REMARK  status: ('A' for Active; 'I' for Inactive)
REMARK    1  A    between atoms: N1_2  and  C3_4 
REMARK    2  A    between atoms: N2_9  and  O1_10 
REMARK    3  A    between atoms: N3_19  and  C15_20 
REMARK    4  A    between atoms: C15_20  and  C16_21 
REMARK    5  A    between atoms: N4_28  and  C21_29 
ROOT
HETATM    1  C3  UNL     1      -1.099   0.642  -0.174  1.00  0.00     0.118 A 
HETATM    2  C4  UNL     1      -2.468   0.628  -0.154  1.00  0.00     0.038 A 
HETATM    3  C5  UNL     1      -3.177   1.512  -0.974  1.00  0.00     0.019 A 
HETATM    4  C6  UNL     1      -4.548   1.521  -0.976  1.00  0.00     0.021 A 
HETATM    5  C7  UNL     1      -5.212   0.645  -0.159  1.00  0.00     0.123 A 
HETATM    6  N2  UNL     1      -4.522  -0.228   0.651  1.00  0.00    -0.234 N 
HETATM    7  C8  UNL     1      -3.198  -0.243   0.659  1.00  0.00     0.088 A 
HETATM    8  C9  UNL     1      -2.497  -1.122   1.473  1.00  0.00     0.021 A 
HETATM    9  C10 UNL     1      -3.152  -1.991   2.299  1.00  0.00     0.016 A 
HETATM   10  C11 UNL     1      -2.413  -2.857   3.117  1.00  0.00     0.001 A 
HETATM   11  C12 UNL     1      -1.044  -2.817   3.073  1.00  0.00     0.002 A 
HETATM   12  C13 UNL     1      -0.373  -1.948   2.246  1.00  0.00     0.030 A 
HETATM   13  C14 UNL     1      -1.084  -1.082   1.428  1.00  0.00     0.049 A 
HETATM   14  N3  UNL     1      -0.434  -0.217   0.622  1.00  0.00    -0.326 N 
ENDROOT
BRANCH  14  15
HETATM   15  C15 UNL     1       0.994  -0.168   0.618  1.00  0.00     0.188 C 
BRANCH  15  16
HETATM   16  C16 UNL     1       1.690  -0.952  -0.408  1.00  0.00     0.039 A 
HETATM   17  C17 UNL     1       1.199  -2.104  -0.901  1.00  0.00     0.083 A 
HETATM   18  C18 UNL     1       1.884  -2.860  -1.857  1.00  0.00     0.192 A 
HETATM   19  O2  UNL     1       1.407  -3.927  -2.300  1.00  0.00    -0.287 OA
HETATM   20  C19 UNL     1       3.094  -2.393  -2.292  1.00  0.00     0.076 A 
HETATM   21 BR1  UNL     1       4.048  -3.420  -3.607  1.00  0.00    -0.045 Br
HETATM   22  C20 UNL     1       3.569  -1.227  -1.781  1.00  0.00     0.121 A 
HETATM   23  N4  UNL     1       2.902  -0.516  -0.866  1.00  0.00    -0.317 N 
BRANCH  23  24
HETATM   24  C21 UNL     1       3.492   0.710  -0.380  1.00  0.00     0.080 A 
HETATM   25  C22 UNL     1       3.918   0.978   0.891  1.00  0.00     0.038 A 
HETATM   26  C23 UNL     1       4.439   2.184   1.131  1.00  0.00     0.010 A 
HETATM   27  C24 UNL     1       4.507   3.063   0.082  1.00  0.00     0.052 A 
HETATM   28  S1  UNL     1       3.837   2.164  -1.203  1.00  0.00    -0.084 SA
ENDBRANCH  23  24
ENDBRANCH  15  16
ENDBRANCH  14  15
BRANCH   1  29
HETATM   29  N1  UNL     1      -0.444   1.572  -1.040  1.00  0.00    -0.375 N 
HETATM   30  C1  UNL     1      -0.147   2.906  -0.549  1.00  0.00     0.150 C 
HETATM   31  C2  UNL     1      -0.057   1.268  -2.400  1.00  0.00     0.150 C 
ENDBRANCH   1  29
BRANCH   6  32
HETATM   32  O1  UNL     1      -5.289  -1.033   1.400  1.00  0.00    -0.283 OA
ATOM     33  H1  UNL     1      -4.813  -1.636   1.959  1.00  0.00     0.245 HD
ENDBRANCH   6  32
TORSDOF 5
