REMARK  12 active torsions:
REMARK  status: ('A' for Active; 'I' for Inactive)
REMARK    1  A    between atoms: C3_3  and  N1_4 
REMARK    2  A    between atoms: N1_4  and  C5_6 
REMARK    3  A    between atoms: N1_4  and  C6_8 
REMARK    4  A    between atoms: C6_8  and  C7_9 
REMARK       I    between atoms: C7_9  and  N2_11 
REMARK    5  A    between atoms: N2_11  and  C8_13 
REMARK    6  A    between atoms: C8_13  and  C9_14 
REMARK    7  A    between atoms: C9_14  and  C10_15 
REMARK    8  A    between atoms: C10_15  and  N3_16 
REMARK    9  A    between atoms: C12_21  and  N5_22 
REMARK   10  A    between atoms: N5_22  and  C13_24 
REMARK   11  A    between atoms: C13_24  and  C14_25 
REMARK   12  A    between atoms: C14_25  and  C15_26 
ROOT
HETATM    1  C1  UNL     1      -9.478  -1.740   0.786  1.00  0.00     0.013 C 
HETATM    2  C2  UNL     1      -8.398  -1.409   0.344  1.00  0.00    -0.089 C 
HETATM    3  C3  UNL     1      -7.088  -1.005  -0.191  1.00  0.00     0.339 C 
ENDROOT
BRANCH   3   4
HETATM    4  N1  UNL     1      -6.892   0.409  -0.040  1.00  0.00     0.001 N 
HETATM    5  C4  UNL     1      -7.785   0.956   0.989  1.00  0.00     0.284 C 
BRANCH   4   6
HETATM    6  C5  UNL     1      -7.204   1.112  -1.242  1.00  0.00     0.460 C 
HETATM    7  O1  UNL     1      -7.977   0.626  -2.049  1.00  0.00    -0.276 OA
ENDBRANCH   4   6
BRANCH   4   8
HETATM    8  C6  UNL     1      -5.547   0.743   0.359  1.00  0.00     0.349 C 
BRANCH   8   9
HETATM    9  C7  UNL     1      -4.561   0.505  -0.717  1.00  0.00     0.244 C 
HETATM   10  O2  UNL     1      -4.948   0.060  -1.818  1.00  0.00    -0.272 OA
HETATM   11  N2  UNL     1      -3.197   0.785  -0.480  1.00  0.00    -0.359 N 
ATOM     12  H2  UNL     1      -2.885   1.148   0.421  1.00  0.00     0.162 HD
BRANCH  11  13
HETATM   13  C8  UNL     1      -2.254   0.542  -1.550  1.00  0.00     0.128 C 
BRANCH  13  14
HETATM   14  C9  UNL     1      -0.827   0.863  -1.201  1.00  0.00     0.064 C 
BRANCH  14  15
HETATM   15  C10 UNL     1      -0.417  -0.017  -0.033  1.00  0.00     0.064 C 
BRANCH  15  16
HETATM   16  N3  UNL     1       0.877   0.152   0.409  1.00  0.00    -0.355 N 
HETATM   17  C11 UNL     1       2.005  -0.331   0.359  1.00  0.00     0.128 A 
HETATM   18  N4  UNL     1       3.012   0.300   1.048  1.00  0.00    -0.176 N 
HETATM   19  C19 UNL     1       2.387  -1.461  -0.324  1.00  0.00     0.005 A 
HETATM   20  C12 UNL     1       4.274  -0.146   1.058  1.00  0.00     0.679 A 
ATOM     21  H4  UNL     1       2.789   1.145   1.575  1.00  0.00     0.186 HD
HETATM   22  N6  UNL     1       4.659  -1.246   0.397  1.00  0.00    -0.195 N 
HETATM   23  C17 UNL     1       3.718  -1.905  -0.295  1.00  0.00     0.032 A 
ATOM     24  H6  UNL     1       5.626  -1.568   0.419  1.00  0.00     0.184 HD
HETATM   25  C18 UNL     1       4.087  -3.129  -1.046  1.00  0.00     0.069 C 
HETATM   26  C20 UNL     1       1.410  -2.246  -1.110  1.00  0.00     0.054 C 
ATOM     27  H3  UNL     1       0.910   0.987   0.994  1.00  0.00     0.166 HD
BRANCH  20  28
HETATM   28  N5  UNL     1       5.172   0.495   1.727  1.00  0.00    -0.226 N 
ATOM     29  H5  UNL     1       4.871   1.331   2.229  1.00  0.00     0.177 HD
BRANCH  28  30
HETATM   30  C13 UNL     1       6.547   0.136   1.825  1.00  0.00     0.138 C 
BRANCH  30  31
HETATM   31  C14 UNL     1       7.337   0.646   0.638  1.00  0.00     0.020 C 
BRANCH  31  32
HETATM   32  C15 UNL     1       7.206   2.170   0.621  1.00  0.00    -0.003 C 
HETATM   33  C16 UNL     1       8.002   2.653  -0.572  1.00  0.00     0.005 C 
ENDBRANCH  31  32
ENDBRANCH  30  31
ENDBRANCH  28  30
ENDBRANCH  20  28
ENDBRANCH  15  16
ENDBRANCH  14  15
ENDBRANCH  13  14
ENDBRANCH  11  13
ENDBRANCH   8   9
ENDBRANCH   4   8
ENDBRANCH   3   4
TORSDOF 12
