REMARK  3 active torsions:
REMARK  status: ('A' for Active; 'I' for Inactive)
REMARK    1  A    between atoms: N3_10  and  C7_12 
REMARK    2  A    between atoms: C7_12  and  C8_13 
REMARK    3  A    between atoms: C8_13  and  C9_14 
ROOT
HETATM    1  N1  UNL     1       2.969   2.583   2.783  1.00  0.00    -0.191 NA
HETATM    2  C1  UNL     1       2.929   1.727   1.979  1.00  0.00     0.103 C 
HETATM    3  C2  UNL     1       2.895   0.692   0.985  1.00  0.00     0.088 A 
HETATM    4  C3  UNL     1       4.042   0.240   0.366  1.00  0.00     0.028 A 
HETATM    5  C4  UNL     1       3.927  -0.755  -0.577  1.00  0.00     0.019 A 
HETATM    6  C5  UNL     1       2.709  -1.297  -0.906  1.00  0.00     0.090 A 
HETATM    7  N2  UNL     1       1.596  -0.858  -0.304  1.00  0.00    -0.351 N 
ATOM      8  H2  UNL     1       0.691  -1.260  -0.547  1.00  0.00     0.166 HD
HETATM    9  C6  UNL     1       1.675   0.109   0.616  1.00  0.00     0.121 A 
HETATM   10  N3  UNL     1       0.649   0.579   1.234  1.00  0.00    -0.375 N 
ATOM     11  H3  UNL     1       0.770   1.317   1.928  1.00  0.00     0.161 HD
ENDROOT
BRANCH  10  12
HETATM   12  C7  UNL     1      -0.668   0.072   0.954  1.00  0.00     0.127 C 
BRANCH  12  13
HETATM   13  C8  UNL     1      -1.293   0.712  -0.273  1.00  0.00     0.078 C 
BRANCH  13  14
HETATM   14  C9  UNL     1      -2.632   0.135  -0.484  1.00  0.00     0.028 A 
HETATM   15  C10 UNL     1      -3.794   0.639   0.058  1.00  0.00     0.045 A 
HETATM   16  C11 UNL     1      -4.801  -0.191  -0.386  1.00  0.00     0.109 A 
HETATM   17  N4  UNL     1      -4.225  -1.114  -1.139  1.00  0.00    -0.312 N 
HETATM   18  N5  UNL     1      -2.924  -0.951  -1.221  1.00  0.00    -0.305 N 
ATOM     19  H4  UNL     1      -4.733  -1.867  -1.603  1.00  0.00     0.186 HD
ATOM     20  H5  UNL     1      -2.266  -1.533  -1.740  1.00  0.00     0.186 HD
ENDBRANCH  13  14
ENDBRANCH  12  13
ENDBRANCH  10  12
TORSDOF 3
