REMARK  3 active torsions:
REMARK  status: ('A' for Active; 'I' for Inactive)
REMARK    1  A    between atoms: C3_3  and  O1_4 
REMARK    2  A    between atoms: O1_4  and  C4_5 
REMARK    3  A    between atoms: C4_5  and  N1_6 
ROOT
HETATM    1  C1  UNL     1       4.895   0.583   0.276  1.00  0.00     0.014 C 
HETATM    2  C2  UNL     1       4.170  -0.317  -0.075  1.00  0.00    -0.091 C 
HETATM    3  C3  UNL     1       3.277  -1.410  -0.514  1.00  0.00     0.262 C 
ENDROOT
BRANCH   3   4
HETATM    4  O1  UNL     1       2.002  -0.939  -0.673  1.00  0.00    -0.360 OA
BRANCH   4   5
HETATM    5  C4  UNL     1       1.453  -0.408   0.489  1.00  0.00     0.299 C 
BRANCH   5   6
HETATM    6  N1  UNL     1       0.105   0.068   0.241  1.00  0.00    -0.329 N 
HETATM    7  C5  UNL     1      -0.024   1.357  -0.155  1.00  0.00     0.186 A 
HETATM    8  N2  UNL     1      -1.213   1.917  -0.415  1.00  0.00    -0.336 N 
HETATM    9  C6  UNL     1      -2.323   1.180  -0.282  1.00  0.00     0.137 A 
ATOM     10  H2  UNL     1      -1.272   2.892  -0.710  1.00  0.00     0.168 HD
HETATM   11  N3  UNL     1      -3.622   1.423  -0.457  1.00  0.00    -0.317 N 
HETATM   12  C8  UNL     1      -2.218  -0.150   0.123  1.00  0.00     0.095 A 
HETATM   13  C7  UNL     1      -4.324   0.312  -0.181  1.00  0.00     0.178 A 
ATOM     14  H3  UNL     1      -4.020   2.314  -0.754  1.00  0.00     0.170 HD
HETATM   15  S1  UNL     1      -5.948   0.169  -0.265  1.00  0.00    -0.040 SA
HETATM   16  N4  UNL     1      -3.468  -0.659   0.177  1.00  0.00    -0.329 N 
ATOM     17  H4  UNL     1      -3.718  -1.612   0.443  1.00  0.00     0.168 HD
HETATM   18  C9  UNL     1      -0.982  -0.706   0.386  1.00  0.00     0.127 A 
ENDBRANCH   5   6
ENDBRANCH   4   5
ENDBRANCH   3   4
TORSDOF 3
