REMARK  4 active torsions:
REMARK  status: ('A' for Active; 'I' for Inactive)
REMARK    1  A    between atoms: C2_2  and  C3_3 
REMARK    2  A    between atoms: C3_3  and  C4_4 
REMARK    3  A    between atoms: C4_4  and  N1_5 
REMARK    4  A    between atoms: N1_5  and  C5_7 
ROOT
HETATM    1  C5  UNL     1      -0.455  -0.744  -0.469  1.00  0.00     0.117 A 
HETATM    2  N2  UNL     1      -0.402  -2.015  -0.922  1.00  0.00    -0.338 N 
ATOM      3  H2  UNL     1       0.427  -2.352  -1.411  1.00  0.00     0.168 HD
HETATM    4  C6  UNL     1      -1.451  -2.832  -0.723  1.00  0.00     0.183 A 
HETATM    5  N3  UNL     1      -2.572  -2.415  -0.074  1.00  0.00    -0.338 N 
ATOM      6  H3  UNL     1      -3.349  -3.062   0.059  1.00  0.00     0.168 HD
HETATM    7  C7  UNL     1      -2.664  -1.153   0.395  1.00  0.00     0.121 A 
HETATM    8  N4  UNL     1      -3.621  -0.482   1.056  1.00  0.00    -0.350 N 
ATOM      9  H4  UNL     1      -4.522  -0.874   1.332  1.00  0.00     0.166 HD
HETATM   10  C8  UNL     1      -3.223   0.784   1.304  1.00  0.00     0.113 A 
HETATM   11  C9  UNL     1      -1.956   0.912   0.773  1.00  0.00     0.077 A 
HETATM   12  C10 UNL     1      -1.120   2.081   0.789  1.00  0.00     0.102 C 
HETATM   13  N5  UNL     1      -0.451   3.043   0.813  1.00  0.00    -0.191 NA
HETATM   14  C11 UNL     1      -1.600  -0.295   0.203  1.00  0.00     0.074 A 
ENDROOT
BRANCH   1  15
HETATM   15  N1  UNL     1       0.478   0.092  -0.609  1.00  0.00    -0.375 N 
ATOM     16  H1  UNL     1       0.304   1.017  -0.217  1.00  0.00     0.161 HD
BRANCH  15  17
HETATM   17  C4  UNL     1       1.736  -0.080  -1.237  1.00  0.00     0.125 C 
BRANCH  17  18
HETATM   18  C3  UNL     1       2.623   1.121  -1.126  1.00  0.00     0.046 C 
BRANCH  18  19
HETATM   19  C2  UNL     1       2.982   1.482   0.257  1.00  0.00    -0.035 C 
HETATM   20  C1  UNL     1       2.658   0.785   1.319  1.00  0.00     0.007 C 
ENDBRANCH  18  19
ENDBRANCH  17  18
ENDBRANCH  15  17
ENDBRANCH   1  15
TORSDOF 4
