REMARK  14 active torsions:
REMARK  status: ('A' for Active; 'I' for Inactive)
REMARK    1  A    between atoms: C3_3  and  N1_4 
REMARK    2  A    between atoms: N1_4  and  C4_5 
REMARK    3  A    between atoms: N1_4  and  C30_42 
REMARK    4  A    between atoms: C4_5  and  C5_6 
REMARK    5  A    between atoms: C6_7  and  N2_8 
REMARK    6  A    between atoms: N2_8  and  C7_9 
REMARK    7  A    between atoms: N2_8  and  C25_34 
REMARK    8  A    between atoms: C7_9  and  C8_10 
REMARK    9  A    between atoms: C8_10  and  N3_11 
REMARK   10  A    between atoms: N3_11  and  C10_13 
REMARK   11  A    between atoms: C10_13  and  C11_14 
REMARK   12  A    between atoms: C14_17  and  C15_18 
REMARK   13  A    between atoms: C17_22  and  C18_23 
REMARK   14  A    between atoms: N6_39  and  O2_40 
ROOT
HETATM    1  C1  UNL     1      -7.719  -4.347  -1.909  1.00  0.00     0.014 C 
HETATM    2  C2  UNL     1      -7.024  -3.826  -1.066  1.00  0.00    -0.097 C 
HETATM    3  C3  UNL     1      -6.175  -3.219  -0.046  1.00  0.00     0.222 C 
ENDROOT
BRANCH   3   4
HETATM    4  N1  UNL     1      -5.741  -1.896  -0.652  1.00  0.00    -0.332 N 
BRANCH   4   5
HETATM    5  C4  UNL     1      -4.886  -2.047  -1.731  1.00  0.00     0.095 C 
BRANCH   5   6
HETATM    6  C5  UNL     1      -3.978  -1.101  -2.347  1.00  0.00     0.034 C 
HETATM    7  C6  UNL     1      -2.746  -0.589  -1.787  1.00  0.00     0.094 C 
BRANCH   7   8
HETATM    8  N2  UNL     1      -2.473   0.111  -0.611  1.00  0.00    -0.340 N 
BRANCH   8   9
HETATM    9  C7  UNL     1      -2.524  -0.499   0.703  1.00  0.00     0.160 C 
BRANCH   9  10
HETATM   10  C8  UNL     1      -1.453  -1.545   0.884  1.00  0.00     0.292 C 
BRANCH  10  11
HETATM   11  N3  UNL     1      -0.113  -1.171   0.790  1.00  0.00     0.089 N 
HETATM   12  C9  UNL     1       0.712  -2.361   0.985  1.00  0.00     0.310 C 
BRANCH  11  13
HETATM   13  C10 UNL     1       0.372  -0.156   1.694  1.00  0.00     0.310 C 
BRANCH  13  14
HETATM   14  C11 UNL     1       1.838   0.017   1.517  1.00  0.00    -0.030 A 
HETATM   15  C12 UNL     1       2.632   0.002   2.659  1.00  0.00     0.010 A 
HETATM   16  C13 UNL     1       3.998   0.138   2.566  1.00  0.00     0.016 A 
HETATM   17  C14 UNL     1       4.644   0.295   1.359  1.00  0.00     0.015 A 
HETATM   18  C23 UNL     1       3.820   0.305   0.244  1.00  0.00     0.016 A 
HETATM   19  C24 UNL     1       2.451   0.170   0.317  1.00  0.00     0.010 A 
BRANCH  17  20
HETATM   20  C15 UNL     1       6.096   0.435   1.272  1.00  0.00     0.158 A 
HETATM   21  N4  UNL     1       6.900   0.432   2.363  1.00  0.00    -0.343 N 
HETATM   22  C16 UNL     1       8.154   0.576   1.955  1.00  0.00     0.128 A 
ATOM     23  H4  UNL     1       6.594   0.336   3.331  1.00  0.00     0.167 HD
HETATM   24  C17 UNL     1       8.111   0.670   0.575  1.00  0.00     0.104 A 
HETATM   25  O1  UNL     1       6.852   0.578   0.228  1.00  0.00    -0.291 OA
BRANCH  24  26
HETATM   26  C18 UNL     1       9.279   0.838  -0.273  1.00  0.00     0.015 A 
HETATM   27  C19 UNL     1       9.140   0.911  -1.638  1.00  0.00     0.019 A 
HETATM   28  C20 UNL     1      10.250   1.071  -2.437  1.00  0.00     0.043 A 
HETATM   29  C21 UNL     1      11.499   1.160  -1.863  1.00  0.00     0.103 A 
HETATM   30 CL1  UNL     1      12.929   1.368  -2.862  1.00  0.00    -0.065 Cl
HETATM   31  N5  UNL     1      11.613   1.087  -0.520  1.00  0.00    -0.356 N 
HETATM   32  C22 UNL     1      10.548   0.932   0.258  1.00  0.00     0.103 A 
ATOM     33  H5  UNL     1      12.537   1.152  -0.093  1.00  0.00     0.166 HD
ENDBRANCH  24  26
ENDBRANCH  17  20
ENDBRANCH  13  14
ENDBRANCH  11  13
ENDBRANCH  10  11
ENDBRANCH   9  10
ENDBRANCH   8   9
BRANCH   8  34
HETATM   34  C25 UNL     1      -2.061   1.508  -0.733  1.00  0.00     0.134 A 
HETATM   35  C26 UNL     1      -1.124   1.834  -1.705  1.00  0.00     0.051 A 
HETATM   36  C27 UNL     1      -0.726   3.154  -1.866  1.00  0.00     0.005 A 
HETATM   37  C28 UNL     1      -1.254   4.135  -1.071  1.00  0.00     0.020 A 
HETATM   38  C29 UNL     1      -2.173   3.781  -0.125  1.00  0.00     0.125 A 
HETATM   39  N6  UNL     1      -2.564   2.480   0.033  1.00  0.00    -0.219 N 
BRANCH  39  40
HETATM   40  O2  UNL     1      -3.482   2.272   1.019  1.00  0.00    -0.282 OA
ATOM     41  H2  UNL     1      -3.840   2.963   1.564  1.00  0.00     0.245 HD
ENDBRANCH  39  40
ENDBRANCH   8  34
ENDBRANCH   7   8
ENDBRANCH   5   6
ENDBRANCH   4   5
BRANCH   4  42
HETATM   42  C30 UNL     1      -6.329  -0.761  -0.093  1.00  0.00     0.107 A 
HETATM   43  C31 UNL     1      -6.229   0.536  -0.510  1.00  0.00     0.050 A 
HETATM   44  C32 UNL     1      -6.878   1.605   0.113  1.00  0.00     0.029 A 
HETATM   45  C33 UNL     1      -7.659   1.341   1.204  1.00  0.00     0.049 A 
HETATM   46 CL2  UNL     1      -8.500   2.634   2.029  1.00  0.00    -0.083 Cl
HETATM   47  C34 UNL     1      -7.761   0.049   1.625  1.00  0.00     0.113 A 
HETATM   48  N7  UNL     1      -7.131  -0.947   1.011  1.00  0.00    -0.351 N 
ATOM     49  H7  UNL     1      -7.247  -1.893   1.374  1.00  0.00     0.166 HD
ENDBRANCH   4  42
ENDBRANCH   3   4
TORSDOF 14
