REMARK  15 active torsions:
REMARK  status: ('A' for Active; 'I' for Inactive)
REMARK    1  A    between atoms: C6_9  and  S1_10 
REMARK    2  A    between atoms: S1_10  and  N3_13 
REMARK    3  A    between atoms: N3_13  and  C7_14 
REMARK    4  A    between atoms: N3_13  and  C26_38 
REMARK    5  A    between atoms: C7_14  and  C8_15 
REMARK    6  A    between atoms: C8_15  and  C9_16 
REMARK    7  A    between atoms: C9_16  and  C10_17 
REMARK    8  A    between atoms: C10_17  and  C11_18 
REMARK    9  A    between atoms: C11_18  and  C12_19 
REMARK   10  A    between atoms: C12_19  and  N4_20 
REMARK   11  A    between atoms: C13_21  and  C14_22 
REMARK   12  A    between atoms: C26_38  and  C27_39 
REMARK   13  A    between atoms: C27_39  and  C28_40 
REMARK   14  A    between atoms: C28_40  and  C29_41 
REMARK   15  A    between atoms: C29_41  and  N6_42 
ROOT
HETATM    1  C8  UNL     1      -0.761   0.101  -0.686  1.00  0.00     0.015 C 
ENDROOT
BRANCH   1   2
HETATM    2  C7  UNL     1      -1.792  -0.478  -1.608  1.00  0.00     0.107 C 
BRANCH   2   3
HETATM    3  N3  UNL     1      -3.134  -0.217  -1.219  1.00  0.00    -0.206 NA
BRANCH   3   4
HETATM    4  S1  UNL     1      -3.807  -1.485  -0.335  1.00  0.00     0.247 S 
HETATM    5  O1  UNL     1      -5.258  -1.242  -0.075  1.00  0.00    -0.206 OA
HETATM    6  O2  UNL     1      -3.781  -2.712  -1.243  1.00  0.00    -0.206 OA
BRANCH   4   7
HETATM    7  C6  UNL     1      -3.000  -1.852   1.172  1.00  0.00     0.122 A 
HETATM    8  C2  UNL     1      -2.045  -2.828   1.354  1.00  0.00     0.047 A 
HETATM    9  C1  UNL     1      -1.483  -3.785   0.408  1.00  0.00     0.071 C 
HETATM   10  N1  UNL     1      -1.700  -2.740   2.671  1.00  0.00    -0.302 N 
HETATM   11  N2  UNL     1      -2.372  -1.800   3.267  1.00  0.00    -0.299 N 
ATOM     12  H1  UNL     1      -1.007  -3.333   3.127  1.00  0.00     0.186 HD
HETATM   13  C3  UNL     1      -2.252  -1.434   4.677  1.00  0.00     0.177 C 
HETATM   14  C4  UNL     1      -3.205  -1.211   2.369  1.00  0.00     0.049 A 
HETATM   15  C5  UNL     1      -4.132  -0.088   2.703  1.00  0.00     0.071 C 
ENDBRANCH   4   7
ENDBRANCH   3   4
BRANCH   3  16
HETATM   16  C26 UNL     1      -3.974   0.252  -2.253  1.00  0.00     0.107 C 
BRANCH  16  17
HETATM   17  C27 UNL     1      -4.205   1.701  -2.378  1.00  0.00     0.017 C 
BRANCH  17  18
HETATM   18  C28 UNL     1      -4.857   2.487  -1.329  1.00  0.00     0.031 C 
BRANCH  18  19
HETATM   19  C29 UNL     1      -6.274   2.196  -1.001  1.00  0.00     0.271 C 
BRANCH  19  20
HETATM   20  N6  UNL     1      -6.816   3.046   0.037  1.00  0.00     0.080 N 
HETATM   21  C30 UNL     1      -6.270   2.845   1.335  1.00  0.00     0.309 C 
HETATM   22  C31 UNL     1      -6.929   4.423  -0.326  1.00  0.00     0.309 C 
ENDBRANCH  19  20
ENDBRANCH  18  19
ENDBRANCH  17  18
ENDBRANCH  16  17
ENDBRANCH   3  16
ENDBRANCH   2   3
ENDBRANCH   1   2
BRANCH   1  23
HETATM   23  C9  UNL     1       0.615  -0.274  -1.246  1.00  0.00     0.001 C 
BRANCH  23  24
HETATM   24  C10 UNL     1       1.710   0.284  -0.364  1.00  0.00     0.002 C 
BRANCH  24  25
HETATM   25  C11 UNL     1       3.046  -0.118  -0.974  1.00  0.00     0.020 C 
BRANCH  25  26
HETATM   26  C12 UNL     1       4.111   0.465  -0.058  1.00  0.00     0.131 C 
BRANCH  26  27
HETATM   27  N4  UNL     1       5.456   0.183  -0.487  1.00  0.00    -0.331 N 
HETATM   28  C13 UNL     1       6.255  -0.824  -0.157  1.00  0.00     0.118 A 
HETATM   29  N5  UNL     1       7.429  -0.586  -0.849  1.00  0.00    -0.340 N 
HETATM   30  C20 UNL     1       7.321   0.528  -1.564  1.00  0.00     0.062 A 
ATOM     31  H5  UNL     1       8.257  -1.180  -0.815  1.00  0.00     0.167 HD
HETATM   32  C21 UNL     1       8.193   1.211  -2.425  1.00  0.00     0.055 A 
HETATM   33  C25 UNL     1       6.078   1.047  -1.360  1.00  0.00     0.063 A 
HETATM   34  C22 UNL     1       7.799   2.374  -3.044  1.00  0.00     0.036 A 
HETATM   35 CL2  UNL     1       8.914   3.211  -4.119  1.00  0.00    -0.084 Cl
HETATM   36  C23 UNL     1       6.537   2.901  -2.836  1.00  0.00     0.026 A 
HETATM   37  C24 UNL     1       5.701   2.212  -1.988  1.00  0.00     0.034 A 
BRANCH  28  38
HETATM   38  C14 UNL     1       6.122  -1.968   0.735  1.00  0.00     0.008 A 
HETATM   39  C15 UNL     1       4.988  -2.403   1.337  1.00  0.00     0.017 A 
HETATM   40  C16 UNL     1       4.927  -3.483   2.221  1.00  0.00     0.025 A 
HETATM   41  C17 UNL     1       6.071  -4.150   2.506  1.00  0.00     0.034 A 
HETATM   42 CL1  UNL     1       6.004  -5.508   3.617  1.00  0.00    -0.084 Cl
HETATM   43  C18 UNL     1       7.244  -3.744   1.918  1.00  0.00     0.025 A 
HETATM   44  C19 UNL     1       7.281  -2.685   1.056  1.00  0.00     0.017 A 
ENDBRANCH  28  38
ENDBRANCH  26  27
ENDBRANCH  25  26
ENDBRANCH  24  25
ENDBRANCH  23  24
ENDBRANCH   1  23
TORSDOF 15
