REMARK  15 active torsions:
REMARK  status: ('A' for Active; 'I' for Inactive)
REMARK    1  A    between atoms: C2_2  and  N1_3 
REMARK    2  A    between atoms: N1_3  and  C3_4 
REMARK    3  A    between atoms: N1_3  and  C5_6 
REMARK    4  A    between atoms: C5_6  and  C6_7 
REMARK    5  A    between atoms: C6_7  and  S1_8 
REMARK    6  A    between atoms: S1_8  and  C7_9 
REMARK    7  A    between atoms: C8_10  and  C9_11 
REMARK    8  A    between atoms: C15_18  and  C16_19 
REMARK    9  A    between atoms: C16_19  and  O1_20 
REMARK   10  A    between atoms: O1_20  and  C17_21 
REMARK   11  A    between atoms: C17_21  and  C20_25 
REMARK   12  A    between atoms: C20_25  and  N3_26 
REMARK   13  A    between atoms: N3_26  and  C21_27 
REMARK   14  A    between atoms: N3_26  and  C23_29 
REMARK   15  A    between atoms: N4_33  and  C26_34 
ROOT
HETATM    1  C17 UNL     1      -3.594  -1.455   0.428  1.00  0.00     0.171 C 
HETATM    2  C18 UNL     1      -4.068  -0.427   1.390  1.00  0.00     0.064 C 
HETATM    3  C19 UNL     1      -3.188  -2.677   1.162  1.00  0.00     0.099 C 
HETATM    4  N2  UNL     1      -2.860  -3.629   1.734  1.00  0.00    -0.194 NA
ENDROOT
BRANCH   1   5
HETATM    5  O1  UNL     1      -2.452  -0.942  -0.191  1.00  0.00    -0.363 OA
BRANCH   5   6
HETATM    6  C16 UNL     1      -1.369  -0.772   0.641  1.00  0.00     0.185 C 
BRANCH   6   7
HETATM    7  C15 UNL     1      -0.246  -0.235  -0.209  1.00  0.00     0.113 C 
HETATM    8  C8  UNL     1       1.027   0.021   0.503  1.00  0.00     0.067 C 
HETATM    9  C7  UNL     1       1.716   0.972  -0.451  1.00  0.00     0.164 C 
HETATM   10  N4  UNL     1       0.680   1.828  -0.888  1.00  0.00    -0.303 N 
HETATM   11  C25 UNL     1      -0.527   1.036  -0.870  1.00  0.00     0.232 C 
HETATM   12  O2  UNL     1      -1.650   1.381  -1.347  1.00  0.00    -0.272 OA
BRANCH   8  13
HETATM   13  C9  UNL     1       0.931   0.501   1.879  1.00  0.00    -0.050 A 
HETATM   14  C10 UNL     1       0.230   1.643   2.252  1.00  0.00     0.009 A 
HETATM   15  C11 UNL     1       0.161   2.076   3.558  1.00  0.00     0.024 A 
HETATM   16  C12 UNL     1       0.803   1.367   4.560  1.00  0.00     0.034 A 
HETATM   17 CL1  UNL     1       0.710   1.930   6.228  1.00  0.00    -0.084 Cl
HETATM   18  C13 UNL     1       1.508   0.230   4.230  1.00  0.00     0.024 A 
HETATM   19  C14 UNL     1       1.552  -0.167   2.913  1.00  0.00     0.009 A 
ENDBRANCH   8  13
BRANCH   9  20
HETATM   20  S1  UNL     1       3.186   1.712   0.205  1.00  0.00    -0.137 SA
BRANCH  20  21
HETATM   21  C6  UNL     1       4.445   0.432   0.432  1.00  0.00     0.121 C 
BRANCH  21  22
HETATM   22  C5  UNL     1       4.909  -0.138  -0.892  1.00  0.00     0.078 C 
BRANCH  22  23
HETATM   23  N1  UNL     1       5.878  -1.129  -0.675  1.00  0.00    -0.354 N 
BRANCH  23  24
HETATM   24  C2  UNL     1       5.498  -2.333  -0.074  1.00  0.00     0.064 C 
HETATM   25  C1  UNL     1       6.303  -2.549   1.191  1.00  0.00     0.055 C 
ENDBRANCH  23  24
BRANCH  23  26
HETATM   26  C3  UNL     1       7.141  -1.000  -1.239  1.00  0.00     0.064 C 
HETATM   27  C4  UNL     1       7.426  -1.805  -2.474  1.00  0.00     0.055 C 
ENDBRANCH  23  26
ENDBRANCH  22  23
ENDBRANCH  21  22
ENDBRANCH  20  21
ENDBRANCH   9  20
BRANCH  10  28
HETATM   28  C26 UNL     1       0.677   3.199  -1.300  1.00  0.00     0.040 A 
HETATM   29  C27 UNL     1       1.245   4.196  -0.538  1.00  0.00     0.031 A 
HETATM   30  C28 UNL     1       1.233   5.511  -0.949  1.00  0.00     0.026 A 
HETATM   31  C29 UNL     1       0.654   5.900  -2.143  1.00  0.00     0.066 A 
HETATM   32  C30 UNL     1       0.649   7.284  -2.563  1.00  0.00     0.101 C 
HETATM   33  C31 UNL     1       0.084   4.907  -2.908  1.00  0.00     0.057 A 
HETATM   34  N5  UNL     1       0.663   8.391  -2.897  1.00  0.00    -0.191 NA
HETATM   35 CL2  UNL     1      -0.660   5.357  -4.423  1.00  0.00    -0.083 Cl
HETATM   36  C32 UNL     1       0.095   3.591  -2.498  1.00  0.00     0.055 A 
ENDBRANCH  10  28
ENDBRANCH   6   7
ENDBRANCH   5   6
ENDBRANCH   1   5
BRANCH   1  37
HETATM   37  C20 UNL     1      -4.567  -1.778  -0.655  1.00  0.00     0.325 C 
BRANCH  37  38
HETATM   38  N3  UNL     1      -5.772  -2.411  -0.345  1.00  0.00     0.091 N 
BRANCH  38  39
HETATM   39  C21 UNL     1      -6.551  -2.610  -1.578  1.00  0.00     0.268 C 
HETATM   40  C22 UNL     1      -7.030  -1.304  -2.149  1.00  0.00     0.037 C 
ENDBRANCH  38  39
BRANCH  38  41
HETATM   41  C23 UNL     1      -6.628  -1.976   0.684  1.00  0.00     0.268 C 
HETATM   42  C24 UNL     1      -7.857  -2.910   0.746  1.00  0.00     0.037 C 
ENDBRANCH  38  41
ENDBRANCH  37  38
ENDBRANCH   1  37
TORSDOF 15
