REMARK  14 active torsions:
REMARK  status: ('A' for Active; 'I' for Inactive)
REMARK    1  A    between atoms: C2_2  and  C3_3 
REMARK    2  A    between atoms: C3_3  and  C4_4 
REMARK    3  A    between atoms: C4_4  and  C5_5 
REMARK    4  A    between atoms: C5_5  and  C6_6 
REMARK    5  A    between atoms: C6_6  and  C7_7 
REMARK    6  A    between atoms: C7_7  and  C8_8 
REMARK    7  A    between atoms: C8_8  and  C9_9 
REMARK    8  A    between atoms: C9_9  and  C10_10 
REMARK    9  A    between atoms: C10_10  and  C11_11 
REMARK   10  A    between atoms: C11_11  and  C12_12 
REMARK   11  A    between atoms: C12_12  and  C13_13 
REMARK   12  A    between atoms: C13_13  and  C14_14 
REMARK   13  A    between atoms: C14_14  and  N1_15 
REMARK   14  A    between atoms: C17_19  and  C18_20 
ROOT
HETATM    1  N1  UNL     1      -1.831  -0.131   1.170  1.00  0.00    -0.280 N 
HETATM    2  C15 UNL     1      -2.891   0.366   1.950  1.00  0.00     0.262 A 
HETATM    3  O1  UNL     1      -2.680   0.628   3.150  1.00  0.00    -0.267 OA
HETATM    4  C16 UNL     1      -4.269   0.598   1.409  1.00  0.00     0.051 A 
HETATM    5  C17 UNL     1      -5.171   1.064   2.194  1.00  0.00     0.030 C 
HETATM    6  C24 UNL     1      -4.455   0.276   0.007  1.00  0.00     0.030 A 
HETATM    7  C25 UNL     1      -3.441  -0.202  -0.744  1.00  0.00     0.043 A 
HETATM    8  C26 UNL     1      -3.500  -0.570  -2.189  1.00  0.00     0.203 C 
HETATM    9  S1  UNL     1      -4.878  -1.609  -2.497  1.00  0.00     0.217 S 
HETATM   10  O2  UNL     1      -5.109  -2.499  -1.311  1.00  0.00    -0.211 OA
HETATM   11  O3  UNL     1      -4.565  -2.489  -3.676  1.00  0.00    -0.211 OA
HETATM   12  N2  UNL     1      -6.299  -0.709  -2.882  1.00  0.00    -0.186 NA
HETATM   13  C27 UNL     1      -7.476  -1.320  -2.238  1.00  0.00     0.182 C 
HETATM   14  S2  UNL     1      -8.676   0.049  -2.502  1.00  0.00    -0.151 SA
HETATM   15  C28 UNL     1      -7.427   1.374  -2.771  1.00  0.00     0.107 C 
HETATM   16  C29 UNL     1      -6.187   0.633  -2.319  1.00  0.00     0.150 C 
HETATM   17  S3  UNL     1      -6.114   0.605  -0.534  1.00  0.00    -0.106 SA
HETATM   18  C30 UNL     1      -2.102  -0.419  -0.186  1.00  0.00     0.259 A 
HETATM   19  O4  UNL     1      -1.190  -0.863  -0.915  1.00  0.00    -0.267 OA
ENDROOT
BRANCH   1  20
HETATM   20  C14 UNL     1      -0.497  -0.346   1.716  1.00  0.00     0.135 C 
BRANCH  20  21
HETATM   21  C13 UNL     1       0.301   0.930   1.535  1.00  0.00     0.020 C 
BRANCH  21  22
HETATM   22  C12 UNL     1       1.698   0.838   2.059  1.00  0.00     0.002 C 
BRANCH  22  23
HETATM   23  C11 UNL     1       2.426  -0.284   1.326  1.00  0.00     0.000 C 
BRANCH  23  24
HETATM   24  C10 UNL     1       2.481  -0.026  -0.145  1.00  0.00     0.000 C 
BRANCH  24  25
HETATM   25  C9  UNL     1       3.178  -1.132  -0.868  1.00  0.00     0.000 C 
BRANCH  25  26
HETATM   26  C8  UNL     1       4.595  -1.265  -0.380  1.00  0.00     0.000 C 
BRANCH  26  27
HETATM   27  C7  UNL     1       5.281  -2.376  -1.163  1.00  0.00     0.000 C 
BRANCH  27  28
HETATM   28  C6  UNL     1       6.713  -2.559  -0.713  1.00  0.00     0.000 C 
BRANCH  28  29
HETATM   29  C5  UNL     1       7.512  -1.273  -0.917  1.00  0.00     0.000 C 
BRANCH  29  30
HETATM   30  C4  UNL     1       8.925  -1.465  -0.472  1.00  0.00     0.000 C 
BRANCH  30  31
HETATM   31  C3  UNL     1       9.714  -0.200  -0.689  1.00  0.00    -0.000 C 
BRANCH  31  32
HETATM   32  C2  UNL     1       9.079   0.911   0.115  1.00  0.00    -0.005 C 
HETATM   33  C1  UNL     1       9.927   2.164  -0.126  1.00  0.00     0.005 C 
ENDBRANCH  31  32
ENDBRANCH  30  31
ENDBRANCH  29  30
ENDBRANCH  28  29
ENDBRANCH  27  28
ENDBRANCH  26  27
ENDBRANCH  25  26
ENDBRANCH  24  25
ENDBRANCH  23  24
ENDBRANCH  22  23
ENDBRANCH  21  22
ENDBRANCH  20  21
ENDBRANCH   1  20
BRANCH   5  34
HETATM   34  C18 UNL     1      -6.553   1.397   2.028  1.00  0.00    -0.032 A 
HETATM   35  C19 UNL     1      -6.988   2.694   1.726  1.00  0.00     0.014 A 
HETATM   36  C20 UNL     1      -8.318   3.024   1.648  1.00  0.00     0.046 A 
HETATM   37  C21 UNL     1      -9.289   2.076   1.869  1.00  0.00     0.154 A 
HETATM   38  F1  UNL     1     -10.621   2.401   1.791  1.00  0.00    -0.203 F 
HETATM   39  C22 UNL     1      -8.908   0.790   2.168  1.00  0.00     0.155 A 
HETATM   40  F2  UNL     1      -9.880  -0.127   2.382  1.00  0.00    -0.203 F 
HETATM   41  C23 UNL     1      -7.576   0.464   2.245  1.00  0.00     0.057 A 
ENDBRANCH   5  34
TORSDOF 14
