REMARK  3 active torsions:
REMARK  status: ('A' for Active; 'I' for Inactive)
REMARK    1  A    between atoms: C3_5  and  C4_6 
REMARK    2  A    between atoms: N2_10  and  C8_11 
REMARK    3  A    between atoms: C8_11  and  O1_12 
ROOT
HETATM    1  C1  UNL     1       5.359   2.604   0.552  1.00  0.00     0.037 C 
HETATM    2  C2  UNL     1       4.414   1.916   0.843  1.00  0.00    -0.001 C 
HETATM    3  N1  UNL     1       3.306   1.106   1.210  1.00  0.00    -0.326 N 
ATOM      4  H1  UNL     1       3.320   0.563   2.073  1.00  0.00     0.175 HD
HETATM    5  C3  UNL     1       2.299   1.074   0.439  1.00  0.00     0.110 C 
ENDROOT
BRANCH   5   6
HETATM    6  C4  UNL     1       1.136   0.270   0.753  1.00  0.00    -0.004 A 
HETATM    7  C5  UNL     1       1.008  -0.513   1.876  1.00  0.00     0.015 A 
HETATM    8  C6  UNL     1      -0.153  -1.267   2.113  1.00  0.00     0.018 A 
HETATM    9  C7  UNL     1      -1.191  -1.230   1.210  1.00  0.00     0.096 A 
HETATM   10  N2  UNL     1      -1.070  -0.475   0.125  1.00  0.00    -0.303 N 
HETATM   11  C9  UNL     1       0.040   0.247  -0.104  1.00  0.00     0.109 A 
BRANCH  10  12
HETATM   12  C8  UNL     1      -2.119  -0.390  -0.862  1.00  0.00     0.329 C 
HETATM   13  N3  UNL     1      -2.759  -1.615  -1.227  1.00  0.00    -0.050 NA
HETATM   14  N4  UNL     1      -3.963  -0.886  -1.316  1.00  0.00    -0.028 NA
HETATM   15  N5  UNL     1      -3.439  -0.053  -0.310  1.00  0.00    -0.050 NA
BRANCH  12  16
HETATM   16  O1  UNL     1      -1.855   0.414  -1.938  1.00  0.00    -0.341 OA
ATOM     17  H1  UNL     1      -2.546   0.470  -2.588  1.00  0.00     0.215 HD
ENDBRANCH  12  16
ENDBRANCH  10  12
ENDBRANCH   5   6
TORSDOF 3
