REMARK  4 active torsions:
REMARK  status: ('A' for Active; 'I' for Inactive)
REMARK    1  A    between atoms: N1_1  and  C1_4 
REMARK    2  A    between atoms: C3_11  and  N4_12 
REMARK    3  A    between atoms: N4_12  and  S1_14 
REMARK    4  A    between atoms: S1_14  and  N5_15 
ROOT
HETATM    1  C1  UNL     1      -2.143  -0.366   0.443  1.00  0.00     0.694 A 
HETATM    2  N2  UNL     1      -2.681   0.853   0.279  1.00  0.00    -0.141 N 
ATOM      3  H2  UNL     1      -3.689   0.994   0.350  1.00  0.00     0.189 HD
HETATM    4  C2  UNL     1      -1.843   1.899   0.014  1.00  0.00     0.352 A 
HETATM    5  O1  UNL     1      -2.329   3.039  -0.141  1.00  0.00    -0.246 OA
HETATM    6  N3  UNL     1      -0.512   1.694  -0.077  1.00  0.00    -0.139 N 
ATOM      7  H3  UNL     1       0.098   2.487  -0.276  1.00  0.00     0.189 HD
HETATM    8  C3  UNL     1       0.036   0.469   0.088  1.00  0.00     0.711 A 
HETATM    9  N6  UNL     1      -0.807  -0.544   0.347  1.00  0.00    -0.021 N 
ATOM     10  H6  UNL     1      -0.425  -1.481   0.476  1.00  0.00     0.203 HD
ENDROOT
BRANCH   8  11
HETATM   11  N4  UNL     1       1.290   0.361  -0.013  1.00  0.00    -0.099 N 
ATOM     12  H4  UNL     1       1.800   1.221  -0.215  1.00  0.00     0.199 HD
BRANCH  11  13
HETATM   13  S1  UNL     1       2.227  -1.044   0.147  1.00  0.00     0.330 S 
HETATM   14  O2  UNL     1       2.112  -1.702   1.478  1.00  0.00    -0.182 OA
HETATM   15  O3  UNL     1       1.878  -2.101  -0.892  1.00  0.00    -0.182 OA
BRANCH  13  16
HETATM   16  N5  UNL     1       3.892  -0.618  -0.171  1.00  0.00    -0.311 N 
ATOM     17  H52 UNL     1       4.226   0.316  -0.410  1.00  0.00     0.170 HD
ATOM     18  H51 UNL     1       4.455  -1.463  -0.075  1.00  0.00     0.170 HD
ENDBRANCH  13  16
ENDBRANCH  11  13
ENDBRANCH   8  11
BRANCH   1  19
HETATM   19  N1  UNL     1      -2.917  -1.366   0.693  1.00  0.00    -0.234 N 
ATOM     20  H12 UNL     1      -3.926  -1.232   0.765  1.00  0.00     0.174 HD
ATOM     21  H11 UNL     1      -2.508  -2.292   0.818  1.00  0.00     0.174 HD
ENDBRANCH   1  19
TORSDOF 4
