REMARK  6 active torsions:
REMARK  status: ('A' for Active; 'I' for Inactive)
REMARK    1  A    between atoms: N1_1  and  N2_4 
REMARK    2  A    between atoms: C1_6  and  N3_7 
REMARK    3  A    between atoms: N3_7  and  N4_8 
REMARK    4  A    between atoms: N3_7  and  C3_13 
REMARK    5  A    between atoms: C3_13  and  O1_14 
REMARK    6  A    between atoms: C3_13  and  C4_16 
ROOT
HETATM    1  N3  UNL     1      -0.259  -0.461  -0.292  1.00  0.00    -0.224 N 
ENDROOT
BRANCH   1   2
HETATM    2  C1  UNL     1      -0.430   0.766  -0.906  1.00  0.00     0.225 C 
HETATM    3  N2  UNL     1      -1.535   0.926  -1.640  1.00  0.00    -0.301 N 
ATOM      4  H2  UNL     1      -2.198   0.155  -1.720  1.00  0.00     0.187 HD
BRANCH   3   5
HETATM    5  N1  UNL     1      -1.796   2.109  -2.290  1.00  0.00    -0.344 N 
ATOM      6  H12 UNL     1      -1.123   2.870  -2.200  1.00  0.00     0.176 HD
ATOM      7  H11 UNL     1      -2.640   2.231  -2.850  1.00  0.00     0.176 HD
ENDBRANCH   3   5
ENDBRANCH   1   2
BRANCH   1   8
HETATM    8  N4  UNL     1      -1.309  -1.416  -0.529  1.00  0.00    -0.266 N 
HETATM    9  C2  UNL     1      -2.432  -1.297   0.095  1.00  0.00     0.216 C 
HETATM   10  N5  UNL     1      -3.429  -2.271  -0.181  1.00  0.00    -0.065 NA
HETATM   11  N6  UNL     1      -2.713  -0.260   1.025  1.00  0.00    -0.065 NA
ATOM     12  H4  UNL     1      -1.166  -2.183  -1.187  1.00  0.00     0.190 HD
ENDBRANCH   1   8
BRANCH   1  13
HETATM   13  C3  UNL     1       0.792  -0.867   0.511  1.00  0.00     0.191 C 
BRANCH  13  14
HETATM   14  O1  UNL     1       0.648  -2.103   0.938  1.00  0.00    -0.343 OA
ATOM     15  H1  UNL     1       1.370  -2.382   1.489  1.00  0.00     0.219 HD
ENDBRANCH  13  14
BRANCH  13  16
HETATM   16  C4  UNL     1       1.991  -0.202   0.958  1.00  0.00     0.106 A 
HETATM   17  C5  UNL     1       2.937  -0.828   1.790  1.00  0.00     0.111 A 
HETATM   18  C6  UNL     1       3.950   0.062   2.030  1.00  0.00     0.262 A 
HETATM   19  O2  UNL     1       4.980  -0.178   2.751  1.00  0.00    -0.267 OA
HETATM   20  N7  UNL     1       3.648   1.176   1.384  1.00  0.00    -0.266 N 
HETATM   21  N8  UNL     1       2.477   1.022   0.741  1.00  0.00    -0.294 N 
ATOM     22  H7  UNL     1       4.217   2.023   1.375  1.00  0.00     0.190 HD
ATOM     23  H8  UNL     1       2.026   1.737   0.170  1.00  0.00     0.187 HD
ENDBRANCH  13  16
ENDBRANCH   1  13
TORSDOF 6
