REMARK  3 active torsions:
REMARK  status: ('A' for Active; 'I' for Inactive)
REMARK       I    between atoms: C1_4  and  N3_6 
REMARK    1  A    between atoms: N3_6  and  C2_8 
REMARK    2  A    between atoms: C4_12  and  S1_13 
REMARK    3  A    between atoms: S1_13  and  N5_14 
ROOT
HETATM    1  C2  UNL     1      -1.100  -0.040   0.784  1.00  0.00     0.684 A 
HETATM    2  N4  UNL     1      -0.262   0.290   1.761  1.00  0.00    -0.200 N 
ATOM      3  H4  UNL     1      -0.604   0.325   2.721  1.00  0.00     0.183 HD
HETATM    4  C3  UNL     1       1.027   0.579   1.510  1.00  0.00     0.132 A 
HETATM    5  C4  UNL     1       1.474   0.528   0.216  1.00  0.00     0.111 A 
HETATM    6  C5  UNL     1       0.597   0.184  -0.792  1.00  0.00     0.132 A 
HETATM    7  N6  UNL     1      -0.682  -0.096  -0.488  1.00  0.00    -0.200 N 
ATOM      8  H6  UNL     1      -1.336  -0.352  -1.228  1.00  0.00     0.183 HD
ENDROOT
BRANCH   1   9
HETATM    9  N3  UNL     1      -2.347  -0.313   1.076  1.00  0.00    -0.164 N 
HETATM   10  C1  UNL     1      -3.292  -0.671   0.097  1.00  0.00     0.200 C 
HETATM   11  N1  UNL     1      -3.256  -1.857  -0.458  1.00  0.00    -0.373 N 
HETATM   12  N2  UNL     1      -4.322   0.189  -0.354  1.00  0.00    -0.063 NA
ATOM     13  H12 UNL     1      -3.941  -2.117  -1.168  1.00  0.00     0.158 HD
ATOM     14  H11 UNL     1      -2.514  -2.477  -0.133  1.00  0.00     0.158 HD
ATOM     15  H3  UNL     1      -2.645  -0.264   2.050  1.00  0.00     0.187 HD
ENDBRANCH   1   9
BRANCH   5  16
HETATM   16  S1  UNL     1       3.120   0.879  -0.246  1.00  0.00     0.259 S 
HETATM   17  O1  UNL     1       3.622   1.934   0.731  1.00  0.00    -0.201 OA
HETATM   18  O2  UNL     1       3.086   1.546  -1.589  1.00  0.00    -0.201 OA
BRANCH  16  19
HETATM   19  N5  UNL     1       4.124  -0.488  -0.236  1.00  0.00    -0.324 N 
ATOM     20  H52 UNL     1       3.784  -1.416   0.017  1.00  0.00     0.169 HD
ATOM     21  H51 UNL     1       5.086  -0.283  -0.506  1.00  0.00     0.169 HD
ENDBRANCH  16  19
ENDBRANCH   5  16
TORSDOF 3
