REMARK  1 active torsions:
REMARK  status: ('A' for Active; 'I' for Inactive)
REMARK    1  A    between atoms: C8_11  and  O2_13 
ROOT
HETATM    1  C1  UNL     1       3.962  -0.529  -0.401  1.00  0.00     0.043 C 
HETATM    2  C2  UNL     1       2.658  -0.330  -0.320  1.00  0.00     0.027 A 
HETATM    3  C3  UNL     1       2.135   0.841   0.210  1.00  0.00     0.059 A 
HETATM    4  C4  UNL     1       0.779   1.039   0.289  1.00  0.00     0.054 A 
HETATM    5  C5  UNL     1      -0.089   0.038  -0.175  1.00  0.00     0.078 A 
HETATM    6  C6  UNL     1       0.498  -1.093  -0.686  1.00  0.00     0.259 A 
HETATM    7  O1  UNL     1      -0.208  -2.026  -1.117  1.00  0.00    -0.267 OA
HETATM    8  N1  UNL     1       1.836  -1.283  -0.762  1.00  0.00    -0.324 N 
ATOM      9  H1  UNL     1       2.212  -2.147  -1.153  1.00  0.00     0.169 HD
HETATM   10  C7  UNL     1      -1.337   0.412  -0.012  1.00  0.00     0.098 A 
HETATM   11  C8  UNL     1      -2.569  -0.231  -0.315  1.00  0.00     0.166 C 
HETATM   12  N2  UNL     1      -3.286  -0.508   0.958  1.00  0.00    -0.074 NA
HETATM   13  C9  UNL     1      -1.308   1.764   0.609  1.00  0.00     0.261 A 
HETATM   14  O3  UNL     1      -2.297   2.469   0.927  1.00  0.00    -0.267 OA
HETATM   15  N3  UNL     1       0.025   2.124   0.783  1.00  0.00    -0.322 N 
ATOM     16  H3  UNL     1       0.382   2.991   1.184  1.00  0.00     0.169 HD
ENDROOT
BRANCH  11  17
HETATM   17  O2  UNL     1      -2.783  -1.247  -1.119  1.00  0.00    -0.348 OA
ATOM     18  H2  UNL     1      -3.606  -1.676  -1.321  1.00  0.00     0.219 HD
ENDBRANCH  11  17
TORSDOF 1
