REMARK  3 active torsions:
REMARK  status: ('A' for Active; 'I' for Inactive)
REMARK    1  A    between atoms: N1_1  and  N2_4 
REMARK    2  A    between atoms: N2_4  and  C1_6 
REMARK    3  A    between atoms: N6_16  and  S1_18 
ROOT
HETATM    1  C1  UNL     1      -0.182   0.300   0.169  1.00  0.00     0.170 A 
HETATM    2  N3  UNL     1      -1.455   0.738   0.377  1.00  0.00    -0.289 N 
ATOM      3  H3  UNL     1      -1.625   1.593   0.906  1.00  0.00     0.172 HD
HETATM    4  C2  UNL     1      -2.480   0.035  -0.120  1.00  0.00     0.340 A 
HETATM    5  O1  UNL     1      -3.669   0.434   0.069  1.00  0.00    -0.245 OA
HETATM    6  N4  UNL     1      -2.234  -1.092  -0.817  1.00  0.00    -0.250 N 
ATOM      7  H4  UNL     1      -3.026  -1.616  -1.189  1.00  0.00     0.192 HD
HETATM    8  N5  UNL     1      -1.029  -1.544  -1.038  1.00  0.00    -0.278 N 
ATOM      9  H5  UNL     1      -0.890  -2.402  -1.572  1.00  0.00     0.189 HD
HETATM   10  C3  UNL     1       0.056  -0.847  -0.541  1.00  0.00     0.176 A 
HETATM   11  N6  UNL     1       1.210  -1.320  -0.779  1.00  0.00    -0.252 N 
ATOM     12  H6  UNL     1       1.222  -2.183  -1.323  1.00  0.00     0.181 HD
ENDROOT
BRANCH   1  13
HETATM   13  N2  UNL     1       0.802   0.979   0.648  1.00  0.00    -0.289 N 
ATOM     14  H2  UNL     1       1.746   0.632   0.478  1.00  0.00     0.188 HD
BRANCH  13  15
HETATM   15  N1  UNL     1       0.668   2.142   1.374  1.00  0.00    -0.344 N 
ATOM     16  H12 UNL     1      -0.283   2.474   1.534  1.00  0.00     0.176 HD
ATOM     17  H11 UNL     1       1.447   2.680   1.753  1.00  0.00     0.176 HD
ENDBRANCH  13  15
ENDBRANCH   1  13
BRANCH  11  18
HETATM   18  S1  UNL     1       2.727  -0.732  -0.329  1.00  0.00     0.360 S 
HETATM   19  O2  UNL     1       3.844  -1.530  -1.015  1.00  0.00    -0.187 OA
HETATM   20  O3  UNL     1       3.037  -0.892   1.153  1.00  0.00    -0.187 OA
ENDBRANCH  11  18
TORSDOF 3
