REMARK  9 active torsions:
REMARK  status: ('A' for Active; 'I' for Inactive)
REMARK    1  A    between atoms: C2_7  and  C3_8 
REMARK    2  A    between atoms: C3_8  and  C4_9 
REMARK       I    between atoms: N4_18  and  C10_19 
REMARK    3  A    between atoms: C10_19  and  C11_21 
REMARK    4  A    between atoms: C11_21  and  C12_22 
REMARK    5  A    between atoms: C12_22  and  C13_23 
REMARK    6  A    between atoms: C13_23  and  C14_24 
REMARK    7  A    between atoms: C14_24  and  C15_25 
REMARK    8  A    between atoms: C15_25  and  C16_26 
REMARK    9  A    between atoms: C16_26  and  N5_27 
ROOT
HETATM    1  N1  UNL     1       0.639  -2.100  -1.392  1.00  0.00    -0.371 N 
ATOM      2  H11 UNL     1       1.593  -1.993  -1.047  1.00  0.00     0.159 HD
ATOM      3  H12 UNL     1       0.609  -2.870  -2.060  1.00  0.00     0.159 HD
HETATM    4  C1  UNL     1      -0.390  -1.392  -1.061  1.00  0.00     0.178 C 
HETATM    5  N2  UNL     1      -1.743  -1.544  -1.551  1.00  0.00    -0.356 N 
ATOM      6  H2  UNL     1      -2.158  -2.346  -2.025  1.00  0.00     0.163 HD
HETATM    7  C2  UNL     1      -2.362  -0.294  -1.210  1.00  0.00     0.104 C 
HETATM    8  C9  UNL     1      -1.750   0.066   0.090  1.00  0.00     0.160 C 
HETATM    9  N4  UNL     1      -0.348  -0.325  -0.136  1.00  0.00    -0.288 N 
HETATM   10  C10 UNL     1       0.755   0.316   0.508  1.00  0.00     0.226 C 
HETATM   11  O2  UNL     1       0.565   1.266   1.315  1.00  0.00    -0.273 OA
ENDROOT
BRANCH  10  12
HETATM   12  C11 UNL     1       2.151  -0.112   0.251  1.00  0.00     0.103 C 
BRANCH  12  13
HETATM   13  C12 UNL     1       3.083   0.707   1.075  1.00  0.00     0.009 C 
BRANCH  13  14
HETATM   14  C13 UNL     1       4.532   0.269   0.811  1.00  0.00     0.001 C 
BRANCH  14  15
HETATM   15  C14 UNL     1       5.407   1.114   1.653  1.00  0.00     0.002 C 
BRANCH  15  16
HETATM   16  C15 UNL     1       6.866   0.870   1.629  1.00  0.00     0.027 C 
BRANCH  16  17
HETATM   17  C16 UNL     1       7.507   1.040   0.294  1.00  0.00     0.229 C 
BRANCH  17  18
HETATM   18  N5  UNL     1       7.015   0.116  -0.693  1.00  0.00    -0.079 N 
ATOM     19  H53 UNL     1       7.106  -0.846  -0.367  1.00  0.00     0.274 HD
ATOM     20  H52 UNL     1       5.999   0.172  -0.768  1.00  0.00     0.274 HD
ATOM     21  H51 UNL     1       7.454   0.232  -1.607  1.00  0.00     0.274 HD
ENDBRANCH  17  18
ENDBRANCH  16  17
ENDBRANCH  15  16
ENDBRANCH  14  15
ENDBRANCH  13  14
ENDBRANCH  12  13
ENDBRANCH  10  12
BRANCH   7  22
HETATM   22  C3  UNL     1      -3.804  -0.200  -1.395  1.00  0.00     0.041 C 
BRANCH  22  23
HETATM   23  C4  UNL     1      -4.717  -1.129  -0.686  1.00  0.00     0.080 C 
HETATM   24  C5  UNL     1      -6.138  -0.757  -1.107  1.00  0.00     0.015 C 
HETATM   25  C6  UNL     1      -6.936  -0.011  -0.113  1.00  0.00     0.020 C 
HETATM   26  C7  UNL     1      -6.165   0.901   0.789  1.00  0.00     0.122 C 
HETATM   27  N3  UNL     1      -5.048   0.151   1.404  1.00  0.00    -0.361 N 
HETATM   28  C8  UNL     1      -4.680  -1.072   0.784  1.00  0.00     0.221 C 
ATOM     29  H3  UNL     1      -4.565   0.496   2.234  1.00  0.00     0.162 HD
HETATM   30  O1  UNL     1      -4.346  -2.041   1.478  1.00  0.00    -0.273 OA
ENDBRANCH  22  23
ENDBRANCH   7  22
TORSDOF 9
