REMARK  11 active torsions:
REMARK  status: ('A' for Active; 'I' for Inactive)
REMARK    1  A    between atoms: C3_3  and  C4_4 
REMARK    2  A    between atoms: C4_4  and  N1_5 
REMARK    3  A    between atoms: N1_5  and  C6_7 
REMARK    4  A    between atoms: C6_7  and  C7_8 
REMARK    5  A    between atoms: C7_8  and  C8_9 
REMARK    6  A    between atoms: C8_9  and  N2_10 
REMARK    7  A    between atoms: N2_10  and  C9_12 
REMARK    8  A    between atoms: C10_15  and  N4_16 
REMARK    9  A    between atoms: C11_21  and  N6_22 
REMARK       I    between atoms: N6_22  and  C12_24 
REMARK   10  A    between atoms: C12_24  and  C13_26 
REMARK   11  A    between atoms: C13_26  and  C14_27 
ROOT
HETATM    1  C1  UNL     1      -5.444   2.569   1.837  1.00  0.00     0.012 C 
HETATM    2  C2  UNL     1      -5.704   1.424   1.567  1.00  0.00    -0.116 C 
HETATM    3  C3  UNL     1      -6.015   0.025   1.210  1.00  0.00     0.112 C 
ENDROOT
BRANCH   3   4
HETATM    4  C4  UNL     1      -5.002  -0.533   0.253  1.00  0.00     0.128 C 
BRANCH   4   5
HETATM    5  N1  UNL     1      -3.708  -0.490   0.872  1.00  0.00    -0.416 N 
HETATM    6  C5  UNL     1      -3.529  -1.367   1.970  1.00  0.00     0.143 C 
BRANCH   5   7
HETATM    7  C6  UNL     1      -2.622  -0.322  -0.023  1.00  0.00     0.118 C 
BRANCH   7   8
HETATM    8  C7  UNL     1      -2.365  -1.482  -0.926  1.00  0.00     0.039 C 
BRANCH   8   9
HETATM    9  C8  UNL     1      -1.186  -1.216  -1.861  1.00  0.00     0.139 C 
BRANCH   9  10
HETATM   10  N2  UNL     1       0.039  -0.970  -1.201  1.00  0.00    -0.225 N 
ATOM     11  H2  UNL     1       0.534  -1.777  -0.822  1.00  0.00     0.177 HD
BRANCH  10  12
HETATM   12  C9  UNL     1       0.582   0.178  -1.037  1.00  0.00     0.707 A 
HETATM   13  N3  UNL     1       0.054   1.339  -1.479  1.00  0.00    -0.022 N 
HETATM   14  C10 UNL     1       0.640   2.540  -1.302  1.00  0.00     0.705 A 
ATOM     15  H3  UNL     1      -0.837   1.306  -1.974  1.00  0.00     0.203 HD
HETATM   16  N5  UNL     1       1.802   2.573  -0.656  1.00  0.00    -0.021 N 
HETATM   17  C11 UNL     1       2.402   1.439  -0.177  1.00  0.00     0.714 A 
ATOM     18  H5  UNL     1       2.261   3.472  -0.513  1.00  0.00     0.203 HD
HETATM   19  N7  UNL     1       1.780   0.282  -0.380  1.00  0.00    -0.021 N 
ATOM     20  H7  UNL     1       2.216  -0.571  -0.029  1.00  0.00     0.203 HD
BRANCH  14  21
HETATM   21  N4  UNL     1       0.132   3.653  -1.727  1.00  0.00    -0.234 N 
ATOM     22  H42 UNL     1      -0.759   3.628  -2.222  1.00  0.00     0.174 HD
ATOM     23  H41 UNL     1       0.575   4.562  -1.593  1.00  0.00     0.174 HD
ENDBRANCH  14  21
BRANCH  17  24
HETATM   24  N6  UNL     1       3.528   1.591   0.428  1.00  0.00    -0.159 N 
HETATM   25  C12 UNL     1       4.197   0.455   0.945  1.00  0.00     0.235 C 
HETATM   26  O1  UNL     1       3.684  -0.267   1.831  1.00  0.00    -0.273 OA
ATOM     27  H6  UNL     1       3.934   2.521   0.534  1.00  0.00     0.187 HD
BRANCH  25  28
HETATM   28  C13 UNL     1       5.551   0.057   0.466  1.00  0.00     0.103 C 
BRANCH  28  29
HETATM   29  C14 UNL     1       6.027  -1.247   1.011  1.00  0.00     0.005 C 
HETATM   30  C15 UNL     1       7.409  -1.520   0.455  1.00  0.00     0.005 C 
ENDBRANCH  28  29
ENDBRANCH  25  28
ENDBRANCH  17  24
ENDBRANCH  10  12
ENDBRANCH   9  10
ENDBRANCH   8   9
ENDBRANCH   7   8
ENDBRANCH   5   7
ENDBRANCH   4   5
ENDBRANCH   3   4
TORSDOF 11
