REMARK  10 active torsions:
REMARK  status: ('A' for Active; 'I' for Inactive)
REMARK    1  A    between atoms: C1_2  and  N1_3 
REMARK    2  A    between atoms: N1_3  and  C2_5 
REMARK    3  A    between atoms: C2_5  and  C3_6 
REMARK    4  A    between atoms: C3_6  and  C4_7 
REMARK    5  A    between atoms: C4_7  and  C5_8 
REMARK    6  A    between atoms: C6_11  and  C7_12 
REMARK    7  A    between atoms: C7_12  and  C8_13 
REMARK    8  A    between atoms: C8_13  and  O2_14 
REMARK    9  A    between atoms: C9_16  and  O3_17 
REMARK   10  A    between atoms: C10_19  and  C11_20 
ROOT
HETATM    1  C5  UNL     1       0.960  -0.012  -0.055  1.00  0.00     0.169 C 
HETATM    2  N2  UNL     1       0.161  -1.036  -0.577  1.00  0.00    -0.402 N 
ATOM      3  H2  UNL     1       0.556  -1.716  -1.227  1.00  0.00     0.154 HD
HETATM    4  C6  UNL     1      -1.205  -1.120  -0.194  1.00  0.00     0.110 C 
HETATM    5  C9  UNL     1      -2.141  -0.281  -0.973  1.00  0.00     0.163 C 
HETATM    6  C10 UNL     1      -2.086   1.175  -0.781  1.00  0.00     0.119 C 
HETATM    7  N3  UNL     1      -0.825   1.794  -0.615  1.00  0.00    -0.352 N 
ATOM      8  H3  UNL     1      -0.754   2.730  -1.013  1.00  0.00     0.163 HD
HETATM    9  C14 UNL     1       0.343   1.331   0.007  1.00  0.00     0.240 C 
HETATM   10  O4  UNL     1       1.001   2.143   0.737  1.00  0.00    -0.271 OA
ENDROOT
BRANCH   1  11
HETATM   11  C4  UNL     1       2.182   0.132  -0.935  1.00  0.00     0.036 C 
BRANCH  11  12
HETATM   12  C3  UNL     1       2.975  -1.131  -0.978  1.00  0.00     0.022 C 
BRANCH  12  13
HETATM   13  C2  UNL     1       3.451  -1.482   0.407  1.00  0.00     0.122 C 
BRANCH  13  14
HETATM   14  N1  UNL     1       4.263  -0.402   0.932  1.00  0.00    -0.368 N 
ATOM     15  H1  UNL     1       3.947   0.064   1.782  1.00  0.00     0.161 HD
BRANCH  14  16
HETATM   16  C1  UNL     1       5.464   0.044   0.339  1.00  0.00     0.348 C 
HETATM   17  O1  UNL     1       5.944  -0.476  -0.723  1.00  0.00    -0.284 OA
ENDBRANCH  14  16
ENDBRANCH  13  14
ENDBRANCH  12  13
ENDBRANCH  11  12
ENDBRANCH   1  11
BRANCH   4  18
HETATM   18  C7  UNL     1      -1.407  -1.082   1.304  1.00  0.00     0.053 C 
BRANCH  18  19
HETATM   19  C8  UNL     1      -0.677  -2.266   1.888  1.00  0.00     0.166 C 
BRANCH  19  20
HETATM   20  O2  UNL     1      -1.257  -3.408   1.309  1.00  0.00    -0.401 OA
ATOM     21  H2  UNL     1      -0.797  -4.154   1.677  1.00  0.00     0.209 HD
ENDBRANCH  19  20
ENDBRANCH  18  19
ENDBRANCH   4  18
BRANCH   5  22
HETATM   22  O3  UNL     1      -1.982  -0.601  -2.327  1.00  0.00    -0.391 OA
ATOM     23  H3  UNL     1      -2.583  -0.062  -2.827  1.00  0.00     0.210 HD
ENDBRANCH   5  22
BRANCH   6  24
HETATM   24  C11 UNL     1      -3.026   1.667   0.329  1.00  0.00     0.011 A 
HETATM   25  C12 UNL     1      -3.011   3.163   0.573  1.00  0.00     0.007 A 
HETATM   26  C13 UNL     1      -4.188   2.580  -0.068  1.00  0.00     0.007 A 
ENDBRANCH   6  24
TORSDOF 10
