REMARK  13 active torsions:
REMARK  status: ('A' for Active; 'I' for Inactive)
REMARK    1  A    between atoms: C2_2  and  C3_3 
REMARK    2  A    between atoms: C3_3  and  N1_5 
REMARK    3  A    between atoms: C3_3  and  C5_9 
REMARK    4  A    between atoms: C5_9  and  N2_10 
REMARK    5  A    between atoms: N2_10  and  C6_12 
REMARK    6  A    between atoms: C7_15  and  N4_16 
REMARK    7  A    between atoms: N4_16  and  C8_18 
REMARK    8  A    between atoms: C8_18  and  C9_19 
REMARK    9  A    between atoms: C10_23  and  N6_24 
REMARK   10  A    between atoms: N6_24  and  C11_26 
REMARK   11  A    between atoms: C11_26  and  C12_27 
REMARK   12  A    between atoms: C12_27  and  C13_28 
REMARK   13  A    between atoms: C13_28  and  N7_29 
ROOT
HETATM    1  C6  UNL     1      -0.078  -0.123   0.190  1.00  0.00     0.707 A 
HETATM    2  N3  UNL     1       0.109   1.149  -0.180  1.00  0.00    -0.022 N 
ATOM      3  H3  UNL     1      -0.678   1.707  -0.511  1.00  0.00     0.203 HD
HETATM    4  C7  UNL     1       1.338   1.689  -0.114  1.00  0.00     0.707 A 
HETATM    5  N5  UNL     1       2.397   0.982   0.317  1.00  0.00    -0.022 N 
ATOM      6  H5  UNL     1       3.322   1.409   0.360  1.00  0.00     0.203 HD
HETATM    7  C10 UNL     1       2.218  -0.297   0.690  1.00  0.00     0.707 A 
HETATM    8  N8  UNL     1       0.975  -0.826   0.618  1.00  0.00    -0.022 N 
ATOM      9  H8  UNL     1       0.836  -1.796   0.901  1.00  0.00     0.203 HD
ENDROOT
BRANCH   1  10
HETATM   10  N2  UNL     1      -1.226  -0.646   0.134  1.00  0.00    -0.223 N 
ATOM     11  H2  UNL     1      -1.302  -1.619   0.430  1.00  0.00     0.177 HD
BRANCH  10  12
HETATM   12  C5  UNL     1      -2.430  -0.011  -0.302  1.00  0.00     0.176 C 
BRANCH  12  13
HETATM   13  C3  UNL     1      -3.638  -0.796   0.157  1.00  0.00     0.136 C 
HETATM   14  C4  UNL     1      -3.543  -2.183  -0.394  1.00  0.00     0.048 C 
BRANCH  13  15
HETATM   15  C2  UNL     1      -4.899  -0.110  -0.314  1.00  0.00     0.035 C 
HETATM   16  C1  UNL     1      -6.138  -0.836   0.108  1.00  0.00     0.007 C 
ENDBRANCH  13  15
BRANCH  13  17
HETATM   17  N1  UNL     1      -3.646  -0.755   1.609  1.00  0.00    -0.069 N 
ATOM     18  H13 UNL     1      -3.751   0.188   1.982  1.00  0.00     0.275 HD
ATOM     19  H12 UNL     1      -4.493  -1.152   2.016  1.00  0.00     0.275 HD
ATOM     20  H11 UNL     1      -2.795  -1.218   1.927  1.00  0.00     0.275 HD
ENDBRANCH  13  17
ENDBRANCH  12  13
ENDBRANCH  10  12
ENDBRANCH   1  10
BRANCH   4  21
HETATM   21  N4  UNL     1       1.569   2.920  -0.462  1.00  0.00    -0.219 N 
ATOM     22  H4  UNL     1       2.523   3.275  -0.390  1.00  0.00     0.178 HD
BRANCH  21  23
HETATM   23  C8  UNL     1       0.543   3.805  -0.944  1.00  0.00     0.207 C 
BRANCH  23  24
HETATM   24  C9  UNL     1       1.081   5.208  -0.905  1.00  0.00     0.251 C 
HETATM   25  O1  UNL     1       2.204   5.468  -0.518  1.00  0.00    -0.305 OA
ENDBRANCH  23  24
ENDBRANCH  21  23
ENDBRANCH   4  21
BRANCH   7  26
HETATM   26  N6  UNL     1       3.197  -1.036   1.116  1.00  0.00    -0.225 N 
ATOM     27  H6  UNL     1       2.982  -1.997   1.382  1.00  0.00     0.177 HD
BRANCH  26  28
HETATM   28  C11 UNL     1       4.560  -0.601   1.241  1.00  0.00     0.139 C 
BRANCH  28  29
HETATM   29  C12 UNL     1       5.236  -0.737  -0.114  1.00  0.00     0.047 C 
BRANCH  29  30
HETATM   30  C13 UNL     1       5.233  -2.151  -0.609  1.00  0.00     0.231 C 
BRANCH  30  31
HETATM   31  N7  UNL     1       3.886  -2.663  -0.761  1.00  0.00    -0.079 N 
ATOM     32  H73 UNL     1       3.353  -2.571   0.104  1.00  0.00     0.274 HD
ATOM     33  H72 UNL     1       3.324  -2.058  -1.360  1.00  0.00     0.274 HD
ATOM     34  H71 UNL     1       3.884  -3.626  -1.098  1.00  0.00     0.274 HD
ENDBRANCH  30  31
ENDBRANCH  29  30
ENDBRANCH  28  29
ENDBRANCH  26  28
ENDBRANCH   7  26
TORSDOF 13
