REMARK  18 active torsions:
REMARK  status: ('A' for Active; 'I' for Inactive)
REMARK    1  A    between atoms: N1_2  and  N2_3 
REMARK    2  A    between atoms: N2_3  and  C2_4 
REMARK    3  A    between atoms: C2_4  and  C3_5 
REMARK    4  A    between atoms: C3_5  and  C4_6 
REMARK    5  A    between atoms: C4_6  and  C5_7 
REMARK    6  A    between atoms: C4_6  and  N4_12 
REMARK    7  A    between atoms: C5_7  and  N3_8 
REMARK    8  A    between atoms: N4_12  and  C6_14 
REMARK    9  A    between atoms: C6_14  and  C7_15 
REMARK   10  A    between atoms: C8_17  and  C9_18 
REMARK   11  A    between atoms: C9_18  and  N5_19 
REMARK   12  A    between atoms: N5_19  and  C10_22 
REMARK   13  A    between atoms: C11_23  and  N6_24 
REMARK   14  A    between atoms: C12_28  and  O2_29 
REMARK   15  A    between atoms: C13_31  and  O3_32 
REMARK   16  A    between atoms: C14_34  and  N7_35 
REMARK   17  A    between atoms: C15_39  and  O4_40 
REMARK   18  A    between atoms: C16_42  and  N8_43 
ROOT
HETATM    1  C9  UNL     1      -2.443  -0.109  -0.878  1.00  0.00     0.266 C 
ENDROOT
BRANCH   1   2
HETATM    2  C8  UNL     1      -1.063  -0.397  -1.381  1.00  0.00     0.172 C 
HETATM    3  O1  UNL     1      -0.153   0.690  -1.256  1.00  0.00    -0.373 OA
HETATM    4  C7  UNL     1       0.842  -0.305  -1.157  1.00  0.00     0.164 C 
HETATM    5  C16 UNL     1      -0.142  -1.139  -0.423  1.00  0.00     0.143 C 
BRANCH   4   6
HETATM    6  C6  UNL     1       2.094   0.149  -0.481  1.00  0.00     0.148 C 
BRANCH   6   7
HETATM    7  N4  UNL     1       3.025  -0.935  -0.386  1.00  0.00    -0.413 N 
ATOM      8  H4  UNL     1       2.780  -1.886  -0.662  1.00  0.00     0.153 HD
BRANCH   7   9
HETATM    9  C4  UNL     1       4.328  -0.598   0.124  1.00  0.00     0.103 C 
BRANCH   9  10
HETATM   10  C3  UNL     1       5.031   0.286  -0.842  1.00  0.00     0.043 C 
BRANCH  10  11
HETATM   11  C2  UNL     1       6.372   0.800  -0.374  1.00  0.00     0.132 C 
BRANCH  11  12
HETATM   12  N2  UNL     1       6.335   1.584   0.813  1.00  0.00    -0.149 NA
BRANCH  12  13
HETATM   13  N1  UNL     1       7.639   1.990   1.112  1.00  0.00    -0.153 NA
HETATM   14  C1  UNL     1       7.884   3.357   0.691  1.00  0.00     0.154 C 
ENDBRANCH  12  13
ENDBRANCH  11  12
ENDBRANCH  10  11
ENDBRANCH   9  10
BRANCH   9  15
HETATM   15  C5  UNL     1       5.099  -1.843   0.498  1.00  0.00     0.254 C 
BRANCH  15  16
HETATM   16  N3  UNL     1       5.397  -2.689  -0.614  1.00  0.00    -0.077 N 
ATOM     17  H33 UNL     1       4.545  -2.931  -1.120  1.00  0.00     0.274 HD
ATOM     18  H32 UNL     1       5.886  -2.168  -1.342  1.00  0.00     0.274 HD
ATOM     19  H31 UNL     1       5.917  -3.529  -0.362  1.00  0.00     0.274 HD
ENDBRANCH  15  16
ENDBRANCH   9  15
ENDBRANCH   7   9
ENDBRANCH   6   7
ENDBRANCH   4   6
BRANCH   5  20
HETATM   20  N8  UNL     1      -0.109  -2.546  -0.798  1.00  0.00    -0.378 N 
HETATM   21  C17 UNL     1      -0.861  -3.415  -0.216  1.00  0.00     0.185 C 
HETATM   22  N9  UNL     1      -0.821  -4.778  -0.588  1.00  0.00    -0.097 NA
ATOM     23  H8  UNL     1       0.524  -2.850  -1.538  1.00  0.00     0.160 HD
ENDBRANCH   5  20
ENDBRANCH   1   2
BRANCH   1  24
HETATM   24  N5  UNL     1      -2.450   0.173   0.515  1.00  0.00    -0.064 N 
ATOM     25  H52 UNL     1      -2.111  -0.629   1.046  1.00  0.00     0.277 HD
ATOM     26  H51 UNL     1      -1.725   0.851   0.748  1.00  0.00     0.277 HD
BRANCH  24  27
HETATM   27  C10 UNL     1      -3.744   0.612   1.019  1.00  0.00     0.249 C 
HETATM   28  C11 UNL     1      -4.742  -0.479   0.786  1.00  0.00     0.247 C 
HETATM   29  C12 UNL     1      -6.079   0.064   1.297  1.00  0.00     0.181 C 
HETATM   30  C13 UNL     1      -6.477   1.150   0.333  1.00  0.00     0.182 C 
HETATM   31  C14 UNL     1      -5.501   2.282   0.276  1.00  0.00     0.245 C 
HETATM   32  C15 UNL     1      -4.109   1.976   0.624  1.00  0.00     0.184 C 
BRANCH  28  33
HETATM   33  N6  UNL     1      -4.421  -1.606   1.662  1.00  0.00    -0.070 N 
ATOM     34  H63 UNL     1      -3.459  -1.927   1.548  1.00  0.00     0.274 HD
ATOM     35  H62 UNL     1      -4.364  -1.333   2.643  1.00  0.00     0.274 HD
ATOM     36  H61 UNL     1      -5.101  -2.349   1.503  1.00  0.00     0.274 HD
ENDBRANCH  28  33
BRANCH  29  37
HETATM   37  O2  UNL     1      -7.078  -0.912   1.261  1.00  0.00    -0.391 OA
ATOM     38  H2  UNL     1      -7.908  -0.575   1.578  1.00  0.00     0.210 HD
ENDBRANCH  29  37
BRANCH  30  39
HETATM   39  O3  UNL     1      -6.627   0.563  -0.924  1.00  0.00    -0.391 OA
ATOM     40  H3  UNL     1      -6.878   1.248  -1.532  1.00  0.00     0.210 HD
ENDBRANCH  30  39
BRANCH  31  41
HETATM   41  N7  UNL     1      -5.604   2.855  -1.072  1.00  0.00    -0.070 N 
ATOM     42  H73 UNL     1      -5.469   2.168  -1.814  1.00  0.00     0.274 HD
ATOM     43  H72 UNL     1      -6.554   3.128  -1.323  1.00  0.00     0.274 HD
ATOM     44  H71 UNL     1      -4.938   3.627  -1.111  1.00  0.00     0.274 HD
ENDBRANCH  31  41
BRANCH  32  45
HETATM   45  O4  UNL     1      -3.641   2.866   1.628  1.00  0.00    -0.391 OA
ATOM     46  H4  UNL     1      -3.877   3.750   1.372  1.00  0.00     0.210 HD
ENDBRANCH  32  45
ENDBRANCH  24  27
ENDBRANCH   1  24
TORSDOF 18
