REMARK  20 active torsions:
REMARK  status: ('A' for Active; 'I' for Inactive)
REMARK    1  A    between atoms: N1_1  and  C1_5 
REMARK    2  A    between atoms: C1_5  and  C2_6 
REMARK    3  A    between atoms: C2_6  and  N2_7 
REMARK    4  A    between atoms: N2_7  and  C3_10 
REMARK    5  A    between atoms: C3_10  and  C4_11 
REMARK    6  A    between atoms: C4_11  and  C5_12 
REMARK    7  A    between atoms: C4_11  and  N4_17 
REMARK    8  A    between atoms: C5_12  and  N3_13 
REMARK    9  A    between atoms: N4_17  and  C6_19 
REMARK   10  A    between atoms: C7_20  and  N5_21 
REMARK   11  A    between atoms: N5_21  and  C8_23 
REMARK   12  A    between atoms: C8_23  and  C9_24 
REMARK   13  A    between atoms: C9_24  and  N6_25 
REMARK   14  A    between atoms: C10_29  and  N7_30 
REMARK   15  A    between atoms: C11_34  and  O1_35 
REMARK   16  A    between atoms: O1_35  and  C12_36 
REMARK   17  A    between atoms: C13_37  and  O2_38 
REMARK   18  A    between atoms: C14_40  and  N8_41 
REMARK   19  A    between atoms: C16_46  and  N9_47 
REMARK   20  A    between atoms: C17_51  and  O3_52 
ROOT
HETATM    1  C6  UNL     1      -0.074   1.019  -0.745  1.00  0.00     0.132 C 
HETATM    2  C7  UNL     1       0.172   2.391  -0.526  1.00  0.00     0.134 C 
HETATM    3  C10 UNL     1      -1.190   2.612   0.091  1.00  0.00     0.238 C 
HETATM    4  C11 UNL     1      -1.191   1.204   0.571  1.00  0.00     0.179 C 
ENDROOT
BRANCH   4   5
HETATM    5  O1  UNL     1      -2.119   0.390   0.377  1.00  0.00    -0.371 OA
BRANCH   5   6
HETATM    6  C12 UNL     1      -3.015  -0.441   0.182  1.00  0.00     0.183 C 
HETATM    7  C13 UNL     1      -4.402   0.056  -0.090  1.00  0.00     0.180 C 
HETATM    8  C14 UNL     1      -5.393  -1.064  -0.218  1.00  0.00     0.216 C 
HETATM    9  C15 UNL     1      -4.821  -2.417  -0.146  1.00  0.00     0.071 C 
HETATM   10  C16 UNL     1      -3.996  -2.599   1.117  1.00  0.00     0.216 C 
HETATM   11  C17 UNL     1      -3.120  -1.418   1.451  1.00  0.00     0.180 C 
BRANCH   7  12
HETATM   12  O2  UNL     1      -4.832   0.920   0.960  1.00  0.00    -0.391 OA
ATOM     13  H2  UNL     1      -5.711   1.235   0.788  1.00  0.00     0.210 HD
ENDBRANCH   7  12
BRANCH   8  14
HETATM   14  N8  UNL     1      -6.487  -0.901   0.716  1.00  0.00    -0.072 N 
ATOM     15  H83 UNL     1      -6.151  -0.804   1.674  1.00  0.00     0.274 HD
ATOM     16  H82 UNL     1      -6.935   0.010   0.615  1.00  0.00     0.274 HD
ATOM     17  H81 UNL     1      -7.160  -1.662   0.629  1.00  0.00     0.274 HD
ENDBRANCH   8  14
BRANCH  10  18
HETATM   18  N9  UNL     1      -3.170  -3.827   0.960  1.00  0.00    -0.072 N 
ATOM     19  H93 UNL     1      -3.728  -4.650   0.733  1.00  0.00     0.274 HD
ATOM     20  H92 UNL     1      -2.598  -3.811   0.116  1.00  0.00     0.274 HD
ATOM     21  H91 UNL     1      -2.616  -3.949   1.808  1.00  0.00     0.274 HD
ENDBRANCH  10  18
BRANCH  11  22
HETATM   22  O3  UNL     1      -3.566  -0.713   2.490  1.00  0.00    -0.391 OA
ATOM     23  H3  UNL     1      -3.628  -1.291   3.241  1.00  0.00     0.210 HD
ENDBRANCH  11  22
ENDBRANCH   5   6
ENDBRANCH   4   5
BRANCH   1  24
HETATM   24  N4  UNL     1       0.707  -0.070  -0.394  1.00  0.00    -0.405 N 
ATOM     25  H4  UNL     1       0.281  -0.708   0.278  1.00  0.00     0.154 HD
BRANCH  24  26
HETATM   26  C4  UNL     1       1.934  -0.412  -0.802  1.00  0.00     0.128 C 
BRANCH  26  27
HETATM   27  C3  UNL     1       2.657  -1.298   0.222  1.00  0.00     0.258 C 
BRANCH  27  28
HETATM   28  N2  UNL     1       4.026  -1.494  -0.068  1.00  0.00    -0.072 N 
ATOM     29  H22 UNL     1       4.585  -0.669   0.150  1.00  0.00     0.277 HD
ATOM     30  H21 UNL     1       4.202  -1.532  -1.072  1.00  0.00     0.277 HD
BRANCH  28  31
HETATM   31  C2  UNL     1       4.515  -2.680   0.617  1.00  0.00     0.259 C 
BRANCH  31  32
HETATM   32  C1  UNL     1       5.985  -2.906   0.472  1.00  0.00     0.257 C 
BRANCH  32  33
HETATM   33  N1  UNL     1       6.789  -1.905   1.110  1.00  0.00    -0.078 N 
ATOM     34  H13 UNL     1       6.534  -0.974   0.779  1.00  0.00     0.274 HD
ATOM     35  H12 UNL     1       6.535  -1.813   2.093  1.00  0.00     0.274 HD
ATOM     36  H11 UNL     1       7.792  -2.059   1.011  1.00  0.00     0.274 HD
ENDBRANCH  32  33
ENDBRANCH  31  32
ENDBRANCH  28  31
ENDBRANCH  27  28
ENDBRANCH  26  27
BRANCH  26  37
HETATM   37  C5  UNL     1       1.984  -1.125  -2.180  1.00  0.00     0.256 C 
BRANCH  37  38
HETATM   38  N3  UNL     1       3.235  -1.283  -2.747  1.00  0.00    -0.077 N 
ATOM     39  H33 UNL     1       3.699  -0.377  -2.812  1.00  0.00     0.274 HD
ATOM     40  H32 UNL     1       3.852  -1.761  -2.090  1.00  0.00     0.274 HD
ATOM     41  H31 UNL     1       3.268  -1.751  -3.652  1.00  0.00     0.274 HD
ENDBRANCH  37  38
ENDBRANCH  26  37
ENDBRANCH  24  26
ENDBRANCH   1  24
BRANCH   3  42
HETATM   42  N7  UNL     1      -2.128   2.963  -0.944  1.00  0.00    -0.070 N 
ATOM     43  H73 UNL     1      -1.817   3.765  -1.493  1.00  0.00     0.274 HD
ATOM     44  H72 UNL     1      -2.151   2.274  -1.696  1.00  0.00     0.274 HD
ATOM     45  H71 UNL     1      -3.047   3.112  -0.528  1.00  0.00     0.274 HD
ENDBRANCH   3  42
BRANCH   2  46
HETATM   46  N5  UNL     1       1.152   3.150   0.098  1.00  0.00    -0.411 N 
ATOM     47  H5  UNL     1       1.078   3.433   1.075  1.00  0.00     0.153 HD
BRANCH  46  48
HETATM   48  C8  UNL     1       2.256   3.506  -0.702  1.00  0.00     0.141 C 
BRANCH  48  49
HETATM   49  C9  UNL     1       3.031   4.562   0.136  1.00  0.00     0.248 C 
BRANCH  49  50
HETATM   50  N6  UNL     1       2.087   5.612   0.481  1.00  0.00    -0.078 N 
ATOM     51  H63 UNL     1       1.619   6.012  -0.332  1.00  0.00     0.274 HD
ATOM     52  H62 UNL     1       1.253   5.261   0.952  1.00  0.00     0.274 HD
ATOM     53  H61 UNL     1       2.595   6.305   1.031  1.00  0.00     0.274 HD
ENDBRANCH  49  50
ENDBRANCH  48  49
ENDBRANCH  46  48
ENDBRANCH   2  46
TORSDOF 20
