REMARK  17 active torsions:
REMARK  status: ('A' for Active; 'I' for Inactive)
REMARK    1  A    between atoms: N1_1  and  C1_5 
REMARK    2  A    between atoms: C1_5  and  C2_6 
REMARK    3  A    between atoms: C2_6  and  C3_7 
REMARK    4  A    between atoms: C3_7  and  N2_8 
REMARK    5  A    between atoms: N2_8  and  C4_11 
REMARK    6  A    between atoms: C4_11  and  C5_12 
REMARK    7  A    between atoms: C6_13  and  O1_14 
REMARK    8  A    between atoms: O1_14  and  C7_15 
REMARK    9  A    between atoms: C7_15  and  C8_16 
REMARK   10  A    between atoms: C8_16  and  N3_17 
REMARK       I    between atoms: N3_17  and  C9_19 
REMARK   11  A    between atoms: N5_21  and  N6_23 
REMARK   12  A    between atoms: C10_25  and  N7_26 
REMARK   13  A    between atoms: N7_26  and  N8_28 
REMARK   14  A    between atoms: N8_28  and  N9_29 
REMARK   15  A    between atoms: C11_35  and  N11_36 
REMARK       I    between atoms: N11_36  and  C12_38 
REMARK   16  A    between atoms: C13_41  and  O3_42 
REMARK   17  A    between atoms: C14_44  and  O4_45 
ROOT
HETATM    1  C5  UNL     1      -2.007  -0.804  -0.084  1.00  0.00     0.099 C 
HETATM    2  C6  UNL     1      -1.008  -1.434   0.865  1.00  0.00     0.331 C 
HETATM    3  N10 UNL     1      -1.548  -2.770   1.188  1.00  0.00    -0.025 N 
ATOM      4 1H10 UNL     1      -2.524  -2.778   1.486  1.00  0.00     0.282 HD
ATOM      5 2H10 UNL     1      -1.180  -3.186   2.043  1.00  0.00     0.282 HD
HETATM    6  C11 UNL     1      -1.269  -3.531  -0.042  1.00  0.00     0.322 C 
HETATM    7  C13 UNL     1      -2.239  -3.111  -1.093  1.00  0.00     0.197 C 
HETATM    8  C14 UNL     1      -2.384  -1.628  -1.248  1.00  0.00     0.160 C 
ENDROOT
BRANCH   2   9
HETATM    9  O1  UNL     1      -0.887  -0.655   1.982  1.00  0.00    -0.357 OA
BRANCH   9  10
HETATM   10  C7  UNL     1       0.386  -0.221   2.278  1.00  0.00     0.190 C 
BRANCH  10  11
HETATM   11  C8  UNL     1       1.028   0.628   1.209  1.00  0.00     0.148 C 
BRANCH  11  12
HETATM   12  N3  UNL     1       2.351   1.004   1.664  1.00  0.00    -0.361 N 
HETATM   13  C9  UNL     1       3.140   1.804   0.771  1.00  0.00     0.203 C 
HETATM   14  N4  UNL     1       3.849   2.898   1.314  1.00  0.00    -0.062 NA
HETATM   15  N5  UNL     1       3.174   1.504  -0.467  1.00  0.00    -0.273 N 
ATOM     16  H5  UNL     1       2.649   0.707  -0.825  1.00  0.00     0.189 HD
ATOM     17  H3  UNL     1       2.705   0.714   2.576  1.00  0.00     0.162 HD
BRANCH  15  18
HETATM   18  N6  UNL     1       3.951   2.296  -1.326  1.00  0.00    -0.293 N 
HETATM   19  C10 UNL     1       5.248   2.136  -1.335  1.00  0.00     0.212 C 
ATOM     20  H6  UNL     1       3.510   2.986  -1.934  1.00  0.00     0.187 HD
BRANCH  19  21
HETATM   21  N7  UNL     1       6.019   2.954  -2.217  1.00  0.00    -0.279 N 
ATOM     22  H7  UNL     1       5.839   3.957  -2.267  1.00  0.00     0.185 HD
BRANCH  21  23
HETATM   23  N8  UNL     1       7.014   2.389  -3.007  1.00  0.00    -0.029 NA
BRANCH  23  24
HETATM   24  N9  UNL     1       8.260   2.847  -2.566  1.00  0.00    -0.329 N 
ATOM     25  H92 UNL     1       8.400   3.492  -1.788  1.00  0.00     0.174 HD
ATOM     26  H91 UNL     1       8.990   2.433  -3.146  1.00  0.00     0.174 HD
ENDBRANCH  23  24
ENDBRANCH  21  23
ENDBRANCH  19  21
ENDBRANCH  15  18
ENDBRANCH  11  12
ENDBRANCH  10  11
ENDBRANCH   9  10
ENDBRANCH   2   9
BRANCH   1  27
HETATM   27  C4  UNL     1      -3.178  -0.356   0.765  1.00  0.00     0.243 C 
BRANCH  27  28
HETATM   28  N2  UNL     1      -4.227   0.267   0.025  1.00  0.00    -0.074 N 
ATOM     29  H22 UNL     1      -5.068   0.345   0.597  1.00  0.00     0.277 HD
ATOM     30  H21 UNL     1      -4.569  -0.360  -0.703  1.00  0.00     0.277 HD
BRANCH  28  31
HETATM   31  C3  UNL     1      -3.884   1.538  -0.533  1.00  0.00     0.233 C 
BRANCH  31  32
HETATM   32  C2  UNL     1      -3.673   2.620   0.486  1.00  0.00     0.055 C 
BRANCH  32  33
HETATM   33  C1  UNL     1      -3.317   3.887  -0.283  1.00  0.00     0.231 C 
BRANCH  33  34
HETATM   34  N1  UNL     1      -3.089   4.999   0.596  1.00  0.00    -0.079 N 
ATOM     35  H13 UNL     1      -3.885   5.152   1.215  1.00  0.00     0.274 HD
ATOM     36  H12 UNL     1      -2.381   4.779   1.297  1.00  0.00     0.274 HD
ATOM     37  H11 UNL     1      -2.851   5.847   0.081  1.00  0.00     0.274 HD
ENDBRANCH  33  34
ENDBRANCH  32  33
ENDBRANCH  31  32
ENDBRANCH  28  31
ENDBRANCH  27  28
ENDBRANCH   1  27
BRANCH   8  38
HETATM   38  O4  UNL     1      -1.566  -1.236  -2.335  1.00  0.00    -0.392 OA
ATOM     39  H4  UNL     1      -1.809  -1.767  -3.085  1.00  0.00     0.210 HD
ENDBRANCH   8  38
BRANCH   6  40
HETATM   40  N11 UNL     1      -1.417  -4.940   0.242  1.00  0.00    -0.315 N 
HETATM   41  C12 UNL     1      -0.350  -5.855   0.206  1.00  0.00     0.330 C 
HETATM   42  N12 UNL     1      -0.555  -7.221   0.492  1.00  0.00    -0.040 NA
HETATM   43  O2  UNL     1       0.797  -5.458  -0.082  1.00  0.00    -0.251 OA
ATOM     44  H11 UNL     1      -2.345  -5.289   0.481  1.00  0.00     0.166 HD
ENDBRANCH   6  40
BRANCH   7  45
HETATM   45  O3  UNL     1      -1.822  -3.662  -2.307  1.00  0.00    -0.389 OA
ATOM     46  H3  UNL     1      -2.440  -3.394  -2.977  1.00  0.00     0.210 HD
ENDBRANCH   7  45
TORSDOF 17
