REMARK  17 active torsions:
REMARK  status: ('A' for Active; 'I' for Inactive)
REMARK    1  A    between atoms: N1_1  and  N2_4 
REMARK    2  A    between atoms: N2_4  and  C1_5 
REMARK    3  A    between atoms: C1_5  and  C2_6 
REMARK    4  A    between atoms: C2_6  and  C3_7 
REMARK    5  A    between atoms: C3_7  and  C4_8 
REMARK    6  A    between atoms: C4_8  and  C5_9 
REMARK    7  A    between atoms: C5_9  and  C6_10 
REMARK    8  A    between atoms: C6_10  and  N3_11 
REMARK    9  A    between atoms: N3_11  and  C7_13 
REMARK   10  A    between atoms: C8_16  and  N6_17 
REMARK   11  A    between atoms: C9_21  and  O1_22 
REMARK   12  A    between atoms: O1_22  and  C10_23 
REMARK   13  A    between atoms: C11_27  and  C12_28 
REMARK   14  A    between atoms: C12_28  and  N8_29 
REMARK   15  A    between atoms: C14_34  and  O2_35 
REMARK   16  A    between atoms: C15_37  and  O3_38 
REMARK   17  A    between atoms: C16_40  and  N11_41 
ROOT
HETATM    1  C10 UNL     1      -2.236   0.555   0.133  1.00  0.00     0.355 C 
HETATM    2  N7  UNL     1      -3.227  -0.154  -0.659  1.00  0.00    -0.038 N 
ATOM      3  H71 UNL     1      -2.862  -1.056  -0.966  1.00  0.00     0.281 HD
ATOM      4  H72 UNL     1      -3.352   0.299  -1.564  1.00  0.00     0.281 HD
HETATM    5  C11 UNL     1      -4.485  -0.320  -0.004  1.00  0.00     0.237 C 
HETATM    6  C14 UNL     1      -4.328  -0.873   1.397  1.00  0.00     0.181 C 
HETATM    7  C15 UNL     1      -3.439   0.052   2.169  1.00  0.00     0.183 C 
HETATM    8  C16 UNL     1      -2.969   1.215   1.284  1.00  0.00     0.270 C 
ENDROOT
BRANCH   1   9
HETATM    9  O1  UNL     1      -1.322  -0.314   0.700  1.00  0.00    -0.345 OA
BRANCH   9  10
HETATM   10  C9  UNL     1      -0.023  -0.129   0.285  1.00  0.00     0.211 C 
HETATM   11  C7  UNL     1       0.966   0.020   1.415  1.00  0.00     0.224 C 
HETATM   12  N4  UNL     1       1.839  -1.104   1.401  1.00  0.00    -0.118 NA
HETATM   13  N5  UNL     1       1.286  -2.081   0.592  1.00  0.00    -0.110 NA
HETATM   14  C8  UNL     1       0.424  -1.422  -0.362  1.00  0.00     0.323 C 
BRANCH  11  15
HETATM   15  N3  UNL     1       1.632   1.290   1.449  1.00  0.00    -0.381 N 
ATOM     16  H3  UNL     1       1.529   1.915   2.248  1.00  0.00     0.160 HD
BRANCH  15  17
HETATM   17  C6  UNL     1       2.432   1.648   0.347  1.00  0.00     0.057 C 
BRANCH  17  18
HETATM   18  C5  UNL     1       3.713   0.865   0.150  1.00  0.00     0.044 C 
BRANCH  18  19
HETATM   19  C4  UNL     1       4.632   0.999   1.326  1.00  0.00     0.005 C 
BRANCH  19  20
HETATM   20  C3  UNL     1       5.888   0.249   1.330  1.00  0.00     0.002 C 
BRANCH  20  21
HETATM   21  C2  UNL     1       6.927   0.429   0.315  1.00  0.00     0.018 C 
BRANCH  21  22
HETATM   22  C1  UNL     1       6.657   0.112  -1.102  1.00  0.00     0.134 C 
BRANCH  22  23
HETATM   23  N2  UNL     1       6.243  -1.272  -1.290  1.00  0.00    -0.148 NA
BRANCH  23  24
HETATM   24  N1  UNL     1       5.986  -1.595  -2.612  1.00  0.00    -0.348 N 
ATOM     25  H12 UNL     1       6.082  -0.918  -3.369  1.00  0.00     0.172 HD
ATOM     26  H11 UNL     1       5.696  -2.564  -2.744  1.00  0.00     0.172 HD
ENDBRANCH  23  24
ENDBRANCH  22  23
ENDBRANCH  21  22
ENDBRANCH  20  21
ENDBRANCH  19  20
ENDBRANCH  18  19
ENDBRANCH  17  18
ENDBRANCH  15  17
ENDBRANCH  11  15
BRANCH  14  27
HETATM   27  N6  UNL     1       1.011  -1.271  -1.652  1.00  0.00    -0.057 N 
ATOM     28  H63 UNL     1       1.909  -0.791  -1.586  1.00  0.00     0.276 HD
ATOM     29  H62 UNL     1       1.326  -2.172  -2.013  1.00  0.00     0.276 HD
ATOM     30  H61 UNL     1       0.402  -0.806  -2.326  1.00  0.00     0.276 HD
ENDBRANCH  14  27
ENDBRANCH   9  10
ENDBRANCH   1   9
BRANCH   8  31
HETATM   31  N11 UNL     1      -2.086   2.008   2.116  1.00  0.00    -0.068 N 
ATOM     32 3H11 UNL     1      -1.298   1.453   2.451  1.00  0.00     0.275 HD
ATOM     33 2H11 UNL     1      -1.576   2.696   1.561  1.00  0.00     0.275 HD
ATOM     34 1H11 UNL     1      -2.579   2.452   2.891  1.00  0.00     0.275 HD
ENDBRANCH   8  31
BRANCH   5  35
HETATM   35  C12 UNL     1      -5.334  -1.297  -0.816  1.00  0.00     0.157 C 
BRANCH  35  36
HETATM   36  N8  UNL     1      -5.566  -0.817  -2.150  1.00  0.00    -0.365 N 
HETATM   37  C13 UNL     1      -6.364   0.131  -2.457  1.00  0.00     0.197 C 
HETATM   38  N9  UNL     1      -6.485   0.493  -3.827  1.00  0.00    -0.067 NA
HETATM   39  N10 UNL     1      -7.147   0.859  -1.519  1.00  0.00    -0.067 NA
ATOM     40  H8  UNL     1      -5.055  -1.268  -2.909  1.00  0.00     0.161 HD
ENDBRANCH  35  36
ENDBRANCH   5  35
BRANCH   7  41
HETATM   41  O3  UNL     1      -3.937   0.468   3.374  1.00  0.00    -0.391 OA
ATOM     42  H3  UNL     1      -3.373   1.055   3.864  1.00  0.00     0.210 HD
ENDBRANCH   7  41
BRANCH   6  43
HETATM   43  O2  UNL     1      -5.581  -0.935   2.007  1.00  0.00    -0.391 OA
ATOM     44  H2  UNL     1      -5.483  -1.282   2.886  1.00  0.00     0.210 HD
ENDBRANCH   6  43
TORSDOF 17
