REMARK  3 active torsions:
REMARK  status: ('A' for Active; 'I' for Inactive)
REMARK    1  A    between atoms: C6_8  and  C7_9 
REMARK    2  A    between atoms: C7_9  and  O3_10 
REMARK    3  A    between atoms: C8_12  and  O4_13 
ROOT
HETATM    1  C1  UNL     1      -3.139   0.841  -1.074  1.00  0.00     0.048 C 
HETATM    2  C2  UNL     1      -2.330   0.198   0.060  1.00  0.00     0.076 C 
HETATM    3  C3  UNL     1      -3.316  -0.748   0.761  1.00  0.00     0.048 C 
HETATM    4  C4  UNL     1      -1.896   1.212   1.024  1.00  0.00     0.208 C 
HETATM    5  O1  UNL     1      -0.592   1.595   1.009  1.00  0.00    -0.356 OA
HETATM    6  C5  UNL     1       0.269   0.830   0.297  1.00  0.00     0.289 C 
HETATM    7  O2  UNL     1       1.567   0.800   0.738  1.00  0.00    -0.349 OA
HETATM    8  C6  UNL     1       2.348   0.350  -0.329  1.00  0.00     0.177 C 
HETATM    9  C8  UNL     1       1.958  -1.016  -0.791  1.00  0.00     0.151 C 
HETATM   10  C9  UNL     1       0.779  -1.599  -0.094  1.00  0.00     0.071 C 
HETATM   11  C10 UNL     1      -0.260  -0.610   0.315  1.00  0.00     0.180 C 
HETATM   12  O5  UNL     1      -1.370  -0.578  -0.516  1.00  0.00    -0.368 OA
ENDROOT
BRANCH   8  13
HETATM   13  C7  UNL     1       3.820   0.345   0.013  1.00  0.00     0.198 C 
BRANCH  13  14
HETATM   14  O3  UNL     1       4.235   1.628   0.336  1.00  0.00    -0.398 OA
ATOM     15  H3  UNL     1       5.160   1.625   0.551  1.00  0.00     0.209 HD
ENDBRANCH  13  14
ENDBRANCH   8  13
BRANCH   9  16
HETATM   16  O4  UNL     1       3.023  -1.927  -0.654  1.00  0.00    -0.393 OA
ATOM     17  H4  UNL     1       2.775  -2.796  -0.948  1.00  0.00     0.210 HD
ENDBRANCH   9  16
TORSDOF 3
