REMARK  4 active torsions:
REMARK  status: ('A' for Active; 'I' for Inactive)
REMARK    1  A    between atoms: C2_2  and  O1_3 
REMARK    2  A    between atoms: O1_3  and  C3_4 
REMARK    3  A    between atoms: C9_14  and  O3_15 
REMARK    4  A    between atoms: C10_17  and  O4_18 
ROOT
HETATM    1  C3  UNL     1       0.795  -0.208   0.092  1.00  0.00     0.217 C 
HETATM    2  C4  UNL     1       0.761  -1.510  -0.721  1.00  0.00     0.076 C 
HETATM    3  C5  UNL     1      -0.585  -2.021  -0.248  1.00  0.00     0.061 C 
HETATM    4  C6  UNL     1      -1.230  -2.936  -1.262  1.00  0.00     0.046 C 
HETATM    5  C7  UNL     1      -0.285  -2.803   1.040  1.00  0.00     0.046 C 
HETATM    6  O2  UNL     1      -1.349  -0.946   0.104  1.00  0.00    -0.320 OA
HETATM    7  C8  UNL     1      -0.639   0.212  -0.059  1.00  0.00     0.370 C 
HETATM    8  N1  UNL     1      -0.917   1.210   0.946  1.00  0.00     0.017 N 
ATOM      9  H11 UNL     1      -0.137   1.390   1.578  1.00  0.00     0.287 HD
ATOM     10  H12 UNL     1      -1.577   0.905   1.661  1.00  0.00     0.287 HD
HETATM   11  C9  UNL     1      -1.353   2.377   0.200  1.00  0.00     0.381 C 
HETATM   12  C10 UNL     1      -1.937   1.703  -1.028  1.00  0.00     0.319 C 
HETATM   13  O5  UNL     1      -0.911   0.770  -1.295  1.00  0.00    -0.296 OA
ENDROOT
BRANCH   1  14
HETATM   14  O1  UNL     1       1.709   0.680  -0.393  1.00  0.00    -0.379 OA
BRANCH  14  15
HETATM   15  C2  UNL     1       2.606   0.940   0.644  1.00  0.00     0.164 C 
HETATM   16  C1  UNL     1       3.678   1.906   0.260  1.00  0.00     0.033 C 
ENDBRANCH  14  15
ENDBRANCH   1  14
BRANCH  11  17
HETATM   17  O3  UNL     1      -2.338   3.032   0.932  1.00  0.00    -0.366 OA
ATOM     18  H3  UNL     1      -2.623   3.795   0.444  1.00  0.00     0.212 HD
ENDBRANCH  11  17
BRANCH  12  19
HETATM   19  O4  UNL     1      -3.058   0.962  -0.683  1.00  0.00    -0.367 OA
ATOM     20  H4  UNL     1      -3.424   0.540  -1.452  1.00  0.00     0.212 HD
ENDBRANCH  12  19
TORSDOF 4
