REMARK  4 active torsions:
REMARK  status: ('A' for Active; 'I' for Inactive)
REMARK    1  A    between atoms: N1_7  and  C6_8 
REMARK    2  A    between atoms: C8_11  and  C9_12 
REMARK    3  A    between atoms: C9_12  and  O3_13 
REMARK    4  A    between atoms: C10_15  and  O4_16 
ROOT
HETATM    1  C6  UNL     1       0.301   0.067  -0.137  1.00  0.00     0.382 C 
HETATM    2  O2  UNL     1      -0.253   1.323  -0.172  1.00  0.00    -0.343 OA
HETATM    3  C7  UNL     1      -1.586   1.209  -0.506  1.00  0.00     0.184 C 
HETATM    4  C8  UNL     1      -2.306   0.209   0.335  1.00  0.00     0.088 C 
HETATM    5  C10 UNL     1      -1.488  -1.025   0.641  1.00  0.00     0.270 C 
HETATM    6  O5  UNL     1      -0.212  -0.628   0.972  1.00  0.00    -0.313 OA
ENDROOT
BRANCH   1   7
HETATM    7  N1  UNL     1       1.752   0.079  -0.043  1.00  0.00    -0.275 N 
HETATM    8  C1  UNL     1       2.417  -0.661   0.862  1.00  0.00     0.251 A 
HETATM    9  O1  UNL     1       1.714  -1.376   1.638  1.00  0.00    -0.268 OA
HETATM   10  C2  UNL     1       3.790  -0.673   0.977  1.00  0.00     0.075 A 
HETATM   11  C3  UNL     1       4.524   0.115   0.118  1.00  0.00     0.007 A 
HETATM   12  C4  UNL     1       3.865   0.880  -0.815  1.00  0.00     0.018 A 
HETATM   13  C5  UNL     1       2.470   0.849  -0.883  1.00  0.00     0.099 A 
ENDBRANCH   1   7
BRANCH   5  14
HETATM   14  O4  UNL     1      -1.456  -1.852  -0.497  1.00  0.00    -0.371 OA
ATOM     15  H4  UNL     1      -0.942  -2.627  -0.305  1.00  0.00     0.212 HD
ENDBRANCH   5  14
BRANCH   4  16
HETATM   16  C9  UNL     1      -3.578  -0.276  -0.345  1.00  0.00     0.175 C 
BRANCH  16  17
HETATM   17  O3  UNL     1      -4.444   0.790  -0.580  1.00  0.00    -0.400 OA
ATOM     18  H3  UNL     1      -5.238   0.487  -1.005  1.00  0.00     0.209 HD
ENDBRANCH  16  17
ENDBRANCH   4  16
TORSDOF 4
