REMARK  1 active torsions:
REMARK  status: ('A' for Active; 'I' for Inactive)
REMARK       I    between atoms: C1_4  and  N2_5 
REMARK       I    between atoms: C1_4  and  N3_21 
REMARK    1  A    between atoms: N3_21  and  N4_23 
ROOT
HETATM    1  N1  UNL     1       4.664   1.319  -1.685  1.00  0.00    -0.233 N 
ATOM      2  H11 UNL     1       5.505   0.937  -2.117  1.00  0.00     0.174 HD
ATOM      3  H12 UNL     1       4.179   2.080  -2.161  1.00  0.00     0.174 HD
HETATM    4  C1  UNL     1       4.269   0.821  -0.572  1.00  0.00     0.690 C 
HETATM    5  N2  UNL     1       3.100   1.352   0.029  1.00  0.00    -0.198 N 
ATOM      6  H2  UNL     1       3.145   2.198   0.597  1.00  0.00     0.183 HD
HETATM    7  C2  UNL     1       1.988   0.748  -0.156  1.00  0.00     0.004 C 
HETATM    8  C3  UNL     1       1.911  -0.502  -0.993  1.00  0.00     0.053 C 
HETATM    9  C4  UNL     1       1.463  -1.685  -0.180  1.00  0.00     0.006 C 
HETATM   10  C5  UNL     1       0.049  -2.142  -0.584  1.00  0.00     0.000 C 
HETATM   11  C6  UNL     1      -0.647  -2.575   0.651  1.00  0.00     0.000 C 
HETATM   12  C7  UNL     1      -2.085  -2.814   0.599  1.00  0.00     0.000 C 
HETATM   13  C8  UNL     1      -2.888  -2.057  -0.411  1.00  0.00     0.000 C 
HETATM   14  C9  UNL     1      -3.548  -0.829   0.176  1.00  0.00     0.000 C 
HETATM   15  C10 UNL     1      -3.132   0.440  -0.529  1.00  0.00     0.000 C 
HETATM   16  C11 UNL     1      -3.290   1.659   0.355  1.00  0.00     0.000 C 
HETATM   17  C12 UNL     1      -1.955   2.247   0.767  1.00  0.00     0.000 C 
HETATM   18  C13 UNL     1      -1.132   2.728  -0.371  1.00  0.00     0.000 C 
HETATM   19  C14 UNL     1       0.359   2.630  -0.147  1.00  0.00     0.006 C 
HETATM   20  C15 UNL     1       0.770   1.314   0.478  1.00  0.00     0.053 C 
HETATM   21  N3  UNL     1       4.942  -0.236   0.089  1.00  0.00    -0.139 N 
ATOM     22  H3  UNL     1       5.393  -0.969  -0.458  1.00  0.00     0.205 HD
ENDROOT
BRANCH  21  23
HETATM   23  N4  UNL     1       4.992  -0.281   1.487  1.00  0.00    -0.331 N 
ATOM     24  H42 UNL     1       4.536   0.460   2.019  1.00  0.00     0.177 HD
ATOM     25  H41 UNL     1       5.477  -1.042   1.963  1.00  0.00     0.177 HD
ENDBRANCH  21  23
TORSDOF 1
