REMARK  0 active torsions:
REMARK  status: ('A' for Active; 'I' for Inactive)
ROOT
HETATM    1  C1  UNL     1       2.758  -3.559   0.822  1.00  0.00     0.072 C 
HETATM    2  C2  UNL     1       2.388  -2.296   0.573  1.00  0.00     0.139 A 
HETATM    3  N1  UNL     1       1.086  -2.011   0.226  1.00  0.00    -0.336 N 
ATOM      4  H1  UNL     1       0.450  -2.807   0.172  1.00  0.00     0.168 HD
HETATM    5  C3  UNL     1       0.508  -0.704  -0.074  1.00  0.00     0.064 A 
HETATM    6  C4  UNL     1      -0.656  -0.669  -0.662  1.00  0.00     0.072 A 
HETATM    7  C5  UNL     1      -1.419  -1.825  -1.167  1.00  0.00     0.259 A 
HETATM    8  O1  UNL     1      -0.859  -2.935  -1.516  1.00  0.00    -0.267 OA
HETATM    9  N2  UNL     1      -2.788  -1.610  -1.241  1.00  0.00    -0.322 N 
ATOM     10  H2  UNL     1      -3.494  -2.271  -1.564  1.00  0.00     0.169 HD
HETATM   11  C6  UNL     1      -3.009  -0.293  -0.780  1.00  0.00     0.046 A 
HETATM   12  C7  UNL     1      -4.236   0.311  -0.581  1.00  0.00     0.030 A 
HETATM   13  C8  UNL     1      -4.338   1.551   0.003  1.00  0.00     0.002 A 
HETATM   14  C9  UNL     1      -3.166   2.149   0.377  1.00  0.00     0.001 A 
HETATM   15  C10 UNL     1      -1.961   1.522   0.162  1.00  0.00     0.015 A 
HETATM   16  C11 UNL     1      -1.786   0.301  -0.421  1.00  0.00     0.009 A 
HETATM   17  C12 UNL     1       1.519   0.343   0.018  1.00  0.00     0.026 A 
HETATM   18  C13 UNL     1       1.264   1.647  -0.308  1.00  0.00     0.016 A 
HETATM   19  C14 UNL     1       2.191   2.661  -0.277  1.00  0.00     0.001 A 
HETATM   20  C15 UNL     1       3.478   2.355   0.102  1.00  0.00     0.003 A 
HETATM   21  C16 UNL     1       3.765   1.049   0.415  1.00  0.00     0.038 A 
HETATM   22  C17 UNL     1       2.841   0.022   0.375  1.00  0.00     0.090 A 
HETATM   23  O2  UNL     1       3.285  -1.254   0.655  1.00  0.00    -0.294 OA
ENDROOT
TORSDOF 0
