REMARK  0 active torsions:
REMARK  status: ('A' for Active; 'I' for Inactive)
ROOT
HETATM    1  C1  UNL     1       4.291   1.306   1.615  1.00  0.00     0.001 A 
HETATM    2  C2  UNL     1       3.035   1.854   1.754  1.00  0.00     0.001 A 
HETATM    3  C3  UNL     1       1.989   1.201   1.140  1.00  0.00     0.014 A 
HETATM    4  C4  UNL     1       2.183   0.044   0.413  1.00  0.00     0.003 A 
HETATM    5  C5  UNL     1       1.119  -0.621  -0.211  1.00  0.00     0.072 A 
HETATM    6  C6  UNL     1       1.330  -1.778  -0.936  1.00  0.00     0.075 A 
HETATM    7  C7  UNL     1       2.609  -2.288  -1.046  1.00  0.00     0.034 A 
HETATM    8  C8  UNL     1       3.664  -1.640  -0.434  1.00  0.00     0.014 A 
HETATM    9  C9  UNL     1       3.447  -0.491   0.284  1.00  0.00    -0.024 A 
HETATM   10  C10 UNL     1       4.526   0.154   0.898  1.00  0.00     0.012 A 
HETATM   11  N1  UNL     1       0.473  -2.508  -1.567  1.00  0.00    -0.297 N 
ATOM     12  H1  UNL     1       0.865  -3.325  -2.035  1.00  0.00     0.187 HD
HETATM   13  N2  UNL     1      -0.908  -2.353  -1.708  1.00  0.00    -0.283 N 
ATOM     14  H2  UNL     1      -1.393  -3.061  -2.260  1.00  0.00     0.188 HD
HETATM   15  C11 UNL     1      -1.718  -1.300  -1.157  1.00  0.00     0.148 A 
HETATM   16  N3  UNL     1      -3.049  -1.191  -1.320  1.00  0.00    -0.339 N 
ATOM     17  H3  UNL     1      -3.640  -1.834  -1.847  1.00  0.00     0.167 HD
HETATM   18  C12 UNL     1      -3.469  -0.085  -0.667  1.00  0.00     0.046 A 
HETATM   19  C13 UNL     1      -4.696   0.518  -0.486  1.00  0.00     0.030 A 
HETATM   20  C14 UNL     1      -4.872   1.675   0.245  1.00  0.00     0.002 A 
HETATM   21  C15 UNL     1      -3.756   2.245   0.816  1.00  0.00     0.001 A 
HETATM   22  C16 UNL     1      -2.514   1.676   0.660  1.00  0.00     0.016 A 
HETATM   23  C17 UNL     1      -2.392   0.533  -0.070  1.00  0.00     0.021 A 
HETATM   24  C18 UNL     1      -1.272  -0.247  -0.386  1.00  0.00     0.091 A 
HETATM   25  N4  UNL     1       0.054   0.034   0.032  1.00  0.00    -0.350 N 
ATOM     26  H4  UNL     1       0.170   0.871   0.603  1.00  0.00     0.166 HD
ENDROOT
TORSDOF 0
