REMARK  1 active torsions:
REMARK  status: ('A' for Active; 'I' for Inactive)
REMARK    1  A    between atoms: N1_1  and  C1_4 
ROOT
HETATM    1  C1  UNL     1       4.201   0.396   0.173  1.00  0.00     0.099 A 
HETATM    2  C2  UNL     1       3.353   1.193  -0.547  1.00  0.00     0.049 A 
HETATM    3  C3  UNL     1       1.992   0.901  -0.638  1.00  0.00     0.018 A 
HETATM    4  C4  UNL     1       1.545  -0.209   0.014  1.00  0.00     0.006 A 
HETATM    5  C5  UNL     1       2.442  -1.018   0.756  1.00  0.00     0.044 A 
HETATM    6  C6  UNL     1       1.935  -2.110   1.422  1.00  0.00     0.031 A 
HETATM    7  C7  UNL     1       0.609  -2.457   1.402  1.00  0.00     0.014 A 
HETATM    8  C8  UNL     1      -0.250  -1.674   0.679  1.00  0.00    -0.021 A 
HETATM    9  C9  UNL     1      -1.568  -2.067   0.747  1.00  0.00     0.013 C 
HETATM   10  C10 UNL     1      -2.705  -1.261   0.595  1.00  0.00     0.013 C 
HETATM   11  C11 UNL     1      -2.813  -0.039  -0.052  1.00  0.00    -0.022 A 
HETATM   12  C12 UNL     1      -4.081   0.483   0.016  1.00  0.00     0.012 A 
HETATM   13  C13 UNL     1      -4.357   1.694  -0.590  1.00  0.00     0.001 A 
HETATM   14  C14 UNL     1      -3.356   2.384  -1.266  1.00  0.00     0.001 A 
HETATM   15  C15 UNL     1      -2.085   1.848  -1.327  1.00  0.00     0.016 A 
HETATM   16  C16 UNL     1      -1.788   0.646  -0.732  1.00  0.00     0.025 A 
HETATM   17  C17 UNL     1      -0.484   0.252  -0.891  1.00  0.00     0.195 C 
HETATM   18  O1  UNL     1       0.099   0.644  -1.900  1.00  0.00    -0.287 OA
HETATM   19  C18 UNL     1       0.217  -0.545  -0.025  1.00  0.00     0.038 A 
HETATM   20  N2  UNL     1       3.729  -0.681   0.803  1.00  0.00    -0.342 N 
ATOM     21  H2  UNL     1       4.374  -1.264   1.337  1.00  0.00     0.167 HD
ENDROOT
BRANCH   1  22
HETATM   22  N1  UNL     1       5.476   0.714   0.222  1.00  0.00    -0.385 N 
ATOM     23  H12 UNL     1       5.837   1.537  -0.260  1.00  0.00     0.157 HD
ATOM     24  H11 UNL     1       6.108   0.120   0.759  1.00  0.00     0.157 HD
ENDBRANCH   1  22
TORSDOF 1
