REMARK  8 active torsions:
REMARK  status: ('A' for Active; 'I' for Inactive)
REMARK    1  A    between atoms: C2_2  and  C4_4 
REMARK    2  A    between atoms: C2_2  and  C20_25 
REMARK    3  A    between atoms: C5_5  and  C7_8 
REMARK       I    between atoms: C7_8  and  N2_10 
REMARK    4  A    between atoms: N2_10  and  C8_12 
REMARK    5  A    between atoms: C8_12  and  C9_13 
REMARK    6  A    between atoms: N3_17  and  C13_18 
REMARK    7  A    between atoms: C13_18  and  C14_19 
REMARK    8  A    between atoms: C20_25  and  O2_26 
ROOT
HETATM    1  C4  UNL     1       4.936  -0.388   0.522  1.00  0.00     0.012 C 
HETATM    2  C5  UNL     1       3.810  -0.196  -0.100  1.00  0.00     0.109 C 
HETATM    3  C6  UNL     1       3.741  -0.068  -1.521  1.00  0.00     0.105 C 
HETATM    4  N1  UNL     1       3.659   0.036  -2.692  1.00  0.00    -0.191 NA
ENDROOT
BRANCH   2   5
HETATM    5  C7  UNL     1       2.564  -0.101   0.641  1.00  0.00     0.262 C 
HETATM    6  O1  UNL     1       2.640  -0.217   1.913  1.00  0.00    -0.267 OA
HETATM    7  N2  UNL     1       1.310   0.108   0.011  1.00  0.00    -0.354 N 
ATOM      8  H2  UNL     1       1.261   0.197  -1.004  1.00  0.00     0.162 HD
BRANCH   7   9
HETATM    9  C8  UNL     1       0.106   0.195   0.795  1.00  0.00     0.148 C 
BRANCH   9  10
HETATM   10  C9  UNL     1      -1.119   0.426  -0.103  1.00  0.00     0.106 C 
HETATM   11  C10 UNL     1      -0.843   1.733  -0.823  1.00  0.00     0.032 C 
HETATM   12  C11 UNL     1      -1.741   2.760  -0.180  1.00  0.00     0.047 C 
HETATM   13  C12 UNL     1      -2.557   1.991   0.840  1.00  0.00     0.063 C 
HETATM   14  N3  UNL     1      -2.224   0.639   0.748  1.00  0.00    -0.367 N 
BRANCH  14  15
HETATM   15  C13 UNL     1      -3.144  -0.380   0.980  1.00  0.00     0.068 C 
BRANCH  15  16
HETATM   16  C14 UNL     1      -4.014  -0.814  -0.161  1.00  0.00     0.024 C 
HETATM   17  C15 UNL     1      -4.954  -1.936   0.231  1.00  0.00     0.010 C 
HETATM   18  C16 UNL     1      -6.382  -1.485   0.308  1.00  0.00     0.001 C 
HETATM   19  C17 UNL     1      -6.922  -0.823  -0.907  1.00  0.00     0.000 C 
HETATM   20  C18 UNL     1      -5.858  -0.142  -1.705  1.00  0.00     0.001 C 
HETATM   21  C19 UNL     1      -4.795   0.350  -0.741  1.00  0.00     0.010 C 
ENDBRANCH  15  16
ENDBRANCH  14  15
ENDBRANCH   9  10
ENDBRANCH   7   9
ENDBRANCH   2   5
BRANCH   1  22
HETATM   22  C2  UNL     1       6.283  -0.510  -0.030  1.00  0.00    -0.007 C 
HETATM   23  C1  UNL     1       7.146  -1.263   1.000  1.00  0.00     0.021 C 
HETATM   24  C3  UNL     1       6.349  -1.327  -1.286  1.00  0.00     0.021 C 
BRANCH  22  25
HETATM   25  C20 UNL     1       6.971   0.826  -0.206  1.00  0.00     0.176 C 
BRANCH  25  26
HETATM   26  O2  UNL     1       6.359   1.671  -1.097  1.00  0.00    -0.400 OA
ATOM     27  H2  UNL     1       6.791   2.510  -1.208  1.00  0.00     0.209 HD
ENDBRANCH  25  26
ENDBRANCH  22  25
ENDBRANCH   1  22
TORSDOF 8
