REMARK  9 active torsions:
REMARK  status: ('A' for Active; 'I' for Inactive)
REMARK    1  A    between atoms: C2_2  and  C3_3 
REMARK    2  A    between atoms: C3_3  and  C4_4 
REMARK    3  A    between atoms: C4_4  and  N1_5 
REMARK    4  A    between atoms: N1_5  and  C5_7 
REMARK    5  A    between atoms: C9_13  and  N3_14 
REMARK    6  A    between atoms: N3_14  and  C10_15 
REMARK    7  A    between atoms: N3_14  and  C14_19 
REMARK    8  A    between atoms: C10_15  and  C11_16 
REMARK    9  A    between atoms: C11_16  and  C12_17 
ROOT
HETATM    1  C5  UNL     1       2.525   0.351  -0.131  1.00  0.00     0.679 A 
HETATM    2  N2  UNL     1       2.749  -0.102  -1.368  1.00  0.00    -0.196 N 
ATOM      3  H2  UNL     1       3.716  -0.181  -1.683  1.00  0.00     0.184 HD
HETATM    4  C6  UNL     1       1.779  -0.457  -2.215  1.00  0.00     0.026 A 
HETATM    5  C7  UNL     1       2.112  -0.954  -3.562  1.00  0.00     0.069 C 
HETATM    6  C8  UNL     1       0.460  -0.338  -1.757  1.00  0.00     0.074 A 
HETATM    7  C9  UNL     1       0.185   0.121  -0.501  1.00  0.00     0.121 A 
HETATM    8  N5  UNL     1       1.227   0.453   0.277  1.00  0.00    -0.177 N 
ATOM      9  H5  UNL     1       1.040   0.798   1.218  1.00  0.00     0.185 HD
ENDROOT
BRANCH   7  10
HETATM   10  N3  UNL     1      -1.118   0.280  -0.007  1.00  0.00    -0.362 N 
BRANCH  10  11
HETATM   11  C10 UNL     1      -1.679  -0.287   1.176  1.00  0.00     0.125 C 
BRANCH  11  12
HETATM   12  C11 UNL     1      -0.938  -1.395   1.834  1.00  0.00     0.019 C 
BRANCH  12  13
HETATM   13  C12 UNL     1      -0.833  -2.661   1.040  1.00  0.00    -0.003 C 
HETATM   14  C13 UNL     1      -0.066  -3.713   1.825  1.00  0.00     0.005 C 
ENDBRANCH  12  13
ENDBRANCH  11  12
ENDBRANCH  10  11
BRANCH  10  15
HETATM   15  C14 UNL     1      -1.966   1.196  -0.777  1.00  0.00     0.088 C 
HETATM   16  C15 UNL     1      -3.251   0.569  -1.223  1.00  0.00     0.032 C 
HETATM   17  C16 UNL     1      -3.988   1.795  -1.780  1.00  0.00     0.020 C 
HETATM   18  C17 UNL     1      -5.463   1.524  -1.727  1.00  0.00     0.034 C 
HETATM   19  C19 UNL     1      -3.673   2.839  -0.749  1.00  0.00     0.192 C 
HETATM   20  C18 UNL     1      -5.933   2.533  -0.701  1.00  0.00     0.233 C 
HETATM   21  N4  UNL     1      -4.788   2.759   0.176  1.00  0.00    -0.070 N 
ATOM     22  H42 UNL     1      -4.882   3.562   0.798  1.00  0.00     0.277 HD
ATOM     23  H41 UNL     1      -4.677   2.066   0.916  1.00  0.00     0.277 HD
HETATM   24  C20 UNL     1      -2.431   2.372   0.005  1.00  0.00     0.058 C 
ENDBRANCH  10  15
ENDBRANCH   7  10
BRANCH   1  25
HETATM   25  N1  UNL     1       3.458   0.679   0.665  1.00  0.00    -0.226 N 
ATOM     26  H1  UNL     1       3.197   1.017   1.591  1.00  0.00     0.177 HD
BRANCH  25  27
HETATM   27  C4  UNL     1       4.845   0.607   0.351  1.00  0.00     0.138 C 
BRANCH  27  28
HETATM   28  C3  UNL     1       5.345  -0.806   0.470  1.00  0.00     0.020 C 
BRANCH  28  29
HETATM   29  C2  UNL     1       5.137  -1.316   1.900  1.00  0.00    -0.003 C 
HETATM   30  C1  UNL     1       5.873  -0.473   2.892  1.00  0.00     0.005 C 
ENDBRANCH  28  29
ENDBRANCH  27  28
ENDBRANCH  25  27
ENDBRANCH   1  25
TORSDOF 9
