REMARK  10 active torsions:
REMARK  status: ('A' for Active; 'I' for Inactive)
REMARK    1  A    between atoms: O1_1  and  C1_3 
REMARK    2  A    between atoms: C1_3  and  C2_4 
REMARK    3  A    between atoms: C1_3  and  N1_13 
REMARK    4  A    between atoms: C2_4  and  C3_5 
REMARK    5  A    between atoms: C3_5  and  C4_6 
REMARK    6  A    between atoms: C4_6  and  C5_7 
REMARK    7  A    between atoms: N1_13  and  C11_14 
REMARK    8  A    between atoms: C12_17  and  O2_18 
REMARK    9  A    between atoms: O2_18  and  C13_19 
REMARK   10  A    between atoms: C13_19  and  C14_20 
ROOT
HETATM    1  C11 UNL     1       1.153   0.838   0.483  1.00  0.00     0.279 A 
HETATM    2  N2  UNL     1       2.340   0.700   0.344  1.00  0.00    -0.280 N 
ATOM      3  H2  UNL     1       2.891   1.479   0.706  1.00  0.00     0.173 HD
HETATM    4  C12 UNL     1       3.040  -0.231  -0.168  1.00  0.00     0.242 A 
HETATM    5  N4  UNL     1       2.067  -1.103  -0.554  1.00  0.00    -0.261 N 
ATOM      6  H4  UNL     1       2.222  -1.998  -1.017  1.00  0.00     0.190 HD
HETATM    7  N5  UNL     1       0.972  -0.635  -0.253  1.00  0.00    -0.256 N 
ATOM      8  H5  UNL     1       0.077  -1.090  -0.431  1.00  0.00     0.191 HD
ENDROOT
BRANCH   1   9
HETATM    9  N1  UNL     1      -0.091   0.964   0.619  1.00  0.00    -0.349 NA
BRANCH   9  10
HETATM   10  C1  UNL     1      -1.352   1.058   0.739  1.00  0.00     0.193 C 
BRANCH  10  11
HETATM   11  O1  UNL     1      -1.949   1.698   1.710  1.00  0.00    -0.339 OA
ATOM     12  H1  UNL     1      -1.354   2.097   2.334  1.00  0.00     0.220 HD
ENDBRANCH  10  11
BRANCH  10  13
HETATM   13  C2  UNL     1      -2.307   0.417  -0.262  1.00  0.00     0.100 C 
BRANCH  13  14
HETATM   14  C3  UNL     1      -3.714   0.869   0.108  1.00  0.00     0.010 C 
BRANCH  14  15
HETATM   15  C4  UNL     1      -4.718   0.238  -0.865  1.00  0.00     0.005 C 
BRANCH  15  16
HETATM   16  C5  UNL     1      -6.103   0.673  -0.514  1.00  0.00    -0.014 C 
HETATM   17  C6  UNL     1      -6.450   0.245   0.896  1.00  0.00     0.004 C 
HETATM   18  C7  UNL     1      -7.968   0.326   1.011  1.00  0.00     0.000 C 
HETATM   19  C8  UNL     1      -8.562  -0.881   0.311  1.00  0.00     0.000 C 
HETATM   20  C9  UNL     1      -7.703  -1.223  -0.889  1.00  0.00     0.000 C 
HETATM   21  C10 UNL     1      -7.142   0.061  -1.433  1.00  0.00     0.004 C 
ENDBRANCH  15  16
ENDBRANCH  14  15
ENDBRANCH  13  14
ENDBRANCH  10  13
ENDBRANCH   9  10
ENDBRANCH   1   9
BRANCH   4  22
HETATM   22  O2  UNL     1       4.395  -0.399  -0.331  1.00  0.00    -0.321 OA
BRANCH  22  23
HETATM   23  C13 UNL     1       5.325   0.568   0.104  1.00  0.00     0.183 C 
BRANCH  23  24
HETATM   24  C14 UNL     1       6.738   0.112  -0.202  1.00  0.00     0.013 C 
HETATM   25  C15 UNL     1       6.986  -1.192   0.518  1.00  0.00     0.034 C 
HETATM   26  C16 UNL     1       8.465  -1.515   0.564  1.00  0.00     0.232 C 
HETATM   27  N3  UNL     1       9.141  -0.722  -0.433  1.00  0.00    -0.075 N 
HETATM   28  C17 UNL     1       9.135   0.692  -0.111  1.00  0.00     0.232 C 
ATOM     29  H32 UNL     1      10.091  -1.060  -0.590  1.00  0.00     0.277 HD
ATOM     30  H31 UNL     1       8.753  -0.890  -1.361  1.00  0.00     0.277 HD
HETATM   31  C18 UNL     1       7.736   1.115   0.292  1.00  0.00     0.034 C 
ENDBRANCH  23  24
ENDBRANCH  22  23
ENDBRANCH   4  22
TORSDOF 10
