REMARK  8 active torsions:
REMARK  status: ('A' for Active; 'I' for Inactive)
REMARK    1  A    between atoms: O1_2  and  C2_3 
REMARK    2  A    between atoms: C2_3  and  N1_4 
REMARK    3  A    between atoms: N1_4  and  C3_7 
REMARK    4  A    between atoms: C5_9  and  O2_10 
REMARK    5  A    between atoms: O2_10  and  C6_11 
REMARK    6  A    between atoms: C6_11  and  C9_14 
REMARK       I    between atoms: C9_14  and  N2_16 
REMARK    7  A    between atoms: N2_16  and  C10_18 
REMARK    8  A    between atoms: C10_18  and  C11_19 
ROOT
HETATM    1  C9  UNL     1       0.858   0.975  -0.924  1.00  0.00     0.251 C 
HETATM    2  O3  UNL     1       1.156   0.503  -2.046  1.00  0.00    -0.270 OA
HETATM    3  N2  UNL     1      -0.418   0.698  -0.393  1.00  0.00    -0.358 N 
ATOM      4  H2  UNL     1      -0.692   1.068   0.517  1.00  0.00     0.162 HD
ENDROOT
BRANCH   1   5
HETATM    5  C6  UNL     1       1.822   1.813  -0.155  1.00  0.00     0.134 C 
HETATM    6  C7  UNL     1       1.175   3.159   0.201  1.00  0.00     0.056 C 
HETATM    7  C8  UNL     1       2.085   1.123   1.168  1.00  0.00     0.056 C 
BRANCH   5   8
HETATM    8  O2  UNL     1       3.020   2.003  -0.778  1.00  0.00    -0.364 OA
BRANCH   8   9
HETATM    9  C5  UNL     1       3.717   0.895  -1.150  1.00  0.00     0.156 A 
HETATM   10  C3  UNL     1       5.198   0.936  -0.817  1.00  0.00     0.219 A 
HETATM   11  C4  UNL     1       4.736   0.899  -2.223  1.00  0.00     0.070 A 
BRANCH  10  12
HETATM   12  N1  UNL     1       5.854  -0.162  -0.194  1.00  0.00    -0.048 N 
ATOM     13  H12 UNL     1       6.199   0.108   0.727  1.00  0.00     0.280 HD
ATOM     14  H11 UNL     1       6.738  -0.359  -0.663  1.00  0.00     0.280 HD
BRANCH  12  15
HETATM   15  C2  UNL     1       5.061  -1.359  -0.100  1.00  0.00     0.399 C 
BRANCH  15  16
HETATM   16  O1  UNL     1       5.753  -2.378   0.502  1.00  0.00    -0.369 OA
HETATM   17  C1  UNL     1       6.180  -2.135   1.782  1.00  0.00     0.203 C 
ENDBRANCH  15  16
ENDBRANCH  12  15
ENDBRANCH  10  12
ENDBRANCH   8   9
ENDBRANCH   5   8
ENDBRANCH   1   5
BRANCH   3  18
HETATM   18  C10 UNL     1      -1.332  -0.118  -1.158  1.00  0.00     0.132 C 
BRANCH  18  19
HETATM   19  C11 UNL     1      -2.652  -0.325  -0.468  1.00  0.00    -0.023 C 
HETATM   20  C12 UNL     1      -3.495  -1.199  -1.398  1.00  0.00     0.015 C 
HETATM   21  C13 UNL     1      -4.877  -1.417  -0.862  1.00  0.00    -0.013 C 
HETATM   22  C14 UNL     1      -4.749  -2.143   0.457  1.00  0.00     0.009 C 
HETATM   23  C18 UNL     1      -5.529  -0.072  -0.680  1.00  0.00     0.009 C 
HETATM   24  C15 UNL     1      -3.918  -1.311   1.389  1.00  0.00    -0.013 C 
HETATM   25  C16 UNL     1      -4.667  -0.007   1.622  1.00  0.00     0.009 C 
HETATM   26  C20 UNL     1      -2.539  -1.022   0.848  1.00  0.00     0.015 C 
HETATM   27  C17 UNL     1      -4.733   0.741   0.314  1.00  0.00    -0.013 C 
HETATM   28  C19 UNL     1      -3.360   0.998  -0.257  1.00  0.00     0.015 C 
ENDBRANCH  18  19
ENDBRANCH   3  18
TORSDOF 8
