REMARK  4 active torsions:
REMARK  status: ('A' for Active; 'I' for Inactive)
REMARK    1  A    between atoms: O1_2  and  N1_3 
REMARK    2  A    between atoms: C3_5  and  C4_6 
REMARK    3  A    between atoms: C4_6  and  N2_7 
REMARK       I    between atoms: N2_7  and  C5_9 
REMARK    4  A    between atoms: C5_9  and  C6_11 
ROOT
HETATM    1  C6  UNL     1      -1.620   0.310  -0.734  1.00  0.00     0.132 A 
HETATM    2  N3  UNL     1      -1.606   1.088  -1.867  1.00  0.00    -0.293 N 
ATOM      3  H3  UNL     1      -0.707   1.327  -2.286  1.00  0.00     0.187 HD
HETATM    4  N4  UNL     1      -2.701   1.534  -2.429  1.00  0.00    -0.283 N 
ATOM      5  H4  UNL     1      -2.643   2.108  -3.270  1.00  0.00     0.188 HD
HETATM    6  C7  UNL     1      -3.896   1.240  -1.904  1.00  0.00     0.141 A 
HETATM    7  N5  UNL     1      -4.988   1.682  -2.460  1.00  0.00    -0.383 N 
ATOM      8  H51 UNL     1      -5.899   1.458  -2.060  1.00  0.00     0.157 HD
ATOM      9  H52 UNL     1      -4.904   2.254  -3.300  1.00  0.00     0.157 HD
HETATM   10  C8  UNL     1      -4.010   0.464  -0.765  1.00  0.00     0.095 A 
HETATM   11  N6  UNL     1      -5.178   0.155  -0.215  1.00  0.00    -0.348 N 
ATOM     12  H6  UNL     1      -6.041   0.495  -0.640  1.00  0.00     0.167 HD
HETATM   13  C9  UNL     1      -5.238  -0.599   0.893  1.00  0.00     0.182 A 
HETATM   14  N7  UNL     1      -4.143  -1.072   1.495  1.00  0.00    -0.338 N 
ATOM     15  H7  UNL     1      -4.218  -1.643   2.337  1.00  0.00     0.168 HD
HETATM   16  C10 UNL     1      -2.924  -0.777   0.962  1.00  0.00     0.115 A 
HETATM   17  N8  UNL     1      -1.911  -1.238   1.561  1.00  0.00    -0.385 N 
ATOM     18  H81 UNL     1      -0.999  -1.017   1.162  1.00  0.00     0.157 HD
ATOM     19  H82 UNL     1      -1.982  -1.809   2.403  1.00  0.00     0.157 HD
HETATM   20  C11 UNL     1      -2.828  -0.008  -0.172  1.00  0.00     0.072 A 
ENDROOT
BRANCH   1  21
HETATM   21  C5  UNL     1      -0.381  -0.146  -0.165  1.00  0.00     0.271 C 
HETATM   22  N2  UNL     1       0.401   0.569   0.772  1.00  0.00    -0.350 N 
ATOM     23  H2  UNL     1       0.061   1.482   1.074  1.00  0.00     0.163 HD
HETATM   24  O2  UNL     1       0.057  -1.287  -0.533  1.00  0.00    -0.266 OA
BRANCH  22  25
HETATM   25  C4  UNL     1       1.640   0.101   1.329  1.00  0.00     0.183 C 
BRANCH  25  26
HETATM   26  C3  UNL     1       2.719   0.254   0.319  1.00  0.00     0.064 A 
HETATM   27  C2  UNL     1       4.066  -0.045   0.517  1.00  0.00     0.173 A 
HETATM   28  N1  UNL     1       4.756   0.212  -0.603  1.00  0.00    -0.157 N 
HETATM   29  N10 UNL     1       3.852   0.663  -1.479  1.00  0.00    -0.216 N 
HETATM   30  N9  UNL     1       2.650   0.691  -0.946  1.00  0.00    -0.285 N 
ATOM     31  H10 UNL     1       4.066   0.948  -2.435  1.00  0.00     0.211 HD
ATOM     32  H9  UNL     1       1.800   0.997  -1.420  1.00  0.00     0.188 HD
BRANCH  28  33
HETATM   33  O1  UNL     1       6.108   0.064  -0.849  1.00  0.00    -0.263 OA
HETATM   34  C1  UNL     1       6.899  -0.775  -0.044  1.00  0.00     0.240 C 
ENDBRANCH  28  33
ENDBRANCH  25  26
ENDBRANCH  22  25
ENDBRANCH   1  21
TORSDOF 4
