REMARK  6 active torsions:
REMARK  status: ('A' for Active; 'I' for Inactive)
REMARK    1  A    between atoms: N1_1  and  C1_4 
REMARK    2  A    between atoms: C2_10  and  S1_11 
REMARK    3  A    between atoms: S1_11  and  N4_14 
REMARK    4  A    between atoms: N4_14  and  N5_16 
REMARK    5  A    between atoms: N5_16  and  C3_18 
REMARK    6  A    between atoms: C4_23  and  C5_24 
ROOT
HETATM    1  N4  UNL     1      -0.467   0.697   0.565  1.00  0.00    -0.220 N 
ATOM      2  H4  UNL     1      -0.401   1.663   0.885  1.00  0.00     0.200 HD
ENDROOT
BRANCH   1   3
HETATM    3  S1  UNL     1      -1.496   0.349  -0.761  1.00  0.00     0.297 S 
HETATM    4  O2  UNL     1      -0.899  -0.853  -1.476  1.00  0.00    -0.197 OA
HETATM    5  O3  UNL     1      -1.512   1.465  -1.741  1.00  0.00    -0.197 OA
BRANCH   3   6
HETATM    6  C2  UNL     1      -3.122  -0.039  -0.244  1.00  0.00     0.218 A 
HETATM    7  C1  UNL     1      -4.190   0.814  -0.053  1.00  0.00     0.163 A 
HETATM    8  N2  UNL     1      -5.248   0.085   0.346  1.00  0.00    -0.223 N 
HETATM    9  O1  UNL     1      -4.858  -1.142   0.399  1.00  0.00    -0.154 OA
ATOM     10  H2  UNL     1      -6.180   0.436   0.565  1.00  0.00     0.198 HD
HETATM   11  N3  UNL     1      -3.621  -1.269   0.063  1.00  0.00    -0.225 N 
ATOM     12  H3  UNL     1      -3.101  -2.146   0.032  1.00  0.00     0.198 HD
BRANCH   7  13
HETATM   13  N1  UNL     1      -4.187   2.093  -0.225  1.00  0.00    -0.382 N 
ATOM     14  H12 UNL     1      -4.976   2.723  -0.084  1.00  0.00     0.157 HD
ATOM     15  H11 UNL     1      -3.385   2.646  -0.528  1.00  0.00     0.157 HD
ENDBRANCH   7  13
ENDBRANCH   3   6
ENDBRANCH   1   3
BRANCH   1  16
HETATM   16  N5  UNL     1       0.275  -0.259   1.220  1.00  0.00    -0.269 N 
ATOM     17  H5  UNL     1      -0.125  -0.819   1.973  1.00  0.00     0.190 HD
BRANCH  16  18
HETATM   18  C3  UNL     1       1.518  -0.419   0.835  1.00  0.00     0.180 A 
HETATM   19  N6  UNL     1       2.182   0.232  -0.126  1.00  0.00    -0.277 N 
HETATM   20  N7  UNL     1       3.394  -0.074  -0.346  1.00  0.00    -0.286 N 
ATOM     21  H6  UNL     1       1.723   0.961  -0.672  1.00  0.00     0.189 HD
HETATM   22  C4  UNL     1       3.986  -1.020   0.364  1.00  0.00     0.169 A 
ATOM     23  H7  UNL     1       3.915   0.413  -1.075  1.00  0.00     0.188 HD
HETATM   24  S2  UNL     1       2.723  -1.496   1.409  1.00  0.00    -0.025 SA
BRANCH  22  25
HETATM   25  C5  UNL     1       5.362  -1.496   0.245  1.00  0.00     0.235 C 
HETATM   26  O4  UNL     1       5.759  -2.410   1.008  1.00  0.00    -0.642 OA
HETATM   27  O5  UNL     1       6.248  -0.980  -0.676  1.00  0.00    -0.642 OA
ENDBRANCH  22  25
ENDBRANCH  16  18
ENDBRANCH   1  16
TORSDOF 6
