REMARK  8 active torsions:
REMARK  status: ('A' for Active; 'I' for Inactive)
REMARK    1  A    between atoms: O1_2  and  C2_3 
REMARK    2  A    between atoms: C4_9  and  N3_10 
REMARK    3  A    between atoms: C5_15  and  N5_16 
REMARK    4  A    between atoms: N6_20  and  O2_21 
REMARK    5  A    between atoms: C7_23  and  C8_24 
REMARK    6  A    between atoms: C8_24  and  O3_25 
REMARK    7  A    between atoms: O3_25  and  S1_26 
REMARK    8  A    between atoms: S1_26  and  N7_27 
ROOT
HETATM    1  C2  UNL     1      -0.256   1.216  -0.500  1.00  0.00     0.171 A 
HETATM    2  N1  UNL     1       1.057   1.492  -0.566  1.00  0.00    -0.319 N 
ATOM      3  H1  UNL     1       1.348   2.425  -0.857  1.00  0.00     0.169 HD
HETATM    4  C3  UNL     1       2.003   0.583  -0.262  1.00  0.00     0.156 A 
HETATM    5  N2  UNL     1       3.302   0.914  -0.341  1.00  0.00    -0.174 N 
ATOM      6  H2  UNL     1       3.593   1.848  -0.630  1.00  0.00     0.186 HD
HETATM    7  C4  UNL     1       4.198  -0.024  -0.028  1.00  0.00     0.679 A 
HETATM    8  N4  UNL     1       3.832  -1.243   0.346  1.00  0.00    -0.175 N 
ATOM      9  H4  UNL     1       4.559  -1.922   0.569  1.00  0.00     0.186 HD
HETATM   10  C5  UNL     1       2.537  -1.627   0.445  1.00  0.00     0.148 A 
HETATM   11  C6  UNL     1       1.615  -0.661   0.124  1.00  0.00     0.151 A 
HETATM   12  N6  UNL     1       0.303  -0.964   0.203  1.00  0.00    -0.215 N 
HETATM   13  C7  UNL     1      -0.631  -0.043  -0.107  1.00  0.00     0.117 A 
ENDROOT
BRANCH  13  14
HETATM   14  C8  UNL     1      -2.054  -0.421  -0.092  1.00  0.00     0.256 C 
BRANCH  14  15
HETATM   15  O3  UNL     1      -2.874   0.460   0.613  1.00  0.00    -0.254 OA
BRANCH  15  16
HETATM   16  S1  UNL     1      -4.443  -0.148   0.500  1.00  0.00     0.355 S 
HETATM   17  O4  UNL     1      -5.157   0.425  -0.721  1.00  0.00    -0.176 OA
HETATM   18  O5  UNL     1      -5.202   0.373   1.692  1.00  0.00    -0.176 OA
BRANCH  16  19
HETATM   19  N7  UNL     1      -4.392  -1.835   0.512  1.00  0.00    -0.306 N 
ATOM     20  H72 UNL     1      -3.537  -2.387   0.578  1.00  0.00     0.171 HD
ATOM     21  H71 UNL     1      -5.341  -2.203   0.444  1.00  0.00     0.171 HD
ENDBRANCH  16  19
ENDBRANCH  15  16
ENDBRANCH  14  15
ENDBRANCH  13  14
BRANCH   1  22
HETATM   22  O1  UNL     1      -1.242   2.142  -0.802  1.00  0.00    -0.339 OA
HETATM   23  C1  UNL     1      -0.932   3.445  -1.193  1.00  0.00     0.211 C 
ENDBRANCH   1  22
BRANCH  12  24
HETATM   24  O2  UNL     1      -0.076  -2.205   0.631  1.00  0.00    -0.282 OA
ATOM     25  H2  UNL     1      -1.000  -2.418   0.687  1.00  0.00     0.245 HD
ENDBRANCH  12  24
BRANCH  10  26
HETATM   26  N5  UNL     1       2.155  -2.783   0.784  1.00  0.00    -0.383 N 
ATOM     27  H52 UNL     1       2.840  -3.500   1.022  1.00  0.00     0.157 HD
ATOM     28  H51 UNL     1       1.180  -3.072   0.859  1.00  0.00     0.157 HD
ENDBRANCH  10  26
BRANCH   7  29
HETATM   29  N3  UNL     1       5.454   0.264  -0.099  1.00  0.00    -0.234 N 
ATOM     30  H32 UNL     1       5.735   1.201  -0.387  1.00  0.00     0.174 HD
ATOM     31  H31 UNL     1       6.139  -0.453   0.140  1.00  0.00     0.174 HD
ENDBRANCH   7  29
TORSDOF 8
