REMARK  7 active torsions:
REMARK  status: ('A' for Active; 'I' for Inactive)
REMARK    1  A    between atoms: N1_1  and  C1_5 
REMARK    2  A    between atoms: C1_5  and  C2_6 
REMARK    3  A    between atoms: C1_5  and  C3_9 
REMARK    4  A    between atoms: C2_6  and  O1_7 
REMARK    5  A    between atoms: C3_9  and  N2_10 
REMARK    6  A    between atoms: N2_10  and  C4_12 
REMARK    7  A    between atoms: C8_23  and  C9_24 
ROOT
HETATM    1  C4  UNL     1      -0.275  -0.477   1.076  1.00  0.00     0.133 A 
HETATM    2  N3  UNL     1      -0.806  -1.405   1.890  1.00  0.00    -0.337 N 
ATOM      3  H3  UNL     1      -1.782  -1.310   2.172  1.00  0.00     0.168 HD
HETATM    4  C5  UNL     1      -0.099  -2.456   2.348  1.00  0.00     0.183 A 
HETATM    5  N4  UNL     1       1.185  -2.549   1.958  1.00  0.00    -0.337 N 
ATOM      6  H4  UNL     1       1.736  -3.338   2.297  1.00  0.00     0.168 HD
HETATM    7  C6  UNL     1       1.783  -1.659   1.146  1.00  0.00     0.140 A 
HETATM    8  N5  UNL     1       3.056  -1.751   0.758  1.00  0.00    -0.305 N 
ATOM      9  H5  UNL     1       3.622  -2.534   1.086  1.00  0.00     0.170 HD
HETATM   10  C7  UNL     1       3.605  -0.841  -0.050  1.00  0.00     0.277 A 
HETATM   11  O2  UNL     1       4.814  -0.913  -0.428  1.00  0.00    -0.265 OA
HETATM   12  C8  UNL     1       2.871   0.228  -0.511  1.00  0.00     0.148 A 
HETATM   13  N10 UNL     1       1.584   0.340  -0.132  1.00  0.00    -0.343 N 
ATOM     14  H10 UNL     1       1.018   1.123  -0.460  1.00  0.00     0.166 HD
HETATM   15  C10 UNL     1       1.053  -0.585   0.679  1.00  0.00     0.122 A 
ENDROOT
BRANCH   1  16
HETATM   16  N2  UNL     1      -0.934   0.534   0.627  1.00  0.00    -0.372 N 
ATOM     17  H2  UNL     1      -0.443   1.185   0.014  1.00  0.00     0.161 HD
BRANCH  16  18
HETATM   18  C3  UNL     1      -2.304   0.810   0.925  1.00  0.00     0.156 C 
BRANCH  18  19
HETATM   19  C1  UNL     1      -3.261   0.031   0.057  1.00  0.00     0.224 C 
BRANCH  19  20
HETATM   20  N1  UNL     1      -4.624   0.358   0.411  1.00  0.00    -0.071 N 
ATOM     21  H13 UNL     1      -4.875   1.319   0.180  1.00  0.00     0.274 HD
ATOM     22  H12 UNL     1      -5.312  -0.105  -0.183  1.00  0.00     0.274 HD
ATOM     23  H11 UNL     1      -4.743   0.142   1.401  1.00  0.00     0.274 HD
ENDBRANCH  19  20
BRANCH  19  24
HETATM   24  C2  UNL     1      -3.085   0.350  -1.405  1.00  0.00     0.198 C 
BRANCH  24  25
HETATM   25  O1  UNL     1      -3.312   1.671  -1.698  1.00  0.00    -0.399 OA
ATOM     26  H1  UNL     1      -3.201   1.872  -2.620  1.00  0.00     0.209 HD
ENDBRANCH  24  25
ENDBRANCH  19  24
ENDBRANCH  18  19
ENDBRANCH  16  18
ENDBRANCH   1  16
BRANCH  12  27
HETATM   27  C9  UNL     1       3.498   1.213  -1.397  1.00  0.00     0.164 A 
HETATM   28  N6  UNL     1       2.928   2.303  -1.930  1.00  0.00    -0.268 N 
HETATM   29  N7  UNL     1       3.850   2.921  -2.673  1.00  0.00    -0.007 NA
ATOM     30  H6  UNL     1       1.964   2.606  -1.793  1.00  0.00     0.185 HD
HETATM   31  N8  UNL     1       4.982   2.240  -2.614  1.00  0.00    -0.007 NA
HETATM   32  N9  UNL     1       4.751   1.196  -1.829  1.00  0.00    -0.268 N 
ATOM     33  H9  UNL     1       5.440   0.482  -1.592  1.00  0.00     0.185 HD
ENDBRANCH  12  27
TORSDOF 7
