REMARK  5 active torsions:
REMARK  status: ('A' for Active; 'I' for Inactive)
REMARK    1  A    between atoms: O1_2  and  C2_3 
REMARK    2  A    between atoms: C2_3  and  C3_4 
REMARK       I    between atoms: C3_4  and  N1_6 
REMARK       I    between atoms: N1_6  and  C4_8 
REMARK       I    between atoms: C4_8  and  N2_10 
REMARK    3  A    between atoms: N2_10  and  N3_12 
REMARK       I    between atoms: C5_14  and  N5_16 
REMARK    4  A    between atoms: N5_16  and  N6_18 
REMARK    5  A    between atoms: C6_20  and  C8_22 
ROOT
HETATM    1  N3  UNL     1      -0.319   0.431  -1.375  1.00  0.00    -0.268 N 
ATOM      2  H3  UNL     1      -0.952  -0.180  -1.891  1.00  0.00     0.190 HD
HETATM    3  C5  UNL     1      -0.671   1.599  -0.998  1.00  0.00     0.222 C 
HETATM    4  N4  UNL     1       0.210   2.436  -0.288  1.00  0.00    -0.061 NA
HETATM    5  N5  UNL     1      -1.977   2.068  -1.300  1.00  0.00    -0.272 N 
ATOM      6  H5  UNL     1      -2.119   3.024  -1.627  1.00  0.00     0.189 HD
ENDROOT
BRANCH   1   7
HETATM    7  N2  UNL     1       1.013   0.023  -1.036  1.00  0.00    -0.249 N 
HETATM    8  C4  UNL     1       1.222  -1.232  -0.454  1.00  0.00     0.341 C 
HETATM    9  N1  UNL     1       2.472  -1.725  -0.087  1.00  0.00    -0.276 N 
HETATM   10  O3  UNL     1       0.171  -1.943  -0.262  1.00  0.00    -0.245 OA
HETATM   11  C3  UNL     1       3.729  -1.109  -0.213  1.00  0.00     0.249 C 
ATOM     12  H1  UNL     1       2.476  -2.657   0.328  1.00  0.00     0.173 HD
HETATM   13  O2  UNL     1       3.846   0.019  -0.700  1.00  0.00    -0.271 OA
ATOM     14  H2  UNL     1       1.802   0.643  -1.218  1.00  0.00     0.192 HD
BRANCH  11  15
HETATM   15  C2  UNL     1       4.927  -1.813   0.242  1.00  0.00     0.270 C 
BRANCH  15  16
HETATM   16  O1  UNL     1       6.119  -1.204   0.125  1.00  0.00    -0.387 OA
HETATM   17  C1  UNL     1       6.349  -0.030   0.766  1.00  0.00     0.202 C 
ENDBRANCH  15  16
ENDBRANCH  11  15
ENDBRANCH   1   7
BRANCH   5  18
HETATM   18  N6  UNL     1      -3.064   1.207  -1.144  1.00  0.00    -0.298 N 
HETATM   19  C6  UNL     1      -3.464   0.873   0.019  1.00  0.00     0.075 C 
HETATM   20  C7  UNL     1      -2.777   1.397   1.209  1.00  0.00     0.074 C 
ATOM     21  H6  UNL     1      -3.542   0.842  -1.968  1.00  0.00     0.186 HD
BRANCH  19  22
HETATM   22  C8  UNL     1      -4.612  -0.035   0.121  1.00  0.00     0.195 A 
HETATM   23  N7  UNL     1      -5.151  -0.479   1.272  1.00  0.00    -0.233 N 
HETATM   24  O4  UNL     1      -6.141  -1.256   0.929  1.00  0.00    -0.192 OA
ATOM     25  H7  UNL     1      -4.847  -0.254   2.219  1.00  0.00     0.197 HD
HETATM   26  C9  UNL     1      -6.250  -1.322  -0.357  1.00  0.00     0.287 A 
HETATM   27  N8  UNL     1      -7.140  -2.015  -0.986  1.00  0.00    -0.357 N 
HETATM   28  O5  UNL     1      -5.302  -0.566  -0.846  1.00  0.00    -0.252 OA
ATOM     29  H82 UNL     1      -7.880  -2.605  -0.605  1.00  0.00     0.160 HD
ATOM     30  H81 UNL     1      -7.226  -2.067  -2.001  1.00  0.00     0.160 HD
ENDBRANCH  19  22
ENDBRANCH   5  18
TORSDOF 5
