REMARK  6 active torsions:
REMARK  status: ('A' for Active; 'I' for Inactive)
REMARK    1  A    between atoms: C2_3  and  N2_4 
REMARK    2  A    between atoms: C2_3  and  C12_28 
REMARK       I    between atoms: N2_4  and  C3_6 
REMARK    3  A    between atoms: C3_6  and  C4_8 
REMARK    4  A    between atoms: C5_11  and  N4_12 
REMARK    5  A    between atoms: C6_17  and  N6_18 
REMARK    6  A    between atoms: N7_24  and  N8_25 
ROOT
HETATM    1  N1  UNL     1       6.551   2.171   0.058  1.00  0.00    -0.195 NA
HETATM    2  C1  UNL     1       5.809   1.345  -0.198  1.00  0.00     0.094 C 
HETATM    3  C2  UNL     1       4.888   0.284  -0.529  1.00  0.00     0.282 C 
ENDROOT
BRANCH   3   4
HETATM    4  N2  UNL     1       3.656   0.338   0.210  1.00  0.00    -0.330 N 
HETATM    5  C3  UNL     1       2.374   0.368  -0.384  1.00  0.00     0.290 C 
HETATM    6  O1  UNL     1       2.234   0.349  -1.621  1.00  0.00    -0.264 OA
ATOM      7  H2  UNL     1       3.711   0.356   1.228  1.00  0.00     0.164 HD
BRANCH   5   8
HETATM    8  C4  UNL     1       1.180   0.423   0.442  1.00  0.00     0.227 A 
HETATM    9  N3  UNL     1       1.225   0.447   1.784  1.00  0.00    -0.168 N 
HETATM   10  C5  UNL     1       0.138   0.498   2.571  1.00  0.00     0.692 A 
ATOM     11  H3  UNL     1       2.141   0.425   2.233  1.00  0.00     0.186 HD
HETATM   12  N5  UNL     1      -1.057   0.525   1.993  1.00  0.00    -0.021 N 
HETATM   13  C6  UNL     1      -1.175   0.503   0.627  1.00  0.00     0.717 A 
ATOM     14  H5  UNL     1      -1.896   0.563   2.571  1.00  0.00     0.203 HD
HETATM   15  N7  UNL     1      -0.067   0.453  -0.126  1.00  0.00    -0.070 N 
BRANCH  10  16
HETATM   16  N4  UNL     1       0.268   0.519   3.882  1.00  0.00    -0.234 N 
ATOM     17  H42 UNL     1       1.186   0.498   4.326  1.00  0.00     0.174 HD
ATOM     18  H41 UNL     1      -0.558   0.558   4.480  1.00  0.00     0.174 HD
ENDBRANCH  10  16
BRANCH  13  19
HETATM   19  N6  UNL     1      -2.499   0.537   0.135  1.00  0.00    -0.215 N 
HETATM   20  C7  UNL     1      -3.629   0.599   1.063  1.00  0.00     0.141 C 
HETATM   21  C8  UNL     1      -4.626  -0.507   0.810  1.00  0.00     0.020 C 
HETATM   22  C9  UNL     1      -4.892  -0.699  -0.649  1.00  0.00     0.003 C 
HETATM   23  C10 UNL     1      -4.410   0.532  -1.377  1.00  0.00     0.020 C 
HETATM   24  C11 UNL     1      -2.871   0.516  -1.265  1.00  0.00     0.141 C 
ENDBRANCH  13  19
BRANCH  15  25
HETATM   25  N8  UNL     1      -0.145   0.429  -1.513  1.00  0.00    -0.322 N 
ATOM     26  H82 UNL     1       0.698   0.391  -2.086  1.00  0.00     0.178 HD
ATOM     27  H81 UNL     1      -1.073   0.451  -1.936  1.00  0.00     0.178 HD
ENDBRANCH  15  25
ENDBRANCH   5   8
ENDBRANCH   3   4
BRANCH   3  28
HETATM   28  C12 UNL     1       5.493  -1.062  -0.271  1.00  0.00     0.268 C 
HETATM   29  N9  UNL     1       6.734  -1.335  -0.910  1.00  0.00    -0.059 NA
HETATM   30  O2  UNL     1       4.952  -1.918   0.466  1.00  0.00    -0.273 OA
ENDBRANCH   3  28
TORSDOF 6
