REMARK  4 active torsions:
REMARK  status: ('A' for Active; 'I' for Inactive)
REMARK    1  A    between atoms: C2_2  and  C3_4 
REMARK    2  A    between atoms: C4_7  and  C5_8 
REMARK    3  A    between atoms: N2_9  and  C6_11 
REMARK    4  A    between atoms: C9_22  and  N7_23 
ROOT
HETATM    1  C6  UNL     1      -2.376   0.072   0.103  1.00  0.00     0.157 A 
HETATM    2  N3  UNL     1      -2.934  -1.047   0.724  1.00  0.00    -0.174 N 
ATOM      3  H3  UNL     1      -2.329  -1.657   1.273  1.00  0.00     0.186 HD
HETATM    4  C7  UNL     1      -4.213  -1.343   0.626  1.00  0.00     0.678 A 
HETATM    5  N4  UNL     1      -4.748  -2.371   1.243  1.00  0.00    -0.234 N 
ATOM      6  H41 UNL     1      -5.739  -2.600   1.167  1.00  0.00     0.174 HD
ATOM      7  H42 UNL     1      -4.106  -2.949   1.786  1.00  0.00     0.174 HD
HETATM    8  N5  UNL     1      -5.083  -0.560  -0.110  1.00  0.00    -0.176 N 
ATOM      9  H5  UNL     1      -6.072  -0.801  -0.179  1.00  0.00     0.185 HD
HETATM   10  C8  UNL     1      -4.600   0.511  -0.723  1.00  0.00     0.168 A 
HETATM   11  N6  UNL     1      -5.436   1.367  -1.527  1.00  0.00    -0.079 NA
HETATM   12  C9  UNL     1      -3.282   0.813  -0.618  1.00  0.00     0.188 A 
ENDROOT
BRANCH   1  13
HETATM   13  N2  UNL     1      -1.204   0.334   0.263  1.00  0.00    -0.347 N 
HETATM   14  C5  UNL     1      -0.097   1.089   0.065  1.00  0.00     0.122 C 
ATOM     15  H2  UNL     1      -0.875  -0.414   0.873  1.00  0.00     0.167 HD
BRANCH  14  16
HETATM   16  C4  UNL     1       1.235   0.378   0.047  1.00  0.00     0.091 A 
HETATM   17  N1  UNL     1       2.079   0.099  -0.916  1.00  0.00    -0.335 N 
HETATM   18  C3  UNL     1       3.305  -0.273  -0.445  1.00  0.00     0.155 A 
ATOM     19  H1  UNL     1       1.846   0.154  -1.907  1.00  0.00     0.168 HD
HETATM   20  N9  UNL     1       3.199  -0.222   0.914  1.00  0.00    -0.321 N 
HETATM   21  C10 UNL     1       1.957   0.170   1.236  1.00  0.00     0.148 A 
HETATM   22  C11 UNL     1       4.185  -0.584   1.904  1.00  0.00     0.159 C 
HETATM   23  N8  UNL     1       1.344   0.294   2.518  1.00  0.00    -0.080 NA
BRANCH  18  24
HETATM   24  C2  UNL     1       4.488  -0.565  -1.222  1.00  0.00     0.189 C 
HETATM   25  C1  UNL     1       5.774  -1.041  -0.709  1.00  0.00     0.100 C 
HETATM   26  O1  UNL     1       4.410  -0.393  -2.488  1.00  0.00    -0.290 OA
ENDBRANCH  18  24
ENDBRANCH  14  16
ENDBRANCH   1  13
BRANCH  12  27
HETATM   27  N7  UNL     1      -2.788   1.961  -1.347  1.00  0.00    -0.108 N 
HETATM   28  O2  UNL     1      -2.596   3.001  -0.690  1.00  0.00    -0.532 OA
HETATM   29  O3  UNL     1      -2.541   1.942  -2.688  1.00  0.00    -0.532 OA
ENDBRANCH  12  27
TORSDOF 4
