REMARK  5 active torsions:
REMARK  status: ('A' for Active; 'I' for Inactive)
REMARK    1  A    between atoms: C2_7  and  C3_8 
REMARK    2  A    between atoms: C3_8  and  N3_9 
REMARK    3  A    between atoms: C5_15  and  C6_16 
REMARK    4  A    between atoms: C6_16  and  N6_17 
REMARK    5  A    between atoms: N6_17  and  N7_19 
ROOT
HETATM    1  N1  UNL     1      -3.091   1.627  -1.545  1.00  0.00    -0.383 N 
ATOM      2  H11 UNL     1      -4.059   1.805  -1.813  1.00  0.00     0.157 HD
ATOM      3  H12 UNL     1      -2.373   1.764  -2.256  1.00  0.00     0.157 HD
HETATM    4  C1  UNL     1      -2.768   1.246  -0.370  1.00  0.00     0.132 A 
HETATM    5  N2  UNL     1      -1.492   1.011  -0.017  1.00  0.00    -0.329 N 
ATOM      6  H2  UNL     1      -0.762   1.144  -0.717  1.00  0.00     0.168 HD
HETATM    7  C2  UNL     1      -1.137   0.614   1.201  1.00  0.00     0.104 A 
HETATM    8  N10 UNL     1      -2.088   0.424   2.171  1.00  0.00    -0.328 N 
ATOM      9  H10 UNL     1      -1.827   0.120   3.109  1.00  0.00     0.169 HD
HETATM   10  C8  UNL     1      -3.385   0.652   1.849  1.00  0.00     0.151 A 
HETATM   11  N11 UNL     1      -4.510   0.545   2.597  1.00  0.00    -0.267 N 
ATOM     12  H11 UNL     1      -4.568   0.261   3.575  1.00  0.00     0.186 HD
HETATM   13  N12 UNL     1      -5.518   0.881   1.811  1.00  0.00    -0.020 NA
HETATM   14  N13 UNL     1      -5.087   1.195   0.603  1.00  0.00    -0.277 N 
ATOM     15  H13 UNL     1      -5.669   1.487  -0.182  1.00  0.00     0.184 HD
HETATM   16  C9  UNL     1      -3.731   1.062   0.584  1.00  0.00     0.135 A 
ENDROOT
BRANCH   7  17
HETATM   17  C3  UNL     1       0.262   0.348   1.617  1.00  0.00     0.227 C 
BRANCH  17  18
HETATM   18  N3  UNL     1       0.584  -1.055   1.460  1.00  0.00    -0.267 N 
HETATM   19  N4  UNL     1       0.250  -1.942   2.427  1.00  0.00    -0.292 N 
HETATM   20  C4  UNL     1       0.617  -3.165   2.023  1.00  0.00     0.199 A 
ATOM     21  H4  UNL     1      -0.204  -1.717   3.312  1.00  0.00     0.188 HD
HETATM   22  N5  UNL     1       1.169  -3.015   0.820  1.00  0.00    -0.335 N 
HETATM   23  C5  UNL     1       1.159  -1.693   0.449  1.00  0.00     0.140 A 
ATOM     24  H5  UNL     1       1.546  -3.775   0.254  1.00  0.00     0.168 HD
BRANCH  23  25
HETATM   25  C6  UNL     1       1.710  -1.153  -0.776  1.00  0.00     0.157 C 
BRANCH  25  26
HETATM   26  N6  UNL     1       1.788   0.066  -1.113  1.00  0.00    -0.306 N 
ATOM     27  H6  UNL     1       1.431   0.775  -0.472  1.00  0.00     0.186 HD
BRANCH  26  28
HETATM   28  N7  UNL     1       2.340   0.476  -2.319  1.00  0.00    -0.276 N 
HETATM   29  C7  UNL     1       3.621   0.421  -2.562  1.00  0.00     0.215 C 
HETATM   30  N8  UNL     1       4.085   0.863  -3.824  1.00  0.00    -0.065 NA
HETATM   31  N9  UNL     1       4.552  -0.064  -1.608  1.00  0.00    -0.065 NA
ATOM     32  H7  UNL     1       1.719   0.835  -3.045  1.00  0.00     0.189 HD
ENDBRANCH  26  28
ENDBRANCH  25  26
ENDBRANCH  23  25
ENDBRANCH  17  18
ENDBRANCH   7  17
TORSDOF 5
