REMARK  22 active torsions:
REMARK  status: ('A' for Active; 'I' for Inactive)
REMARK    1  A    between atoms: C2_2  and  O2_4 
REMARK    2  A    between atoms: O2_4  and  C3_5 
REMARK    3  A    between atoms: C3_5  and  C4_6 
REMARK    4  A    between atoms: C4_6  and  O3_7 
REMARK    5  A    between atoms: O3_7  and  C5_8 
REMARK    6  A    between atoms: C7_11  and  C8_12 
REMARK    7  A    between atoms: C9_16  and  O8_17 
REMARK    8  A    between atoms: O8_17  and  C10_18 
REMARK    9  A    between atoms: C10_18  and  C11_19 
REMARK   10  A    between atoms: C12_20  and  O9_21 
REMARK   11  A    between atoms: C13_23  and  O10_24 
REMARK   12  A    between atoms: C14_26  and  O11_27 
REMARK   13  A    between atoms: C15_29  and  O12_30 
REMARK   14  A    between atoms: O12_30  and  C16_31 
REMARK   15  A    between atoms: C16_31  and  C17_33 
REMARK   16  A    between atoms: C19_35  and  O14_36 
REMARK   17  A    between atoms: C20_38  and  O15_39 
REMARK   18  A    between atoms: C21_41  and  O16_42 
REMARK   19  A    between atoms: C23_45  and  O17_46 
REMARK   20  A    between atoms: O17_46  and  C24_47 
REMARK   21  A    between atoms: N1_48  and  O18_50 
REMARK   22  A    between atoms: C25_52  and  O19_53 
ROOT
HETATM    1  C11 UNL     1       0.169   0.996   0.713  1.00  0.00     0.073 C 
HETATM    2  C12 UNL     1       0.043   2.416   0.231  1.00  0.00     0.158 C 
HETATM    3  C13 UNL     1       1.183   2.852  -0.620  1.00  0.00     0.178 C 
HETATM    4  C14 UNL     1       2.539   2.529   0.028  1.00  0.00     0.181 C 
HETATM    5  C15 UNL     1       2.536   1.045   0.230  1.00  0.00     0.193 C 
HETATM    6  C23 UNL     1       1.512   0.763   1.341  1.00  0.00     0.170 C 
ENDROOT
BRANCH   1   7
HETATM    7  C10 UNL     1      -1.011   0.525   1.460  1.00  0.00     0.181 C 
BRANCH   7   8
HETATM    8  O8  UNL     1      -2.150   0.540   0.670  1.00  0.00    -0.358 OA
BRANCH   8   9
HETATM    9  C9  UNL     1      -2.135  -0.324  -0.394  1.00  0.00     0.292 C 
HETATM   10  O7  UNL     1      -2.441   0.358  -1.564  1.00  0.00    -0.339 OA
HETATM   11  C7  UNL     1      -3.593  -0.213  -2.116  1.00  0.00     0.265 C 
HETATM   12  C4  UNL     1      -4.392  -0.404  -0.818  1.00  0.00     0.159 C 
HETATM   13  C25 UNL     1      -3.332  -1.311  -0.167  1.00  0.00     0.213 C 
BRANCH  11  14
HETATM   14  C8  UNL     1      -4.190   0.561  -3.162  1.00  0.00     0.206 C 
HETATM   15  O5  UNL     1      -5.236   0.178  -3.750  1.00  0.00    -0.646 OA
HETATM   16  O6  UNL     1      -3.644   1.786  -3.595  1.00  0.00    -0.646 OA
ENDBRANCH  11  14
BRANCH  12  17
HETATM   17  C3  UNL     1      -5.736  -0.952  -0.968  1.00  0.00     0.223 C 
BRANCH  17  18
HETATM   18  O2  UNL     1      -6.018  -2.159  -1.521  1.00  0.00    -0.319 OA
BRANCH  18  19
HETATM   19  C2  UNL     1      -5.931  -3.424  -0.998  1.00  0.00     0.254 C 
HETATM   20  C1  UNL     1      -6.255  -4.650  -1.786  1.00  0.00     0.126 C 
HETATM   21  O1  UNL     1      -5.564  -3.576   0.194  1.00  0.00    -0.266 OA
ENDBRANCH  18  19
ENDBRANCH  17  18
ENDBRANCH  12  17
BRANCH  12  22
HETATM   22  O3  UNL     1      -4.343   0.770  -0.041  1.00  0.00    -0.302 OA
BRANCH  22  23
HETATM   23  C5  UNL     1      -4.992   1.943  -0.170  1.00  0.00     0.255 C 
HETATM   24  C6  UNL     1      -4.748   3.074   0.800  1.00  0.00     0.126 C 
HETATM   25  O4  UNL     1      -5.808   2.089  -1.109  1.00  0.00    -0.266 OA
ENDBRANCH  22  23
ENDBRANCH  12  22
BRANCH  13  26
HETATM   26  O19 UNL     1      -2.972  -2.383  -0.967  1.00  0.00    -0.387 OA
ATOM     27  H19 UNL     1      -2.318  -2.943  -0.565  1.00  0.00     0.210 HD
ENDBRANCH  13  26
ENDBRANCH   8   9
ENDBRANCH   7   8
ENDBRANCH   1   7
BRANCH   2  28
HETATM   28  O9  UNL     1      -0.232   3.291   1.273  1.00  0.00    -0.392 OA
ATOM     29  H9  UNL     1      -0.312   4.187   0.969  1.00  0.00     0.210 HD
ENDBRANCH   2  28
BRANCH   6  30
HETATM   30  O17 UNL     1       1.811   1.646   2.385  1.00  0.00    -0.336 OA
BRANCH  30  31
HETATM   31  C24 UNL     1       1.061   1.687   3.549  1.00  0.00     0.248 C 
HETATM   32  N1  UNL     1       1.027   0.549   4.185  1.00  0.00    -0.259 N 
ATOM     33  H1  UNL     1       1.519  -0.269   3.826  1.00  0.00     0.195 HD
BRANCH  32  34
HETATM   34  O18 UNL     1       0.311   0.486   5.349  1.00  0.00    -0.289 OA
ATOM     35  H18 UNL     1       0.286  -0.343   5.812  1.00  0.00     0.244 HD
ENDBRANCH  32  34
ENDBRANCH  30  31
ENDBRANCH   6  30
BRANCH   3  36
HETATM   36  O10 UNL     1       1.133   2.426  -1.927  1.00  0.00    -0.390 OA
ATOM     37  H10 UNL     1       1.861   2.704  -2.470  1.00  0.00     0.210 HD
ENDBRANCH   3  36
BRANCH   5  38
HETATM   38  O12 UNL     1       3.760   0.437   0.430  1.00  0.00    -0.307 OA
BRANCH  38  39
HETATM   39  C16 UNL     1       4.323  -0.528  -0.384  1.00  0.00     0.294 C 
HETATM   40  O13 UNL     1       3.676  -0.879  -1.381  1.00  0.00    -0.259 OA
BRANCH  39  41
HETATM   41  C17 UNL     1       5.624  -1.115  -0.089  1.00  0.00     0.045 A 
HETATM   42  C18 UNL     1       6.345  -0.724   1.034  1.00  0.00     0.057 A 
HETATM   43  C19 UNL     1       7.580  -1.284   1.310  1.00  0.00     0.102 A 
HETATM   44  C20 UNL     1       8.098  -2.232   0.469  1.00  0.00     0.132 A 
HETATM   45  C21 UNL     1       7.408  -2.652  -0.669  1.00  0.00     0.102 A 
HETATM   46  C22 UNL     1       6.189  -2.072  -0.905  1.00  0.00     0.057 A 
BRANCH  43  47
HETATM   47  O14 UNL     1       8.300  -0.899   2.425  1.00  0.00    -0.358 OA
ATOM     48  H14 UNL     1       9.148  -1.283   2.614  1.00  0.00     0.217 HD
ENDBRANCH  43  47
BRANCH  44  49
HETATM   49  O15 UNL     1       9.328  -2.819   0.704  1.00  0.00    -0.356 OA
ATOM     50  H15 UNL     1       9.687  -3.477   0.120  1.00  0.00     0.218 HD
ENDBRANCH  44  49
BRANCH  45  51
HETATM   51  O16 UNL     1       7.965  -3.621  -1.506  1.00  0.00    -0.358 OA
ATOM     52  H16 UNL     1       7.495  -3.907  -2.281  1.00  0.00     0.217 HD
ENDBRANCH  45  51
ENDBRANCH  39  41
ENDBRANCH  38  39
ENDBRANCH   5  38
BRANCH   4  53
HETATM   53  O11 UNL     1       3.502   2.953  -0.883  1.00  0.00    -0.390 OA
ATOM     54  H11 UNL     1       4.340   2.753  -0.483  1.00  0.00     0.210 HD
ENDBRANCH   4  53
TORSDOF 22
