REMARK  18 active torsions:
REMARK  status: ('A' for Active; 'I' for Inactive)
REMARK    1  A    between atoms: O1_2  and  C2_3 
REMARK    2  A    between atoms: C2_3  and  O2_4 
REMARK    3  A    between atoms: C2_3  and  C3_6 
REMARK    4  A    between atoms: C3_6  and  S1_7 
REMARK    5  A    between atoms: S1_7  and  C4_8 
REMARK    6  A    between atoms: C7_12  and  O4_13 
REMARK    7  A    between atoms: O4_13  and  C8_14 
REMARK    8  A    between atoms: C9_16  and  C10_17 
REMARK    9  A    between atoms: C11_20  and  O8_21 
REMARK   10  A    between atoms: C12_23  and  O9_24 
REMARK   11  A    between atoms: C14_28  and  O11_29 
REMARK   12  A    between atoms: O11_29  and  C15_30 
REMARK   13  A    between atoms: C15_30  and  C16_32 
REMARK   14  A    between atoms: C17_33  and  C19_35 
REMARK   15  A    between atoms: C19_35  and  O13_36 
REMARK   16  A    between atoms: C19_35  and  O14_38 
REMARK   17  A    between atoms: C21_43  and  O17_44 
REMARK   18  A    between atoms: N1_48  and  O19_50 
ROOT
HETATM    1  C4  UNL     1      -2.629  -1.667   1.296  1.00  0.00     0.149 A 
HETATM    2  O3  UNL     1      -1.806  -2.620   1.658  1.00  0.00    -0.293 OA
HETATM    3  C5  UNL     1      -0.619  -2.421   1.142  1.00  0.00     0.165 A 
HETATM    4  C6  UNL     1      -0.666  -1.254   0.387  1.00  0.00     0.144 A 
HETATM    5  C7  UNL     1      -1.937  -0.767   0.478  1.00  0.00     0.149 A 
HETATM    6  O10 UNL     1       0.422  -0.747  -0.300  1.00  0.00    -0.329 OA
HETATM    7  C13 UNL     1       1.793  -0.961  -0.351  1.00  0.00     0.258 C 
HETATM    8  C14 UNL     1       2.424   0.407  -0.015  1.00  0.00     0.314 C 
HETATM    9  O15 UNL     1       2.101   0.429   1.389  1.00  0.00    -0.282 OA
HETATM   10  C20 UNL     1       2.388  -0.858   1.886  1.00  0.00     0.328 C 
HETATM   11  O16 UNL     1       2.596  -1.199   3.068  1.00  0.00    -0.259 OA
HETATM   12  C21 UNL     1       2.403  -1.778   0.729  1.00  0.00     0.291 C 
HETATM   13  O18 UNL     1       1.815  -3.024   0.991  1.00  0.00    -0.282 OA
HETATM   14  C22 UNL     1       0.510  -3.315   1.366  1.00  0.00     0.203 C 
HETATM   15  N1  UNL     1       0.339  -4.450   1.939  1.00  0.00    -0.245 N 
ATOM     16  H1  UNL     1       1.128  -5.077   2.096  1.00  0.00     0.196 HD
ENDROOT
BRANCH   5  17
HETATM   17  O4  UNL     1      -2.380   0.379  -0.134  1.00  0.00    -0.311 OA
BRANCH  17  18
HETATM   18  C8  UNL     1      -2.326   1.645   0.446  1.00  0.00     0.299 C 
HETATM   19  O5  UNL     1      -1.554   2.548  -0.273  1.00  0.00    -0.340 OA
HETATM   20  C9  UNL     1      -2.376   3.203  -1.148  1.00  0.00     0.256 C 
HETATM   21  C11 UNL     1      -3.778   3.162  -0.596  1.00  0.00     0.191 C 
HETATM   22  C12 UNL     1      -3.675   2.291   0.637  1.00  0.00     0.205 C 
BRANCH  20  23
HETATM   23  C10 UNL     1      -1.885   4.571  -1.395  1.00  0.00     0.206 C 
HETATM   24  O6  UNL     1      -2.466   5.381  -2.166  1.00  0.00    -0.646 OA
HETATM   25  O7  UNL     1      -0.733   5.003  -0.761  1.00  0.00    -0.646 OA
ENDBRANCH  20  23
BRANCH  21  26
HETATM   26  O8  UNL     1      -4.293   4.417  -0.328  1.00  0.00    -0.390 OA
ATOM     27  H8  UNL     1      -5.177   4.391   0.020  1.00  0.00     0.210 HD
ENDBRANCH  21  26
BRANCH  22  28
HETATM   28  O9  UNL     1      -3.648   3.059   1.790  1.00  0.00    -0.388 OA
ATOM     29  H9  UNL     1      -4.498   3.466   1.910  1.00  0.00     0.210 HD
ENDBRANCH  22  28
ENDBRANCH  17  18
ENDBRANCH   5  17
BRANCH   1  30
HETATM   30  S1  UNL     1      -4.349  -1.449   1.711  1.00  0.00    -0.097 SA
BRANCH  30  31
HETATM   31  C3  UNL     1      -5.348  -2.288   0.465  1.00  0.00     0.141 C 
BRANCH  31  32
HETATM   32  C2  UNL     1      -5.174  -3.783   0.512  1.00  0.00     0.265 C 
BRANCH  32  33
HETATM   33  O1  UNL     1      -5.959  -4.420  -0.454  1.00  0.00    -0.366 OA
HETATM   34  C1  UNL     1      -6.881  -5.284   0.111  1.00  0.00     0.204 C 
ENDBRANCH  32  33
BRANCH  32  35
HETATM   35  O2  UNL     1      -3.841  -4.154   0.369  1.00  0.00    -0.371 OA
ATOM     36  H2  UNL     1      -3.308  -3.721   1.025  1.00  0.00     0.212 HD
ENDBRANCH  32  35
ENDBRANCH  31  32
ENDBRANCH  30  31
ENDBRANCH   1  30
BRANCH  15  37
HETATM   37  O19 UNL     1      -0.925  -4.803   2.336  1.00  0.00    -0.288 OA
ATOM     38  H19 UNL     1      -1.052  -5.643   2.760  1.00  0.00     0.244 HD
ENDBRANCH  15  37
BRANCH   8  39
HETATM   39  O11 UNL     1       3.830   0.329  -0.167  1.00  0.00    -0.283 OA
BRANCH  39  40
HETATM   40  C15 UNL     1       4.529   1.267  -0.959  1.00  0.00     0.285 C 
HETATM   41  O12 UNL     1       3.787   2.123  -1.478  1.00  0.00    -0.260 OA
BRANCH  40  42
HETATM   42  C16 UNL     1       5.956   1.203  -1.124  1.00  0.00     0.089 C 
HETATM   43  C17 UNL     1       6.831   1.869  -1.743  1.00  0.00    -0.024 C 
HETATM   44  C18 UNL     1       8.288   1.378  -1.597  1.00  0.00     0.049 C 
BRANCH  43  45
HETATM   45  C19 UNL     1       6.698   3.049  -2.583  1.00  0.00     0.284 C 
BRANCH  45  46
HETATM   46  O13 UNL     1       5.460   3.555  -2.851  1.00  0.00    -0.367 OA
ATOM     47  H13 UNL     1       5.373   4.326  -3.400  1.00  0.00     0.213 HD
ENDBRANCH  45  46
BRANCH  45  48
HETATM   48  O14 UNL     1       7.408   2.811  -3.785  1.00  0.00    -0.367 OA
ATOM     49  H14 UNL     1       7.321   3.582  -4.334  1.00  0.00     0.213 HD
ENDBRANCH  45  48
ENDBRANCH  43  45
ENDBRANCH  40  42
ENDBRANCH  39  40
ENDBRANCH   8  39
BRANCH  12  50
HETATM   50  O17 UNL     1       3.732  -2.052   0.334  1.00  0.00    -0.355 OA
ATOM     51  H17 UNL     1       4.122  -2.575   1.025  1.00  0.00     0.213 HD
ENDBRANCH  12  50
TORSDOF 18
