REMARK  9 active torsions:
REMARK  status: ('A' for Active; 'I' for Inactive)
REMARK    1  A    between atoms: C2_2  and  N1_3 
REMARK    2  A    between atoms: C2_2  and  C8_19 
REMARK    3  A    between atoms: N1_3  and  C3_5 
REMARK    4  A    between atoms: C8_19  and  N7_20 
REMARK    5  A    between atoms: C8_19  and  C9_24 
REMARK    6  A    between atoms: C9_24  and  N8_25 
REMARK    7  A    between atoms: N8_25  and  C10_27 
REMARK    8  A    between atoms: C11_30  and  N10_31 
REMARK    9  A    between atoms: C12_36  and  N12_37 
ROOT
HETATM    1  C8  UNL     1       0.867  -1.848  -1.412  1.00  0.00     0.223 C 
ENDROOT
BRANCH   1   2
HETATM    2  C2  UNL     1      -0.569  -1.928  -1.975  1.00  0.00     0.111 C 
HETATM    3  C1  UNL     1      -0.975  -3.385  -1.871  1.00  0.00     0.034 C 
BRANCH   2   4
HETATM    4  N1  UNL     1      -1.366  -1.011  -1.293  1.00  0.00    -0.368 N 
ATOM      5  H1  UNL     1      -1.268  -0.106  -1.753  1.00  0.00     0.161 HD
BRANCH   4   6
HETATM    6  C3  UNL     1      -2.138  -0.875  -0.354  1.00  0.00     0.135 A 
HETATM    7  N2  UNL     1      -2.498  -1.861   0.472  1.00  0.00    -0.337 N 
HETATM    8  C4  UNL     1      -3.359  -1.644   1.493  1.00  0.00     0.183 A 
ATOM      9  H2  UNL     1      -2.116  -2.796   0.330  1.00  0.00     0.168 HD
HETATM   10  N3  UNL     1      -3.881  -0.429   1.708  1.00  0.00    -0.335 N 
HETATM   11  C5  UNL     1      -3.556   0.593   0.914  1.00  0.00     0.156 A 
ATOM     12  H3  UNL     1      -4.530  -0.285   2.482  1.00  0.00     0.168 HD
HETATM   13  C6  UNL     1      -2.697   0.387  -0.108  1.00  0.00     0.139 A 
HETATM   14  N6  UNL     1      -3.936   1.900   0.912  1.00  0.00    -0.265 N 
HETATM   15  N4  UNL     1      -2.552   1.587  -0.740  1.00  0.00    -0.279 N 
HETATM   16  N5  UNL     1      -3.313   2.451  -0.089  1.00  0.00    -0.239 N 
ATOM     17  H4  UNL     1      -1.970   1.780  -1.555  1.00  0.00     0.189 HD
ATOM     18  H5  UNL     1      -3.401   3.435  -0.342  1.00  0.00     0.208 HD
HETATM   19  C7  UNL     1      -4.861   2.513   1.857  1.00  0.00     0.181 C 
ENDBRANCH   4   6
ENDBRANCH   2   4
ENDBRANCH   1   2
BRANCH   1  20
HETATM   20  N7  UNL     1       0.783  -2.316  -0.044  1.00  0.00    -0.071 N 
ATOM     21  H73 UNL     1       0.096  -1.813   0.518  1.00  0.00     0.274 HD
ATOM     22  H72 UNL     1       0.361  -3.240   0.045  1.00  0.00     0.274 HD
ATOM     23  H71 UNL     1       1.731  -2.263   0.328  1.00  0.00     0.274 HD
ENDBRANCH   1  20
BRANCH   1  24
HETATM   24  C9  UNL     1       1.284  -0.385  -1.463  1.00  0.00     0.173 C 
BRANCH  24  25
HETATM   25  N8  UNL     1       2.613  -0.273  -0.953  1.00  0.00    -0.223 N 
ATOM     26  H8  UNL     1       3.261  -1.014  -1.221  1.00  0.00     0.177 HD
BRANCH  25  27
HETATM   27  C10 UNL     1       3.078   0.628  -0.215  1.00  0.00     0.707 A 
HETATM   28  N9  UNL     1       2.370   1.664   0.223  1.00  0.00    -0.022 N 
HETATM   29  C11 UNL     1       2.927   2.614   1.027  1.00  0.00     0.705 A 
ATOM     30  H9  UNL     1       1.390   1.750  -0.048  1.00  0.00     0.203 HD
HETATM   31  N11 UNL     1       4.207   2.525   1.395  1.00  0.00    -0.022 N 
HETATM   32  C12 UNL     1       4.943   1.471   0.955  1.00  0.00     0.705 A 
ATOM     33  H11 UNL     1       4.625   3.235   1.996  1.00  0.00     0.203 HD
HETATM   34  N13 UNL     1       4.382   0.548   0.168  1.00  0.00    -0.022 N 
ATOM     35  H13 UNL     1       4.946  -0.238  -0.155  1.00  0.00     0.203 HD
BRANCH  29  36
HETATM   36  N10 UNL     1       2.222   3.599   1.432  1.00  0.00    -0.234 N 
ATOM     37 2H10 UNL     1       1.244   3.667   1.151  1.00  0.00     0.174 HD
ATOM     38 1H10 UNL     1       2.639   4.310   2.033  1.00  0.00     0.174 HD
ENDBRANCH  29  36
BRANCH  32  39
HETATM   39  N12 UNL     1       6.185   1.387   1.315  1.00  0.00    -0.234 N 
ATOM     40 2H12 UNL     1       6.613   2.091   1.916  1.00  0.00     0.174 HD
ATOM     41 1H12 UNL     1       6.738   0.596   0.985  1.00  0.00     0.174 HD
ENDBRANCH  32  39
ENDBRANCH  25  27
ENDBRANCH  24  25
ENDBRANCH   1  24
TORSDOF 9
