REMARK  6 active torsions:
REMARK  status: ('A' for Active; 'I' for Inactive)
REMARK       I    between atoms: C1_4  and  N3_6 
REMARK    1  A    between atoms: N3_6  and  C2_8 
REMARK    2  A    between atoms: C4_13  and  C5_14 
REMARK    3  A    between atoms: C6_17  and  N7_18 
REMARK    4  A    between atoms: N7_18  and  N8_20 
REMARK    5  A    between atoms: C7_22  and  C8_23 
REMARK    6  A    between atoms: C8_23  and  N9_24 
ROOT
HETATM    1  C2  UNL     1       2.356   0.694  -0.226  1.00  0.00     0.687 A 
HETATM    2  N4  UNL     1       3.540   0.091  -0.436  1.00  0.00    -0.177 N 
ATOM      3  H4  UNL     1       4.288   0.624  -0.881  1.00  0.00     0.185 HD
HETATM    4  C3  UNL     1       3.781  -1.196  -0.081  1.00  0.00     0.151 A 
HETATM    5  N5  UNL     1       5.026  -1.793  -0.314  1.00  0.00    -0.081 NA
HETATM    6  C4  UNL     1       2.788  -1.940   0.522  1.00  0.00     0.116 A 
HETATM    7  C6  UNL     1       1.574  -1.325   0.739  1.00  0.00     0.154 A 
HETATM    8  N11 UNL     1       1.394  -0.037   0.362  1.00  0.00    -0.174 N 
ATOM      9  H11 UNL     1       0.487   0.398   0.532  1.00  0.00     0.186 HD
ENDROOT
BRANCH   7  10
HETATM   10  N7  UNL     1       0.655  -2.019   1.299  1.00  0.00    -0.285 N 
ATOM     11  H7  UNL     1       0.883  -2.982   1.548  1.00  0.00     0.188 HD
BRANCH  10  12
HETATM   12  N8  UNL     1      -0.622  -1.572   1.595  1.00  0.00    -0.312 N 
HETATM   13  C7  UNL     1      -1.511  -1.393   0.677  1.00  0.00     0.110 C 
ATOM     14  H8  UNL     1      -0.867  -1.379   2.566  1.00  0.00     0.185 HD
BRANCH  13  15
HETATM   15  C8  UNL     1      -2.867  -0.919   0.972  1.00  0.00     0.318 C 
BRANCH  15  16
HETATM   16  N9  UNL     1      -3.512  -0.392  -0.209  1.00  0.00     0.096 N 
HETATM   17  C9  UNL     1      -4.859   0.058   0.173  1.00  0.00     0.300 C 
HETATM   18  C10 UNL     1      -5.266   1.222  -0.724  1.00  0.00     0.262 C 
HETATM   19  N10 UNL     1      -4.529   2.394  -0.263  1.00  0.00    -0.072 N 
HETATM   20  C11 UNL     1      -3.159   2.011   0.033  1.00  0.00     0.262 C 
ATOM     21 2H10 UNL     1      -4.580   3.169  -0.925  1.00  0.00     0.277 HD
ATOM     22 1H10 UNL     1      -4.983   2.850   0.528  1.00  0.00     0.277 HD
HETATM   23  C12 UNL     1      -2.758   0.749  -0.709  1.00  0.00     0.300 C 
ENDBRANCH  15  16
ENDBRANCH  13  15
ENDBRANCH  10  12
ENDBRANCH   7  10
BRANCH   6  24
HETATM   24  C5  UNL     1       2.990  -3.328   0.926  1.00  0.00     0.272 C 
HETATM   25  N6  UNL     1       1.939  -4.041   1.539  1.00  0.00    -0.057 NA
HETATM   26  O1  UNL     1       4.074  -3.931   0.751  1.00  0.00    -0.271 OA
ENDBRANCH   6  24
BRANCH   1  27
HETATM   27  N3  UNL     1       2.139   1.932  -0.573  1.00  0.00    -0.164 N 
HETATM   28  C1  UNL     1       3.150   2.711  -1.195  1.00  0.00     0.200 C 
HETATM   29  N1  UNL     1       3.258   2.891  -2.466  1.00  0.00    -0.373 N 
HETATM   30  N2  UNL     1       4.111   3.335  -0.354  1.00  0.00    -0.063 NA
ATOM     31  H12 UNL     1       3.984   3.451  -2.913  1.00  0.00     0.158 HD
ATOM     32  H11 UNL     1       2.568   2.443  -3.070  1.00  0.00     0.158 HD
ATOM     33  H3  UNL     1       1.225   2.349  -0.394  1.00  0.00     0.187 HD
ENDBRANCH   1  27
TORSDOF 6
