REMARK  9 active torsions:
REMARK  status: ('A' for Active; 'I' for Inactive)
REMARK    1  A    between atoms: N1_1  and  N2_4 
REMARK    2  A    between atoms: N2_4  and  C1_5 
REMARK    3  A    between atoms: C1_5  and  N3_6 
REMARK    4  A    between atoms: C1_5  and  C2_10 
REMARK    5  A    between atoms: C2_10  and  C3_11 
REMARK    6  A    between atoms: C3_11  and  N4_12 
REMARK    7  A    between atoms: C3_11  and  C9_27 
REMARK    8  A    between atoms: N4_12  and  C4_14 
REMARK       I    between atoms: C9_27  and  N9_29 
REMARK    9  A    between atoms: N9_29  and  C10_31 
ROOT
HETATM    1  C3  UNL     1       0.819  -0.326   0.178  1.00  0.00     0.179 C 
ENDROOT
BRANCH   1   2
HETATM    2  C2  UNL     1       2.189  -0.929   0.451  1.00  0.00     0.086 C 
BRANCH   2   3
HETATM    3  C1  UNL     1       3.263  -0.495  -0.480  1.00  0.00     0.297 C 
BRANCH   3   4
HETATM    4  N2  UNL     1       4.490  -1.184  -0.066  1.00  0.00    -0.115 NA
BRANCH   4   5
HETATM    5  N1  UNL     1       4.375  -2.561  -0.236  1.00  0.00    -0.346 N 
ATOM      6  H12 UNL     1       3.539  -3.017  -0.602  1.00  0.00     0.172 HD
ATOM      7  H11 UNL     1       5.228  -3.040   0.052  1.00  0.00     0.172 HD
ENDBRANCH   4   5
ENDBRANCH   3   4
BRANCH   3   8
HETATM    8  N3  UNL     1       3.038  -0.784  -1.856  1.00  0.00    -0.060 N 
ATOM      9  H33 UNL     1       3.838  -0.551  -2.444  1.00  0.00     0.276 HD
ATOM     10  H32 UNL     1       3.013  -1.785  -2.050  1.00  0.00     0.276 HD
ATOM     11  H31 UNL     1       2.185  -0.305  -2.144  1.00  0.00     0.276 HD
ENDBRANCH   3   8
ENDBRANCH   2   3
ENDBRANCH   1   2
BRANCH   1  12
HETATM   12  N4  UNL     1      -0.055  -0.860   1.165  1.00  0.00    -0.361 N 
ATOM     13  H4  UNL     1       0.415  -1.134   2.028  1.00  0.00     0.162 HD
BRANCH  12  14
HETATM   14  C4  UNL     1      -1.293  -1.058   1.177  1.00  0.00     0.134 A 
HETATM   15  N5  UNL     1      -1.853  -1.590   2.279  1.00  0.00    -0.337 N 
HETATM   16  C5  UNL     1      -3.189  -1.828   2.351  1.00  0.00     0.183 A 
ATOM     17  H5  UNL     1      -1.262  -1.820   3.078  1.00  0.00     0.168 HD
HETATM   18  N6  UNL     1      -4.005  -1.540   1.323  1.00  0.00    -0.337 N 
HETATM   19  C6  UNL     1      -3.501  -1.004   0.189  1.00  0.00     0.138 A 
ATOM     20  H6  UNL     1      -5.005  -1.726   1.398  1.00  0.00     0.168 HD
HETATM   21  N7  UNL     1      -4.084  -0.632  -0.958  1.00  0.00    -0.337 N 
HETATM   22  C8  UNL     1      -2.119  -0.762   0.122  1.00  0.00     0.122 A 
HETATM   23  C7  UNL     1      -3.125  -0.157  -1.767  1.00  0.00     0.182 A 
ATOM     24  H7  UNL     1      -5.078  -0.698  -1.177  1.00  0.00     0.168 HD
HETATM   25  N8  UNL     1      -1.946  -0.241  -1.101  1.00  0.00    -0.346 N 
ATOM     26  H8  UNL     1      -1.046   0.054  -1.481  1.00  0.00     0.167 HD
ENDBRANCH  12  14
ENDBRANCH   1  12
BRANCH   1  27
HETATM   27  C9  UNL     1       0.809   1.130   0.091  1.00  0.00     0.258 C 
HETATM   28  O1  UNL     1       1.428   1.721  -0.825  1.00  0.00    -0.270 OA
HETATM   29  N9  UNL     1       0.113   1.957   1.018  1.00  0.00    -0.155 N 
ATOM     30  H9  UNL     1       0.248   1.791   2.015  1.00  0.00     0.187 HD
BRANCH  29  31
HETATM   31  C10 UNL     1      -0.675   2.899   0.656  1.00  0.00     0.716 A 
HETATM   32  N10 UNL     1      -1.350   3.702   1.490  1.00  0.00    -0.115 N 
HETATM   33  N11 UNL     1      -2.057   4.550   0.764  1.00  0.00    -0.213 N 
ATOM     34  H10 UNL     1      -1.323   3.665   2.509  1.00  0.00     0.207 HD
HETATM   35  N12 UNL     1      -1.858   4.317  -0.519  1.00  0.00    -0.213 N 
ATOM     36  H11 UNL     1      -2.666   5.277   1.140  1.00  0.00     0.210 HD
HETATM   37  N13 UNL     1      -1.005   3.298  -0.584  1.00  0.00    -0.115 N 
ATOM     38  H12 UNL     1      -2.275   4.818  -1.304  1.00  0.00     0.210 HD
ATOM     39  H13 UNL     1      -0.654   2.882  -1.446  1.00  0.00     0.207 HD
ENDBRANCH  29  31
ENDBRANCH   1  27
TORSDOF 9
