REMARK  7 active torsions:
REMARK  status: ('A' for Active; 'I' for Inactive)
REMARK    1  A    between atoms: N1_1  and  C1_4 
REMARK    2  A    between atoms: C3_9  and  C4_10 
REMARK       I    between atoms: C4_10  and  N4_12 
REMARK    3  A    between atoms: C6_17  and  N7_18 
REMARK    4  A    between atoms: N7_18  and  C7_19 
REMARK    5  A    between atoms: C7_19  and  C8_20 
REMARK    6  A    between atoms: N8_21  and  N9_23 
REMARK    7  A    between atoms: N9_23  and  C9_25 
ROOT
HETATM    1  C1  UNL     1      -2.048  -3.501  -1.120  1.00  0.00     0.679 A 
HETATM    2  N2  UNL     1      -3.310  -3.516  -0.674  1.00  0.00    -0.178 N 
ATOM      3  H2  UNL     1      -3.861  -4.372  -0.737  1.00  0.00     0.185 HD
HETATM    4  C2  UNL     1      -3.852  -2.409  -0.144  1.00  0.00     0.152 A 
HETATM    5  N3  UNL     1      -5.194  -2.396   0.339  1.00  0.00    -0.081 NA
HETATM    6  C3  UNL     1      -3.130  -1.213  -0.037  1.00  0.00     0.132 A 
HETATM    7  C6  UNL     1      -1.831  -1.199  -0.497  1.00  0.00     0.212 A 
HETATM    8  N12 UNL     1      -1.341  -2.392  -1.035  1.00  0.00    -0.163 N 
ATOM      9  H12 UNL     1      -0.382  -2.405  -1.382  1.00  0.00     0.187 HD
ENDROOT
BRANCH   7  10
HETATM   10  N7  UNL     1      -1.129  -0.230  -0.459  1.00  0.00    -0.397 NA
BRANCH  10  11
HETATM   11  C7  UNL     1      -0.385   0.869  -0.398  1.00  0.00     0.203 C 
BRANCH  11  12
HETATM   12  C8  UNL     1       1.012   0.748  -0.962  1.00  0.00     0.139 C 
HETATM   13  N8  UNL     1       1.698   1.796  -1.196  1.00  0.00    -0.295 N 
ATOM     14  H8  UNL     1       1.325   2.727  -1.011  1.00  0.00     0.186 HD
BRANCH  13  15
HETATM   15  N9  UNL     1       2.996   1.616  -1.722  1.00  0.00    -0.133 N 
ATOM     16  H9  UNL     1       3.137   1.697  -2.729  1.00  0.00     0.205 HD
BRANCH  15  17
HETATM   17  C9  UNL     1       4.113   1.325  -0.892  1.00  0.00     0.688 C 
HETATM   18  N10 UNL     1       5.169   2.073  -0.832  1.00  0.00    -0.225 N 
HETATM   19  C10 UNL     1       6.318   1.834  -0.019  1.00  0.00     0.139 C 
ATOM     20  H10 UNL     1       5.181   2.908  -1.418  1.00  0.00     0.177 HD
HETATM   21  C11 UNL     1       6.547   0.425   0.404  1.00  0.00     0.040 C 
HETATM   22  C12 UNL     1       5.398  -0.509   0.230  1.00  0.00     0.139 C 
HETATM   23  N11 UNL     1       4.135   0.166  -0.062  1.00  0.00    -0.225 N 
ATOM     24  H11 UNL     1       3.265  -0.194   0.330  1.00  0.00     0.177 HD
ENDBRANCH  15  17
ENDBRANCH  13  15
ENDBRANCH  11  12
ENDBRANCH  10  11
ENDBRANCH   7  10
BRANCH   6  25
HETATM   25  C4  UNL     1      -3.764  -0.055   0.547  1.00  0.00     0.266 C 
HETATM   26  O1  UNL     1      -4.980  -0.188   0.943  1.00  0.00    -0.267 OA
HETATM   27  N4  UNL     1      -3.231   1.218   0.748  1.00  0.00    -0.299 N 
HETATM   28  C5  UNL     1      -3.825   2.259   1.165  1.00  0.00     0.203 C 
ATOM     29  H4  UNL     1      -2.240   1.326   0.533  1.00  0.00     0.171 HD
HETATM   30  N5  UNL     1      -5.204   2.212   1.492  1.00  0.00    -0.066 NA
HETATM   31  N6  UNL     1      -3.083   3.466   1.298  1.00  0.00    -0.066 NA
ENDBRANCH   6  25
BRANCH   1  32
HETATM   32  N1  UNL     1      -1.580  -4.604  -1.621  1.00  0.00    -0.234 N 
ATOM     33  H12 UNL     1      -2.127  -5.462  -1.687  1.00  0.00     0.174 HD
ATOM     34  H11 UNL     1      -0.618  -4.593  -1.961  1.00  0.00     0.174 HD
ENDBRANCH   1  32
TORSDOF 7
