REMARK  5 active torsions:
REMARK  status: ('A' for Active; 'I' for Inactive)
REMARK    1  A    between atoms: N1_1  and  C1_4 
REMARK    2  A    between atoms: C3_6  and  C4_7 
REMARK    3  A    between atoms: C4_7  and  C5_8 
REMARK    4  A    between atoms: C6_9  and  C7_10 
REMARK       I    between atoms: C7_10  and  N2_12 
REMARK       I    between atoms: N2_12  and  C8_14 
REMARK       I    between atoms: C8_14  and  N3_15 
REMARK       I    between atoms: C8_14  and  N4_19 
REMARK    5  A    between atoms: N6_27  and  N7_28 
REMARK       I    between atoms: N7_28  and  C10_30 
ROOT
HETATM    1  C5  UNL     1       0.066   1.080  -0.437  1.00  0.00     0.076 A 
HETATM    2  C6  UNL     1       1.281   0.507  -0.205  1.00  0.00     0.130 A 
HETATM    3  N5  UNL     1       1.959   1.325   0.638  1.00  0.00    -0.301 N 
ATOM      4  H5  UNL     1       2.899   1.169   1.002  1.00  0.00     0.171 HD
HETATM    5  C9  UNL     1       1.157   2.394   0.912  1.00  0.00     0.346 A 
HETATM    6  O2  UNL     1       1.497   3.343   1.671  1.00  0.00    -0.245 OA
HETATM    7  N6  UNL     1      -0.008   2.281   0.273  1.00  0.00    -0.203 N 
ENDROOT
BRANCH   2   8
HETATM    8  C7  UNL     1       1.913  -0.702  -0.748  1.00  0.00     0.273 C 
HETATM    9  O1  UNL     1       1.491  -1.356  -1.721  1.00  0.00    -0.266 OA
HETATM   10  N2  UNL     1       3.113  -1.205  -0.143  1.00  0.00    -0.306 N 
HETATM   11  C8  UNL     1       3.779  -2.386  -0.631  1.00  0.00     0.483 C 
ATOM     12  H2  UNL     1       3.507  -0.711   0.658  1.00  0.00     0.166 HD
HETATM   13  N3  UNL     1       3.783  -3.458   0.343  1.00  0.00    -0.033 N 
HETATM   14  N4  UNL     1       5.127  -2.162  -1.048  1.00  0.00    -0.033 N 
ATOM     15  H33 UNL     1       4.183  -3.149   1.229  1.00  0.00     0.278 HD
ATOM     16  H32 UNL     1       2.837  -3.673   0.658  1.00  0.00     0.278 HD
ATOM     17  H31 UNL     1       4.254  -4.294  -0.002  1.00  0.00     0.278 HD
ATOM     18  H43 UNL     1       5.168  -1.415  -1.742  1.00  0.00     0.278 HD
ATOM     19  H42 UNL     1       5.667  -1.730  -0.298  1.00  0.00     0.278 HD
ATOM     20  H41 UNL     1       5.598  -2.998  -1.393  1.00  0.00     0.278 HD
ENDBRANCH   2   8
BRANCH   1  21
HETATM   21  C4  UNL     1      -1.033   0.541  -1.249  1.00  0.00     0.100 C 
BRANCH  21  22
HETATM   22  C3  UNL     1      -1.891  -0.464  -0.617  1.00  0.00    -0.048 A 
HETATM   23  C2  UNL     1      -2.749  -0.189   0.433  1.00  0.00     0.055 A 
HETATM   24  C1  UNL     1      -3.546  -1.205   0.931  1.00  0.00     0.098 A 
HETATM   25  N9  UNL     1      -3.520  -2.457   0.431  1.00  0.00    -0.353 N 
HETATM   26  C12 UNL     1      -2.695  -2.765  -0.595  1.00  0.00     0.090 A 
ATOM     27  H9  UNL     1      -4.126  -3.175   0.829  1.00  0.00     0.166 HD
HETATM   28  C11 UNL     1      -1.913  -1.756  -1.079  1.00  0.00     0.024 A 
BRANCH  24  29
HETATM   29  N1  UNL     1      -4.355  -0.957   1.917  1.00  0.00    -0.385 N 
ATOM     30  H12 UNL     1      -4.375  -0.010   2.295  1.00  0.00     0.157 HD
ATOM     31  H11 UNL     1      -4.942  -1.706   2.284  1.00  0.00     0.157 HD
ENDBRANCH  24  29
ENDBRANCH  21  22
ENDBRANCH   1  21
BRANCH   7  32
HETATM   32  N7  UNL     1      -1.101   3.131   0.251  1.00  0.00    -0.243 N 
HETATM   33  C10 UNL     1      -1.290   4.348   0.904  1.00  0.00     0.347 C 
HETATM   34  N8  UNL     1      -2.545   5.055   0.714  1.00  0.00    -0.038 NA
HETATM   35  O3  UNL     1      -0.507   4.944   1.658  1.00  0.00    -0.249 OA
ATOM     36  H7  UNL     1      -1.882   2.821  -0.328  1.00  0.00     0.192 HD
ENDBRANCH   7  32
TORSDOF 5
