REMARK  13 active torsions:
REMARK  status: ('A' for Active; 'I' for Inactive)
REMARK    1  A    between atoms: C2_2  and  C4_4 
REMARK    2  A    between atoms: C4_4  and  N1_5 
REMARK    3  A    between atoms: C4_4  and  C12_22 
REMARK    4  A    between atoms: N1_5  and  C5_7 
REMARK    5  A    between atoms: C6_8  and  N2_9 
REMARK    6  A    between atoms: N2_9  and  C7_11 
REMARK    7  A    between atoms: C7_11  and  C8_12 
REMARK    8  A    between atoms: C8_12  and  O1_13 
REMARK    9  A    between atoms: O1_13  and  S1_14 
REMARK   10  A    between atoms: C14_24  and  C15_25 
REMARK   11  A    between atoms: C15_25  and  O6_26 
REMARK   12  A    between atoms: C15_25  and  O7_28 
REMARK   13  A    between atoms: C16_31  and  O9_32 
ROOT
HETATM    1  N1  UNL     1      -1.152  -0.740  -0.239  1.00  0.00    -0.376 N 
ATOM      2  H1  UNL     1      -1.729  -1.224   0.449  1.00  0.00     0.160 HD
ENDROOT
BRANCH   1   3
HETATM    3  C4  UNL     1      -1.721   0.492  -0.775  1.00  0.00     0.123 C 
BRANCH   3   4
HETATM    4  C2  UNL     1      -1.062   1.620  -0.103  1.00  0.00     0.005 C 
HETATM    5  C1  UNL     1      -1.128   1.871   1.336  1.00  0.00     0.012 C 
HETATM    6  C3  UNL     1      -1.450   2.945  -0.807  1.00  0.00     0.012 C 
ENDBRANCH   3   4
BRANCH   3   7
HETATM    7  C12 UNL     1      -3.211   0.365  -0.540  1.00  0.00     0.025 A 
HETATM    8  C13 UNL     1      -3.835   0.021   0.658  1.00  0.00     0.052 A 
HETATM    9  C14 UNL     1      -5.162  -0.301   0.353  1.00  0.00     0.111 A 
HETATM   10  O8  UNL     1      -5.285  -0.135  -0.933  1.00  0.00    -0.287 OA
HETATM   11  C16 UNL     1      -4.174   0.253  -1.509  1.00  0.00     0.192 A 
BRANCH   9  12
HETATM   12  C15 UNL     1      -6.237  -0.750   1.244  1.00  0.00     0.312 C 
BRANCH  12  13
HETATM   13  O6  UNL     1      -5.950  -1.954   1.916  1.00  0.00    -0.365 OA
ATOM     14  H6  UNL     1      -6.646  -2.245   2.493  1.00  0.00     0.213 HD
ENDBRANCH  12  13
BRANCH  12  15
HETATM   15  O7  UNL     1      -7.432  -0.900   0.539  1.00  0.00    -0.365 OA
ATOM     16  H7  UNL     1      -8.128  -1.191   1.116  1.00  0.00     0.213 HD
ENDBRANCH  12  15
ENDBRANCH   9  12
BRANCH  11  17
HETATM   17  O9  UNL     1      -4.103   0.482  -2.884  1.00  0.00    -0.340 OA
ATOM     18  H9  UNL     1      -4.770   0.404  -3.556  1.00  0.00     0.220 HD
ENDBRANCH  11  17
ENDBRANCH   3   7
ENDBRANCH   1   3
BRANCH   1  19
HETATM   19  C5  UNL     1       0.054  -1.345  -0.529  1.00  0.00     0.114 A 
HETATM   20  C6  UNL     1       1.367  -1.428  -0.188  1.00  0.00     0.114 A 
HETATM   21  C10 UNL     1       1.601  -2.433  -1.090  1.00  0.00     0.252 A 
HETATM   22  O4  UNL     1       2.630  -3.116  -1.414  1.00  0.00    -0.281 OA
HETATM   23  C11 UNL     1       0.329  -2.399  -1.463  1.00  0.00     0.252 A 
HETATM   24  O5  UNL     1      -0.428  -2.988  -2.287  1.00  0.00    -0.281 OA
BRANCH  20  25
HETATM   25  N2  UNL     1       2.293  -0.755   0.699  1.00  0.00    -0.383 N 
ATOM     26  H2  UNL     1       2.369  -1.011   1.684  1.00  0.00     0.160 HD
BRANCH  25  27
HETATM   27  C7  UNL     1       3.113   0.306   0.121  1.00  0.00     0.147 C 
BRANCH  27  28
HETATM   28  C8  UNL     1       4.547  -0.137  -0.049  1.00  0.00     0.209 C 
BRANCH  28  29
HETATM   29  O1  UNL     1       5.150  -0.494   1.143  1.00  0.00    -0.274 OA
BRANCH  29  30
HETATM   30  S1  UNL     1       6.726  -1.029   0.885  1.00  0.00     0.261 S 
HETATM   31  C9  UNL     1       7.740   0.228   0.154  1.00  0.00     0.194 C 
HETATM   32  O2  UNL     1       6.746  -2.272   0.027  1.00  0.00    -0.199 OA
HETATM   33  O3  UNL     1       7.359  -1.393   2.210  1.00  0.00    -0.199 OA
ENDBRANCH  29  30
ENDBRANCH  28  29
ENDBRANCH  27  28
ENDBRANCH  25  27
ENDBRANCH  20  25
ENDBRANCH   1  19
TORSDOF 13
