REMARK  15 active torsions:
REMARK  status: ('A' for Active; 'I' for Inactive)
REMARK    1  A    between atoms: O1_2  and  C2_3 
REMARK    2  A    between atoms: C6_7  and  C7_8 
REMARK    3  A    between atoms: C9_11  and  C10_12 
REMARK    4  A    between atoms: C10_12  and  O2_13 
REMARK    5  A    between atoms: O2_13  and  C11_14 
REMARK    6  A    between atoms: C11_14  and  C12_16 
REMARK    7  A    between atoms: C13_19  and  C14_20 
REMARK    8  A    between atoms: C14_20  and  C15_21 
REMARK    9  A    between atoms: C15_21  and  O6_22 
REMARK   10  A    between atoms: C15_21  and  O7_24 
REMARK   11  A    between atoms: O7_24  and  C16_25 
REMARK   12  A    between atoms: C16_25  and  O8_26 
REMARK   13  A    between atoms: C16_25  and  C17_28 
REMARK   14  A    between atoms: C17_28  and  O9_29 
REMARK   15  A    between atoms: C17_28  and  O10_31 
ROOT
HETATM    1  C7  UNL     1       0.985   0.619  -0.256  1.00  0.00     0.022 A 
HETATM    2  S1  UNL     1       0.586   2.266   0.165  1.00  0.00    -0.100 SA
HETATM    3  C8  UNL     1      -0.718   2.514  -0.865  1.00  0.00     0.060 A 
HETATM    4  C9  UNL     1      -0.835   1.330  -1.523  1.00  0.00    -0.020 A 
HETATM    5  C13 UNL     1       0.060   0.329  -1.201  1.00  0.00    -0.027 A 
ENDROOT
BRANCH   5   6
HETATM    6  C14 UNL     1      -0.023  -1.047  -1.852  1.00  0.00     0.101 C 
BRANCH   6   7
HETATM    7  C15 UNL     1      -0.613  -2.099  -0.976  1.00  0.00     0.264 C 
BRANCH   7   8
HETATM    8  O6  UNL     1      -0.567  -3.285  -1.818  1.00  0.00    -0.371 OA
ATOM      9  H6  UNL     1      -0.943  -3.955  -1.260  1.00  0.00     0.212 HD
ENDBRANCH   7   8
BRANCH   7  10
HETATM   10  O7  UNL     1      -1.963  -1.953  -0.726  1.00  0.00    -0.327 OA
BRANCH  10  11
HETATM   11  C16 UNL     1      -2.379  -2.279   0.534  1.00  0.00     0.315 C 
BRANCH  11  12
HETATM   12  O8  UNL     1      -3.129  -3.487   0.522  1.00  0.00    -0.367 OA
ATOM     13  H8  UNL     1      -3.418  -3.714   1.398  1.00  0.00     0.212 HD
ENDBRANCH  11  12
BRANCH  11  14
HETATM   14  C17 UNL     1      -3.084  -1.219   1.302  1.00  0.00     0.309 C 
BRANCH  14  15
HETATM   15  O9  UNL     1      -2.265  -0.131   1.486  1.00  0.00    -0.367 OA
ATOM     16  H9  UNL     1      -2.715   0.546   1.977  1.00  0.00     0.212 HD
ENDBRANCH  14  15
BRANCH  14  17
HETATM   17  O10 UNL     1      -3.352  -1.760   2.583  1.00  0.00    -0.367 OA
ATOM     18  H10 UNL     1      -3.802  -1.083   3.074  1.00  0.00     0.212 HD
ENDBRANCH  14  17
ENDBRANCH  11  14
ENDBRANCH  10  11
ENDBRANCH   7  10
ENDBRANCH   6   7
ENDBRANCH   5   6
BRANCH   1  19
HETATM   19  C6  UNL     1       2.094  -0.126   0.393  1.00  0.00    -0.016 A 
HETATM   20  C5  UNL     1       2.683  -1.251  -0.024  1.00  0.00     0.013 A 
HETATM   21  C4  UNL     1       3.687  -1.850   0.749  1.00  0.00     0.004 A 
HETATM   22  C3  UNL     1       4.085  -1.303   1.933  1.00  0.00     0.037 A 
HETATM   23  C2  UNL     1       3.505  -0.144   2.398  1.00  0.00     0.069 A 
HETATM   24  C18 UNL     1       2.537   0.407   1.625  1.00  0.00     0.049 A 
BRANCH  23  25
HETATM   25  O1  UNL     1       3.906   0.423   3.609  1.00  0.00    -0.356 OA
HETATM   26  C1  UNL     1       4.927  -0.215   4.359  1.00  0.00     0.210 C 
ENDBRANCH  23  25
ENDBRANCH   1  19
BRANCH   4  27
HETATM   27  C10 UNL     1      -1.943   1.127  -2.558  1.00  0.00     0.219 C 
BRANCH  27  28
HETATM   28  O2  UNL     1      -2.655   2.266  -2.801  1.00  0.00    -0.308 OA
BRANCH  28  29
HETATM   29  C11 UNL     1      -2.107   3.382  -3.400  1.00  0.00     0.360 C 
HETATM   30  O3  UNL     1      -0.906   3.400  -3.768  1.00  0.00    -0.252 OA
BRANCH  29  31
HETATM   31  C12 UNL     1      -2.919   4.594  -3.628  1.00  0.00     0.277 C 
HETATM   32  O4  UNL     1      -4.123   4.569  -3.255  1.00  0.00    -0.640 OA
HETATM   33  O5  UNL     1      -2.356   5.709  -4.232  1.00  0.00    -0.640 OA
ENDBRANCH  29  31
ENDBRANCH  28  29
ENDBRANCH  27  28
ENDBRANCH   4  27
TORSDOF 15
