REMARK  14 active torsions:
REMARK  status: ('A' for Active; 'I' for Inactive)
REMARK    1  A    between atoms: O1_2  and  C2_3 
REMARK    2  A    between atoms: C2_3  and  C4_5 
REMARK    3  A    between atoms: C5_6  and  O2_7 
REMARK    4  A    between atoms: C6_9  and  O3_10 
REMARK    5  A    between atoms: O3_10  and  C7_11 
REMARK    6  A    between atoms: C7_11  and  C8_12 
REMARK    7  A    between atoms: C8_12  and  O4_13 
REMARK    8  A    between atoms: C8_12  and  C9_15 
REMARK    9  A    between atoms: C9_15  and  C10_16 
REMARK   10  A    between atoms: C9_15  and  C11_24 
REMARK   11  A    between atoms: C11_24  and  O5_26 
REMARK   12  A    between atoms: C15_30  and  O6_31 
REMARK   13  A    between atoms: C16_33  and  N5_34 
REMARK   14  A    between atoms: N5_34  and  O7_36 
ROOT
HETATM    1  C4  UNL     1      -2.078   0.637  -0.561  1.00  0.00     0.038 A 
HETATM    2  C5  UNL     1      -0.704   0.376  -0.853  1.00  0.00     0.111 A 
HETATM    3  C6  UNL     1      -0.229  -0.900  -1.076  1.00  0.00     0.111 A 
HETATM    4  C13 UNL     1      -1.099  -1.999  -1.025  1.00  0.00     0.010 A 
HETATM    5  C14 UNL     1      -0.560  -3.368  -1.290  1.00  0.00     0.054 C 
HETATM    6  C15 UNL     1      -2.400  -1.756  -0.750  1.00  0.00     0.103 A 
HETATM    7  C16 UNL     1      -2.907  -0.444  -0.514  1.00  0.00     0.102 A 
ENDROOT
BRANCH   3   8
HETATM    8  O3  UNL     1       1.077  -1.170  -1.350  1.00  0.00    -0.345 OA
BRANCH   8   9
HETATM    9  C7  UNL     1       2.154  -1.536  -0.619  1.00  0.00     0.208 C 
BRANCH   9  10
HETATM   10  C8  UNL     1       2.766  -0.717   0.436  1.00  0.00     0.156 C 
BRANCH  10  11
HETATM   11  O4  UNL     1       3.775  -1.500   1.081  1.00  0.00    -0.393 OA
ATOM     12  H4  UNL     1       4.171  -0.970   1.763  1.00  0.00     0.210 HD
ENDBRANCH  10  11
BRANCH  10  13
HETATM   13  C9  UNL     1       3.487   0.535  -0.015  1.00  0.00     0.115 C 
BRANCH  13  14
HETATM   14  C10 UNL     1       4.035   1.173   1.236  1.00  0.00     0.119 A 
HETATM   15  N1  UNL     1       3.957   2.459   1.619  1.00  0.00    -0.270 N 
HETATM   16  N2  UNL     1       4.566   2.592   2.806  1.00  0.00    -0.005 NA
ATOM     17  H1  UNL     1       3.509   3.210   1.094  1.00  0.00     0.185 HD
HETATM   18  N3  UNL     1       5.029   1.413   3.183  1.00  0.00    -0.225 N 
HETATM   19  N4  UNL     1       4.716   0.569   2.251  1.00  0.00    -0.275 N 
ATOM     20  H3  UNL     1       5.536   1.207   4.044  1.00  0.00     0.205 HD
ATOM     21  H4  UNL     1       4.950  -0.424   2.274  1.00  0.00     0.189 HD
ENDBRANCH  13  14
BRANCH  13  22
HETATM   22  C11 UNL     1       4.568   0.306  -1.012  1.00  0.00     0.128 C 
HETATM   23  C12 UNL     1       5.686  -0.579  -0.608  1.00  0.00     0.040 C 
BRANCH  22  24
HETATM   24  O5  UNL     1       5.128   1.575  -1.292  1.00  0.00    -0.395 OA
ATOM     25  H5  UNL     1       5.818   1.429  -1.928  1.00  0.00     0.210 HD
ENDBRANCH  22  24
ENDBRANCH  13  22
ENDBRANCH  10  13
ENDBRANCH   9  10
ENDBRANCH   8   9
ENDBRANCH   3   8
BRANCH   2  26
HETATM   26  O2  UNL     1       0.129   1.444  -0.914  1.00  0.00    -0.357 OA
ATOM     27  H2  UNL     1       1.043   1.270  -1.108  1.00  0.00     0.217 HD
ENDBRANCH   2  26
BRANCH   1  28
HETATM   28  C2  UNL     1      -2.463   2.010  -0.210  1.00  0.00     0.155 C 
HETATM   29  C3  UNL     1      -3.864   2.456  -0.593  1.00  0.00     0.045 C 
BRANCH  28  30
HETATM   30  O1  UNL     1      -2.439   2.138   1.219  1.00  0.00    -0.386 OA
HETATM   31  C1  UNL     1      -1.672   3.194   1.587  1.00  0.00     0.202 C 
ENDBRANCH  28  30
ENDBRANCH   1  28
BRANCH   6  32
HETATM   32  O6  UNL     1      -3.271  -2.832  -0.700  1.00  0.00    -0.358 OA
ATOM     33  H6  UNL     1      -4.185  -2.661  -0.507  1.00  0.00     0.217 HD
ENDBRANCH   6  32
BRANCH   7  34
HETATM   34  N5  UNL     1      -4.308  -0.396  -0.232  1.00  0.00    -0.260 N 
HETATM   35  C17 UNL     1      -5.353  -0.407  -1.236  1.00  0.00     0.186 C 
BRANCH  34  36
HETATM   36  O7  UNL     1      -4.690  -0.326   1.052  1.00  0.00    -0.283 OA
HETATM   37  C18 UNL     1      -4.751  -1.521   1.699  1.00  0.00     0.237 C 
ENDBRANCH  34  36
ENDBRANCH   7  34
TORSDOF 14
