REMARK  1 active torsions:
REMARK  status: ('A' for Active; 'I' for Inactive)
REMARK    1  A    between atoms: N1_2  and  N2_3 
ROOT
HETATM    1  N2  UNL     1       0.439   0.096  -0.597  1.00  0.00    -0.226 NA
HETATM    2  C2  UNL     1       0.290  -1.191  -1.279  1.00  0.00     0.112 A 
HETATM    3  C3  UNL     1      -1.148  -1.284  -0.830  1.00  0.00     0.042 A 
HETATM    4  C4  UNL     1      -0.888  -0.043  -0.078  1.00  0.00     0.030 A 
HETATM    5  C5  UNL     1      -1.252   0.196   1.314  1.00  0.00     0.029 A 
HETATM    6  C6  UNL     1      -1.817   1.040   0.144  1.00  0.00     0.029 A 
ENDROOT
BRANCH   1   7
HETATM    7  N1  UNL     1       1.385  -0.027   0.411  1.00  0.00    -0.169 NA
HETATM    8  C1  UNL     1       2.298   1.077   0.408  1.00  0.00     0.152 C 
ENDBRANCH   1   7
TORSDOF 1
