REMARK  1 active torsions:
REMARK  status: ('A' for Active; 'I' for Inactive)
REMARK    1  A    between atoms: C1_2  and  C2_4 
ROOT
HETATM    1  C2  UNL     1       0.404   0.179  -0.320  1.00  0.00     0.087 C 
HETATM    2  C3  UNL     1      -0.586   0.502   0.813  1.00  0.00     0.015 C 
HETATM    3  C4  UNL     1      -1.656   0.220  -0.256  1.00  0.00     0.002 C 
HETATM    4  C5  UNL     1      -0.667  -0.831  -0.768  1.00  0.00     0.015 C 
ENDROOT
BRANCH   1   5
HETATM    5  C1  UNL     1       1.657  -0.429   0.113  1.00  0.00     0.177 C 
HETATM    6  O1  UNL     1       1.995  -1.548  -0.290  1.00  0.00    -0.648 OA
HETATM    7  O2  UNL     1       2.507   0.231   0.990  1.00  0.00    -0.648 OA
ENDBRANCH   1   5
TORSDOF 1
