REMARK  2 active torsions:
REMARK  status: ('A' for Active; 'I' for Inactive)
REMARK    1  A    between atoms: N1_2  and  C2_5 
REMARK    2  A    between atoms: C2_5  and  C4_7 
ROOT
HETATM    1  C2  UNL     1      -0.210   0.434  -0.165  1.00  0.00     0.281 C 
HETATM    2  C3  UNL     1      -0.614  -1.005  -0.539  1.00  0.00     0.052 C 
ENDROOT
BRANCH   1   3
HETATM    3  N1  UNL     1       0.906   0.273   0.755  1.00  0.00    -0.065 N 
HETATM    4  C1  UNL     1       2.044  -0.353   0.131  1.00  0.00     0.267 C 
ATOM      5  H12 UNL     1       0.622  -0.233   1.594  1.00  0.00     0.277 HD
ATOM      6  H11 UNL     1       1.163   1.163   1.181  1.00  0.00     0.277 HD
ENDBRANCH   1   3
BRANCH   1   7
HETATM    7  C4  UNL     1      -1.407   1.001   0.476  1.00  0.00     0.204 C 
HETATM    8  O1  UNL     1      -1.465   1.276   1.690  1.00  0.00    -0.646 OA
HETATM    9  O2  UNL     1      -2.528   1.240  -0.297  1.00  0.00    -0.646 OA
ENDBRANCH   1   7
TORSDOF 2
