REMARK  3 active torsions:
REMARK  status: ('A' for Active; 'I' for Inactive)
REMARK    1  A    between atoms: N1_2  and  N2_4 
REMARK    2  A    between atoms: C2_6  and  N3_7 
REMARK    3  A    between atoms: N3_7  and  C3_9 
ROOT
HETATM    1  N2  UNL     1      -1.092   0.155   0.371  1.00  0.00    -0.301 N 
ATOM      2  H2  UNL     1      -0.684   1.007   0.755  1.00  0.00     0.187 HD
HETATM    3  C2  UNL     1      -0.435  -0.944   0.413  1.00  0.00     0.192 C 
ENDROOT
BRANCH   3   4
HETATM    4  N3  UNL     1       0.864  -1.083   0.970  1.00  0.00    -0.381 N 
ATOM      5  H3  UNL     1       0.993  -1.354   1.945  1.00  0.00     0.160 HD
BRANCH   4   6
HETATM    6  C3  UNL     1       1.993  -0.829   0.113  1.00  0.00     0.082 A 
HETATM    7  C4  UNL     1       2.006   0.598  -0.447  1.00  0.00     0.027 A 
HETATM    8  C5  UNL     1       3.085   0.070   0.466  1.00  0.00     0.027 A 
ENDBRANCH   4   6
ENDBRANCH   3   4
BRANCH   1   9
HETATM    9  N1  UNL     1      -2.360   0.189  -0.197  1.00  0.00    -0.340 N 
HETATM   10  C1  UNL     1      -3.427   1.039   0.315  1.00  0.00     0.167 C 
ATOM     11  H1  UNL     1      -2.551  -0.405  -1.004  1.00  0.00     0.179 HD
ENDBRANCH   1   9
TORSDOF 3
