REMARK  10 active torsions:
REMARK  status: ('A' for Active; 'I' for Inactive)
REMARK    1  A    between atoms: O1_2  and  N1_3 
REMARK    2  A    between atoms: N1_3  and  C2_5 
REMARK    3  A    between atoms: C2_5  and  C3_6 
REMARK    4  A    between atoms: C2_5  and  C4_9 
REMARK       I    between atoms: C4_9  and  N3_11 
REMARK    5  A    between atoms: N3_11  and  C5_13 
REMARK    6  A    between atoms: C8_16  and  C9_17 
REMARK    7  A    between atoms: C9_17  and  N4_18 
REMARK    8  A    between atoms: C13_28  and  N7_29 
REMARK    9  A    between atoms: C14_31  and  C15_32 
REMARK   10  A    between atoms: C18_37  and  N9_38 
ROOT
HETATM    1  C5  UNL     1       0.765   0.586   1.227  1.00  0.00     0.079 A 
HETATM    2  C6  UNL     1       1.256   1.157   2.368  1.00  0.00     0.035 A 
HETATM    3  C7  UNL     1       0.638   2.305   2.892  1.00  0.00     0.029 A 
HETATM    4  C8  UNL     1      -0.445   2.868   2.288  1.00  0.00     0.029 A 
HETATM    5  N6  UNL     1      -0.897   2.282   1.177  1.00  0.00    -0.343 N 
ATOM      6  H6  UNL     1      -1.709   2.688   0.712  1.00  0.00     0.167 HD
HETATM    7  C13 UNL     1      -0.341   1.190   0.642  1.00  0.00     0.132 A 
ENDROOT
BRANCH   7   8
HETATM    8  N7  UNL     1      -0.940   0.660  -0.554  1.00  0.00    -0.349 N 
HETATM    9  C14 UNL     1      -1.754  -0.341  -0.491  1.00  0.00     0.108 C 
ATOM     10  H7  UNL     1      -0.720   1.078  -1.458  1.00  0.00     0.167 HD
BRANCH   9  11
HETATM   11  C15 UNL     1      -2.387  -0.916  -1.664  1.00  0.00     0.070 A 
HETATM   12  C16 UNL     1      -3.252  -1.986  -1.564  1.00  0.00     0.040 A 
HETATM   13  C17 UNL     1      -3.511  -2.545  -0.197  1.00  0.00     0.070 C 
HETATM   14  N8  UNL     1      -3.835  -2.496  -2.653  1.00  0.00    -0.195 N 
HETATM   15  C18 UNL     1      -3.629  -2.019  -3.893  1.00  0.00     0.679 A 
ATOM     16  H8  UNL     1      -4.468  -3.287  -2.538  1.00  0.00     0.184 HD
HETATM   17  N10 UNL     1      -2.792  -0.976  -4.033  1.00  0.00    -0.156 N 
HETATM   18  C19 UNL     1      -2.181  -0.432  -2.939  1.00  0.00     0.273 A 
ATOM     19  H10 UNL     1      -2.613  -0.589  -4.960  1.00  0.00     0.187 HD
HETATM   20  O6  UNL     1      -1.394   0.552  -3.076  1.00  0.00    -0.267 OA
BRANCH  15  21
HETATM   21  N9  UNL     1      -4.231  -2.546  -4.916  1.00  0.00    -0.234 N 
ATOM     22  H92 UNL     1      -4.866  -3.337  -4.810  1.00  0.00     0.174 HD
ATOM     23  H91 UNL     1      -4.075  -2.184  -5.857  1.00  0.00     0.174 HD
ENDBRANCH  15  21
ENDBRANCH   9  11
ENDBRANCH   7   8
BRANCH   1  24
HETATM   24  N3  UNL     1       1.351  -0.539   0.647  1.00  0.00    -0.322 N 
HETATM   25  C4  UNL     1       2.366  -1.377   1.109  1.00  0.00     0.256 C 
HETATM   26  O3  UNL     1       2.946  -1.244   2.205  1.00  0.00    -0.270 OA
ATOM     27  H3  UNL     1       0.975  -0.791  -0.267  1.00  0.00     0.169 HD
BRANCH  25  28
HETATM   28  C2  UNL     1       2.849  -2.557   0.276  1.00  0.00     0.286 C 
BRANCH  28  29
HETATM   29  N1  UNL     1       3.445  -3.478   1.177  1.00  0.00    -0.280 N 
ATOM     30  H1  UNL     1       3.365  -3.338   2.184  1.00  0.00     0.189 HD
BRANCH  29  31
HETATM   31  O1  UNL     1       4.097  -4.507   0.703  1.00  0.00    -0.289 OA
HETATM   32  C1  UNL     1       3.729  -5.028  -0.504  1.00  0.00     0.237 C 
ENDBRANCH  29  31
ENDBRANCH  28  29
BRANCH  28  33
HETATM   33  C3  UNL     1       3.944  -1.940  -0.561  1.00  0.00     0.265 C 
HETATM   34  N2  UNL     1       3.582  -1.033  -1.566  1.00  0.00    -0.060 NA
HETATM   35  O2  UNL     1       5.110  -2.265  -0.320  1.00  0.00    -0.274 OA
ENDBRANCH  28  33
ENDBRANCH  25  28
ENDBRANCH   1  24
BRANCH   4  36
HETATM   36  C9  UNL     1      -1.093   4.075   2.824  1.00  0.00     0.190 C 
BRANCH  36  37
HETATM   37  N4  UNL     1      -0.745   5.287   2.115  1.00  0.00    -0.300 N 
HETATM   38  C10 UNL     1      -1.434   5.814   1.012  1.00  0.00     0.189 A 
HETATM   39  N5  UNL     1      -0.894   6.898   0.587  1.00  0.00    -0.315 N 
HETATM   40  C11 UNL     1       0.264   7.245   1.378  1.00  0.00     0.314 A 
ATOM     41  H5  UNL     1      -1.237   7.442  -0.204  1.00  0.00     0.170 HD
HETATM   42  O4  UNL     1       1.023   8.221   1.251  1.00  0.00    -0.262 OA
HETATM   43  C12 UNL     1       0.331   6.158   2.378  1.00  0.00     0.317 A 
HETATM   44  O5  UNL     1       1.198   6.064   3.277  1.00  0.00    -0.262 OA
ENDBRANCH  36  37
ENDBRANCH   4  36
TORSDOF 10
