REMARK  14 active torsions:
REMARK  status: ('A' for Active; 'I' for Inactive)
REMARK    1  A    between atoms: C2_2  and  N1_3 
REMARK    2  A    between atoms: C2_2  and  C11_18 
REMARK    3  A    between atoms: N1_3  and  C3_5 
REMARK    4  A    between atoms: C3_5  and  C5_7 
REMARK    5  A    between atoms: C5_7  and  N2_9 
REMARK       I    between atoms: C11_18  and  N4_20 
REMARK    6  A    between atoms: N4_20  and  C12_22 
REMARK    7  A    between atoms: C12_22  and  O4_23 
REMARK    8  A    between atoms: C12_22  and  C13_25 
REMARK       I    between atoms: C13_25  and  N5_27 
REMARK    9  A    between atoms: N5_27  and  C14_29 
REMARK   10  A    between atoms: C14_29  and  O6_30 
REMARK   11  A    between atoms: C14_29  and  C15_32 
REMARK   12  A    between atoms: C18_35  and  C19_36 
REMARK   13  A    between atoms: C19_36  and  C20_37 
REMARK       I    between atoms: C20_37  and  N6_39 
REMARK   14  A    between atoms: N6_39  and  N7_41 
ROOT
HETATM    1  C12 UNL     1       1.710  -2.131   1.436  1.00  0.00     0.212 C 
ENDROOT
BRANCH   1   2
HETATM    2  N4  UNL     1       0.415  -2.457   1.092  1.00  0.00    -0.301 N 
HETATM    3  C11 UNL     1      -0.773  -1.733   1.088  1.00  0.00     0.245 C 
HETATM    4  O3  UNL     1      -0.872  -0.556   1.448  1.00  0.00    -0.271 OA
ATOM      5  H4  UNL     1       0.306  -3.421   0.778  1.00  0.00     0.171 HD
BRANCH   3   6
HETATM    6  C2  UNL     1      -2.060  -2.396   0.615  1.00  0.00     0.166 C 
HETATM    7  C1  UNL     1      -1.715  -3.036  -0.694  1.00  0.00     0.042 C 
BRANCH   6   8
HETATM    8  N1  UNL     1      -3.178  -1.593   0.706  1.00  0.00    -0.404 N 
ATOM      9  H1  UNL     1      -3.924  -1.909   1.325  1.00  0.00     0.154 HD
BRANCH   8  10
HETATM   10  C3  UNL     1      -3.384  -0.392   0.032  1.00  0.00     0.097 C 
HETATM   11  C4  UNL     1      -3.407  -0.610  -1.470  1.00  0.00     0.034 C 
BRANCH  10  12
HETATM   12  C5  UNL     1      -4.731   0.196   0.494  1.00  0.00     0.129 C 
HETATM   13  C6  UNL     1      -5.885  -0.719   0.184  1.00  0.00     0.036 C 
BRANCH  12  14
HETATM   14  N2  UNL     1      -4.946   1.543   0.027  1.00  0.00    -0.248 N 
HETATM   15  N3  UNL     1      -5.655   1.843  -1.044  1.00  0.00    -0.306 N 
HETATM   16  C7  UNL     1      -5.878   3.093  -1.498  1.00  0.00     0.111 A 
ATOM     17  H3  UNL     1      -6.066   1.071  -1.569  1.00  0.00     0.186 HD
HETATM   18  C8  UNL     1      -5.355   4.187  -0.842  1.00  0.00     0.079 A 
HETATM   19  C9  UNL     1      -4.596   3.916   0.298  1.00  0.00     0.242 A 
HETATM   20  O1  UNL     1      -4.103   4.888   0.921  1.00  0.00    -0.282 OA
HETATM   21  C10 UNL     1      -4.418   2.611   0.692  1.00  0.00     0.312 A 
HETATM   22  O2  UNL     1      -3.736   2.393   1.714  1.00  0.00    -0.262 OA
ENDBRANCH  12  14
ENDBRANCH  10  12
ENDBRANCH   8  10
ENDBRANCH   6   8
ENDBRANCH   3   6
ENDBRANCH   1   2
BRANCH   1  23
HETATM   23  O4  UNL     1       2.568  -3.128   1.360  1.00  0.00    -0.342 OA
ATOM     24  H4  UNL     1       3.460  -2.903   1.597  1.00  0.00     0.219 HD
ENDBRANCH   1  23
BRANCH   1  25
HETATM   25  C13 UNL     1       2.272  -0.866   1.863  1.00  0.00     0.294 C 
HETATM   26  O5  UNL     1       1.606   0.173   1.939  1.00  0.00    -0.264 OA
HETATM   27  N5  UNL     1       3.671  -0.823   2.211  1.00  0.00    -0.327 N 
ATOM     28  H5  UNL     1       4.233  -1.673   2.159  1.00  0.00     0.165 HD
BRANCH  27  29
HETATM   29  C14 UNL     1       4.281   0.419   2.633  1.00  0.00     0.229 C 
BRANCH  29  30
HETATM   30  O6  UNL     1       4.573   0.296   4.005  1.00  0.00    -0.376 OA
ATOM     31  H6  UNL     1       4.974   1.112   4.282  1.00  0.00     0.212 HD
ENDBRANCH  29  30
BRANCH  29  32
HETATM   32  C15 UNL     1       5.593   0.658   1.911  1.00  0.00     0.067 A 
HETATM   33  C16 UNL     1       6.707  -0.287   2.037  1.00  0.00     0.047 A 
HETATM   34  C17 UNL     1       5.973  -0.238   0.776  1.00  0.00    -0.074 A 
HETATM   35  C18 UNL     1       5.722  -0.616  -0.473  1.00  0.00    -0.014 C 
BRANCH  35  36
HETATM   36  C19 UNL     1       4.639  -0.024  -1.284  1.00  0.00     0.132 C 
BRANCH  36  37
HETATM   37  C20 UNL     1       5.204   0.587  -2.508  1.00  0.00     0.238 C 
HETATM   38  O7  UNL     1       6.456   0.550  -2.690  1.00  0.00    -0.272 OA
HETATM   39  N6  UNL     1       4.349   1.194  -3.443  1.00  0.00    -0.276 N 
ATOM     40  H6  UNL     1       3.341   1.220  -3.288  1.00  0.00     0.189 HD
BRANCH  39  41
HETATM   41  N7  UNL     1       4.914   1.764  -4.597  1.00  0.00    -0.343 N 
ATOM     42  H72 UNL     1       5.924   1.729  -4.737  1.00  0.00     0.176 HD
ATOM     43  H71 UNL     1       4.293   2.205  -5.276  1.00  0.00     0.176 HD
ENDBRANCH  39  41
ENDBRANCH  36  37
ENDBRANCH  35  36
ENDBRANCH  29  32
ENDBRANCH  27  29
ENDBRANCH   1  25
TORSDOF 14
