REMARK  10 active torsions:
REMARK  status: ('A' for Active; 'I' for Inactive)
REMARK       I    between atoms: C2_2  and  N1_4 
REMARK    1  A    between atoms: N1_4  and  C3_6 
REMARK    2  A    between atoms: C3_6  and  C5_9 
REMARK       I    between atoms: C5_9  and  N3_11 
REMARK    3  A    between atoms: N3_11  and  C6_13 
REMARK    4  A    between atoms: C9_18  and  C10_19 
REMARK    5  A    between atoms: C10_19  and  N4_20 
REMARK       I    between atoms: N4_20  and  C11_22 
REMARK    6  A    between atoms: C11_22  and  C12_24 
REMARK    7  A    between atoms: C12_24  and  C13_26 
REMARK    8  A    between atoms: C15_29  and  N5_30 
REMARK    9  A    between atoms: C16_35  and  C17_36 
REMARK   10  A    between atoms: C17_36  and  O6_38 
ROOT
HETATM    1  C3  UNL     1       4.890   0.565   0.149  1.00  0.00     0.284 C 
HETATM    2  C4  UNL     1       4.139   1.820   0.368  1.00  0.00     0.094 C 
HETATM    3  N2  UNL     1       3.557   2.805   0.538  1.00  0.00    -0.195 NA
ENDROOT
BRANCH   1   4
HETATM    4  N1  UNL     1       6.009   0.468   1.049  1.00  0.00    -0.337 N 
HETATM    5  C2  UNL     1       7.336   0.426   0.561  1.00  0.00     0.215 C 
HETATM    6  C1  UNL     1       8.515   0.331   1.459  1.00  0.00     0.117 C 
HETATM    7  O1  UNL     1       7.548   0.470  -0.677  1.00  0.00    -0.274 OA
ATOM      8  H1  UNL     1       5.842   0.429   2.055  1.00  0.00     0.164 HD
ENDBRANCH   1   4
BRANCH   1   9
HETATM    9  C5  UNL     1       3.891  -0.542   0.348  1.00  0.00     0.255 C 
HETATM   10  O2  UNL     1       4.193  -1.387   1.227  1.00  0.00    -0.270 OA
HETATM   11  N3  UNL     1       2.699  -0.589  -0.424  1.00  0.00    -0.342 N 
ATOM     12  H3  UNL     1       2.519   0.133  -1.121  1.00  0.00     0.163 HD
BRANCH  11  13
HETATM   13  C6  UNL     1       1.748  -1.643  -0.231  1.00  0.00     0.203 C 
HETATM   14  C7  UNL     1       1.649  -2.450  -1.454  1.00  0.00     0.213 C 
HETATM   15  O3  UNL     1       2.288  -3.450  -1.593  1.00  0.00    -0.283 OA
HETATM   16  S1  UNL     1       0.540  -1.874  -2.710  1.00  0.00    -0.086 SA
HETATM   17  C8  UNL     1      -0.063  -0.273  -2.147  1.00  0.00     0.118 C 
HETATM   18  C9  UNL     1      -0.368  -0.407  -0.648  1.00  0.00    -0.040 C 
HETATM   19  C16 UNL     1       0.429  -1.015   0.183  1.00  0.00     0.025 C 
BRANCH  18  20
HETATM   20  C10 UNL     1      -1.596   0.309  -0.207  1.00  0.00     0.158 C 
BRANCH  20  21
HETATM   21  N4  UNL     1      -2.750  -0.346  -0.785  1.00  0.00    -0.350 N 
HETATM   22  C11 UNL     1      -4.066   0.180  -0.501  1.00  0.00     0.294 C 
HETATM   23  O4  UNL     1      -4.092   1.175   0.235  1.00  0.00    -0.264 OA
ATOM     24  H4  UNL     1      -2.637  -1.165  -1.383  1.00  0.00     0.163 HD
BRANCH  22  25
HETATM   25  C12 UNL     1      -5.233  -0.427  -1.046  1.00  0.00     0.266 C 
HETATM   26  O5  UNL     1      -5.026  -1.445  -1.801  1.00  0.00    -0.280 OA
BRANCH  25  27
HETATM   27  C13 UNL     1      -6.596   0.053  -0.785  1.00  0.00     0.097 A 
HETATM   28  C14 UNL     1      -7.658  -0.631  -1.394  1.00  0.00     0.087 A 
HETATM   29  S2  UNL     1      -9.012   0.232  -0.840  1.00  0.00    -0.064 SA
HETATM   30  C15 UNL     1      -8.213   1.385   0.109  1.00  0.00     0.142 A 
HETATM   31  N6  UNL     1      -6.921   1.061  -0.038  1.00  0.00    -0.333 N 
ATOM     32  H6  UNL     1      -6.198   1.604   0.435  1.00  0.00     0.168 HD
BRANCH  30  33
HETATM   33  N5  UNL     1      -8.709   2.376   0.829  1.00  0.00    -0.380 N 
ATOM     34  H52 UNL     1      -9.692   2.623   0.941  1.00  0.00     0.158 HD
ATOM     35  H51 UNL     1      -8.228   3.070   1.401  1.00  0.00     0.158 HD
ENDBRANCH  30  33
ENDBRANCH  25  27
ENDBRANCH  22  25
ENDBRANCH  20  21
ENDBRANCH  18  20
BRANCH  19  36
HETATM   36  C17 UNL     1       0.088  -1.242   1.569  1.00  0.00     0.158 C 
HETATM   37  N7  UNL     1      -1.083  -0.926   2.262  1.00  0.00    -0.074 NA
BRANCH  36  38
HETATM   38  O6  UNL     1       1.021  -1.838   2.268  1.00  0.00    -0.348 OA
ATOM     39  H6  UNL     1       0.797  -1.987   3.179  1.00  0.00     0.219 HD
ENDBRANCH  36  38
ENDBRANCH  19  36
ENDBRANCH  11  13
ENDBRANCH   1   9
TORSDOF 10
