REMARK  6 active torsions:
REMARK  status: ('A' for Active; 'I' for Inactive)
REMARK    1  A    between atoms: C2_2  and  C3_3 
REMARK    2  A    between atoms: C3_3  and  O1_4 
REMARK    3  A    between atoms: O1_4  and  C4_5 
REMARK    4  A    between atoms: C8_10  and  O3_11 
REMARK    5  A    between atoms: C12_16  and  O4_17 
REMARK    6  A    between atoms: C13_19  and  O5_20 
ROOT
HETATM    1  C4  UNL     1       0.898  -0.959   0.309  1.00  0.00     0.292 C 
HETATM    2  O2  UNL     1       0.016  -0.229   1.099  1.00  0.00    -0.353 OA
HETATM    3  C5  UNL     1      -0.780   0.696   0.531  1.00  0.00     0.132 C 
HETATM    4  C6  UNL     1      -0.826   1.926   1.467  1.00  0.00     0.035 C 
HETATM    5  C7  UNL     1      -1.737   2.822   0.615  1.00  0.00     0.035 C 
HETATM    6  C8  UNL     1      -2.736   1.861  -0.031  1.00  0.00     0.125 C 
HETATM    7  C9  UNL     1      -2.258   0.506   0.355  1.00  0.00     0.054 C 
HETATM    8  C10 UNL     1      -2.623  -0.547  -0.751  1.00  0.00     0.092 C 
HETATM    9  C11 UNL     1      -1.554  -1.459  -0.706  1.00  0.00    -0.148 C 
HETATM   10  C12 UNL     1      -0.683  -2.510  -1.012  1.00  0.00     0.217 C 
HETATM   11  C13 UNL     1       0.476  -2.396  -0.005  1.00  0.00     0.213 C 
ENDROOT
BRANCH   1  12
HETATM   12  O1  UNL     1       2.047  -1.092   1.001  1.00  0.00    -0.358 OA
BRANCH  12  13
HETATM   13  C3  UNL     1       3.275  -0.801   0.718  1.00  0.00     0.170 C 
BRANCH  13  14
HETATM   14  C2  UNL     1       3.624   0.634   0.509  1.00  0.00     0.022 C 
HETATM   15  C1  UNL     1       2.981   1.331  -0.634  1.00  0.00     0.007 C 
ENDBRANCH  13  14
ENDBRANCH  12  13
ENDBRANCH   1  12
BRANCH  11  16
HETATM   16  O5  UNL     1      -0.060  -2.941   1.175  1.00  0.00    -0.387 OA
ATOM     17  H5  UNL     1      -0.322  -3.833   0.980  1.00  0.00     0.210 HD
ENDBRANCH  11  16
BRANCH  10  18
HETATM   18  O4  UNL     1      -0.083  -2.581  -2.276  1.00  0.00    -0.381 OA
ATOM     19  H4  UNL     1       0.509  -3.295  -2.484  1.00  0.00     0.211 HD
ENDBRANCH  10  18
BRANCH   6  20
HETATM   20  O3  UNL     1      -2.826   2.072  -1.394  1.00  0.00    -0.395 OA
ATOM     21  H3  UNL     1      -3.447   1.475  -1.795  1.00  0.00     0.210 HD
ENDBRANCH   6  20
TORSDOF 6
