REMARK  7 active torsions:
REMARK  status: ('A' for Active; 'I' for Inactive)
REMARK    1  A    between atoms: C2_2  and  C3_3 
REMARK    2  A    between atoms: C2_2  and  O2_6 
REMARK    3  A    between atoms: C3_3  and  O1_4 
REMARK    4  A    between atoms: O2_6  and  C4_7 
REMARK    5  A    between atoms: C4_7  and  C5_9 
REMARK    6  A    between atoms: C5_9  and  O4_10 
REMARK    7  A    between atoms: C10_16  and  O5_17 
ROOT
HETATM    1  C5  UNL     1      -0.109   0.393  -0.716  1.00  0.00     0.195 C 
HETATM    2  C6  UNL     1      -1.052  -0.781  -0.850  1.00  0.00     0.061 C 
HETATM    3  C7  UNL     1      -2.004  -0.488  -1.968  1.00  0.00     0.008 C 
HETATM    4  C8  UNL     1      -3.387  -0.131  -1.490  1.00  0.00     0.037 C 
HETATM    5  C9  UNL     1      -3.391   0.409  -0.109  1.00  0.00    -0.049 C 
HETATM    6  C10 UNL     1      -4.306  -0.096   0.686  1.00  0.00     0.134 C 
HETATM    7  C11 UNL     1      -2.540   1.429   0.554  1.00  0.00     0.113 C 
HETATM    8  S1  UNL     1      -1.091   1.869  -0.398  1.00  0.00    -0.117 SA
ENDROOT
BRANCH   1   9
HETATM    9  C4  UNL     1       0.920   0.177   0.318  1.00  0.00     0.304 C 
HETATM   10  O3  UNL     1       0.539   0.009   1.501  1.00  0.00    -0.261 OA
BRANCH   9  11
HETATM   11  O2  UNL     1       2.268   0.144   0.086  1.00  0.00    -0.311 OA
BRANCH  11  12
HETATM   12  C2  UNL     1       3.270  -0.052   1.007  1.00  0.00     0.151 C 
HETATM   13  C1  UNL     1       4.314   1.019   1.087  1.00  0.00     0.042 C 
BRANCH  12  14
HETATM   14  C3  UNL     1       4.006  -1.358   0.694  1.00  0.00     0.196 C 
BRANCH  14  15
HETATM   15  O1  UNL     1       4.525  -1.201  -0.594  1.00  0.00    -0.398 OA
ATOM     16  H1  UNL     1       4.982  -2.011  -0.788  1.00  0.00     0.209 HD
ENDBRANCH  14  15
ENDBRANCH  12  14
ENDBRANCH  11  12
ENDBRANCH   9  11
ENDBRANCH   1   9
BRANCH   1  17
HETATM   17  O4  UNL     1       0.547   0.552  -1.940  1.00  0.00    -0.370 OA
ATOM     18  H4  UNL     1      -0.116   0.691  -2.606  1.00  0.00     0.212 HD
ENDBRANCH   1  17
BRANCH   6  19
HETATM   19  O5  UNL     1      -4.441   0.300   1.999  1.00  0.00    -0.372 OA
ATOM     20  H5  UNL     1      -5.103  -0.065   2.574  1.00  0.00     0.216 HD
ENDBRANCH   6  19
TORSDOF 7
