REMARK  3 active torsions:
REMARK  status: ('A' for Active; 'I' for Inactive)
REMARK    1  A    between atoms: O1_2  and  C2_3 
REMARK    2  A    between atoms: C4_5  and  C5_6 
REMARK    3  A    between atoms: C10_13  and  O2_14 
ROOT
HETATM    1  C2  UNL     1      -1.402   1.030   0.185  1.00  0.00     0.120 A 
HETATM    2  C3  UNL     1      -0.051   1.308   0.053  1.00  0.00     0.054 A 
HETATM    3  C4  UNL     1       0.916   0.327   0.342  1.00  0.00    -0.016 A 
HETATM    4  C8  UNL     1       0.448  -0.883   0.753  1.00  0.00     0.104 A 
HETATM    5  N2  UNL     1      -0.867  -1.176   0.890  1.00  0.00    -0.339 N 
HETATM    6  C9  UNL     1      -1.287  -2.479   1.333  1.00  0.00     0.158 C 
HETATM    7  C10 UNL     1      -1.767  -0.237   0.610  1.00  0.00     0.177 A 
ENDROOT
BRANCH   3   8
HETATM    8  C5  UNL     1       2.310   0.707   0.205  1.00  0.00     0.034 C 
HETATM    9  C6  UNL     1       3.174  -0.064  -0.420  1.00  0.00     0.021 C 
HETATM   10  C7  UNL     1       4.630   0.348  -0.550  1.00  0.00     0.065 C 
HETATM   11  N1  UNL     1       2.833  -1.296  -1.028  1.00  0.00    -0.107 NA
ENDBRANCH   3   8
BRANCH   1  12
HETATM   12  O1  UNL     1      -2.380   1.969  -0.094  1.00  0.00    -0.352 OA
HETATM   13  C1  UNL     1      -2.011   3.256  -0.530  1.00  0.00     0.210 C 
ENDBRANCH   1  12
BRANCH   7  14
HETATM   14  O2  UNL     1      -3.110  -0.510   0.743  1.00  0.00    -0.339 OA
HETATM   15  C11 UNL     1      -3.803  -1.130  -0.319  1.00  0.00     0.211 C 
ENDBRANCH   7  14
TORSDOF 3
