REMARK  5 active torsions:
REMARK  status: ('A' for Active; 'I' for Inactive)
REMARK    1  A    between atoms: N1_1  and  C1_5 
REMARK    2  A    between atoms: C1_5  and  C2_6 
REMARK    3  A    between atoms: C2_6  and  N2_7 
REMARK    4  A    between atoms: N2_7  and  C3_9 
REMARK    5  A    between atoms: C6_12  and  C7_13 
ROOT
HETATM    1  C3  UNL     1      -1.310   0.356   0.152  1.00  0.00     0.100 A 
HETATM    2  C4  UNL     1      -0.712  -0.872   0.103  1.00  0.00     0.049 A 
HETATM    3  C5  UNL     1       0.659  -0.975   0.048  1.00  0.00     0.017 A 
HETATM    4  C6  UNL     1       1.446   0.156   0.042  1.00  0.00    -0.010 A 
HETATM    5  C12 UNL     1       0.800   1.360   0.092  1.00  0.00     0.102 A 
HETATM    6  N4  UNL     1      -0.534   1.479   0.146  1.00  0.00    -0.352 N 
ATOM      7  H4  UNL     1      -0.966   2.402   0.182  1.00  0.00     0.166 HD
ENDROOT
BRANCH   1   8
HETATM    8  N2  UNL     1      -2.596   0.442   0.203  1.00  0.00    -0.375 N 
ATOM      9  H2  UNL     1      -3.058   1.351   0.240  1.00  0.00     0.161 HD
BRANCH   8  10
HETATM   10  C2  UNL     1      -3.366  -0.780   0.206  1.00  0.00     0.148 C 
BRANCH  10  11
HETATM   11  C1  UNL     1      -4.831  -0.359   0.363  1.00  0.00     0.249 C 
BRANCH  11  12
HETATM   12  N1  UNL     1      -5.137   0.489  -0.775  1.00  0.00    -0.078 N 
ATOM     13  H13 UNL     1      -4.498   1.278  -0.876  1.00  0.00     0.274 HD
ATOM     14  H12 UNL     1      -4.936   0.049  -1.673  1.00  0.00     0.274 HD
ATOM     15  H11 UNL     1      -6.112   0.769  -0.670  1.00  0.00     0.274 HD
ENDBRANCH  11  12
ENDBRANCH  10  11
ENDBRANCH   8  10
ENDBRANCH   1   8
BRANCH   4  16
HETATM   16  C7  UNL     1       2.919   0.064  -0.017  1.00  0.00    -0.022 A 
HETATM   17  C8  UNL     1       3.667   1.044  -0.637  1.00  0.00     0.029 A 
HETATM   18  C9  UNL     1       5.041   0.945  -0.684  1.00  0.00     0.088 A 
HETATM   19  N3  UNL     1       5.648  -0.113  -0.123  1.00  0.00    -0.375 N 
HETATM   20  C10 UNL     1       4.985  -1.101   0.495  1.00  0.00     0.088 A 
ATOM     21  H3  UNL     1       6.665  -0.168  -0.169  1.00  0.00     0.164 HD
HETATM   22  C11 UNL     1       3.599  -0.998   0.542  1.00  0.00     0.029 A 
ENDBRANCH   4  16
TORSDOF 5
