REMARK  8 active torsions:
REMARK  status: ('A' for Active; 'I' for Inactive)
REMARK    1  A    between atoms: C5_5  and  N1_6 
REMARK    2  A    between atoms: C5_5  and  O1_10 
REMARK    3  A    between atoms: C6_15  and  O2_16 
REMARK    4  A    between atoms: N7_27  and  C10_28 
REMARK    5  A    between atoms: C10_28  and  C11_29 
REMARK    6  A    between atoms: C11_29  and  C12_30 
REMARK    7  A    between atoms: C12_30  and  C13_31 
REMARK    8  A    between atoms: C13_31  and  N8_32 
ROOT
HETATM    1  C1  UNL     1      -1.832   2.588   1.061  1.00  0.00     0.043 C 
HETATM    2  C2  UNL     1      -1.657   1.116   0.743  1.00  0.00    -0.074 C 
HETATM    3  C3  UNL     1      -2.102   0.160   1.782  1.00  0.00     0.043 C 
HETATM    4  C4  UNL     1      -1.133   0.752  -0.408  1.00  0.00     0.066 C 
HETATM    5  C5  UNL     1      -0.696   1.740  -1.429  1.00  0.00     0.421 C 
HETATM    6  N2  UNL     1       0.287   1.013  -2.211  1.00  0.00     0.019 N 
ATOM      7  H21 UNL     1       1.234   1.062  -1.836  1.00  0.00     0.286 HD
ATOM      8  H22 UNL     1       0.498   1.440  -3.113  1.00  0.00     0.286 HD
HETATM    9  C6  UNL     1      -0.233  -0.315  -2.304  1.00  0.00     0.379 C 
HETATM   10  C7  UNL     1      -0.904  -0.605  -0.942  1.00  0.00     0.195 A 
HETATM   11  N3  UNL     1      -2.150  -1.274  -1.203  1.00  0.00    -0.330 N 
ATOM     12  H3  UNL     1      -2.820  -0.776  -1.789  1.00  0.00     0.165 HD
HETATM   13  C8  UNL     1      -2.500  -2.403  -0.787  1.00  0.00     0.192 A 
HETATM   14  N4  UNL     1      -3.815  -2.869  -1.183  1.00  0.00    -0.063 NA
HETATM   15  N5  UNL     1      -1.663  -3.214   0.022  1.00  0.00    -0.305 N 
ATOM     16  H5  UNL     1      -1.950  -4.132   0.363  1.00  0.00     0.171 HD
HETATM   17  C9  UNL     1      -0.508  -2.700   0.294  1.00  0.00     0.195 A 
HETATM   18  N6  UNL     1       0.392  -3.477   1.121  1.00  0.00    -0.063 NA
HETATM   19  N7  UNL     1      -0.024  -1.454  -0.183  1.00  0.00    -0.321 N 
ENDROOT
BRANCH   9  20
HETATM   20  O2  UNL     1      -1.232  -0.450  -3.259  1.00  0.00    -0.366 OA
ATOM     21  H2  UNL     1      -1.578  -1.333  -3.321  1.00  0.00     0.212 HD
ENDBRANCH   9  20
BRANCH  19  22
HETATM   22  C10 UNL     1       1.365  -1.169   0.109  1.00  0.00     0.129 C 
BRANCH  22  23
HETATM   23  C11 UNL     1       1.665  -0.077   1.057  1.00  0.00     0.022 C 
BRANCH  23  24
HETATM   24  C12 UNL     1       3.199   0.037   1.258  1.00  0.00     0.029 C 
BRANCH  24  25
HETATM   25  C13 UNL     1       3.416   1.171   2.231  1.00  0.00     0.229 C 
BRANCH  25  26
HETATM   26  N8  UNL     1       4.822   1.377   2.501  1.00  0.00    -0.079 N 
ATOM     27  H83 UNL     1       5.270   0.519   2.823  1.00  0.00     0.274 HD
ATOM     28  H82 UNL     1       5.350   1.518   1.640  1.00  0.00     0.274 HD
ATOM     29  H81 UNL     1       4.969   2.143   3.158  1.00  0.00     0.274 HD
ENDBRANCH  25  26
ENDBRANCH  24  25
ENDBRANCH  23  24
ENDBRANCH  22  23
ENDBRANCH  19  22
BRANCH   5  30
HETATM   30  N1  UNL     1      -1.775   2.071  -2.355  1.00  0.00    -0.016 N 
ATOM     31  H13 UNL     1      -2.163   1.234  -2.789  1.00  0.00     0.280 HD
ATOM     32  H12 UNL     1      -2.606   2.392  -1.859  1.00  0.00     0.280 HD
ATOM     33  H11 UNL     1      -1.475   2.749  -3.056  1.00  0.00     0.280 HD
ENDBRANCH   5  30
BRANCH   5  34
HETATM   34  O1  UNL     1      -0.215   2.924  -0.935  1.00  0.00    -0.340 OA
ATOM     35  H1  UNL     1       0.064   3.555  -1.588  1.00  0.00     0.214 HD
ENDBRANCH   5  34
TORSDOF 8
