REMARK  5 active torsions:
REMARK  status: ('A' for Active; 'I' for Inactive)
REMARK    1  A    between atoms: C3_4  and  S1_5 
REMARK    2  A    between atoms: S1_5  and  N2_6 
REMARK    3  A    between atoms: C4_11  and  N3_12 
REMARK       I    between atoms: N3_12  and  C5_14 
REMARK    4  A    between atoms: C5_14  and  C6_16 
REMARK    5  A    between atoms: C8_24  and  N8_25 
ROOT
HETATM    1  N1  UNL     1      -4.828  -0.371   0.036  1.00  0.00    -0.100 NA
HETATM    2  C1  UNL     1      -3.413  -0.310   0.057  1.00  0.00     0.081 A 
HETATM    3  C2  UNL     1      -2.732   0.811   0.422  1.00  0.00     0.056 A 
HETATM    4  C3  UNL     1      -1.356   0.900   0.452  1.00  0.00     0.107 A 
HETATM    5  C4  UNL     1      -0.584  -0.213   0.091  1.00  0.00     0.061 A 
HETATM    6  C7  UNL     1      -1.257  -1.346  -0.277  1.00  0.00     0.069 A 
HETATM    7  C8  UNL     1      -2.653  -1.394  -0.294  1.00  0.00     0.129 A 
ENDROOT
BRANCH   5   8
HETATM    8  N3  UNL     1       0.812  -0.089   0.151  1.00  0.00    -0.319 N 
HETATM    9  C5  UNL     1       1.786  -1.020  -0.190  1.00  0.00     0.292 C 
HETATM   10  O3  UNL     1       1.492  -2.149  -0.618  1.00  0.00    -0.264 OA
ATOM     11  H3  UNL     1       1.160   0.807   0.492  1.00  0.00     0.169 HD
BRANCH   9  12
HETATM   12  C6  UNL     1       3.219  -0.640  -0.033  1.00  0.00     0.200 C 
HETATM   13  N4  UNL     1       3.695   0.478   0.393  1.00  0.00    -0.266 N 
HETATM   14  N5  UNL     1       5.089   0.447   0.395  1.00  0.00    -0.007 NA
ATOM     15  H4  UNL     1       3.131   1.275   0.688  1.00  0.00     0.185 HD
HETATM   16  N6  UNL     1       5.514  -0.700  -0.282  1.00  0.00    -0.007 NA
HETATM   17  N7  UNL     1       4.340  -1.459  -0.330  1.00  0.00    -0.266 N 
ATOM     18  H7  UNL     1       4.296  -2.455  -0.547  1.00  0.00     0.185 HD
ENDBRANCH   9  12
ENDBRANCH   5   8
BRANCH   4  19
HETATM   19  S1  UNL     1      -0.589   2.381   0.915  1.00  0.00     0.259 S 
HETATM   20  O1  UNL     1       0.159   2.240   2.201  1.00  0.00    -0.201 OA
HETATM   21  O2  UNL     1      -1.686   3.408   1.177  1.00  0.00    -0.201 OA
BRANCH  19  22
HETATM   22  N2  UNL     1       0.381   3.073  -0.335  1.00  0.00    -0.324 N 
ATOM     23  H22 UNL     1       0.482   2.639  -1.252  1.00  0.00     0.169 HD
ATOM     24  H21 UNL     1       0.833   3.946  -0.062  1.00  0.00     0.169 HD
ENDBRANCH  19  22
ENDBRANCH   4  19
BRANCH   7  25
HETATM   25  N8  UNL     1      -3.261  -2.607  -0.689  1.00  0.00    -0.114 N 
HETATM   26  O4  UNL     1      -4.346  -2.948  -0.215  1.00  0.00    -0.532 OA
HETATM   27  O5  UNL     1      -2.610  -3.389  -1.610  1.00  0.00    -0.532 OA
ENDBRANCH   7  25
TORSDOF 5
