REMARK  7 active torsions:
REMARK  status: ('A' for Active; 'I' for Inactive)
REMARK    1  A    between atoms: N1_2  and  C2_4 
REMARK    2  A    between atoms: C3_7  and  C4_8 
REMARK    3  A    between atoms: C4_8  and  O1_10 
REMARK    4  A    between atoms: C6_12  and  O2_13 
REMARK    5  A    between atoms: C7_17  and  N4_18 
REMARK    6  A    between atoms: C9_21  and  C10_22 
REMARK    7  A    between atoms: N7_25  and  N8_26 
ROOT
HETATM    1  C2  UNL     1       0.861   0.157   0.680  1.00  0.00     0.147 A 
HETATM    2  N2  UNL     1       2.203   0.136   0.648  1.00  0.00    -0.337 N 
ATOM      3  H2  UNL     1       2.737   0.578   1.397  1.00  0.00     0.167 HD
HETATM    4  C3  UNL     1       2.845  -0.466  -0.369  1.00  0.00     0.091 A 
HETATM    5  C6  UNL     1       2.092  -1.061  -1.379  1.00  0.00     0.167 A 
HETATM    6  N3  UNL     1       0.750  -1.024  -1.321  1.00  0.00    -0.318 N 
ATOM      7  H3  UNL     1       0.218  -1.466  -2.071  1.00  0.00     0.169 HD
HETATM    8  C7  UNL     1       0.076  -0.432  -0.320  1.00  0.00     0.164 A 
ENDROOT
BRANCH   8   9
HETATM    9  N4  UNL     1      -1.339  -0.389  -0.249  1.00  0.00    -0.229 N 
HETATM   10  C8  UNL     1      -2.130   0.485  -0.895  1.00  0.00     0.163 A 
HETATM   11  N5  UNL     1      -1.693   1.525  -1.766  1.00  0.00    -0.079 NA
HETATM   12  C9  UNL     1      -3.446   0.209  -0.574  1.00  0.00     0.167 A 
HETATM   13  N7  UNL     1      -3.435  -0.843   0.274  1.00  0.00    -0.203 N 
HETATM   14  C11 UNL     1      -2.131  -1.200   0.464  1.00  0.00     0.355 A 
HETATM   15  O4  UNL     1      -1.812  -2.162   1.216  1.00  0.00    -0.244 OA
BRANCH  12  16
HETATM   16  C10 UNL     1      -4.611   0.919  -1.059  1.00  0.00     0.287 C 
HETATM   17  N6  UNL     1      -5.943   0.550  -0.663  1.00  0.00    -0.056 NA
HETATM   18  O3  UNL     1      -4.502   1.881  -1.844  1.00  0.00    -0.269 OA
ENDBRANCH  12  16
BRANCH  13  19
HETATM   19  N8  UNL     1      -4.571  -1.437   0.838  1.00  0.00    -0.334 N 
ATOM     20  H82 UNL     1      -5.545  -1.170   0.696  1.00  0.00     0.177 HD
ATOM     21  H81 UNL     1      -4.563  -2.231   1.478  1.00  0.00     0.177 HD
ENDBRANCH  13  19
ENDBRANCH   8   9
BRANCH   1  22
HETATM   22  N1  UNL     1       0.236   0.730   1.657  1.00  0.00    -0.378 N 
HETATM   23  C1  UNL     1       1.015   1.345   2.711  1.00  0.00     0.148 C 
ATOM     24  H1  UNL     1      -0.783   0.748   1.684  1.00  0.00     0.160 HD
ENDBRANCH   1  22
BRANCH   5  25
HETATM   25  O2  UNL     1       2.809  -1.666  -2.401  1.00  0.00    -0.345 OA
ATOM     26  H2  UNL     1       2.296  -2.072  -3.090  1.00  0.00     0.219 HD
ENDBRANCH   5  25
BRANCH   4  27
HETATM   27  C4  UNL     1       4.348  -0.516  -0.443  1.00  0.00     0.168 C 
HETATM   28  C5  UNL     1       4.907   0.243   0.713  1.00  0.00     0.046 C 
BRANCH  27  29
HETATM   29  O1  UNL     1       4.764   0.002  -1.653  1.00  0.00    -0.390 OA
ATOM     30  H1  UNL     1       5.712  -0.030  -1.700  1.00  0.00     0.210 HD
ENDBRANCH  27  29
ENDBRANCH   4  27
TORSDOF 7
