REMARK  11 active torsions:
REMARK  status: ('A' for Active; 'I' for Inactive)
REMARK    1  A    between atoms: O1_2  and  C2_3 
REMARK    2  A    between atoms: C3_8  and  N3_9 
REMARK    3  A    between atoms: N3_9  and  C4_11 
REMARK    4  A    between atoms: C4_11  and  O2_12 
REMARK    5  A    between atoms: C4_11  and  C5_14 
REMARK    6  A    between atoms: C5_14  and  N4_15 
REMARK    7  A    between atoms: C5_14  and  O3_19 
REMARK    8  A    between atoms: C7_22  and  C8_23 
REMARK    9  A    between atoms: C8_23  and  O4_24 
REMARK   10  A    between atoms: C8_23  and  N5_26 
REMARK   11  A    between atoms: N5_26  and  C9_28 
ROOT
HETATM    1  C2  UNL     1       0.724   2.167  -0.057  1.00  0.00     0.167 A 
HETATM    2  N1  UNL     1      -0.330   2.969  -0.281  1.00  0.00    -0.278 N 
ATOM      3  H1  UNL     1      -0.153   3.943  -0.526  1.00  0.00     0.189 HD
HETATM    4  N2  UNL     1      -1.575   2.564  -0.201  1.00  0.00    -0.284 N 
ATOM      5  H2  UNL     1      -2.349   3.204  -0.378  1.00  0.00     0.188 HD
HETATM    6  C3  UNL     1      -1.801   1.255   0.128  1.00  0.00     0.118 A 
HETATM    7  C6  UNL     1      -0.764   0.385   0.370  1.00  0.00     0.065 A 
HETATM    8  C7  UNL     1       0.553   0.843   0.278  1.00  0.00     0.046 A 
ENDROOT
BRANCH   6   9
HETATM    9  N3  UNL     1      -3.005   0.891   0.198  1.00  0.00    -0.345 N 
ATOM     10  H3  UNL     1      -3.699   1.612   0.000  1.00  0.00     0.163 HD
BRANCH   9  11
HETATM   11  C4  UNL     1      -3.517  -0.386   0.515  1.00  0.00     0.275 C 
BRANCH  11  12
HETATM   12  O2  UNL     1      -3.011  -0.896   1.697  1.00  0.00    -0.372 OA
ATOM     13  H2  UNL     1      -3.356  -1.755   1.910  1.00  0.00     0.212 HD
ENDBRANCH  11  12
BRANCH  11  14
HETATM   14  C5  UNL     1      -3.430  -1.365  -0.650  1.00  0.00     0.365 C 
BRANCH  14  15
HETATM   15  N4  UNL     1      -4.203  -2.537  -0.269  1.00  0.00    -0.049 N 
ATOM     16  H43 UNL     1      -3.909  -2.942   0.620  1.00  0.00     0.277 HD
ATOM     17  H42 UNL     1      -5.162  -2.317   0.001  1.00  0.00     0.277 HD
ATOM     18  H41 UNL     1      -4.145  -3.192  -1.049  1.00  0.00     0.277 HD
ENDBRANCH  14  15
BRANCH  14  19
HETATM   19  O3  UNL     1      -4.026  -0.731  -1.748  1.00  0.00    -0.367 OA
ATOM     20  H3  UNL     1      -3.972  -1.341  -2.474  1.00  0.00     0.212 HD
ENDBRANCH  14  19
ENDBRANCH  11  14
ENDBRANCH   9  11
ENDBRANCH   6   9
BRANCH   8  21
HETATM   21  C8  UNL     1       1.699  -0.041   0.525  1.00  0.00     0.257 C 
BRANCH  21  22
HETATM   22  O4  UNL     1       2.669   0.566   1.338  1.00  0.00    -0.372 OA
ATOM     23  H4  UNL     1       3.410  -0.006   1.498  1.00  0.00     0.212 HD
ENDBRANCH  21  22
BRANCH  21  24
HETATM   24  N5  UNL     1       2.313  -0.524  -0.685  1.00  0.00    -0.352 N 
ATOM     25  H5  UNL     1       2.083  -0.131  -1.598  1.00  0.00     0.163 HD
BRANCH  24  26
HETATM   26  C9  UNL     1       3.184  -1.497  -0.551  1.00  0.00     0.107 A 
HETATM   27  C10 UNL     1       3.599  -2.130   0.590  1.00  0.00     0.146 A 
HETATM   28  N6  UNL     1       4.482  -3.076   0.462  1.00  0.00    -0.303 N 
HETATM   29  N7  UNL     1       4.934  -3.386  -0.715  1.00  0.00    -0.268 N 
ATOM     30  H6  UNL     1       4.819  -3.574   1.286  1.00  0.00     0.186 HD
HETATM   31  S1  UNL     1       4.111  -2.327  -1.731  1.00  0.00     0.021 SA
ATOM     32  H7  UNL     1       5.621  -4.098  -0.963  1.00  0.00     0.195 HD
ENDBRANCH  24  26
ENDBRANCH  21  24
ENDBRANCH   8  21
BRANCH   1  33
HETATM   33  O1  UNL     1       2.050   2.628  -0.149  1.00  0.00    -0.339 OA
HETATM   34  C1  UNL     1       2.294   3.976  -0.489  1.00  0.00     0.211 C 
ENDBRANCH   1  33
TORSDOF 11
