REMARK  2 active torsions:
REMARK  status: ('A' for Active; 'I' for Inactive)
REMARK    1  A    between atoms: C2_2  and  O1_3 
REMARK    2  A    between atoms: N1_7  and  O2_9 
ROOT
HETATM    1  C1  UNL     1      -1.787   1.306   0.307  1.00  0.00     0.079 C 
HETATM    2  C2  UNL     1      -0.982   0.080  -0.056  1.00  0.00     0.163 C 
HETATM    3  C3  UNL     1       0.457   0.521  -0.272  1.00  0.00     0.124 C 
HETATM    4  C4  UNL     1       1.200  -0.686   0.164  1.00  0.00     0.038 C 
HETATM    5  N1  UNL     1       2.444  -0.936   0.222  1.00  0.00    -0.275 N 
ATOM      6  H1  UNL     1       2.703  -1.861   0.565  1.00  0.00     0.193 HD
HETATM    7  C5  UNL     1       0.146  -1.652   0.562  1.00  0.00     0.226 C 
HETATM    8  O3  UNL     1      -0.878  -0.817   1.005  1.00  0.00    -0.350 OA
ENDROOT
BRANCH   5   9
HETATM    9  O2  UNL     1       3.459  -0.122  -0.117  1.00  0.00    -0.290 OA
ATOM     10  H2  UNL     1       4.389  -0.309  -0.074  1.00  0.00     0.244 HD
ENDBRANCH   5   9
BRANCH   2  11
HETATM   11  O1  UNL     1      -1.494  -0.607  -1.137  1.00  0.00    -0.365 OA
ATOM     12  H1  UNL     1      -0.988  -1.378  -1.365  1.00  0.00     0.213 HD
ENDBRANCH   2  11
TORSDOF 2
