REMARK  2 active torsions:
REMARK  status: ('A' for Active; 'I' for Inactive)
REMARK    1  A    between atoms: O1_1  and  C1_3 
REMARK    2  A    between atoms: N1_7  and  O2_8 
ROOT
HETATM    1  C1  UNL     1      -1.238   0.320   0.778  1.00  0.00     0.264 C 
HETATM    2  C2  UNL     1      -1.125  -0.706  -0.335  1.00  0.00     0.062 C 
HETATM    3  C3  UNL     1      -0.451  -0.059  -1.513  1.00  0.00     0.027 C 
HETATM    4  C4  UNL     1       0.909   0.470  -1.191  1.00  0.00     0.157 C 
HETATM    5  N1  UNL     1       1.472   0.016   0.021  1.00  0.00    -0.250 N 
HETATM    6  C5  UNL     1       1.014   0.616   1.212  1.00  0.00     0.254 C 
HETATM    7  O3  UNL     1      -0.210   0.162   1.673  1.00  0.00    -0.314 OA
ENDROOT
BRANCH   1   8
HETATM    8  O1  UNL     1      -2.436   0.024   1.455  1.00  0.00    -0.371 OA
ATOM      9  H1  UNL     1      -2.507   0.666   2.152  1.00  0.00     0.212 HD
ENDBRANCH   1   8
BRANCH   5  10
HETATM   10  O2  UNL     1       1.865  -1.234   0.081  1.00  0.00    -0.286 OA
ATOM     11  H2  UNL     1       2.244  -1.540   0.897  1.00  0.00     0.244 HD
ENDBRANCH   5  10
TORSDOF 2
