REMARK  9 active torsions:
REMARK  status: ('A' for Active; 'I' for Inactive)
REMARK    1  A    between atoms: N1_1  and  N2_4 
REMARK    2  A    between atoms: N2_4  and  C1_6 
REMARK    3  A    between atoms: C1_6  and  N3_7 
REMARK    4  A    between atoms: C1_6  and  C2_11 
REMARK       I    between atoms: C2_11  and  N4_13 
REMARK    5  A    between atoms: N4_13  and  N5_15 
REMARK    6  A    between atoms: C3_16  and  O2_17 
REMARK    7  A    between atoms: C6_21  and  O3_22 
REMARK    8  A    between atoms: C7_24  and  C8_25 
REMARK    9  A    between atoms: C7_24  and  C9_28 
ROOT
HETATM    1  N5  UNL     1       0.075  -0.928  -0.016  1.00  0.00    -0.207 N 
HETATM    2  C3  UNL     1      -0.697  -2.038   0.164  1.00  0.00     0.181 A 
HETATM    3  C4  UNL     1      -2.021  -1.689   0.151  1.00  0.00     0.106 A 
HETATM    4  C5  UNL     1      -2.091  -0.341  -0.040  1.00  0.00     0.070 A 
HETATM    5  C6  UNL     1      -0.749   0.101  -0.140  1.00  0.00     0.175 A 
HETATM    6  C7  UNL     1      -3.503   0.048  -0.056  1.00  0.00     0.268 A 
HETATM    7  O7  UNL     1      -4.238  -1.128   0.126  1.00  0.00    -0.280 OA
HETATM    8  C10 UNL     1      -3.389  -2.187   0.256  1.00  0.00     0.300 A 
HETATM    9  O8  UNL     1      -3.666  -3.410   0.438  1.00  0.00    -0.259 OA
ENDROOT
BRANCH   1  10
HETATM   10  N4  UNL     1       1.454  -0.959  -0.051  1.00  0.00    -0.256 N 
HETATM   11  C2  UNL     1       2.381   0.058  -0.237  1.00  0.00     0.288 C 
HETATM   12  O1  UNL     1       2.112   1.244  -0.416  1.00  0.00    -0.267 OA
ATOM     13  H4  UNL     1       1.861  -1.885   0.082  1.00  0.00     0.191 HD
BRANCH  11  14
HETATM   14  C1  UNL     1       3.857  -0.276  -0.227  1.00  0.00     0.389 C 
BRANCH  14  15
HETATM   15  N2  UNL     1       4.646   0.889  -0.438  1.00  0.00    -0.305 N 
ATOM     16  H2  UNL     1       5.195   1.015  -1.289  1.00  0.00     0.182 HD
BRANCH  15  17
HETATM   17  N1  UNL     1       4.635   1.834   0.553  1.00  0.00    -0.347 N 
ATOM     18  H12 UNL     1       4.081   1.694   1.398  1.00  0.00     0.176 HD
ATOM     19  H11 UNL     1       5.201   2.669   0.402  1.00  0.00     0.176 HD
ENDBRANCH  15  17
ENDBRANCH  14  15
BRANCH  14  20
HETATM   20  N3  UNL     1       4.181  -1.050   0.932  1.00  0.00    -0.048 N 
ATOM     21  H33 UNL     1       5.170  -1.299   0.917  1.00  0.00     0.277 HD
ATOM     22  H32 UNL     1       4.154  -0.458   1.762  1.00  0.00     0.277 HD
ATOM     23  H31 UNL     1       3.615  -1.885   1.083  1.00  0.00     0.277 HD
ENDBRANCH  14  20
ENDBRANCH  11  14
ENDBRANCH   1  10
BRANCH   2  24
HETATM   24  O2  UNL     1      -0.225  -3.316   0.334  1.00  0.00    -0.344 OA
ATOM     25  H2  UNL     1      -0.763  -4.089   0.459  1.00  0.00     0.219 HD
ENDBRANCH   2  24
BRANCH   5  26
HETATM   26  O3  UNL     1      -0.505   1.452  -0.340  1.00  0.00    -0.344 OA
ATOM     27  H3  UNL     1      -1.096   2.190  -0.429  1.00  0.00     0.219 HD
ENDBRANCH   5  26
BRANCH   6  28
HETATM   28  C8  UNL     1      -3.790   0.671  -1.379  1.00  0.00     0.282 C 
HETATM   29  N6  UNL     1      -3.142   1.865  -1.732  1.00  0.00    -0.058 NA
HETATM   30  O4  UNL     1      -4.601   0.108  -2.132  1.00  0.00    -0.272 OA
ENDBRANCH   6  28
BRANCH   6  31
HETATM   31  C9  UNL     1      -3.844   0.986   1.052  1.00  0.00     0.225 C 
HETATM   32  O5  UNL     1      -4.657   0.607   1.925  1.00  0.00    -0.645 OA
HETATM   33  O6  UNL     1      -3.279   2.247   1.123  1.00  0.00    -0.645 OA
ENDBRANCH   6  31
TORSDOF 9
