REMARK  7 active torsions:
REMARK  status: ('A' for Active; 'I' for Inactive)
REMARK       I    between atoms: C1_2  and  N5_21 
REMARK    1  A    between atoms: N2_3  and  C2_5 
REMARK    2  A    between atoms: C2_5  and  O1_6 
REMARK    3  A    between atoms: C2_5  and  C3_8 
REMARK    4  A    between atoms: N3_12  and  O3_13 
REMARK    5  A    between atoms: N5_21  and  C8_23 
REMARK    6  A    between atoms: C8_23  and  C9_24 
REMARK    7  A    between atoms: C10_27  and  O6_28 
ROOT
HETATM    1  C2  UNL     1      -0.948  -0.120   0.524  1.00  0.00     0.271 C 
ENDROOT
BRANCH   1   2
HETATM    2  N2  UNL     1      -0.700  -1.440  -0.016  1.00  0.00    -0.333 N 
HETATM    3  C1  UNL     1       0.413  -1.798  -0.533  1.00  0.00     0.186 C 
HETATM    4  N1  UNL     1       0.543  -3.113  -1.030  1.00  0.00    -0.064 NA
HETATM    5  N5  UNL     1       1.484  -0.897  -0.605  1.00  0.00    -0.361 N 
ATOM      6  H5  UNL     1       1.604  -0.379  -1.476  1.00  0.00     0.162 HD
ATOM      7  H2  UNL     1      -1.456  -2.123   0.018  1.00  0.00     0.165 HD
BRANCH   5   8
HETATM    8  C8  UNL     1       2.428  -0.644   0.450  1.00  0.00     0.173 C 
BRANCH   8   9
HETATM    9  C9  UNL     1       3.442   0.391   0.009  1.00  0.00     0.252 C 
HETATM   10  N6  UNL     1       4.145  -0.172  -1.130  1.00  0.00    -0.110 NA
HETATM   11  N7  UNL     1       5.454  -0.356  -0.640  1.00  0.00    -0.086 NA
HETATM   12  C10 UNL     1       5.555   0.812   0.251  1.00  0.00     0.375 C 
HETATM   13  O7  UNL     1       4.372   0.675   0.976  1.00  0.00    -0.322 OA
BRANCH  12  14
HETATM   14  O6  UNL     1       5.559   1.928  -0.561  1.00  0.00    -0.357 OA
ATOM     15  H6  UNL     1       5.624   2.682   0.014  1.00  0.00     0.214 HD
ENDBRANCH  12  14
ENDBRANCH   8   9
ENDBRANCH   5   8
ENDBRANCH   1   2
BRANCH   1  16
HETATM   16  O1  UNL     1      -0.325   0.875  -0.210  1.00  0.00    -0.371 OA
ATOM     17  H1  UNL     1      -0.488   1.741   0.144  1.00  0.00     0.212 HD
ENDBRANCH   1  16
BRANCH   1  18
HETATM   18  C3  UNL     1      -2.420   0.134   0.492  1.00  0.00     0.066 C 
HETATM   19  C4  UNL     1      -2.814   1.376   0.025  1.00  0.00     0.106 C 
HETATM   20  C5  UNL     1      -4.070   1.923  -0.136  1.00  0.00     0.276 C 
HETATM   21  O2  UNL     1      -4.152   3.075  -0.635  1.00  0.00    -0.266 OA
HETATM   22  N3  UNL     1      -5.253   1.364   0.181  1.00  0.00    -0.145 N 
HETATM   23  C6  UNL     1      -5.482   0.050   0.454  1.00  0.00     0.342 C 
HETATM   24  O4  UNL     1      -6.689  -0.271   0.441  1.00  0.00    -0.259 OA
HETATM   25  C7  UNL     1      -4.558  -0.937   0.735  1.00  0.00     0.316 C 
HETATM   26  O5  UNL     1      -5.007  -2.117   0.848  1.00  0.00    -0.262 OA
HETATM   27  N4  UNL     1      -3.229  -0.855   0.913  1.00  0.00    -0.318 N 
ATOM     28  H4  UNL     1      -2.788  -1.622   1.420  1.00  0.00     0.169 HD
BRANCH  22  29
HETATM   29  O3  UNL     1      -6.297   2.234   0.223  1.00  0.00    -0.277 OA
ATOM     30  H3  UNL     1      -7.132   1.840   0.447  1.00  0.00     0.245 HD
ENDBRANCH  22  29
ENDBRANCH   1  18
TORSDOF 7
