REMARK  9 active torsions:
REMARK  status: ('A' for Active; 'I' for Inactive)
REMARK    1  A    between atoms: N1_1  and  N2_4 
REMARK       I    between atoms: N2_4  and  C1_6 
REMARK    2  A    between atoms: C1_6  and  C2_8 
REMARK    3  A    between atoms: C2_8  and  C3_9 
REMARK    4  A    between atoms: C2_8  and  N3_13 
REMARK    5  A    between atoms: C3_9  and  C4_10 
REMARK    6  A    between atoms: C4_10  and  O2_11 
REMARK    7  A    between atoms: C9_25  and  C10_26 
REMARK    8  A    between atoms: C10_26  and  O6_27 
REMARK    9  A    between atoms: C10_26  and  O7_29 
ROOT
HETATM    1  N3  UNL     1      -0.517  -0.380  -0.418  1.00  0.00    -0.270 N 
HETATM    2  C5  UNL     1      -1.228  -1.104  -1.287  1.00  0.00     0.331 A 
HETATM    3  O3  UNL     1      -2.482  -1.148  -1.198  1.00  0.00    -0.246 OA
HETATM    4  N4  UNL     1      -0.695  -1.819  -2.292  1.00  0.00    -0.274 N 
ATOM      5  H4  UNL     1      -1.295  -2.352  -2.921  1.00  0.00     0.173 HD
HETATM    6  C6  UNL     1       0.631  -1.824  -2.457  1.00  0.00     0.269 A 
HETATM    7  O4  UNL     1       1.131  -2.500  -3.407  1.00  0.00    -0.267 OA
HETATM    8  C7  UNL     1       1.420  -1.108  -1.610  1.00  0.00     0.144 A 
HETATM    9  C8  UNL     1       2.791  -1.125  -1.809  1.00  0.00     0.266 A 
HETATM   10  O5  UNL     1       3.265  -1.809  -2.763  1.00  0.00    -0.267 OA
HETATM   11  N5  UNL     1       3.556  -0.408  -0.970  1.00  0.00    -0.308 N 
ATOM     12  H5  UNL     1       4.569  -0.398  -1.089  1.00  0.00     0.170 HD
HETATM   13  C9  UNL     1       2.991   0.296   0.025  1.00  0.00     0.141 A 
HETATM   14  N6  UNL     1       1.644   0.316   0.224  1.00  0.00    -0.327 N 
ATOM     15  H6  UNL     1       1.251   0.864   0.989  1.00  0.00     0.169 HD
HETATM   16  C11 UNL     1       0.832  -0.383  -0.584  1.00  0.00     0.135 A 
ENDROOT
BRANCH   1  17
HETATM   17  C2  UNL     1      -1.159   0.372   0.668  1.00  0.00     0.192 C 
BRANCH  17  18
HETATM   18  C1  UNL     1      -2.337  -0.357   1.183  1.00  0.00     0.259 C 
HETATM   19  N2  UNL     1      -2.168  -1.662   1.684  1.00  0.00    -0.275 N 
ATOM     20  H2  UNL     1      -1.234  -2.071   1.678  1.00  0.00     0.189 HD
HETATM   21  O1  UNL     1      -3.457   0.156   1.180  1.00  0.00    -0.269 OA
BRANCH  19  22
HETATM   22  N1  UNL     1      -3.239  -2.427   2.194  1.00  0.00    -0.343 N 
ATOM     23  H12 UNL     1      -4.166  -2.002   2.192  1.00  0.00     0.176 HD
ATOM     24  H11 UNL     1      -3.117  -3.372   2.557  1.00  0.00     0.176 HD
ENDBRANCH  19  22
ENDBRANCH  17  18
BRANCH  17  25
HETATM   25  C3  UNL     1      -1.414   1.784   0.272  1.00  0.00     0.061 C 
BRANCH  25  26
HETATM   26  C4  UNL     1      -2.388   2.051  -0.789  1.00  0.00     0.166 C 
BRANCH  26  27
HETATM   27  O2  UNL     1      -2.509   3.440  -1.043  1.00  0.00    -0.401 OA
ATOM     28  H2  UNL     1      -3.141   3.613  -1.731  1.00  0.00     0.209 HD
ENDBRANCH  26  27
ENDBRANCH  25  26
ENDBRANCH  17  25
ENDBRANCH   1  17
BRANCH  13  29
HETATM   29  C10 UNL     1       3.876   1.067   0.918  1.00  0.00     0.323 C 
BRANCH  29  30
HETATM   30  O6  UNL     1       4.990   0.304   1.307  1.00  0.00    -0.365 OA
ATOM     31  H6  UNL     1       5.560   0.801   1.882  1.00  0.00     0.213 HD
ENDBRANCH  29  30
BRANCH  29  32
HETATM   32  O7  UNL     1       3.210   1.561   2.036  1.00  0.00    -0.365 OA
ATOM     33  H7  UNL     1       3.780   2.058   2.611  1.00  0.00     0.213 HD
ENDBRANCH  29  32
ENDBRANCH  13  29
TORSDOF 9
