REMARK  9 active torsions:
REMARK  status: ('A' for Active; 'I' for Inactive)
REMARK    1  A    between atoms: C6_6  and  N1_7 
REMARK    2  A    between atoms: C7_11  and  C8_12 
REMARK    3  A    between atoms: C8_12  and  C9_13 
REMARK    4  A    between atoms: C9_13  and  N2_14 
REMARK       I    between atoms: N2_14  and  C11_16 
REMARK    5  A    between atoms: C11_16  and  C12_18 
REMARK    6  A    between atoms: C12_18  and  C13_19 
REMARK    7  A    between atoms: C13_19  and  N3_20 
REMARK    8  A    between atoms: C18_25  and  N4_26 
REMARK       I    between atoms: N4_26  and  C19_28 
REMARK    9  A    between atoms: C19_28  and  C20_30 
ROOT
HETATM    1  N2  UNL     1      -1.039   1.192  -0.770  1.00  0.00    -0.356 N 
HETATM    2  C10 UNL     1      -0.405   2.468  -1.036  1.00  0.00     0.152 C 
HETATM    3  C11 UNL     1      -0.212   0.129  -0.322  1.00  0.00     0.221 C 
HETATM    4  O1  UNL     1      -0.779  -0.983  -0.093  1.00  0.00    -0.273 OA
ENDROOT
BRANCH   3   5
HETATM    5  C12 UNL     1       1.231   0.288  -0.126  1.00  0.00     0.131 C 
BRANCH   5   6
HETATM    6  C13 UNL     1       1.824  -1.010   0.349  1.00  0.00     0.246 C 
BRANCH   6   7
HETATM    7  N3  UNL     1       3.246  -0.946   0.570  1.00  0.00    -0.066 N 
HETATM    8  C14 UNL     1       3.574  -0.741   1.965  1.00  0.00     0.238 C 
HETATM    9  C15 UNL     1       4.625   0.348   2.018  1.00  0.00     0.036 C 
HETATM   10  C16 UNL     1       5.192   0.258   0.600  1.00  0.00     0.036 C 
HETATM   11  C17 UNL     1       3.888   0.118  -0.182  1.00  0.00     0.244 C 
HETATM   12  C18 UNL     1       6.029  -0.975   0.529  1.00  0.00     0.091 C 
HETATM   13  C23 UNL     1       5.313  -2.185   0.019  1.00  0.00     0.053 C 
HETATM   14  C24 UNL     1       3.842  -2.175   0.149  1.00  0.00     0.239 C 
BRANCH  12  15
HETATM   15  N4  UNL     1       7.209  -0.678  -0.268  1.00  0.00    -0.355 N 
HETATM   16  C19 UNL     1       8.517  -0.722   0.275  1.00  0.00     0.232 C 
HETATM   17  O2  UNL     1       8.647  -1.029   1.483  1.00  0.00    -0.273 OA
ATOM     18  H4  UNL     1       7.091  -0.430  -1.250  1.00  0.00     0.162 HD
BRANCH  16  19
HETATM   19  C20 UNL     1       9.720  -0.422  -0.526  1.00  0.00     0.187 C 
HETATM   20  C21 UNL     1      11.023  -0.520   0.196  1.00  0.00     0.146 C 
HETATM   21  N5  UNL     1      10.954   0.877   0.517  1.00  0.00    -0.359 N 
HETATM   22  C22 UNL     1      10.029   1.033  -0.543  1.00  0.00     0.232 C 
ATOM     23  H5  UNL     1      11.384   1.491   1.209  1.00  0.00     0.162 HD
HETATM   24  O3  UNL     1       9.672   2.055  -1.188  1.00  0.00    -0.273 OA
ENDBRANCH  16  19
ENDBRANCH  12  15
ENDBRANCH   6   7
ENDBRANCH   5   6
ENDBRANCH   3   5
BRANCH   1  25
HETATM   25  C9  UNL     1      -2.477   1.028  -0.962  1.00  0.00     0.125 C 
BRANCH  25  26
HETATM   26  C8  UNL     1      -3.219   1.352   0.286  1.00  0.00     0.027 C 
BRANCH  26  27
HETATM   27  C7  UNL     1      -4.718   1.216   0.198  1.00  0.00     0.023 C 
HETATM   28  C6  UNL     1      -5.325   2.130  -0.857  1.00  0.00     0.188 C 
HETATM   29  C5  UNL     1      -6.565   1.380  -1.374  1.00  0.00     0.043 C 
HETATM   30  C4  UNL     1      -6.652   0.184  -0.595  1.00  0.00    -0.030 C 
HETATM   31  C3  UNL     1      -6.860  -1.142  -1.324  1.00  0.00     0.015 C 
HETATM   32  C25 UNL     1      -5.160  -0.098  -0.262  1.00  0.00     0.005 C 
HETATM   33  C28 UNL     1      -7.397   0.133   0.667  1.00  0.00    -0.009 C 
HETATM   34  C2  UNL     1      -6.292  -2.093  -0.251  1.00  0.00    -0.013 C 
HETATM   35  C1  UNL     1      -5.368  -3.087  -0.878  1.00  0.00     0.010 C 
HETATM   36  C26 UNL     1      -5.447  -1.193   0.673  1.00  0.00    -0.005 C 
HETATM   37  C27 UNL     1      -6.442  -0.571   1.627  1.00  0.00     0.010 C 
HETATM   38  C29 UNL     1      -7.967   1.383   1.203  1.00  0.00     0.011 C 
BRANCH  28  39
HETATM   39  N1  UNL     1      -5.690   3.414  -0.295  1.00  0.00    -0.075 N 
ATOM     40  H13 UNL     1      -6.220   3.978  -0.959  1.00  0.00     0.274 HD
ATOM     41  H12 UNL     1      -6.401   3.318   0.430  1.00  0.00     0.274 HD
ATOM     42  H11 UNL     1      -4.868   3.911   0.048  1.00  0.00     0.274 HD
ENDBRANCH  28  39
ENDBRANCH  26  27
ENDBRANCH  25  26
ENDBRANCH   1  25
TORSDOF 9
