REMARK  8 active torsions:
REMARK  status: ('A' for Active; 'I' for Inactive)
REMARK    1  A    between atoms: C2_2  and  C3_3 
REMARK    2  A    between atoms: C3_3  and  C4_4 
REMARK    3  A    between atoms: C4_4  and  C5_5 
REMARK    4  A    between atoms: C5_5  and  N1_7 
REMARK       I    between atoms: N1_7  and  C7_9 
REMARK       I    between atoms: C7_9  and  N2_11 
REMARK    5  A    between atoms: C13_20  and  C14_21 
REMARK    6  A    between atoms: C22_30  and  C23_31 
REMARK    7  A    between atoms: C23_31  and  N6_32 
REMARK    8  A    between atoms: C28_39  and  O2_40 
ROOT
HETATM    1  N1  UNL     1       2.332  -0.068   0.068  1.00  0.00    -0.337 N 
ATOM      2  H1  UNL     1       2.160  -0.418  -0.874  1.00  0.00     0.164 HD
HETATM    3  C7  UNL     1       1.502   0.902   0.613  1.00  0.00     0.338 C 
HETATM    4  O1  UNL     1       1.711   1.335   1.775  1.00  0.00    -0.245 OA
HETATM    5  N2  UNL     1       0.368   1.482  -0.068  1.00  0.00    -0.231 N 
HETATM    6  N3  UNL     1       0.230   0.959  -1.295  1.00  0.00    -0.297 N 
ATOM      7  H3  UNL     1       1.055   0.895  -1.892  1.00  0.00     0.187 HD
HETATM    8  C8  UNL     1      -0.990   0.497  -1.795  1.00  0.00     0.045 C 
HETATM    9  C9  UNL     1      -1.152  -0.964  -1.546  1.00  0.00    -0.002 A 
HETATM   10  C10 UNL     1      -0.287  -1.822  -2.251  1.00  0.00     0.031 A 
HETATM   11  C11 UNL     1      -0.291  -3.190  -2.134  1.00  0.00     0.091 A 
HETATM   12  N4  UNL     1      -1.154  -3.754  -1.313  1.00  0.00    -0.364 N 
HETATM   13  C12 UNL     1      -1.174  -5.191  -1.178  1.00  0.00     0.155 C 
HETATM   14  C13 UNL     1      -2.015  -2.959  -0.606  1.00  0.00     0.017 A 
HETATM   15  C16 UNL     1      -2.045  -1.582  -0.693  1.00  0.00    -0.021 A 
HETATM   16  C17 UNL     1      -3.038  -0.804   0.151  1.00  0.00     0.069 C 
HETATM   17  C18 UNL     1      -2.370   0.098   1.127  1.00  0.00     0.243 C 
HETATM   18  N5  UNL     1      -2.669   1.407   1.311  1.00  0.00    -0.052 N 
HETATM   19  C19 UNL     1      -3.745   1.618   2.322  1.00  0.00     0.274 C 
HETATM   20  C20 UNL     1      -1.609   2.332   1.249  1.00  0.00     0.253 A 
HETATM   21  C21 UNL     1      -0.350   2.495   0.649  1.00  0.00     0.176 C 
HETATM   22  C22 UNL     1      -0.445   3.662  -0.333  1.00  0.00    -0.031 C 
HETATM   23  C25 UNL     1      -1.220   3.624  -1.411  1.00  0.00    -0.011 C 
HETATM   24  C26 UNL     1      -2.135   2.712  -2.051  1.00  0.00     0.059 A 
HETATM   25  C27 UNL     1      -2.204   1.292  -1.856  1.00  0.00     0.086 A 
HETATM   26  C28 UNL     1      -2.967   1.983  -0.933  1.00  0.00     0.106 A 
HETATM   27  C29 UNL     1      -2.697   2.441   0.385  1.00  0.00     0.259 A 
ENDROOT
BRANCH   1  28
HETATM   28  C5  UNL     1       3.458  -0.588   0.853  1.00  0.00     0.082 C 
HETATM   29  C6  UNL     1       4.767  -0.195   0.231  1.00  0.00     0.032 C 
BRANCH  28  30
HETATM   30  C4  UNL     1       3.245  -2.040   1.037  1.00  0.00     0.025 C 
BRANCH  30  31
HETATM   31  C3  UNL     1       4.126  -2.822   1.912  1.00  0.00     0.002 C 
BRANCH  31  32
HETATM   32  C2  UNL     1       5.577  -2.879   1.588  1.00  0.00    -0.004 C 
HETATM   33  C1  UNL     1       6.313  -3.806   2.575  1.00  0.00     0.005 C 
ENDBRANCH  31  32
ENDBRANCH  30  31
ENDBRANCH  28  30
ENDBRANCH   1  28
BRANCH  22  34
HETATM   34  C23 UNL     1       0.380   4.848  -0.029  1.00  0.00     0.267 C 
BRANCH  34  35
HETATM   35  N6  UNL     1       0.254   5.883  -1.004  1.00  0.00    -0.075 N 
HETATM   36  C24 UNL     1       1.077   7.029  -0.572  1.00  0.00     0.267 C 
ATOM     37  H62 UNL     1       0.485   5.566  -1.945  1.00  0.00     0.277 HD
ATOM     38  H61 UNL     1      -0.717   6.141  -1.180  1.00  0.00     0.277 HD
ENDBRANCH  34  35
ENDBRANCH  22  34
BRANCH  26  39
HETATM   39  O2  UNL     1      -4.350   2.201  -1.267  1.00  0.00    -0.386 OA
ATOM     40  H2  UNL     1      -4.853   1.761  -0.592  1.00  0.00     0.210 HD
ENDBRANCH  26  39
BRANCH  14  41
HETATM   41  C14 UNL     1      -2.957  -3.709   0.290  1.00  0.00     0.053 C 
HETATM   42  C15 UNL     1      -4.338  -3.819  -0.282  1.00  0.00     0.011 C 
ENDBRANCH  14  41
TORSDOF 8
