REMARK  11 active torsions:
REMARK  status: ('A' for Active; 'I' for Inactive)
REMARK    1  A    between atoms: C3_5  and  O1_6 
REMARK    2  A    between atoms: C4_8  and  C5_9 
REMARK    3  A    between atoms: C5_9  and  C6_10 
REMARK    4  A    between atoms: C6_10  and  C7_11 
REMARK    5  A    between atoms: C16_24  and  C17_25 
REMARK    6  A    between atoms: C17_25  and  C18_26 
REMARK    7  A    between atoms: C18_26  and  C19_27 
REMARK    8  A    between atoms: C19_27  and  C20_28 
REMARK    9  A    between atoms: C20_28  and  N4_29 
REMARK   10  A    between atoms: C22_35  and  O3_36 
REMARK   11  A    between atoms: C23_38  and  C24_39 
ROOT
HETATM    1  C1  UNL     1       0.678   3.340   2.212  1.00  0.00     0.042 C 
HETATM    2  C2  UNL     1       0.887   3.330   0.708  1.00  0.00     0.171 C 
HETATM    3  N1  UNL     1       0.724   1.949   0.259  1.00  0.00    -0.361 N 
ATOM      4  H1  UNL     1      -0.170   1.587   0.592  1.00  0.00     0.162 HD
HETATM    5  C3  UNL     1       1.352   1.002  -0.441  1.00  0.00     0.118 C 
HETATM    6  C4  UNL     1       2.207  -0.223  -0.078  1.00  0.00     0.088 C 
HETATM    7  C11 UNL     1       1.289  -1.178   0.713  1.00  0.00     0.146 C 
HETATM    8  C12 UNL     1       1.985  -1.937   1.712  1.00  0.00     0.003 C 
HETATM    9  C13 UNL     1       2.037  -3.258   1.721  1.00  0.00     0.017 C 
HETATM   10  C14 UNL     1       1.318  -3.979   0.689  1.00  0.00     0.107 C 
HETATM   11  N2  UNL     1       0.615  -3.325  -0.159  1.00  0.00    -0.306 N 
ATOM     12  H2  UNL     1       0.146  -3.863  -0.888  1.00  0.00     0.186 HD
HETATM   13  N3  UNL     1       0.430  -1.909  -0.173  1.00  0.00    -0.247 N 
HETATM   14  C15 UNL     1      -0.630  -1.469  -0.998  1.00  0.00     0.285 C 
HETATM   15  O2  UNL     1      -0.474  -1.793  -2.225  1.00  0.00    -0.264 OA
HETATM   16  C16 UNL     1      -1.887  -0.718  -0.743  1.00  0.00     0.086 C 
HETATM   17  N5  UNL     1      -2.169   0.415  -1.603  1.00  0.00    -0.333 N 
HETATM   18  C21 UNL     1      -1.943   0.106  -3.041  1.00  0.00     0.158 C 
HETATM   19  C22 UNL     1      -2.662   1.689  -1.352  1.00  0.00     0.141 C 
HETATM   20  C23 UNL     1      -2.412   2.727  -0.337  1.00  0.00     0.163 C 
HETATM   21  N6  UNL     1      -1.336   3.646  -0.627  1.00  0.00    -0.347 N 
ATOM     22  H6  UNL     1      -1.351   4.009  -1.580  1.00  0.00     0.163 HD
HETATM   23  C27 UNL     1      -0.278   4.135   0.144  1.00  0.00     0.240 C 
HETATM   24  O4  UNL     1      -0.208   5.366   0.447  1.00  0.00    -0.271 OA
ENDROOT
BRANCH  16  25
HETATM   25  C17 UNL     1      -2.335  -0.608   0.647  1.00  0.00     0.090 C 
BRANCH  25  26
HETATM   26  C18 UNL     1      -2.647  -1.818   1.417  1.00  0.00    -0.023 C 
BRANCH  26  27
HETATM   27  C19 UNL     1      -3.764  -2.715   1.123  1.00  0.00    -0.004 C 
BRANCH  27  28
HETATM   28  C20 UNL     1      -3.917  -3.451  -0.142  1.00  0.00     0.256 C 
BRANCH  28  29
HETATM   29  N4  UNL     1      -5.125  -4.348  -0.025  1.00  0.00    -0.076 N 
ATOM     30  H43 UNL     1      -5.079  -4.965   0.786  1.00  0.00     0.274 HD
ATOM     31  H42 UNL     1      -5.969  -3.838   0.237  1.00  0.00     0.274 HD
ATOM     32  H41 UNL     1      -5.231  -4.858  -0.902  1.00  0.00     0.274 HD
ENDBRANCH  28  29
ENDBRANCH  27  28
ENDBRANCH  26  27
ENDBRANCH  25  26
ENDBRANCH  16  25
BRANCH  19  33
HETATM   33  O3  UNL     1      -3.570   2.062  -2.227  1.00  0.00    -0.348 OA
ATOM     34  H3  UNL     1      -3.907   2.933  -2.055  1.00  0.00     0.219 HD
ENDBRANCH  19  33
BRANCH  20  35
HETATM   35  C24 UNL     1      -3.637   3.674  -0.195  1.00  0.00     0.008 C 
HETATM   36  C25 UNL     1      -3.985   4.411  -1.426  1.00  0.00     0.012 C 
HETATM   37  C26 UNL     1      -4.797   2.919   0.412  1.00  0.00     0.012 C 
ENDBRANCH  20  35
BRANCH   6  38
HETATM   38  C5  UNL     1       3.362   0.338   0.589  1.00  0.00     0.016 C 
BRANCH  38  39
HETATM   39  C6  UNL     1       4.548  -0.469   0.967  1.00  0.00     0.009 C 
BRANCH  39  40
HETATM   40  C7  UNL     1       5.336  -1.046  -0.189  1.00  0.00    -0.051 C 
HETATM   41  C8  UNL     1       5.839   0.090  -1.066  1.00  0.00     0.014 C 
HETATM   42  C9  UNL     1       6.581  -1.675   0.479  1.00  0.00     0.014 C 
HETATM   43  C10 UNL     1       4.724  -2.073  -1.026  1.00  0.00     0.014 C 
ENDBRANCH  39  40
ENDBRANCH  38  39
ENDBRANCH   6  38
BRANCH   5  44
HETATM   44  O1  UNL     1       1.289   1.027  -1.763  1.00  0.00    -0.349 OA
ATOM     45  H1  UNL     1       1.736   0.353  -2.261  1.00  0.00     0.219 HD
ENDBRANCH   5  44
TORSDOF 11
