REMARK  10 active torsions:
REMARK  status: ('A' for Active; 'I' for Inactive)
REMARK    1  A    between atoms: C2_2  and  C3_3 
REMARK    2  A    between atoms: C3_3  and  C4_4 
REMARK    3  A    between atoms: C4_4  and  N1_5 
REMARK       I    between atoms: N1_5  and  C5_7 
REMARK    4  A    between atoms: C5_7  and  C6_9 
REMARK    5  A    between atoms: N2_14  and  C11_15 
REMARK    6  A    between atoms: C11_15  and  C12_16 
REMARK    7  A    between atoms: C12_16  and  O2_17 
REMARK    8  A    between atoms: C12_16  and  C13_19 
REMARK    9  A    between atoms: C13_19  and  N3_20 
REMARK       I    between atoms: N3_20  and  C14_22 
REMARK   10  A    between atoms: C17_29  and  C18_30 
ROOT
HETATM    1  C4  UNL     1       0.631   1.130   0.300  1.00  0.00     0.131 C 
HETATM    2  C10 UNL     1       1.735   0.448  -0.475  1.00  0.00     0.113 C 
HETATM    3  N2  UNL     1       1.975  -0.887  -0.114  1.00  0.00    -0.288 N 
HETATM    4  C16 UNL     1       1.025  -1.851  -0.358  1.00  0.00     0.326 C 
HETATM    5  O4  UNL     1       1.410  -3.049  -0.621  1.00  0.00    -0.246 OA
HETATM    6  N4  UNL     1      -0.394  -1.777  -0.379  1.00  0.00    -0.330 N 
ATOM      7  H4  UNL     1      -0.883  -2.487  -0.924  1.00  0.00     0.165 HD
HETATM    8  C17 UNL     1      -1.216  -0.793   0.297  1.00  0.00     0.167 C 
HETATM    9  C28 UNL     1      -0.698   0.507  -0.097  1.00  0.00     0.183 C 
HETATM   10  O5  UNL     1      -1.296   1.251  -0.809  1.00  0.00    -0.292 OA
ENDROOT
BRANCH   1  11
HETATM   11  C3  UNL     1       0.738   0.869   1.754  1.00  0.00     0.071 C 
BRANCH  11  12
HETATM   12  C2  UNL     1       1.872   1.382   2.497  1.00  0.00    -0.034 C 
HETATM   13  C1  UNL     1       2.833   2.197   2.117  1.00  0.00     0.007 C 
ENDBRANCH  11  12
ENDBRANCH   1  11
BRANCH   1  14
HETATM   14  N1  UNL     1       0.635   2.506  -0.075  1.00  0.00    -0.339 N 
HETATM   15  C5  UNL     1      -0.229   3.513   0.342  1.00  0.00     0.226 C 
HETATM   16  O1  UNL     1      -1.149   3.267   1.150  1.00  0.00    -0.273 OA
ATOM     17  H1  UNL     1       1.363   2.787  -0.732  1.00  0.00     0.164 HD
BRANCH  15  18
HETATM   18  C6  UNL     1      -0.092   4.897  -0.150  1.00  0.00     0.030 C 
HETATM   19  C7  UNL     1       1.270   5.491   0.204  1.00  0.00     0.024 C 
HETATM   20  C8  UNL     1      -1.129   5.827   0.420  1.00  0.00     0.024 C 
HETATM   21  C9  UNL     1      -0.203   4.974  -1.661  1.00  0.00     0.024 C 
ENDBRANCH  15  18
ENDBRANCH   1  14
BRANCH   3  22
HETATM   22  C11 UNL     1       3.282  -1.290   0.193  1.00  0.00     0.107 C 
BRANCH  22  23
HETATM   23  C12 UNL     1       4.196  -1.451  -0.995  1.00  0.00     0.175 C 
BRANCH  23  24
HETATM   24  O2  UNL     1       4.339  -0.261  -1.707  1.00  0.00    -0.389 OA
ATOM     25  H2  UNL     1       4.915  -0.362  -2.456  1.00  0.00     0.210 HD
ENDBRANCH  23  24
BRANCH  23  26
HETATM   26  C13 UNL     1       5.582  -1.846  -0.540  1.00  0.00     0.159 C 
BRANCH  26  27
HETATM   27  N3  UNL     1       5.631  -3.054   0.218  1.00  0.00    -0.359 N 
HETATM   28  C14 UNL     1       5.211  -4.276  -0.317  1.00  0.00     0.213 C 
HETATM   29  C15 UNL     1       5.283  -5.513   0.530  1.00  0.00     0.117 C 
HETATM   30  O3  UNL     1       4.769  -4.399  -1.487  1.00  0.00    -0.274 OA
ATOM     31  H3  UNL     1       5.982  -3.025   1.175  1.00  0.00     0.162 HD
ENDBRANCH  26  27
ENDBRANCH  23  26
ENDBRANCH  22  23
ENDBRANCH   3  22
BRANCH   8  32
HETATM   32  C18 UNL     1      -2.654  -1.061   0.113  1.00  0.00    -0.012 C 
HETATM   33  C19 UNL     1      -3.561  -0.048   0.780  1.00  0.00     0.016 C 
HETATM   34  C20 UNL     1      -5.007  -0.492   0.794  1.00  0.00    -0.013 C 
HETATM   35  C21 UNL     1      -5.452  -0.467  -0.669  1.00  0.00     0.009 C 
HETATM   36  C25 UNL     1      -5.207  -1.840   1.415  1.00  0.00     0.009 C 
HETATM   37  C22 UNL     1      -4.611  -1.442  -1.399  1.00  0.00    -0.013 C 
HETATM   38  C23 UNL     1      -4.858  -2.827  -0.814  1.00  0.00     0.009 C 
HETATM   39  C27 UNL     1      -3.123  -1.197  -1.314  1.00  0.00     0.016 C 
HETATM   40  C24 UNL     1      -4.378  -2.821   0.600  1.00  0.00    -0.013 C 
HETATM   41  C26 UNL     1      -2.946  -2.399   0.761  1.00  0.00     0.016 C 
ENDBRANCH   8  32
TORSDOF 10
