REMARK  10 active torsions:
REMARK  status: ('A' for Active; 'I' for Inactive)
REMARK    1  A    between atoms: N1_2  and  C2_4 
REMARK    2  A    between atoms: C2_4  and  O1_5 
REMARK    3  A    between atoms: C3_7  and  N2_8 
REMARK    4  A    between atoms: C7_12  and  C8_13 
REMARK    5  A    between atoms: C8_13  and  N3_14 
REMARK       I    between atoms: N3_14  and  C9_16 
REMARK       I    between atoms: C9_16  and  N4_18 
REMARK    6  A    between atoms: N4_18  and  C11_20 
REMARK    7  A    between atoms: C11_20  and  C12_21 
REMARK    8  A    between atoms: C12_21  and  N5_22 
REMARK    9  A    between atoms: C16_29  and  C17_30 
REMARK       I    between atoms: C17_30  and  N6_32 
REMARK   10  A    between atoms: N6_32  and  C18_34 
ROOT
HETATM    1  C11 UNL     1      -1.373   0.241  -2.723  1.00  0.00     0.114 C 
ENDROOT
BRANCH   1   2
HETATM    2  N4  UNL     1      -0.741   1.416  -2.313  1.00  0.00    -0.315 N 
HETATM    3  C9  UNL     1       0.660   1.584  -2.315  1.00  0.00     0.321 C 
HETATM    4  N3  UNL     1       1.279   2.809  -1.904  1.00  0.00    -0.342 N 
HETATM    5  O2  UNL     1       1.404   0.660  -2.680  1.00  0.00    -0.247 OA
ATOM      6  H3  UNL     1       0.662   3.563  -1.602  1.00  0.00     0.164 HD
HETATM    7  C10 UNL     1      -1.541   2.567  -1.877  1.00  0.00     0.160 C 
BRANCH   4   8
HETATM    8  C8  UNL     1       2.673   3.066  -1.880  1.00  0.00     0.129 C 
BRANCH   8   9
HETATM    9  C7  UNL     1       3.506   2.185  -1.015  1.00  0.00     0.007 C 
HETATM   10  C6  UNL     1       3.155   2.200   0.429  1.00  0.00     0.034 C 
HETATM   11  C5  UNL     1       4.033   1.297   1.209  1.00  0.00     0.243 C 
HETATM   12  N2  UNL     1       5.380   1.109   0.865  1.00  0.00    -0.047 N 
HETATM   13  C4  UNL     1       6.262   1.640   1.942  1.00  0.00     0.278 C 
HETATM   14  C26 UNL     1       5.833   1.679  -0.398  1.00  0.00     0.243 C 
HETATM   15  C25 UNL     1       4.970   2.684  -1.033  1.00  0.00     0.034 C 
BRANCH  12  16
HETATM   16  C3  UNL     1       5.701  -0.289   0.752  1.00  0.00     0.257 C 
HETATM   17  C2  UNL     1       5.388  -1.239   1.771  1.00  0.00     0.159 C 
BRANCH  17  18
HETATM   18  N1  UNL     1       4.767  -1.073   2.997  1.00  0.00    -0.374 N 
HETATM   19  C1  UNL     1       4.567  -2.260   3.868  1.00  0.00     0.148 C 
ATOM     20  H1  UNL     1       4.452  -0.151   3.298  1.00  0.00     0.161 HD
ENDBRANCH  17  18
BRANCH  17  21
HETATM   21  O1  UNL     1       5.753  -2.465   1.494  1.00  0.00    -0.345 OA
ATOM     22  H1  UNL     1       6.179  -2.579   0.653  1.00  0.00     0.219 HD
ENDBRANCH  17  21
ENDBRANCH  12  16
ENDBRANCH   8   9
ENDBRANCH   4   8
ENDBRANCH   1   2
BRANCH   1  23
HETATM   23  C12 UNL     1      -1.636  -0.844  -1.712  1.00  0.00     0.216 C 
HETATM   24  C13 UNL     1      -2.238  -2.029  -2.451  1.00  0.00     0.058 C 
HETATM   25  C14 UNL     1      -2.552  -3.131  -1.513  1.00  0.00     0.003 A 
HETATM   26  C15 UNL     1      -3.508  -2.733  -0.470  1.00  0.00     0.019 A 
HETATM   27  C22 UNL     1      -3.925  -3.712  -1.458  1.00  0.00    -0.038 A 
HETATM   28  C16 UNL     1      -3.830  -1.252  -0.502  1.00  0.00     0.155 C 
HETATM   29  C21 UNL     1      -2.543  -0.480  -0.623  1.00  0.00     0.181 C 
HETATM   30  O4  UNL     1      -2.293   0.395   0.157  1.00  0.00    -0.294 OA
HETATM   31  C23 UNL     1      -4.834  -3.423  -2.623  1.00  0.00     0.015 C 
HETATM   32  C24 UNL     1      -3.984  -5.159  -0.975  1.00  0.00     0.015 C 
BRANCH  23  33
HETATM   33  N5  UNL     1      -0.406  -1.356  -1.101  1.00  0.00    -0.059 N 
ATOM     34  H53 UNL     1       0.253  -1.671  -1.813  1.00  0.00     0.276 HD
ATOM     35  H52 UNL     1       0.142  -0.599  -0.692  1.00  0.00     0.276 HD
ATOM     36  H51 UNL     1      -0.584  -2.091  -0.416  1.00  0.00     0.276 HD
ENDBRANCH  23  33
BRANCH  28  37
HETATM   37  C17 UNL     1      -4.537  -0.911   0.752  1.00  0.00     0.229 C 
HETATM   38  O3  UNL     1      -4.850  -1.845   1.534  1.00  0.00    -0.273 OA
HETATM   39  N6  UNL     1      -4.890   0.394   1.138  1.00  0.00    -0.356 N 
ATOM     40  H6  UNL     1      -4.643   1.160   0.512  1.00  0.00     0.162 HD
BRANCH  39  41
HETATM   41  C18 UNL     1      -5.578   0.719   2.360  1.00  0.00     0.076 C 
HETATM   42  C19 UNL     1      -6.725   1.636   2.045  1.00  0.00     0.032 C 
HETATM   43  C20 UNL     1      -4.645   1.468   3.320  1.00  0.00     0.032 C 
ENDBRANCH  39  41
ENDBRANCH  28  37
ENDBRANCH   1  23
TORSDOF 10
