REMARK  9 active torsions:
REMARK  status: ('A' for Active; 'I' for Inactive)
REMARK    1  A    between atoms: C4_4  and  C5_5 
REMARK    2  A    between atoms: C5_5  and  N1_6 
REMARK    3  A    between atoms: C6_8  and  C7_9 
REMARK    4  A    between atoms: C7_9  and  C8_10 
REMARK    5  A    between atoms: C15_23  and  C16_24 
REMARK    6  A    between atoms: C16_24  and  C17_25 
REMARK    7  A    between atoms: C20_28  and  O4_29 
REMARK    8  A    between atoms: C22_33  and  C23_34 
REMARK    9  A    between atoms: C23_34  and  C24_35 
ROOT
HETATM    1  N1  UNL     1      -0.693   0.958   0.018  1.00  0.00    -0.259 N 
HETATM    2  N2  UNL     1      -0.892  -0.335  -0.467  1.00  0.00    -0.121 NA
HETATM    3  C6  UNL     1      -2.131  -0.960   0.066  1.00  0.00     0.192 C 
HETATM    4  C11 UNL     1      -1.668  -2.261   0.675  1.00  0.00     0.248 C 
HETATM    5  O1  UNL     1      -1.843  -2.326   1.947  1.00  0.00    -0.271 OA
HETATM    6  N3  UNL     1      -1.099  -3.305  -0.056  1.00  0.00    -0.262 N 
HETATM    7  C12 UNL     1      -0.807  -4.566  -0.731  1.00  0.00     0.260 A 
HETATM    8  O2  UNL     1      -1.157  -5.735  -1.029  1.00  0.00    -0.270 OA
HETATM    9  C13 UNL     1       0.131  -3.405  -0.747  1.00  0.00     0.280 A 
HETATM   10  C14 UNL     1       1.322  -3.485   0.108  1.00  0.00     0.251 C 
HETATM   11  O3  UNL     1       1.505  -4.656   0.639  1.00  0.00    -0.271 OA
HETATM   12  N4  UNL     1       2.269  -2.541   0.442  1.00  0.00    -0.347 N 
ATOM     13  H4  UNL     1       2.403  -2.418   1.446  1.00  0.00     0.163 HD
HETATM   14  C15 UNL     1       3.118  -1.682  -0.388  1.00  0.00     0.159 C 
HETATM   15  C20 UNL     1       3.511  -0.456   0.320  1.00  0.00     0.137 C 
HETATM   16  N5  UNL     1       2.733   0.541   0.944  1.00  0.00    -0.355 N 
HETATM   17  C21 UNL     1       3.316   1.856   1.136  1.00  0.00     0.152 C 
HETATM   18  C22 UNL     1       1.352   0.387   1.454  1.00  0.00     0.179 C 
HETATM   19  C27 UNL     1       0.468   1.366   0.724  1.00  0.00     0.258 C 
HETATM   20  O5  UNL     1       0.841   2.573   0.786  1.00  0.00    -0.270 OA
ENDROOT
BRANCH   1  21
HETATM   21  C5  UNL     1      -1.737   1.927  -0.227  1.00  0.00     0.175 C 
BRANCH  21  22
HETATM   22  C4  UNL     1      -1.591   2.666  -1.500  1.00  0.00    -0.004 C 
HETATM   23  C2  UNL     1      -1.534   3.978  -1.518  1.00  0.00    -0.090 C 
HETATM   24  C1  UNL     1      -1.380   4.607  -2.893  1.00  0.00     0.042 C 
HETATM   25  C3  UNL     1      -1.635   4.873  -0.337  1.00  0.00     0.042 C 
ENDBRANCH  21  22
ENDBRANCH   1  21
BRANCH   3  26
HETATM   26  C7  UNL     1      -2.979  -1.221  -1.093  1.00  0.00     0.036 C 
BRANCH  26  27
HETATM   27  C8  UNL     1      -4.306  -1.796  -1.038  1.00  0.00    -0.021 C 
HETATM   28  C9  UNL     1      -4.408  -3.175  -0.451  1.00  0.00     0.009 C 
HETATM   29  C10 UNL     1      -5.401  -0.978  -0.418  1.00  0.00     0.009 C 
ENDBRANCH  26  27
ENDBRANCH   3  26
BRANCH  18  30
HETATM   30  C23 UNL     1       1.357   0.487   2.931  1.00  0.00     0.039 C 
BRANCH  30  31
HETATM   31  C24 UNL     1       0.140   0.338   3.722  1.00  0.00    -0.020 C 
HETATM   32  C25 UNL     1      -0.993   1.294   3.525  1.00  0.00     0.009 C 
HETATM   33  C26 UNL     1       0.558   0.546   5.205  1.00  0.00     0.009 C 
ENDBRANCH  30  31
ENDBRANCH  18  30
BRANCH  15  34
HETATM   34  O4  UNL     1       4.796  -0.249   0.388  1.00  0.00    -0.348 OA
ATOM     35  H4  UNL     1       5.050   0.544   0.846  1.00  0.00     0.219 HD
ENDBRANCH  15  34
BRANCH  14  36
HETATM   36  C16 UNL     1       2.655  -1.577  -1.784  1.00  0.00     0.037 C 
BRANCH  36  37
HETATM   37  C17 UNL     1       3.478  -0.747  -2.735  1.00  0.00    -0.020 C 
HETATM   38  C18 UNL     1       4.897  -1.312  -2.797  1.00  0.00     0.009 C 
HETATM   39  C19 UNL     1       3.502   0.706  -2.523  1.00  0.00     0.009 C 
ENDBRANCH  36  37
ENDBRANCH  14  36
TORSDOF 9
