REMARK  10 active torsions:
REMARK  status: ('A' for Active; 'I' for Inactive)
REMARK    1  A    between atoms: C2_2  and  C3_3 
REMARK    2  A    between atoms: C3_3  and  N1_4 
REMARK    3  A    between atoms: C7_8  and  C8_9 
REMARK    4  A    between atoms: C8_9  and  N2_10 
REMARK    5  A    between atoms: N4_23  and  C21_25 
REMARK    6  A    between atoms: C21_25  and  C22_26 
REMARK    7  A    between atoms: C22_26  and  O1_27 
REMARK    8  A    between atoms: C22_26  and  C23_29 
REMARK    9  A    between atoms: C23_29  and  O2_30 
REMARK   10  A    between atoms: C23_29  and  O3_32 
ROOT
HETATM    1  N2  UNL     1       1.713  -0.625  -1.101  1.00  0.00    -0.003 N 
HETATM    2  C9  UNL     1       2.633  -1.220  -2.058  1.00  0.00     0.283 C 
HETATM    3  C10 UNL     1       1.522  -1.605  -0.073  1.00  0.00     0.248 C 
HETATM    4  C11 UNL     1       0.676  -2.789  -0.370  1.00  0.00     0.038 C 
HETATM    5  C12 UNL     1      -0.793  -2.630  -0.320  1.00  0.00    -0.029 C 
HETATM    6  C13 UNL     1      -1.536  -3.800   0.344  1.00  0.00     0.040 C 
HETATM    7  C14 UNL     1      -2.893  -3.896  -0.325  1.00  0.00     0.273 C 
HETATM    8  N3  UNL     1      -3.407  -2.668  -0.839  1.00  0.00     0.090 N 
HETATM    9  C15 UNL     1      -4.594  -2.970  -1.614  1.00  0.00     0.310 C 
HETATM   10  C16 UNL     1      -2.526  -1.885  -1.650  1.00  0.00     0.238 C 
HETATM   11  C17 UNL     1      -1.270  -2.744  -1.765  1.00  0.00     0.047 C 
HETATM   12  C18 UNL     1      -1.914  -0.704  -0.930  1.00  0.00     0.053 C 
HETATM   13  C19 UNL     1      -2.885   0.222  -0.288  1.00  0.00     0.254 C 
HETATM   14  N4  UNL     1      -2.952  -0.028   1.122  1.00  0.00    -0.067 N 
HETATM   15  C20 UNL     1      -4.276  -0.197   1.650  1.00  0.00     0.272 C 
HETATM   16  C24 UNL     1      -2.195  -1.275   1.354  1.00  0.00     0.243 C 
HETATM   17  C25 UNL     1      -1.254  -1.346   0.251  1.00  0.00     0.037 C 
HETATM   18  C26 UNL     1      -0.861  -0.037  -1.744  1.00  0.00     0.027 C 
HETATM   19  C27 UNL     1      -1.365   0.893  -2.507  1.00  0.00    -0.018 C 
HETATM   20  C28 UNL     1      -0.675   1.787  -3.456  1.00  0.00     0.036 C 
HETATM   21  C29 UNL     1       0.581  -0.241  -1.842  1.00  0.00     0.348 C 
HETATM   22  O4  UNL     1       0.916   0.026  -3.027  1.00  0.00    -0.260 OA
ENDROOT
BRANCH   1  23
HETATM   23  C8  UNL     1       2.308   0.506  -0.441  1.00  0.00     0.283 C 
BRANCH  23  24
HETATM   24  C7  UNL     1       3.690   0.875  -0.670  1.00  0.00     0.250 C 
HETATM   25  N1  UNL     1       4.005   2.053   0.122  1.00  0.00     0.098 N 
HETATM   26  C4  UNL     1       5.389   2.263  -0.337  1.00  0.00     0.273 C 
HETATM   27  C5  UNL     1       5.963   0.856  -0.116  1.00  0.00     0.032 C 
HETATM   28  C6  UNL     1       4.765  -0.076  -0.220  1.00  0.00     0.039 C 
BRANCH  25  29
HETATM   29  C3  UNL     1       4.086   1.826   1.537  1.00  0.00     0.299 C 
BRANCH  29  30
HETATM   30  C2  UNL     1       4.512   3.071   2.247  1.00  0.00    -0.007 C 
HETATM   31  C1  UNL     1       5.622   3.067   2.967  1.00  0.00     0.008 C 
ENDBRANCH  29  30
ENDBRANCH  25  29
ENDBRANCH  23  24
ENDBRANCH   1  23
BRANCH  14  32
HETATM   32  C21 UNL     1      -2.317   1.080   1.802  1.00  0.00     0.273 C 
BRANCH  32  33
HETATM   33  C22 UNL     1      -3.289   2.192   2.034  1.00  0.00     0.199 C 
BRANCH  33  34
HETATM   34  O1  UNL     1      -3.847   2.724   0.873  1.00  0.00    -0.389 OA
ATOM     35  H1  UNL     1      -4.465   3.431   1.020  1.00  0.00     0.210 HD
ENDBRANCH  33  34
BRANCH  33  36
HETATM   36  C23 UNL     1      -2.581   3.394   2.693  1.00  0.00     0.284 C 
BRANCH  36  37
HETATM   37  O2  UNL     1      -3.473   4.398   2.980  1.00  0.00    -0.369 OA
ATOM     38  H2  UNL     1      -3.037   5.138   3.386  1.00  0.00     0.212 HD
ENDBRANCH  36  37
BRANCH  36  39
HETATM   39  O3  UNL     1      -1.633   3.923   1.818  1.00  0.00    -0.369 OA
ATOM     40  H3  UNL     1      -1.197   4.663   2.224  1.00  0.00     0.212 HD
ENDBRANCH  36  39
ENDBRANCH  33  36
ENDBRANCH  32  33
ENDBRANCH  14  32
TORSDOF 10
