REMARK  10 active torsions:
REMARK  status: ('A' for Active; 'I' for Inactive)
REMARK    1  A    between atoms: C2_2  and  C3_3 
REMARK    2  A    between atoms: C4_4  and  C5_5 
REMARK    3  A    between atoms: C7_10  and  C8_11 
REMARK    4  A    between atoms: C8_11  and  C9_12 
REMARK    5  A    between atoms: C14_19  and  C15_20 
REMARK    6  A    between atoms: C23_33  and  C24_34 
REMARK    7  A    between atoms: C24_34  and  C25_35 
REMARK    8  A    between atoms: C25_35  and  C26_36 
REMARK    9  A    between atoms: C26_36  and  C27_37 
REMARK   10  A    between atoms: C27_37  and  N5_38 
ROOT
HETATM    1  C5  UNL     1       0.794   1.996  -0.594  1.00  0.00     0.235 C 
HETATM    2  N1  UNL     1       0.179   2.747   0.478  1.00  0.00    -0.334 N 
ATOM      3  H1  UNL     1       0.758   3.465   0.914  1.00  0.00     0.164 HD
HETATM    4  C6  UNL     1      -1.117   2.605   0.987  1.00  0.00     0.269 C 
HETATM    5  O1  UNL     1      -1.768   3.664   1.196  1.00  0.00    -0.266 OA
HETATM    6  C7  UNL     1      -1.823   1.333   1.313  1.00  0.00     0.102 C 
HETATM    7  N2  UNL     1      -2.301   0.633   0.142  1.00  0.00    -0.313 N 
HETATM    8  C12 UNL     1      -2.758   1.462  -0.990  1.00  0.00     0.160 C 
HETATM    9  C13 UNL     1      -2.370  -0.753  -0.046  1.00  0.00     0.271 C 
HETATM   10  O2  UNL     1      -3.167  -1.159  -0.967  1.00  0.00    -0.266 OA
HETATM   11  C14 UNL     1      -1.657  -1.825   0.662  1.00  0.00     0.084 C 
HETATM   12  N3  UNL     1      -0.252  -1.882   0.532  1.00  0.00    -0.324 N 
ATOM     13  H3  UNL     1       0.218  -1.389   1.291  1.00  0.00     0.169 HD
HETATM   14  C18 UNL     1       0.654  -2.435  -0.360  1.00  0.00     0.244 C 
HETATM   15  O3  UNL     1       1.402  -3.400   0.071  1.00  0.00    -0.271 OA
HETATM   16  C19 UNL     1       0.946  -2.118  -1.779  1.00  0.00     0.175 C 
HETATM   17  C20 UNL     1       0.876  -3.484  -2.484  1.00  0.00     0.042 C 
HETATM   18  N4  UNL     1       2.263  -1.550  -2.007  1.00  0.00    -0.343 N 
HETATM   19  C21 UNL     1       3.201  -2.385  -2.794  1.00  0.00     0.153 C 
HETATM   20  C22 UNL     1       2.763  -0.324  -1.599  1.00  0.00     0.231 C 
HETATM   21  O4  UNL     1       3.319   0.446  -2.435  1.00  0.00    -0.272 OA
HETATM   22  C23 UNL     1       2.757   0.296  -0.215  1.00  0.00     0.150 C 
HETATM   23  C28 UNL     1       2.234   1.707  -0.369  1.00  0.00     0.174 C 
HETATM   24  O5  UNL     1       3.046   2.594  -0.303  1.00  0.00    -0.294 OA
ENDROOT
BRANCH  22  25
HETATM   25  C24 UNL     1       4.209   0.400   0.201  1.00  0.00     0.022 C 
BRANCH  25  26
HETATM   26  C25 UNL     1       4.439   0.940   1.561  1.00  0.00     0.003 C 
BRANCH  26  27
HETATM   27  C26 UNL     1       3.871   0.176   2.715  1.00  0.00     0.027 C 
BRANCH  27  28
HETATM   28  C27 UNL     1       4.411  -1.193   2.926  1.00  0.00     0.229 C 
BRANCH  28  29
HETATM   29  N5  UNL     1       4.180  -2.072   1.836  1.00  0.00    -0.079 N 
ATOM     30  H53 UNL     1       3.187  -2.108   1.607  1.00  0.00     0.274 HD
ATOM     31  H52 UNL     1       4.540  -1.673   0.969  1.00  0.00     0.274 HD
ATOM     32  H51 UNL     1       4.550  -3.011   1.981  1.00  0.00     0.274 HD
ENDBRANCH  28  29
ENDBRANCH  27  28
ENDBRANCH  26  27
ENDBRANCH  25  26
ENDBRANCH  22  25
BRANCH   1  33
HETATM   33  C4  UNL     1       0.766   2.764  -1.873  1.00  0.00    -0.073 C 
HETATM   34  C3  UNL     1       0.739   3.363  -2.914  1.00  0.00    -0.104 C 
BRANCH  34  35
HETATM   35  C2  UNL     1       0.712   4.068  -4.195  1.00  0.00     0.089 C 
HETATM   36  C1  UNL     1       1.095   3.138  -5.340  1.00  0.00     0.018 C 
ENDBRANCH  34  35
ENDBRANCH   1  33
BRANCH   6  37
HETATM   37  C8  UNL     1      -2.701   1.364   2.492  1.00  0.00     0.012 C 
BRANCH  37  38
HETATM   38  C9  UNL     1      -3.855   2.257   2.614  1.00  0.00     0.002 C 
HETATM   39  C10 UNL     1      -4.506   2.001   4.003  1.00  0.00     0.013 C 
HETATM   40  C11 UNL     1      -4.928   1.862   1.620  1.00  0.00     0.013 C 
ENDBRANCH  37  38
ENDBRANCH   6  37
BRANCH  11  41
HETATM   41  C15 UNL     1      -2.395  -3.144   0.601  1.00  0.00     0.033 C 
HETATM   42  C16 UNL     1      -2.659  -3.702  -0.737  1.00  0.00     0.016 C 
HETATM   43  C17 UNL     1      -3.754  -2.924   1.282  1.00  0.00     0.016 C 
ENDBRANCH  11  41
TORSDOF 10
