REMARK  11 active torsions:
REMARK  status: ('A' for Active; 'I' for Inactive)
REMARK    1  A    between atoms: C4_4  and  C6_6 
REMARK    2  A    between atoms: C6_6  and  N1_7 
REMARK    3  A    between atoms: N1_7  and  C9_10 
REMARK    4  A    between atoms: C11_12  and  C12_13 
REMARK    5  A    between atoms: C13_14  and  C14_15 
REMARK    6  A    between atoms: C16_20  and  C17_21 
REMARK       I    between atoms: C17_21  and  N3_23 
REMARK       I    between atoms: N4_26  and  C20_27 
REMARK    7  A    between atoms: C20_27  and  C21_29 
REMARK    8  A    between atoms: C21_29  and  O3_30 
REMARK    9  A    between atoms: N5_35  and  C25_36 
REMARK   10  A    between atoms: C25_36  and  C26_40 
REMARK   11  A    between atoms: C26_40  and  S1_41 
ROOT
HETATM    1  C12 UNL     1      -0.799   0.199  -0.070  1.00  0.00    -0.004 C 
HETATM    2  C13 UNL     1      -0.153   1.276   0.264  1.00  0.00    -0.022 C 
ENDROOT
BRANCH   1   3
HETATM    3  C11 UNL     1      -2.305   0.095  -0.062  1.00  0.00     0.123 C 
HETATM    4  C4  UNL     1      -2.819  -0.282   1.288  1.00  0.00     0.010 C 
HETATM    5  C3  UNL     1      -3.779  -1.422   1.076  1.00  0.00     0.069 C 
HETATM    6  C5  UNL     1      -1.611  -1.045   1.924  1.00  0.00     0.020 C 
HETATM    7  C2  UNL     1      -3.140  -2.040  -0.135  1.00  0.00     0.005 C 
HETATM    8  C1  UNL     1      -2.980  -3.306  -0.359  1.00  0.00     0.038 C 
HETATM    9  N5  UNL     1      -2.751  -0.961  -0.990  1.00  0.00    -0.332 N 
BRANCH   4  10
HETATM   10  C6  UNL     1      -3.162   0.731   2.249  1.00  0.00     0.248 C 
BRANCH  10  11
HETATM   11  N1  UNL     1      -4.298   1.560   2.224  1.00  0.00    -0.074 N 
HETATM   12  C7  UNL     1      -5.572   0.876   2.315  1.00  0.00     0.272 C 
HETATM   13  C8  UNL     1      -4.214   2.264   3.541  1.00  0.00     0.272 C 
BRANCH  11  14
HETATM   14  C9  UNL     1      -4.332   2.637   1.283  1.00  0.00     0.232 C 
HETATM   15  C10 UNL     1      -5.348   2.480   0.179  1.00  0.00     0.034 C 
ENDBRANCH  11  14
ENDBRANCH  10  11
ENDBRANCH   4  10
BRANCH   9  16
HETATM   16  C25 UNL     1      -2.788  -0.918  -2.407  1.00  0.00     0.087 C 
HETATM   17  N6  UNL     1      -1.977  -0.131  -3.022  1.00  0.00    -0.388 N 
ATOM     18  H62 UNL     1      -1.342   0.424  -2.448  1.00  0.00     0.157 HD
ATOM     19  H61 UNL     1      -2.004  -0.100  -4.041  1.00  0.00     0.157 HD
BRANCH  16  20
HETATM   20  C26 UNL     1      -3.709  -1.722  -3.239  1.00  0.00     0.149 C 
BRANCH  20  21
HETATM   21  S1  UNL     1      -5.445  -1.385  -2.866  1.00  0.00    -0.166 SA
HETATM   22  C27 UNL     1      -5.943   0.279  -3.308  1.00  0.00     0.090 C 
ENDBRANCH  20  21
ENDBRANCH  16  20
ENDBRANCH   9  16
ENDBRANCH   1   3
BRANCH   2  23
HETATM   23  C14 UNL     1       1.295   1.478   0.290  1.00  0.00     0.036 C 
HETATM   24  C15 UNL     1       1.745   2.508  -0.760  1.00  0.00     0.242 C 
HETATM   25  N2  UNL     1       3.161   2.394  -0.657  1.00  0.00    -0.062 N 
HETATM   26  C16 UNL     1       3.410   0.974  -0.617  1.00  0.00     0.277 C 
ATOM     27  H22 UNL     1       3.672   2.885  -1.391  1.00  0.00     0.278 HD
ATOM     28  H21 UNL     1       3.563   2.909   0.126  1.00  0.00     0.278 HD
HETATM   29  C24 UNL     1       2.135   0.317  -0.115  1.00  0.00     0.053 C 
BRANCH  26  30
HETATM   30  C17 UNL     1       4.537   0.738   0.338  1.00  0.00     0.250 C 
HETATM   31  O1  UNL     1       5.036   1.720   0.955  1.00  0.00    -0.271 OA
HETATM   32  N3  UNL     1       5.044  -0.570   0.554  1.00  0.00    -0.347 N 
HETATM   33  C18 UNL     1       4.596  -1.765  -0.085  1.00  0.00     0.145 C 
HETATM   34  C23 UNL     1       6.129  -0.721   1.534  1.00  0.00     0.145 C 
HETATM   35  C19 UNL     1       5.765  -2.409  -0.812  1.00  0.00     0.145 C 
HETATM   36  N4  UNL     1       6.974  -1.730  -0.458  1.00  0.00    -0.347 N 
HETATM   37  C20 UNL     1       7.911  -1.229  -1.405  1.00  0.00     0.243 C 
HETATM   38  C22 UNL     1       7.251  -1.545   0.950  1.00  0.00     0.145 C 
HETATM   39  O2  UNL     1       8.947  -0.646  -0.997  1.00  0.00    -0.271 OA
BRANCH  37  40
HETATM   40  C21 UNL     1       7.713  -1.368  -2.866  1.00  0.00     0.267 C 
BRANCH  40  41
HETATM   41  O3  UNL     1       8.791  -0.785  -3.518  1.00  0.00    -0.392 OA
ATOM     42  H3  UNL     1       8.664  -0.874  -4.455  1.00  0.00     0.210 HD
ENDBRANCH  40  41
ENDBRANCH  37  40
ENDBRANCH  26  30
ENDBRANCH   2  23
TORSDOF 11
