REMARK  9 active torsions:
REMARK  status: ('A' for Active; 'I' for Inactive)
REMARK    1  A    between atoms: C2_2  and  C3_3 
REMARK    2  A    between atoms: C3_3  and  C5_5 
REMARK    3  A    between atoms: C15_19  and  C16_20 
REMARK    4  A    between atoms: C16_20  and  C17_21 
REMARK    5  A    between atoms: C17_21  and  C18_22 
REMARK    6  A    between atoms: C18_22  and  N2_23 
REMARK    7  A    between atoms: N6_34  and  C22_35 
REMARK    8  A    between atoms: C23_37  and  C24_38 
REMARK    9  A    between atoms: C24_38  and  C25_39 
ROOT
HETATM    1  C5  UNL     1       3.505  -1.650  -0.117  1.00  0.00     0.180 C 
HETATM    2  N1  UNL     1       2.677  -2.277   0.853  1.00  0.00    -0.344 N 
ATOM      3  H1  UNL     1       2.413  -1.747   1.684  1.00  0.00     0.163 HD
HETATM    4  C6  UNL     1       2.204  -3.601   0.718  1.00  0.00     0.250 C 
HETATM    5  O1  UNL     1       2.257  -4.435   1.690  1.00  0.00    -0.268 OA
HETATM    6  C7  UNL     1       1.603  -4.157  -0.546  1.00  0.00     0.138 C 
HETATM    7  C8  UNL     1       0.196  -4.001  -0.590  1.00  0.00    -0.073 C 
HETATM    8  C9  UNL     1      -0.914  -3.854  -0.605  1.00  0.00    -0.102 C 
HETATM    9  C10 UNL     1      -2.302  -3.643  -0.604  1.00  0.00     0.095 C 
HETATM   10  C11 UNL     1      -2.628  -2.551   0.401  1.00  0.00     0.020 C 
HETATM   11  C12 UNL     1      -2.010  -1.288  -0.069  1.00  0.00     0.030 C 
HETATM   12  C13 UNL     1      -0.908  -0.871   0.923  1.00  0.00     0.156 C 
HETATM   13  C14 UNL     1       0.156  -0.160   0.216  1.00  0.00     0.163 C 
HETATM   14  O2  UNL     1       0.252  -0.387  -1.005  1.00  0.00    -0.295 OA
HETATM   15  C15 UNL     1       1.116   0.782   0.774  1.00  0.00     0.155 C 
HETATM   16  N5  UNL     1       2.463   0.709   0.260  1.00  0.00    -0.348 N 
ATOM     17  H5  UNL     1       3.034   1.525   0.480  1.00  0.00     0.163 HD
HETATM   18  C20 UNL     1       3.125  -0.255  -0.473  1.00  0.00     0.241 C 
HETATM   19  O3  UNL     1       3.490   0.076  -1.666  1.00  0.00    -0.271 OA
HETATM   20  C21 UNL     1      -1.672  -0.116   1.912  1.00  0.00     0.238 C 
HETATM   21  O4  UNL     1      -1.269   0.470   2.918  1.00  0.00    -0.272 OA
HETATM   22  N6  UNL     1      -3.072  -0.159   1.513  1.00  0.00    -0.290 N 
HETATM   23  C23 UNL     1      -2.973  -0.078   0.046  1.00  0.00     0.101 C 
ENDROOT
BRANCH  15  24
HETATM   24  C16 UNL     1       0.618   2.223   0.571  1.00  0.00     0.034 C 
BRANCH  24  25
HETATM   25  C17 UNL     1       0.430   2.576  -0.870  1.00  0.00     0.022 C 
BRANCH  25  26
HETATM   26  C18 UNL     1      -0.058   4.033  -0.887  1.00  0.00     0.122 C 
BRANCH  26  27
HETATM   27  N2  UNL     1       0.950   4.887  -0.256  1.00  0.00    -0.367 N 
HETATM   28  C19 UNL     1       0.734   6.155  -0.172  1.00  0.00     0.196 C 
HETATM   29  N3  UNL     1      -0.453   6.749  -0.673  1.00  0.00    -0.067 NA
HETATM   30  N4  UNL     1       1.737   6.959   0.448  1.00  0.00    -0.067 NA
ATOM     31  H2  UNL     1       1.812   4.484   0.112  1.00  0.00     0.161 HD
ENDBRANCH  26  27
ENDBRANCH  25  26
ENDBRANCH  24  25
ENDBRANCH  15  24
BRANCH   1  32
HETATM   32  C3  UNL     1       4.965  -1.701   0.325  1.00  0.00     0.013 C 
HETATM   33  C4  UNL     1       5.128  -0.984   1.662  1.00  0.00     0.012 C 
BRANCH  32  34
HETATM   34  C2  UNL     1       5.506  -3.070   0.515  1.00  0.00     0.002 C 
HETATM   35  C1  UNL     1       5.475  -3.978  -0.661  1.00  0.00     0.005 C 
ENDBRANCH  32  34
ENDBRANCH   1  32
BRANCH  23  36
HETATM   36  C24 UNL     1      -4.229  -0.235  -0.693  1.00  0.00     0.030 C 
BRANCH  36  37
HETATM   37  C25 UNL     1      -5.148   0.960  -0.713  1.00  0.00    -0.021 C 
HETATM   38  C26 UNL     1      -6.405   0.573  -1.507  1.00  0.00     0.009 C 
HETATM   39  C27 UNL     1      -4.474   2.002  -1.653  1.00  0.00     0.009 C 
ENDBRANCH  36  37
ENDBRANCH  23  36
BRANCH  22  40
HETATM   40  C22 UNL     1      -4.169  -0.337   2.355  1.00  0.00     0.358 C 
HETATM   41  O5  UNL     1      -5.339  -0.525   2.015  1.00  0.00    -0.283 OA
ENDBRANCH  22  40
TORSDOF 9
