REMARK  7 active torsions:
REMARK  status: ('A' for Active; 'I' for Inactive)
REMARK    1  A    between atoms: C2_2  and  N1_3 
REMARK       I    between atoms: N3_14  and  C10_15 
REMARK    2  A    between atoms: C10_15  and  C11_17 
REMARK    3  A    between atoms: C11_17  and  N4_18 
REMARK       I    between atoms: N4_18  and  C12_20 
REMARK    4  A    between atoms: C12_20  and  C13_22 
REMARK    5  A    between atoms: C13_22  and  N5_23 
REMARK    6  A    between atoms: N6_26  and  C16_27 
REMARK    7  A    between atoms: C16_27  and  C17_28 
ROOT
HETATM    1  N1  UNL     1      -5.315  -1.369  -0.592  1.00  0.00    -0.062 N 
HETATM    2  C3  UNL     1      -6.340  -0.540  -1.111  1.00  0.00     0.265 C 
HETATM    3  C4  UNL     1      -7.246   0.095  -0.094  1.00  0.00     0.260 C 
HETATM    4  N2  UNL     1      -7.219   1.547  -0.117  1.00  0.00    -0.074 N 
ATOM      5  H21 UNL     1      -8.107   1.913  -0.460  1.00  0.00     0.277 HD
ATOM      6  H22 UNL     1      -6.596   1.879  -0.853  1.00  0.00     0.277 HD
HETATM    7  C5  UNL     1      -6.881   2.153   1.129  1.00  0.00     0.232 C 
HETATM    8  C6  UNL     1      -5.657   3.040   1.086  1.00  0.00     0.027 C 
HETATM    9  C7  UNL     1      -4.541   2.560   1.979  1.00  0.00     0.003 C 
HETATM   10  C8  UNL     1      -3.232   2.377   1.288  1.00  0.00     0.020 C 
HETATM   11  C9  UNL     1      -2.612   1.002   1.484  1.00  0.00     0.126 C 
HETATM   12  N3  UNL     1      -2.589   0.269   0.208  1.00  0.00    -0.343 N 
HETATM   13  C10 UNL     1      -1.353  -0.121  -0.362  1.00  0.00     0.237 C 
HETATM   14  O1  UNL     1      -1.355  -0.742  -1.450  1.00  0.00    -0.272 OA
HETATM   15  C22 UNL     1      -3.848   0.007  -0.367  1.00  0.00     0.139 C 
HETATM   16  C23 UNL     1      -4.630  -0.874   0.567  1.00  0.00     0.264 C 
HETATM   17  C24 UNL     1      -4.013  -1.158  -1.268  1.00  0.00     0.264 C 
ENDROOT
BRANCH  13  18
HETATM   18  C11 UNL     1      -0.047   0.168   0.267  1.00  0.00     0.225 C 
BRANCH  18  19
HETATM   19  N4  UNL     1       1.052  -0.339  -0.520  1.00  0.00    -0.351 N 
HETATM   20  C12 UNL     1       2.417  -0.178  -0.111  1.00  0.00     0.244 C 
HETATM   21  O2  UNL     1       2.607   0.424   0.962  1.00  0.00    -0.272 OA
ATOM     22  H4  UNL     1       0.852  -0.826  -1.393  1.00  0.00     0.163 HD
BRANCH  20  23
HETATM   23  C13 UNL     1       3.519  -0.700  -0.924  1.00  0.00     0.339 C 
BRANCH  23  24
HETATM   24  N5  UNL     1       4.831  -0.488  -0.429  1.00  0.00    -0.054 N 
HETATM   25  C14 UNL     1       5.116  -1.106   0.853  1.00  0.00     0.266 C 
HETATM   26  C15 UNL     1       6.616  -1.344   0.924  1.00  0.00     0.266 C 
HETATM   27  N6  UNL     1       7.307  -0.266   0.157  1.00  0.00    -0.054 N 
HETATM   28  C18 UNL     1       7.160  -0.629  -1.235  1.00  0.00     0.266 C 
HETATM   29  C20 UNL     1       6.530   0.933   0.442  1.00  0.00     0.266 C 
HETATM   30  C19 UNL     1       5.742  -1.169  -1.381  1.00  0.00     0.266 C 
HETATM   31  C21 UNL     1       5.255   0.900  -0.405  1.00  0.00     0.266 C 
BRANCH  27  32
HETATM   32  C16 UNL     1       8.644  -0.180   0.620  1.00  0.00     0.336 C 
BRANCH  32  33
HETATM   33  C17 UNL     1       9.547   0.742  -0.043  1.00  0.00     0.257 C 
HETATM   34  N7  UNL     1       9.257   1.594  -1.130  1.00  0.00    -0.061 NA
HETATM   35  O3  UNL     1      10.764   0.806   0.399  1.00  0.00    -0.275 OA
ENDBRANCH  32  33
ENDBRANCH  27  32
ENDBRANCH  23  24
ENDBRANCH  20  23
ENDBRANCH  18  19
ENDBRANCH  13  18
BRANCH   1  36
HETATM   36  C2  UNL     1      -5.616  -2.769  -0.445  1.00  0.00     0.233 C 
HETATM   37  C1  UNL     1      -6.495  -3.326  -1.515  1.00  0.00     0.035 C 
ENDBRANCH   1  36
TORSDOF 7
