REMARK  8 active torsions:
REMARK  status: ('A' for Active; 'I' for Inactive)
REMARK    1  A    between atoms: C5_5  and  C6_6 
REMARK    2  A    between atoms: C6_6  and  C7_7 
REMARK    3  A    between atoms: C9_12  and  C10_13 
REMARK    4  A    between atoms: C11_14  and  C12_15 
REMARK    5  A    between atoms: C12_15  and  N2_16 
REMARK    6  A    between atoms: N3_19  and  C15_20 
REMARK    7  A    between atoms: C15_20  and  C16_21 
REMARK    8  A    between atoms: C25_34  and  O4_35 
ROOT
HETATM    1  C1  UNL     1       7.291   3.779  -0.510  1.00  0.00     0.102 C 
HETATM    2  C2  UNL     1       6.447   2.921  -0.736  1.00  0.00    -0.154 C 
HETATM    3  C3  UNL     1       5.464   1.911  -0.996  1.00  0.00    -0.025 C 
HETATM    4  C4  UNL     1       4.341   2.197  -1.921  1.00  0.00     0.057 C 
HETATM    5  C5  UNL     1       5.595   0.746  -0.399  1.00  0.00    -0.010 C 
ENDROOT
BRANCH   5   6
HETATM    6  C6  UNL     1       4.623  -0.374  -0.604  1.00  0.00     0.056 C 
BRANCH   6   7
HETATM    7  C7  UNL     1       4.005  -0.767   0.747  1.00  0.00     0.118 C 
HETATM    8  N1  UNL     1       3.318   0.329   1.338  1.00  0.00    -0.353 N 
HETATM    9  C8  UNL     1       2.027   0.821   1.062  1.00  0.00     0.226 C 
ATOM     10  H1  UNL     1       3.832   0.829   2.063  1.00  0.00     0.163 HD
HETATM   11  O1  UNL     1       1.865   2.073   1.105  1.00  0.00    -0.273 OA
HETATM   12  C9  UNL     1       0.812   0.081   0.724  1.00  0.00     0.115 C 
HETATM   13  C20 UNL     1       1.032  -1.400   0.510  1.00  0.00     0.126 C 
HETATM   14  C21 UNL     1       1.588  -1.717  -0.831  1.00  0.00     0.228 C 
HETATM   15  C25 UNL     1       2.001  -1.967   1.493  1.00  0.00     0.162 C 
HETATM   16  O3  UNL     1       1.011  -1.413  -1.907  1.00  0.00    -0.273 OA
HETATM   17  N5  UNL     1       2.841  -2.397  -0.673  1.00  0.00    -0.342 N 
HETATM   18  C22 UNL     1       3.464  -3.223  -1.686  1.00  0.00     0.153 C 
HETATM   19  C23 UNL     1       3.267  -2.055   0.667  1.00  0.00     0.078 C 
HETATM   20  C24 UNL     1       4.073  -3.228   1.184  1.00  0.00     0.043 C 
BRANCH  12  21
HETATM   21  C10 UNL     1      -0.092   0.185   1.913  1.00  0.00    -0.014 C 
HETATM   22  C11 UNL     1      -1.265   0.730   1.954  1.00  0.00    -0.002 C 
BRANCH  22  23
HETATM   23  C12 UNL     1      -1.988   1.371   0.864  1.00  0.00     0.266 C 
BRANCH  23  24
HETATM   24  N2  UNL     1      -3.220   0.681   0.656  1.00  0.00    -0.036 N 
HETATM   25  C13 UNL     1      -3.214  -0.343  -0.338  1.00  0.00     0.268 C 
HETATM   26  C14 UNL     1      -4.647  -0.372  -0.899  1.00  0.00     0.273 C 
HETATM   27  N3  UNL     1      -5.300   0.554  -0.031  1.00  0.00    -0.015 N 
HETATM   28  C17 UNL     1      -5.284  -0.015   1.338  1.00  0.00     0.273 C 
HETATM   29  C19 UNL     1      -4.287   1.569   0.142  1.00  0.00     0.479 C 
HETATM   30  C18 UNL     1      -3.869   0.187   1.828  1.00  0.00     0.268 C 
BRANCH  27  31
HETATM   31  C15 UNL     1      -6.592   0.991  -0.380  1.00  0.00     0.275 C 
BRANCH  31  32
HETATM   32  C16 UNL     1      -6.685   1.762  -1.598  1.00  0.00     0.278 C 
HETATM   33  N4  UNL     1      -7.987   2.235  -1.998  1.00  0.00    -0.057 NA
HETATM   34  O2  UNL     1      -5.735   2.051  -2.329  1.00  0.00    -0.270 OA
ENDBRANCH  31  32
ENDBRANCH  27  31
ENDBRANCH  23  24
ENDBRANCH  22  23
ENDBRANCH  12  21
BRANCH  15  35
HETATM   35  O4  UNL     1       1.614  -3.276   1.808  1.00  0.00    -0.392 OA
ATOM     36  H4  UNL     1       2.231  -3.637   2.434  1.00  0.00     0.210 HD
ENDBRANCH  15  35
ENDBRANCH   6   7
ENDBRANCH   5   6
TORSDOF 8
