REMARK  10 active torsions:
REMARK  status: ('A' for Active; 'I' for Inactive)
REMARK    1  A    between atoms: N1_2  and  C3_4 
REMARK    2  A    between atoms: N1_2  and  C5_8 
REMARK    3  A    between atoms: C3_4  and  C4_5 
REMARK    4  A    between atoms: C5_8  and  C6_9 
REMARK    5  A    between atoms: C18_21  and  N3_22 
REMARK       I    between atoms: N3_22  and  C19_24 
REMARK    6  A    between atoms: C19_24  and  C20_26 
REMARK    7  A    between atoms: N4_31  and  C26_33 
REMARK    8  A    between atoms: C26_33  and  C27_34 
REMARK    9  A    between atoms: C28_35  and  C29_36 
REMARK   10  A    between atoms: C29_36  and  N5_37 
ROOT
HETATM    1  C6  UNL     1      -2.327   0.719  -0.226  1.00  0.00     0.005 A 
HETATM    2  C7  UNL     1      -1.829   2.107  -0.272  1.00  0.00     0.031 A 
HETATM    3  C8  UNL     1      -2.032   1.516   1.016  1.00  0.00     0.076 A 
HETATM    4  C9  UNL     1      -2.400   0.479   1.867  1.00  0.00    -0.100 C 
HETATM    5  C10 UNL     1      -2.571  -0.440   2.333  1.00  0.00    -0.094 C 
HETATM    6  C11 UNL     1      -2.636  -1.794   2.739  1.00  0.00     0.135 C 
HETATM    7  C12 UNL     1      -1.147  -2.258   2.875  1.00  0.00     0.031 C 
HETATM    8  C13 UNL     1      -0.456  -2.082   1.571  1.00  0.00     0.011 C 
HETATM    9  C14 UNL     1      -0.919  -3.302   0.760  1.00  0.00     0.019 C 
HETATM   10  C15 UNL     1      -2.340  -2.827   0.338  1.00  0.00     0.057 C 
HETATM   11  C16 UNL     1      -2.084  -1.764  -0.663  1.00  0.00     0.020 C 
HETATM   12  C17 UNL     1      -1.454  -0.488  -0.216  1.00  0.00     0.021 C 
HETATM   13  C18 UNL     1      -0.441  -0.832   0.776  1.00  0.00     0.093 C 
HETATM   14  C30 UNL     1      -3.132  -2.598   1.527  1.00  0.00     0.146 C 
HETATM   15  O3  UNL     1      -4.246  -3.044   1.614  1.00  0.00    -0.296 OA
ENDROOT
BRANCH  13  16
HETATM   16  N3  UNL     1       0.784  -1.112  -0.072  1.00  0.00    -0.354 N 
HETATM   17  C19 UNL     1       1.967  -0.368   0.105  1.00  0.00     0.249 C 
HETATM   18  O2  UNL     1       1.968   0.541   0.997  1.00  0.00    -0.271 OA
ATOM     19  H3  UNL     1       0.751  -1.847  -0.778  1.00  0.00     0.162 HD
BRANCH  17  20
HETATM   20  C20 UNL     1       3.199  -0.566  -0.666  1.00  0.00     0.282 C 
HETATM   21  C21 UNL     1       2.956  -0.581  -2.155  1.00  0.00     0.043 C 
HETATM   22  C22 UNL     1       3.060   0.741  -2.825  1.00  0.00     0.004 C 
HETATM   23  C23 UNL     1       4.250   1.536  -2.356  1.00  0.00     0.028 C 
HETATM   24  C24 UNL     1       4.174   1.630  -0.859  1.00  0.00     0.239 C 
HETATM   25  N4  UNL     1       4.288   0.289  -0.316  1.00  0.00    -0.048 N 
HETATM   26  C25 UNL     1       5.499  -0.296  -0.914  1.00  0.00     0.274 C 
BRANCH  25  27
HETATM   27  C26 UNL     1       4.521   0.425   1.083  1.00  0.00     0.331 C 
BRANCH  27  28
HETATM   28  C27 UNL     1       5.970   0.437   1.320  1.00  0.00    -0.077 C 
HETATM   29  C28 UNL     1       7.167   0.439   1.538  1.00  0.00    -0.078 C 
BRANCH  29  30
HETATM   30  C29 UNL     1       8.613   0.461   1.803  1.00  0.00     0.323 C 
BRANCH  30  31
HETATM   31  N5  UNL     1       9.264   1.006   0.606  1.00  0.00    -0.069 N 
ATOM     32  H53 UNL     1       9.021   0.501  -0.246  1.00  0.00     0.275 HD
ATOM     33  H52 UNL     1       8.894   1.915   0.329  1.00  0.00     0.275 HD
ATOM     34  H51 UNL     1      10.267   1.021   0.790  1.00  0.00     0.275 HD
ENDBRANCH  30  31
ENDBRANCH  29  30
ENDBRANCH  27  28
ENDBRANCH  25  27
ENDBRANCH  17  20
ENDBRANCH  13  16
BRANCH   1  35
HETATM   35  C5  UNL     1      -3.608   0.559  -0.849  1.00  0.00     0.253 C 
BRANCH  35  36
HETATM   36  N1  UNL     1      -4.859   1.148  -0.572  1.00  0.00    -0.049 N 
HETATM   37  C1  UNL     1      -4.925   2.482  -0.092  1.00  0.00     0.278 C 
HETATM   38  C2  UNL     1      -5.483   1.272  -1.896  1.00  0.00     0.278 C 
BRANCH  36  39
HETATM   39  C3  UNL     1      -5.774   0.291   0.160  1.00  0.00     0.272 C 
BRANCH  39  40
HETATM   40  C4  UNL     1      -7.200   0.495   0.033  1.00  0.00     0.278 C 
HETATM   41  N2  UNL     1      -7.952   1.421  -0.702  1.00  0.00    -0.057 NA
HETATM   42  O1  UNL     1      -7.954  -0.311   0.713  1.00  0.00    -0.270 OA
ENDBRANCH  39  40
ENDBRANCH  36  39
ENDBRANCH  35  36
ENDBRANCH   1  35
TORSDOF 10
