REMARK  10 active torsions:
REMARK  status: ('A' for Active; 'I' for Inactive)
REMARK    1  A    between atoms: C3_3  and  C4_4 
REMARK    2  A    between atoms: C4_4  and  N1_5 
REMARK    3  A    between atoms: N1_5  and  C5_6 
REMARK       I    between atoms: N1_5  and  C8_13 
REMARK    4  A    between atoms: C5_6  and  C6_7 
REMARK    5  A    between atoms: C6_7  and  C7_8 
REMARK    6  A    between atoms: C7_8  and  N2_9 
REMARK    7  A    between atoms: C8_13  and  C9_15 
REMARK    8  A    between atoms: C10_16  and  C11_17 
REMARK    9  A    between atoms: C16_23  and  O3_24 
REMARK   10  A    between atoms: C24_36  and  N5_37 
ROOT
HETATM    1  C1  UNL     1       4.829  -0.249   3.727  1.00  0.00     0.112 C 
HETATM    2  C2  UNL     1       4.144  -0.947   2.621  1.00  0.00    -0.109 C 
HETATM    3  C3  UNL     1       3.580  -1.501   1.704  1.00  0.00    -0.087 C 
ENDROOT
BRANCH   3   4
HETATM    4  C4  UNL     1       2.903  -2.167   0.581  1.00  0.00     0.220 C 
BRANCH   4   5
HETATM    5  N1  UNL     1       3.124  -1.462  -0.650  1.00  0.00    -0.338 N 
HETATM    6  C8  UNL     1       2.293  -0.437  -1.084  1.00  0.00     0.249 C 
HETATM    7  O1  UNL     1       2.586   0.106  -2.177  1.00  0.00    -0.268 OA
BRANCH   5   8
HETATM    8  C5  UNL     1       4.269  -1.851  -1.460  1.00  0.00     0.129 C 
BRANCH   8   9
HETATM    9  C6  UNL     1       3.903  -2.935  -2.447  1.00  0.00     0.047 C 
BRANCH   9  10
HETATM   10  C7  UNL     1       5.122  -3.323  -3.286  1.00  0.00     0.231 C 
BRANCH  10  11
HETATM   11  N2  UNL     1       6.136  -3.801  -2.361  1.00  0.00    -0.079 N 
ATOM     12  H23 UNL     1       6.353  -3.132  -1.623  1.00  0.00     0.274 HD
ATOM     13  H22 UNL     1       5.806  -4.555  -1.759  1.00  0.00     0.274 HD
ATOM     14  H21 UNL     1       6.949  -4.060  -2.920  1.00  0.00     0.274 HD
ENDBRANCH  10  11
ENDBRANCH   9  10
ENDBRANCH   8   9
ENDBRANCH   5   8
BRANCH   6  15
HETATM   15  C9  UNL     1       1.139   0.007  -0.348  1.00  0.00     0.032 C 
HETATM   16  C10 UNL     1      -0.137  -0.760  -0.789  1.00  0.00     0.111 C 
HETATM   17  C12 UNL     1      -1.137  -0.071   0.046  1.00  0.00     0.045 C 
HETATM   18  C13 UNL     1      -2.540  -0.248  -0.184  1.00  0.00     0.039 C 
HETATM   19  N4  UNL     1      -0.916  -0.659   1.394  1.00  0.00    -0.390 N 
HETATM   20  C23 UNL     1      -0.649   1.381   0.199  1.00  0.00     0.070 C 
HETATM   21  C14 UNL     1      -3.362  -0.091  -1.372  1.00  0.00     0.025 A 
HETATM   22  C15 UNL     1      -4.453   0.835  -1.596  1.00  0.00     0.046 A 
HETATM   23  C16 UNL     1      -4.755  -0.532  -0.907  1.00  0.00     0.064 A 
HETATM   24  C17 UNL     1      -5.162  -0.357   0.485  1.00  0.00     0.066 C 
HETATM   25  C18 UNL     1      -4.973  -1.452   1.484  1.00  0.00     0.241 C 
HETATM   26  N3  UNL     1      -4.247  -1.096   2.684  1.00  0.00    -0.059 N 
HETATM   27  C19 UNL     1      -2.860  -1.486   2.728  1.00  0.00     0.281 C 
HETATM   28  C21 UNL     1      -4.554   0.163   3.254  1.00  0.00     0.266 A 
HETATM   29  C22 UNL     1      -5.002  -1.060   3.976  1.00  0.00     0.266 A 
HETATM   30  C20 UNL     1      -1.869  -0.391   2.393  1.00  0.00     0.084 C 
ATOM     31  H4  UNL     1      -0.099  -1.238   1.588  1.00  0.00     0.159 HD
HETATM   32  C24 UNL     1       0.836   1.368  -0.021  1.00  0.00     0.227 C 
BRANCH  16  33
HETATM   33  C11 UNL     1      -0.309  -0.778  -2.226  1.00  0.00     0.242 C 
HETATM   34  O2  UNL     1      -0.275  -1.757  -2.945  1.00  0.00    -0.306 OA
ENDBRANCH  16  33
BRANCH  23  35
HETATM   35  O3  UNL     1      -5.456  -1.463  -1.650  1.00  0.00    -0.389 OA
ATOM     36  H3  UNL     1      -6.319  -1.736  -1.362  1.00  0.00     0.210 HD
ENDBRANCH  23  35
BRANCH  32  37
HETATM   37  N5  UNL     1       1.265   2.534  -0.688  1.00  0.00    -0.063 N 
HETATM   38  C25 UNL     1       2.689   2.748  -0.710  1.00  0.00     0.273 C 
HETATM   39  C26 UNL     1       0.751   2.897  -1.935  1.00  0.00     0.238 C 
HETATM   40  C27 UNL     1       0.602   4.413  -2.016  1.00  0.00     0.029 C 
HETATM   41  C28 UNL     1       0.940   4.885  -0.649  1.00  0.00     0.029 C 
HETATM   42  C29 UNL     1       0.758   3.643   0.161  1.00  0.00     0.238 C 
ENDBRANCH  32  37
ENDBRANCH   6  15
ENDBRANCH   4   5
ENDBRANCH   3   4
TORSDOF 10
