REMARK  10 active torsions:
REMARK  status: ('A' for Active; 'I' for Inactive)
REMARK       I    between atoms: N1_2  and  C2_4 
REMARK    1  A    between atoms: C2_4  and  C3_6 
REMARK    2  A    between atoms: C3_6  and  N2_7 
REMARK    3  A    between atoms: N2_7  and  C4_8 
REMARK    4  A    between atoms: N2_7  and  N6_30 
REMARK    5  A    between atoms: C4_8  and  O2_9 
REMARK    6  A    between atoms: C4_8  and  C5_11 
REMARK    7  A    between atoms: C5_11  and  C7_13 
REMARK    8  A    between atoms: C5_11  and  C8_16 
REMARK    9  A    between atoms: C7_13  and  O3_14 
REMARK   10  A    between atoms: C8_16  and  C9_17 
REMARK       I    between atoms: C9_17  and  N3_19 
ROOT
HETATM    1  C4  UNL     1      -0.961  -1.455  -0.489  1.00  0.00     0.152 C 
ENDROOT
BRANCH   1   2
HETATM    2  N2  UNL     1      -2.125  -0.778  -0.197  1.00  0.00    -0.171 N 
BRANCH   2   3
HETATM    3  C3  UNL     1      -3.174  -1.621   0.529  1.00  0.00     0.143 C 
HETATM    4  C25 UNL     1      -4.547  -1.519   0.106  1.00  0.00     0.043 C 
HETATM    5  C26 UNL     1      -4.736  -2.993   0.052  1.00  0.00     0.006 C 
HETATM    6  C27 UNL     1      -3.238  -3.045  -0.072  1.00  0.00     0.043 C 
BRANCH   3   7
HETATM    7  C2  UNL     1      -2.843  -1.777   1.950  1.00  0.00     0.247 C 
HETATM    8  N1  UNL     1      -3.628  -2.359   2.971  1.00  0.00    -0.363 N 
HETATM    9  C1  UNL     1      -3.163  -2.455   4.360  1.00  0.00     0.149 C 
ATOM     10  H1  UNL     1      -4.550  -2.725   2.734  1.00  0.00     0.162 HD
HETATM   11  O1  UNL     1      -1.711  -1.350   2.391  1.00  0.00    -0.271 OA
ENDBRANCH   3   7
ENDBRANCH   2   3
BRANCH   2  12
HETATM   12  N6  UNL     1      -2.404   0.583  -0.383  1.00  0.00     0.018 N 
HETATM   13  C16 UNL     1      -2.680   0.981  -1.739  1.00  0.00     0.270 C 
HETATM   14  C17 UNL     1      -2.645   2.472  -1.930  1.00  0.00     0.015 C 
HETATM   15  C18 UNL     1      -1.446   3.170  -1.393  1.00  0.00     0.012 C 
HETATM   16  C22 UNL     1      -3.844   3.032  -1.146  1.00  0.00     0.012 C 
HETATM   17  C19 UNL     1      -1.352   2.825   0.046  1.00  0.00     0.015 C 
HETATM   18  C20 UNL     1      -2.538   3.285   0.880  1.00  0.00     0.012 C 
HETATM   19  C24 UNL     1      -1.324   1.341   0.209  1.00  0.00     0.270 C 
HETATM   20  C21 UNL     1      -3.689   2.558   0.312  1.00  0.00     0.015 C 
HETATM   21  C23 UNL     1      -3.614   1.039   0.324  1.00  0.00     0.270 C 
ENDBRANCH   2  12
ENDBRANCH   1   2
BRANCH   1  22
HETATM   22  O2  UNL     1      -0.975  -2.676   0.145  1.00  0.00    -0.348 OA
ATOM     23  H2  UNL     1      -0.172  -3.143  -0.056  1.00  0.00     0.219 HD
ENDBRANCH   1  22
BRANCH   1  24
HETATM   24  C5  UNL     1       0.326  -1.502  -1.174  1.00  0.00     0.052 C 
HETATM   25  C6  UNL     1       0.534  -3.033  -1.517  1.00  0.00     0.027 C 
BRANCH  24  26
HETATM   26  C7  UNL     1       0.667  -0.836  -2.397  1.00  0.00     0.182 C 
BRANCH  26  27
HETATM   27  O3  UNL     1       0.712   0.494  -2.607  1.00  0.00    -0.400 OA
ATOM     28  H3  UNL     1       0.938   0.935  -3.417  1.00  0.00     0.209 HD
ENDBRANCH  26  27
ENDBRANCH  24  26
BRANCH  24  29
HETATM   29  C8  UNL     1       1.467  -1.348  -0.137  1.00  0.00     0.123 C 
BRANCH  29  30
HETATM   30  C9  UNL     1       2.825  -1.405  -0.617  1.00  0.00     0.226 C 
HETATM   31  O4  UNL     1       3.158  -2.043  -1.632  1.00  0.00    -0.273 OA
HETATM   32  N3  UNL     1       3.932  -0.728   0.024  1.00  0.00    -0.305 N 
HETATM   33  C10 UNL     1       5.285  -0.802  -0.510  1.00  0.00     0.161 C 
HETATM   34  C15 UNL     1       3.781   0.047   1.201  1.00  0.00     0.106 C 
HETATM   35  C11 UNL     1       6.199  -0.125   0.455  1.00  0.00     0.257 C 
HETATM   36  N4  UNL     1       5.841   1.228   0.790  1.00  0.00    -0.067 N 
HETATM   37  C12 UNL     1       6.778   1.644   1.847  1.00  0.00     0.272 C 
HETATM   38  C13 UNL     1       6.117   2.067  -0.343  1.00  0.00     0.272 C 
HETATM   39  C14 UNL     1       4.480   1.377   1.215  1.00  0.00     0.312 C 
HETATM   40  N5  UNL     1       3.094  -0.369   2.193  1.00  0.00    -0.387 N 
ATOM     41  H52 UNL     1       2.619  -1.272   2.183  1.00  0.00     0.157 HD
ATOM     42  H51 UNL     1       2.985   0.189   3.040  1.00  0.00     0.157 HD
ENDBRANCH  29  30
ENDBRANCH  24  29
ENDBRANCH   1  24
TORSDOF 10
