REMARK  11 active torsions:
REMARK  status: ('A' for Active; 'I' for Inactive)
REMARK    1  A    between atoms: C2_2  and  C4_4 
REMARK    2  A    between atoms: C4_4  and  N1_5 
REMARK    3  A    between atoms: C4_4  and  C16_26 
REMARK       I    between atoms: N1_5  and  C5_7 
REMARK    4  A    between atoms: C5_7  and  C6_9 
REMARK    5  A    between atoms: C6_9  and  C7_10 
REMARK    6  A    between atoms: C7_10  and  N2_11 
REMARK       I    between atoms: C8_13  and  N3_14 
REMARK       I    between atoms: C8_13  and  N4_20 
REMARK    7  A    between atoms: N3_14  and  C9_16 
REMARK    8  A    between atoms: N4_20  and  N5_22 
REMARK    9  A    between atoms: C16_26  and  C17_28 
REMARK   10  A    between atoms: C17_28  and  O3_29 
REMARK   11  A    between atoms: C17_28  and  N6_31 
ROOT
HETATM    1  C4  UNL     1       1.889  -1.196  -1.027  1.00  0.00     0.166 C 
ENDROOT
BRANCH   1   2
HETATM    2  C2  UNL     1       1.930  -2.250  -2.085  1.00  0.00     0.008 C 
HETATM    3  C1  UNL     1       1.951  -1.692  -3.485  1.00  0.00     0.012 C 
HETATM    4  C3  UNL     1       3.058  -3.232  -1.910  1.00  0.00     0.012 C 
ENDBRANCH   1   2
BRANCH   1   5
HETATM    5  N1  UNL     1       0.651  -0.443  -1.279  1.00  0.00    -0.349 N 
HETATM    6  C5  UNL     1      -0.357  -0.341  -0.298  1.00  0.00     0.219 C 
HETATM    7  O1  UNL     1      -0.142  -0.933   0.816  1.00  0.00    -0.274 OA
ATOM      8  H1  UNL     1       0.519   0.014  -2.181  1.00  0.00     0.163 HD
BRANCH   6   9
HETATM    9  C6  UNL     1      -1.629   0.408  -0.494  1.00  0.00     0.123 C 
BRANCH   9  10
HETATM   10  C7  UNL     1      -2.432   0.300   0.779  1.00  0.00     0.147 C 
BRANCH  10  11
HETATM   11  N2  UNL     1      -3.689   0.978   0.755  1.00  0.00    -0.225 N 
HETATM   12  C8  UNL     1      -4.849   0.445   0.597  1.00  0.00     0.695 C 
HETATM   13  N3  UNL     1      -5.958   1.343   0.612  1.00  0.00    -0.217 N 
HETATM   14  N4  UNL     1      -5.041  -0.949   0.417  1.00  0.00    -0.049 N 
ATOM     15  H3  UNL     1      -6.663   1.260  -0.120  1.00  0.00     0.178 HD
ATOM     16  H4  UNL     1      -4.452  -1.605   0.930  1.00  0.00     0.212 HD
ATOM     17  H2  UNL     1      -3.664   1.991   0.876  1.00  0.00     0.177 HD
BRANCH  13  18
HETATM   18  C9  UNL     1      -6.125   2.369   1.625  1.00  0.00     0.036 C 
HETATM   19  C10 UNL     1      -5.010   3.370   1.616  1.00  0.00     0.038 C 
HETATM   20  C11 UNL     1      -6.110   1.706   3.011  1.00  0.00     0.038 C 
HETATM   21  C12 UNL     1      -7.462   3.036   1.472  1.00  0.00     0.038 C 
ENDBRANCH  13  18
BRANCH  14  22
HETATM   22  N5  UNL     1      -6.031  -1.447  -0.459  1.00  0.00     0.014 N 
HETATM   23  C13 UNL     1      -5.763  -2.865  -0.688  1.00  0.00     0.302 C 
HETATM   24  C14 UNL     1      -7.341  -1.370   0.164  1.00  0.00     0.302 C 
HETATM   25  C15 UNL     1      -6.004  -0.785  -1.736  1.00  0.00     0.302 C 
ENDBRANCH  14  22
ENDBRANCH  10  11
ENDBRANCH   9  10
ENDBRANCH   6   9
ENDBRANCH   1   5
BRANCH   1  26
HETATM   26  C16 UNL     1       3.060  -0.248  -1.084  1.00  0.00     0.224 C 
HETATM   27  O2  UNL     1       2.870   0.772  -1.763  1.00  0.00    -0.286 OA
BRANCH  26  28
HETATM   28  C17 UNL     1       4.284  -0.524  -0.397  1.00  0.00     0.207 C 
BRANCH  28  29
HETATM   29  O3  UNL     1       4.218  -1.534   0.456  1.00  0.00    -0.342 OA
ATOM     30  H3  UNL     1       5.031  -1.717   0.912  1.00  0.00     0.219 HD
ENDBRANCH  28  29
BRANCH  28  31
HETATM   31  N6  UNL     1       5.548   0.043  -0.412  1.00  0.00    -0.257 N 
HETATM   32  C18 UNL     1       6.486  -0.243   0.666  1.00  0.00     0.128 A 
HETATM   33  C19 UNL     1       6.583   1.148   1.373  1.00  0.00     0.044 A 
HETATM   34  C24 UNL     1       6.376  -0.072   2.073  1.00  0.00    -0.015 A 
HETATM   35  C20 UNL     1       7.752   1.794   0.813  1.00  0.00    -0.013 C 
HETATM   36  C21 UNL     1       7.866   2.147  -0.484  1.00  0.00     0.072 C 
HETATM   37  C22 UNL     1       6.860   1.953  -1.564  1.00  0.00     0.261 C 
HETATM   38  O4  UNL     1       6.783   2.760  -2.490  1.00  0.00    -0.267 OA
HETATM   39  N7  UNL     1       5.975   0.805  -1.513  1.00  0.00    -0.258 N 
HETATM   40  C23 UNL     1       5.527   0.387  -2.852  1.00  0.00     0.181 C 
HETATM   41  C25 UNL     1       5.134  -0.155   2.937  1.00  0.00     0.018 C 
HETATM   42  C26 UNL     1       7.599  -0.531   2.904  1.00  0.00     0.018 C 
ENDBRANCH  28  31
ENDBRANCH  26  28
ENDBRANCH   1  26
TORSDOF 11
