REMARK  11 active torsions:
REMARK  status: ('A' for Active; 'I' for Inactive)
REMARK    1  A    between atoms: C2_2  and  C3_3 
REMARK    2  A    between atoms: C3_3  and  C4_4 
REMARK    3  A    between atoms: C4_4  and  C5_5 
REMARK    4  A    between atoms: C12_17  and  C13_18 
REMARK    5  A    between atoms: C17_25  and  C18_26 
REMARK    6  A    between atoms: C18_26  and  C19_27 
REMARK    7  A    between atoms: C19_27  and  C20_28 
REMARK    8  A    between atoms: C24_34  and  C25_35 
REMARK    9  A    between atoms: C25_35  and  C26_36 
REMARK   10  A    between atoms: C26_36  and  C27_37 
REMARK   11  A    between atoms: C27_37  and  N5_38 
ROOT
HETATM    1  C5  UNL     1      -1.711   2.080   0.058  1.00  0.00     0.178 C 
HETATM    2  N1  UNL     1      -1.843   1.257  -1.128  1.00  0.00    -0.346 N 
ATOM      3  H1  UNL     1      -1.249   1.496  -1.922  1.00  0.00     0.163 HD
HETATM    4  C6  UNL     1      -2.706   0.166  -1.291  1.00  0.00     0.241 C 
HETATM    5  O1  UNL     1      -3.288   0.104  -2.431  1.00  0.00    -0.271 OA
HETATM    6  C7  UNL     1      -3.000  -0.879  -0.318  1.00  0.00     0.179 C 
HETATM    7  C8  UNL     1      -4.180  -0.504   0.603  1.00  0.00     0.037 C 
HETATM    8  C9  UNL     1      -5.269  -0.507  -0.446  1.00  0.00     0.022 C 
HETATM    9  C10 UNL     1      -4.924  -1.692  -1.283  1.00  0.00     0.127 C 
HETATM   10  N2  UNL     1      -3.578  -2.087  -0.850  1.00  0.00    -0.337 N 
HETATM   11  C11 UNL     1      -3.001  -3.367  -0.909  1.00  0.00     0.243 C 
HETATM   12  O2  UNL     1      -3.644  -4.391  -0.432  1.00  0.00    -0.271 OA
HETATM   13  C12 UNL     1      -1.689  -3.746  -1.469  1.00  0.00     0.180 C 
HETATM   14  N3  UNL     1      -0.923  -2.674  -2.037  1.00  0.00    -0.346 N 
ATOM     15  H3  UNL     1      -1.384  -2.172  -2.796  1.00  0.00     0.163 HD
HETATM   16  C16 UNL     1       0.356  -2.209  -1.715  1.00  0.00     0.241 C 
HETATM   17  O3  UNL     1       1.236  -2.184  -2.659  1.00  0.00    -0.271 OA
HETATM   18  C17 UNL     1       0.860  -1.722  -0.396  1.00  0.00     0.178 C 
HETATM   19  N4  UNL     1       2.270  -1.423  -0.449  1.00  0.00    -0.342 N 
HETATM   20  C22 UNL     1       3.209  -2.513  -0.269  1.00  0.00     0.153 C 
HETATM   21  C23 UNL     1       2.845  -0.145  -0.693  1.00  0.00     0.241 C 
HETATM   22  O4  UNL     1       4.023  -0.143  -1.240  1.00  0.00    -0.271 OA
HETATM   23  C24 UNL     1       2.318   1.172  -0.426  1.00  0.00     0.191 C 
HETATM   24  N8  UNL     1       1.427   1.322   0.688  1.00  0.00    -0.124 NA
HETATM   25  N9  UNL     1       0.749   2.532   0.687  1.00  0.00    -0.271 N 
ATOM     26  H9  UNL     1       1.164   3.277   1.246  1.00  0.00     0.185 HD
HETATM   27  C29 UNL     1      -0.429   2.856   0.017  1.00  0.00     0.256 C 
HETATM   28  O5  UNL     1      -0.426   3.915  -0.704  1.00  0.00    -0.270 OA
ENDROOT
BRANCH  23  29
HETATM   29  C25 UNL     1       3.460   2.151  -0.187  1.00  0.00     0.034 C 
BRANCH  29  30
HETATM   30  C26 UNL     1       4.326   1.798   0.974  1.00  0.00     0.022 C 
BRANCH  30  31
HETATM   31  C27 UNL     1       5.413   2.871   1.074  1.00  0.00     0.122 C 
BRANCH  31  32
HETATM   32  N5  UNL     1       6.207   2.921  -0.122  1.00  0.00    -0.367 N 
HETATM   33  C28 UNL     1       6.400   4.030  -0.749  1.00  0.00     0.196 C 
HETATM   34  N6  UNL     1       5.829   5.241  -0.270  1.00  0.00    -0.067 NA
HETATM   35  N7  UNL     1       7.182   4.089  -1.931  1.00  0.00    -0.067 NA
ATOM     36  H5  UNL     1       6.626   2.063  -0.481  1.00  0.00     0.161 HD
ENDBRANCH  31  32
ENDBRANCH  30  31
ENDBRANCH  29  30
ENDBRANCH  23  29
BRANCH  18  37
HETATM   37  C18 UNL     1       0.576  -2.687   0.732  1.00  0.00     0.035 C 
BRANCH  37  38
HETATM   38  C19 UNL     1       1.113  -2.145   2.038  1.00  0.00     0.002 C 
BRANCH  38  39
HETATM   39  C20 UNL     1       0.821  -3.133   3.179  1.00  0.00    -0.004 C 
HETATM   40  C21 UNL     1       1.356  -2.592   4.487  1.00  0.00     0.005 C 
ENDBRANCH  38  39
ENDBRANCH  37  38
ENDBRANCH  18  37
BRANCH   1  41
HETATM   41  C4  UNL     1      -2.865   3.096  -0.022  1.00  0.00     0.035 C 
BRANCH  41  42
HETATM   42  C3  UNL     1      -2.731   3.960   1.230  1.00  0.00     0.002 C 
BRANCH  42  43
HETATM   43  C2  UNL     1      -3.864   4.987   1.189  1.00  0.00    -0.004 C 
HETATM   44  C1  UNL     1      -3.794   5.885   2.410  1.00  0.00     0.005 C 
ENDBRANCH  42  43
ENDBRANCH  41  42
ENDBRANCH   1  41
BRANCH  13  45
HETATM   45  C13 UNL     1      -1.881  -4.752  -2.611  1.00  0.00     0.009 C 
HETATM   46  C14 UNL     1      -0.507  -5.102  -3.140  1.00  0.00     0.012 C 
HETATM   47  C15 UNL     1      -2.563  -6.003  -2.184  1.00  0.00     0.012 C 
ENDBRANCH  13  45
TORSDOF 11
