REMARK  16 active torsions:
REMARK  status: ('A' for Active; 'I' for Inactive)
REMARK    1  A    between atoms: C2_2  and  C4_4 
REMARK    2  A    between atoms: C4_4  and  C5_5 
REMARK    3  A    between atoms: N2_12  and  C9_13 
REMARK    4  A    between atoms: C9_13  and  C10_14 
REMARK    5  A    between atoms: C13_17  and  O2_18 
REMARK    6  A    between atoms: C14_20  and  C15_21 
REMARK    7  A    between atoms: C15_21  and  C16_22 
REMARK    8  A    between atoms: C16_22  and  C17_23 
REMARK    9  A    between atoms: C17_23  and  C18_24 
REMARK   10  A    between atoms: C18_24  and  N3_25 
REMARK   11  A    between atoms: C19_31  and  O3_32 
REMARK   12  A    between atoms: N5_34  and  C20_35 
REMARK   13  A    between atoms: C20_35  and  C22_37 
REMARK   14  A    between atoms: C24_42  and  C25_43 
REMARK   15  A    between atoms: C25_43  and  C26_44 
REMARK   16  A    between atoms: C29_49  and  O6_50 
ROOT
HETATM    1  C5  UNL     1      -1.321   2.423  -0.372  1.00  0.00     0.159 C 
HETATM    2  N1  UNL     1      -0.680   1.807   0.745  1.00  0.00    -0.347 N 
ATOM      3  H1  UNL     1      -1.287   1.215   1.312  1.00  0.00     0.163 HD
HETATM    4  C6  UNL     1       0.629   1.881   1.184  1.00  0.00     0.241 C 
HETATM    5  O1  UNL     1       0.880   1.573   2.396  1.00  0.00    -0.271 OA
HETATM    6  C7  UNL     1       1.800   2.292   0.370  1.00  0.00     0.178 C 
HETATM    7  C8  UNL     1       3.029   2.459   1.184  1.00  0.00     0.043 C 
HETATM    8  N2  UNL     1       1.942   1.540  -0.843  1.00  0.00    -0.330 N 
HETATM    9  C13 UNL     1       1.530   0.200  -1.083  1.00  0.00     0.141 C 
HETATM   10  C14 UNL     1       1.710  -1.070  -0.407  1.00  0.00     0.160 C 
HETATM   11  N4  UNL     1       0.548  -1.680   0.170  1.00  0.00    -0.344 N 
ATOM     12  H4  UNL     1       0.377  -1.373   1.127  1.00  0.00     0.164 HD
HETATM   13  C19 UNL     1      -0.401  -2.597  -0.278  1.00  0.00     0.223 C 
HETATM   14  N5  UNL     1      -1.453  -2.480  -1.248  1.00  0.00    -0.265 N 
HETATM   15  C23 UNL     1      -2.353  -1.362  -1.324  1.00  0.00     0.274 C 
HETATM   16  O5  UNL     1      -2.421  -0.861  -2.515  1.00  0.00    -0.266 OA
HETATM   17  C24 UNL     1      -3.184  -0.696  -0.359  1.00  0.00     0.080 C 
HETATM   18  N7  UNL     1      -3.322   0.732  -0.424  1.00  0.00    -0.338 N 
ATOM     19  H7  UNL     1      -4.218   1.047  -0.052  1.00  0.00     0.167 HD
HETATM   20  C29 UNL     1      -2.550   1.780  -0.862  1.00  0.00     0.139 C 
ENDROOT
BRANCH  10  21
HETATM   21  C15 UNL     1       2.865  -1.119   0.611  1.00  0.00     0.034 C 
BRANCH  21  22
HETATM   22  C16 UNL     1       2.856  -2.564   1.159  1.00  0.00     0.004 C 
BRANCH  22  23
HETATM   23  C17 UNL     1       3.933  -2.778   2.171  1.00  0.00     0.027 C 
BRANCH  23  24
HETATM   24  C18 UNL     1       3.802  -1.864   3.372  1.00  0.00     0.229 C 
BRANCH  24  25
HETATM   25  N3  UNL     1       4.891  -2.141   4.317  1.00  0.00    -0.079 N 
ATOM     26  H33 UNL     1       4.930  -3.125   4.583  1.00  0.00     0.274 HD
ATOM     27  H32 UNL     1       5.809  -2.073   3.878  1.00  0.00     0.274 HD
ATOM     28  H31 UNL     1       4.803  -1.526   5.126  1.00  0.00     0.274 HD
ENDBRANCH  24  25
ENDBRANCH  23  24
ENDBRANCH  22  23
ENDBRANCH  21  22
ENDBRANCH  10  21
BRANCH   9  29
HETATM   29  O2  UNL     1       0.819   0.132  -2.195  1.00  0.00    -0.348 OA
ATOM     30  H2  UNL     1       0.544  -0.763  -2.355  1.00  0.00     0.219 HD
ENDBRANCH   9  29
BRANCH   8  31
HETATM   31  C9  UNL     1       2.423   2.279  -2.007  1.00  0.00     0.070 C 
BRANCH  31  32
HETATM   32  C10 UNL     1       3.782   2.166  -2.481  1.00  0.00     0.016 C 
HETATM   33  C11 UNL     1       3.865   3.066  -3.765  1.00  0.00     0.015 C 
HETATM   34  C12 UNL     1       4.888   2.715  -1.630  1.00  0.00     0.015 C 
ENDBRANCH  31  32
ENDBRANCH   8  31
BRANCH  13  35
HETATM   35  O3  UNL     1      -0.382  -3.808   0.252  1.00  0.00    -0.332 OA
ATOM     36  H3  UNL     1      -1.029  -4.433  -0.053  1.00  0.00     0.220 HD
ENDBRANCH  13  35
BRANCH  14  37
HETATM   37  C20 UNL     1      -1.584  -3.590  -2.184  1.00  0.00     0.181 C 
HETATM   38  C21 UNL     1      -1.815  -4.929  -1.529  1.00  0.00     0.042 C 
BRANCH  37  39
HETATM   39  C22 UNL     1      -0.460  -3.790  -3.120  1.00  0.00     0.254 C 
HETATM   40  N6  UNL     1      -0.468  -4.873  -4.063  1.00  0.00    -0.060 NA
HETATM   41  O4  UNL     1       0.517  -3.041  -3.125  1.00  0.00    -0.275 OA
ENDBRANCH  37  39
ENDBRANCH  14  37
BRANCH  17  42
HETATM   42  C25 UNL     1      -3.296  -1.169   1.034  1.00  0.00     0.067 C 
BRANCH  42  43
HETATM   43  C26 UNL     1      -3.868  -2.548   1.195  1.00  0.00    -0.017 C 
HETATM   44  C27 UNL     1      -5.262  -2.582   0.603  1.00  0.00     0.010 C 
HETATM   45  C28 UNL     1      -4.050  -2.834   2.698  1.00  0.00     0.010 C 
ENDBRANCH  42  43
ENDBRANCH  17  42
BRANCH   1  46
HETATM   46  C4  UNL     1      -1.495   3.893  -0.057  1.00  0.00     0.037 C 
BRANCH  46  47
HETATM   47  C2  UNL     1      -2.270   4.241   1.149  1.00  0.00    -0.020 C 
HETATM   48  C1  UNL     1      -2.267   5.788   1.234  1.00  0.00     0.009 C 
HETATM   49  C3  UNL     1      -3.708   3.801   1.176  1.00  0.00     0.009 C 
ENDBRANCH  46  47
ENDBRANCH   1  46
BRANCH  20  50
HETATM   50  O6  UNL     1      -2.962   2.367  -1.951  1.00  0.00    -0.348 OA
ATOM     51  H6  UNL     1      -3.756   1.952  -2.267  1.00  0.00     0.219 HD
ENDBRANCH  20  50
TORSDOF 16
