REMARK  13 active torsions:
REMARK  status: ('A' for Active; 'I' for Inactive)
REMARK    1  A    between atoms: C3_3  and  C4_4 
REMARK    2  A    between atoms: C4_4  and  C5_5 
REMARK    3  A    between atoms: C5_5  and  N1_6 
REMARK    4  A    between atoms: C8_9  and  C9_10 
REMARK       I    between atoms: C9_10  and  N2_12 
REMARK    5  A    between atoms: N2_12  and  C10_14 
REMARK    6  A    between atoms: C10_14  and  C11_15 
REMARK    7  A    between atoms: C10_14  and  C19_28 
REMARK    8  A    between atoms: C12_16  and  C13_17 
REMARK       I    between atoms: C13_17  and  N3_19 
REMARK       I    between atoms: N3_19  and  C14_21 
REMARK    9  A    between atoms: C14_21  and  C15_23 
REMARK   10  A    between atoms: C15_23  and  N4_24 
REMARK   11  A    between atoms: C19_28  and  C20_29 
REMARK   12  A    between atoms: C20_29  and  C21_30 
REMARK   13  A    between atoms: C21_30  and  N5_31 
ROOT
HETATM    1  C1  UNL     1      -7.152  -3.029   3.190  1.00  0.00     0.012 C 
HETATM    2  C2  UNL     1      -7.327  -2.731   2.037  1.00  0.00    -0.117 C 
HETATM    3  C3  UNL     1      -7.518  -2.366   0.615  1.00  0.00     0.095 C 
ENDROOT
BRANCH   3   4
HETATM    4  C4  UNL     1      -7.165  -3.495  -0.282  1.00  0.00     0.034 C 
BRANCH   4   5
HETATM    5  C5  UNL     1      -5.737  -3.956  -0.195  1.00  0.00     0.149 C 
BRANCH   5   6
HETATM    6  N1  UNL     1      -4.851  -2.868  -0.570  1.00  0.00    -0.303 N 
HETATM    7  C6  UNL     1      -4.431  -2.598  -1.829  1.00  0.00     0.112 A 
HETATM    8  C7  UNL     1      -3.613  -1.513  -1.737  1.00  0.00     0.055 A 
HETATM    9  C8  UNL     1      -3.526  -1.113  -0.419  1.00  0.00     0.117 A 
HETATM   10  N8  UNL     1      -4.321  -1.999   0.258  1.00  0.00    -0.294 N 
ATOM     11  H8  UNL     1      -4.479  -1.985   1.266  1.00  0.00     0.187 HD
BRANCH   9  12
HETATM   12  C9  UNL     1      -2.775  -0.011   0.155  1.00  0.00     0.270 C 
HETATM   13  O1  UNL     1      -2.827   0.191   1.388  1.00  0.00    -0.266 OA
HETATM   14  N2  UNL     1      -2.007   0.812  -0.654  1.00  0.00    -0.341 N 
ATOM     15  H2  UNL     1      -1.974   0.636  -1.658  1.00  0.00     0.164 HD
BRANCH  14  16
HETATM   16  C10 UNL     1      -1.228   1.950  -0.086  1.00  0.00     0.165 C 
BRANCH  16  17
HETATM   17  C11 UNL     1       0.180   1.542  -0.423  1.00  0.00    -0.071 C 
HETATM   18  C12 UNL     1       1.316   1.164  -0.712  1.00  0.00    -0.003 C 
BRANCH  18  19
HETATM   19  C13 UNL     1       2.630   0.704  -1.037  1.00  0.00     0.303 C 
HETATM   20  O2  UNL     1       3.278   1.272  -1.950  1.00  0.00    -0.258 OA
HETATM   21  N3  UNL     1       3.257  -0.387  -0.369  1.00  0.00    -0.285 N 
HETATM   22  C14 UNL     1       4.536  -0.841  -0.680  1.00  0.00     0.251 C 
ATOM     23  H3  UNL     1       2.743  -0.859   0.375  1.00  0.00     0.172 HD
HETATM   24  O3  UNL     1       5.205  -0.295  -1.583  1.00  0.00    -0.271 OA
BRANCH  22  25
HETATM   25  C15 UNL     1       5.127  -1.979   0.054  1.00  0.00     0.338 C 
BRANCH  25  26
HETATM   26  N4  UNL     1       6.464  -2.295  -0.420  1.00  0.00    -0.070 N 
HETATM   27  C16 UNL     1       7.349  -1.175  -0.211  1.00  0.00     0.272 C 
HETATM   28  C17 UNL     1       6.940  -3.403   0.413  1.00  0.00     0.272 C 
HETATM   29  C18 UNL     1       6.352  -2.689  -1.798  1.00  0.00     0.272 C 
ENDBRANCH  25  26
ENDBRANCH  22  25
ENDBRANCH  18  19
ENDBRANCH  16  17
BRANCH  16  30
HETATM   30  C19 UNL     1      -1.551   3.190  -0.808  1.00  0.00     0.039 C 
BRANCH  30  31
HETATM   31  C20 UNL     1      -0.931   4.422  -0.274  1.00  0.00     0.023 C 
BRANCH  31  32
HETATM   32  C21 UNL     1       0.539   4.460  -0.203  1.00  0.00     0.122 C 
BRANCH  32  33
HETATM   33  N5  UNL     1       0.882   5.827   0.268  1.00  0.00    -0.367 N 
HETATM   34  C22 UNL     1       0.924   6.045   1.526  1.00  0.00     0.196 C 
HETATM   35  N6  UNL     1       0.649   5.000   2.432  1.00  0.00    -0.067 NA
HETATM   36  N7  UNL     1       1.251   7.354   2.007  1.00  0.00    -0.067 NA
ATOM     37  H5  UNL     1       1.079   6.574  -0.398  1.00  0.00     0.161 HD
ENDBRANCH  32  33
ENDBRANCH  31  32
ENDBRANCH  30  31
ENDBRANCH  16  30
ENDBRANCH  14  16
ENDBRANCH   9  12
ENDBRANCH   5   6
ENDBRANCH   4   5
ENDBRANCH   3   4
TORSDOF 13
