REMARK  12 active torsions:
REMARK  status: ('A' for Active; 'I' for Inactive)
REMARK       I    between atoms: C2_2  and  N1_4 
REMARK    1  A    between atoms: N1_4  and  C3_6 
REMARK    2  A    between atoms: C3_6  and  C4_7 
REMARK    3  A    between atoms: C3_6  and  C8_21 
REMARK    4  A    between atoms: C4_7  and  C5_8 
REMARK    5  A    between atoms: C5_8  and  C6_9 
REMARK    6  A    between atoms: C6_9  and  N2_10 
REMARK       I    between atoms: C7_12  and  N4_14 
REMARK    7  A    between atoms: N4_14  and  N5_16 
REMARK       I    between atoms: C8_21  and  N7_23 
REMARK    8  A    between atoms: N7_23  and  C9_25 
REMARK    9  A    between atoms: C9_25  and  C10_26 
REMARK   10  A    between atoms: N8_30  and  C14_31 
REMARK   11  A    between atoms: C14_31  and  C15_32 
REMARK   12  A    between atoms: C15_32  and  C16_33 
ROOT
HETATM    1  C3  UNL     1      -3.015  -1.280  -0.953  1.00  0.00     0.176 C 
ENDROOT
BRANCH   1   2
HETATM    2  N1  UNL     1      -3.778  -2.404  -0.462  1.00  0.00    -0.348 N 
HETATM    3  C2  UNL     1      -3.348  -3.379   0.445  1.00  0.00     0.214 C 
HETATM    4  C1  UNL     1      -4.247  -4.500   0.869  1.00  0.00     0.117 C 
HETATM    5  O1  UNL     1      -2.200  -3.350   0.932  1.00  0.00    -0.274 OA
ATOM      6  H1  UNL     1      -4.731  -2.497  -0.814  1.00  0.00     0.163 HD
ENDBRANCH   1   2
BRANCH   1   7
HETATM    7  C4  UNL     1      -2.613  -0.387   0.165  1.00  0.00     0.036 C 
BRANCH   7   8
HETATM    8  C5  UNL     1      -3.808   0.169   0.923  1.00  0.00     0.022 C 
BRANCH   8   9
HETATM    9  C6  UNL     1      -4.700   0.983   0.011  1.00  0.00     0.122 C 
BRANCH   9  10
HETATM   10  N2  UNL     1      -5.835   1.500   0.742  1.00  0.00    -0.363 N 
HETATM   11  C7  UNL     1      -6.535   2.501   0.291  1.00  0.00     0.204 C 
HETATM   12  N3  UNL     1      -6.183   3.106  -0.947  1.00  0.00    -0.062 NA
HETATM   13  N4  UNL     1      -7.641   2.996   1.012  1.00  0.00    -0.260 N 
ATOM     14  H4  UNL     1      -8.459   2.406   1.160  1.00  0.00     0.191 HD
ATOM     15  H2  UNL     1      -6.093   1.071   1.631  1.00  0.00     0.162 HD
BRANCH  13  16
HETATM   16  N5  UNL     1      -7.615   4.283   1.518  1.00  0.00    -0.247 N 
HETATM   17  N6  UNL     1      -6.821   5.141   1.026  1.00  0.00    -0.331 N 
ATOM     18  H62 UNL     1      -6.209   4.866   0.258  1.00  0.00     0.178 HD
ATOM     19  H61 UNL     1      -6.802   6.090   1.399  1.00  0.00     0.178 HD
ATOM     20  H5  UNL     1      -8.234   4.542   2.286  1.00  0.00     0.207 HD
ENDBRANCH  13  16
ENDBRANCH   9  10
ENDBRANCH   8   9
ENDBRANCH   7   8
ENDBRANCH   1   7
BRANCH   1  21
HETATM   21  C8  UNL     1      -1.768  -1.751  -1.649  1.00  0.00     0.240 C 
HETATM   22  O2  UNL     1      -1.501  -2.964  -1.771  1.00  0.00    -0.271 OA
HETATM   23  N7  UNL     1      -0.868  -0.797  -2.183  1.00  0.00    -0.355 N 
ATOM     24  H7  UNL     1      -1.071   0.199  -2.094  1.00  0.00     0.162 HD
BRANCH  23  25
HETATM   25  C9  UNL     1       0.325  -1.224  -2.846  1.00  0.00     0.162 C 
BRANCH  25  26
HETATM   26  C10 UNL     1       1.407  -1.660  -1.914  1.00  0.00    -0.025 A 
HETATM   27  C11 UNL     1       1.719  -2.991  -1.754  1.00  0.00     0.011 A 
HETATM   28  C12 UNL     1       2.743  -3.327  -0.859  1.00  0.00     0.018 A 
HETATM   29  C13 UNL     1       3.413  -2.350  -0.165  1.00  0.00     0.090 A 
HETATM   30  N8  UNL     1       3.110  -1.049  -0.320  1.00  0.00    -0.365 N 
HETATM   31  C22 UNL     1       2.130  -0.734  -1.176  1.00  0.00     0.099 A 
BRANCH  30  32
HETATM   32  C14 UNL     1       3.842  -0.031   0.431  1.00  0.00     0.133 C 
BRANCH  32  33
HETATM   33  C15 UNL     1       5.052   0.443  -0.325  1.00  0.00     0.077 C 
BRANCH  33  34
HETATM   34  C16 UNL     1       5.738   1.474   0.494  1.00  0.00     0.012 A 
HETATM   35  C17 UNL     1       5.388   2.825   0.358  1.00  0.00     0.025 A 
HETATM   36  C18 UNL     1       5.993   3.806   1.088  1.00  0.00     0.003 A 
HETATM   37  C19 UNL     1       6.978   3.406   1.978  1.00  0.00     0.017 A 
HETATM   38  C20 UNL     1       7.333   2.096   2.125  1.00  0.00     0.090 A 
HETATM   39  N9  UNL     1       6.690   1.168   1.366  1.00  0.00    -0.364 N 
HETATM   40  C21 UNL     1       7.083  -0.214   1.535  1.00  0.00     0.155 C 
ENDBRANCH  33  34
ENDBRANCH  32  33
ENDBRANCH  30  32
ENDBRANCH  25  26
ENDBRANCH  23  25
ENDBRANCH   1  21
TORSDOF 12
