REMARK  11 active torsions:
REMARK  status: ('A' for Active; 'I' for Inactive)
REMARK    1  A    between atoms: C2_2  and  N1_3 
REMARK       I    between atoms: N1_3  and  C3_4 
REMARK    2  A    between atoms: N1_3  and  C5_14 
REMARK    3  A    between atoms: C3_4  and  C4_6 
REMARK    4  A    between atoms: C4_6  and  N2_7 
REMARK    5  A    between atoms: N2_7  and  N3_9 
REMARK    6  A    between atoms: C5_14  and  C7_16 
REMARK       I    between atoms: C7_16  and  N5_18 
REMARK    7  A    between atoms: N5_18  and  C8_20 
REMARK    8  A    between atoms: N6_22  and  C10_23 
REMARK    9  A    between atoms: C10_23  and  C11_24 
REMARK   10  A    between atoms: C11_24  and  C12_25 
REMARK   11  A    between atoms: C18_38  and  C19_39 
ROOT
HETATM    1  C8  UNL     1      -0.075   0.907  -0.528  1.00  0.00     0.141 C 
HETATM    2  C9  UNL     1       1.311   0.743  -0.057  1.00  0.00     0.156 C 
HETATM    3  N6  UNL     1       1.958  -0.233  -0.913  1.00  0.00    -0.346 N 
HETATM    4  C16 UNL     1       0.982  -0.659  -1.896  1.00  0.00     0.251 C 
HETATM    5  O3  UNL     1       0.996  -1.710  -2.552  1.00  0.00    -0.268 OA
HETATM    6  C17 UNL     1      -0.013   0.402  -1.952  1.00  0.00     0.031 C 
HETATM    7  C18 UNL     1      -0.693   0.846  -2.975  1.00  0.00    -0.007 C 
ENDROOT
BRANCH   1   8
HETATM    8  N5  UNL     1      -1.076   0.172   0.211  1.00  0.00    -0.349 N 
HETATM    9  C7  UNL     1      -2.336   0.743   0.517  1.00  0.00     0.240 C 
HETATM   10  O2  UNL     1      -2.616   1.913   0.151  1.00  0.00    -0.271 OA
ATOM     11  H5  UNL     1      -0.871  -0.779   0.519  1.00  0.00     0.163 HD
BRANCH   9  12
HETATM   12  C5  UNL     1      -3.315  -0.111   1.290  1.00  0.00     0.175 C 
HETATM   13  C6  UNL     1      -2.661  -0.622   2.514  1.00  0.00     0.042 C 
BRANCH  12  14
HETATM   14  N1  UNL     1      -4.557   0.589   1.516  1.00  0.00    -0.338 N 
HETATM   15  C3  UNL     1      -4.738   1.673   2.398  1.00  0.00     0.239 C 
HETATM   16  O1  UNL     1      -5.867   2.283   2.402  1.00  0.00    -0.271 OA
BRANCH  14  17
HETATM   17  C2  UNL     1      -5.731   0.187   0.725  1.00  0.00     0.122 C 
HETATM   18  C1  UNL     1      -6.537  -0.857   1.487  1.00  0.00     0.026 C 
ENDBRANCH  14  17
BRANCH  15  19
HETATM   19  C4  UNL     1      -3.719   2.176   3.341  1.00  0.00     0.243 C 
BRANCH  19  20
HETATM   20  N2  UNL     1      -4.226   3.319   4.099  1.00  0.00    -0.314 N 
ATOM     21  H2  UNL     1      -3.717   4.202   4.061  1.00  0.00     0.182 HD
BRANCH  20  22
HETATM   22  N3  UNL     1      -5.383   3.239   4.872  1.00  0.00    -0.253 N 
HETATM   23  N4  UNL     1      -6.255   4.150   4.739  1.00  0.00    -0.331 N 
ATOM     24  H42 UNL     1      -6.099   4.913   4.080  1.00  0.00     0.178 HD
ATOM     25  H41 UNL     1      -7.102   4.091   5.305  1.00  0.00     0.178 HD
ATOM     26  H3  UNL     1      -5.524   2.469   5.526  1.00  0.00     0.207 HD
ENDBRANCH  20  22
ENDBRANCH  19  20
ENDBRANCH  15  19
ENDBRANCH  12  14
ENDBRANCH   9  12
ENDBRANCH   1   8
BRANCH   3  27
HETATM   27  C10 UNL     1       3.316  -0.658  -0.799  1.00  0.00     0.132 C 
BRANCH  27  28
HETATM   28  C11 UNL     1       3.532  -1.888   0.054  1.00  0.00     0.079 C 
BRANCH  28  29
HETATM   29  C12 UNL     1       4.975  -2.237   0.097  1.00  0.00     0.044 A 
HETATM   30  C13 UNL     1       5.529  -3.307   0.738  1.00  0.00     0.131 A 
HETATM   31  N7  UNL     1       6.876  -3.280   0.548  1.00  0.00    -0.200 N 
HETATM   32  C14 UNL     1       7.158  -2.187  -0.215  1.00  0.00     0.677 A 
ATOM     33  H7  UNL     1       7.551  -3.954   0.910  1.00  0.00     0.183 HD
HETATM   34  N8  UNL     1       8.353  -1.826  -0.600  1.00  0.00    -0.230 N 
HETATM   35  N9  UNL     1       5.986  -1.577  -0.471  1.00  0.00    -0.194 N 
HETATM   36  C15 UNL     1       8.476  -0.632  -1.410  1.00  0.00     0.165 C 
ATOM     37  H8  UNL     1       9.175  -2.369  -0.338  1.00  0.00     0.177 HD
ATOM     38  H9  UNL     1       5.884  -0.726  -1.024  1.00  0.00     0.184 HD
ENDBRANCH  28  29
ENDBRANCH  27  28
ENDBRANCH   3  27
BRANCH   7  39
HETATM   39  C19 UNL     1      -0.612   0.329  -4.359  1.00  0.00     0.009 A 
HETATM   40  C20 UNL     1       0.651   0.094  -5.058  1.00  0.00     0.009 A 
HETATM   41  C21 UNL     1      -0.129   1.364  -5.359  1.00  0.00     0.009 A 
ENDBRANCH   7  39
TORSDOF 11
