REMARK  12 active torsions:
REMARK  status: ('A' for Active; 'I' for Inactive)
REMARK    1  A    between atoms: C3_3  and  C17_29 
REMARK    2  A    between atoms: C4_4  and  C5_5 
REMARK       I    between atoms: C5_5  and  N1_7 
REMARK    3  A    between atoms: N1_7  and  C6_9 
REMARK    4  A    between atoms: C6_9  and  C7_10 
REMARK    5  A    between atoms: C6_9  and  C8_18 
REMARK    6  A    between atoms: C7_10  and  N2_11 
REMARK    7  A    between atoms: N2_11  and  N3_13 
REMARK    8  A    between atoms: C8_18  and  C9_19 
REMARK    9  A    between atoms: C17_29  and  O2_30 
REMARK   10  A    between atoms: C17_29  and  C18_32 
REMARK   11  A    between atoms: C18_32  and  S1_33 
REMARK   12  A    between atoms: C20_35  and  C21_36 
ROOT
HETATM    1  C1  UNL     1      -0.253  -1.970  -0.350  1.00  0.00     0.017 C 
HETATM    2  C2  UNL     1       0.534  -1.266   0.252  1.00  0.00    -0.079 C 
HETATM    3  C3  UNL     1       1.491  -0.476   0.955  1.00  0.00     0.029 C 
HETATM    4  C4  UNL     1       1.442   0.744   1.363  1.00  0.00     0.092 C 
ENDROOT
BRANCH   3   5
HETATM    5  C17 UNL     1       2.781  -1.258   1.243  1.00  0.00     0.170 C 
BRANCH   5   6
HETATM    6  O2  UNL     1       3.635  -0.436   1.936  1.00  0.00    -0.389 OA
ATOM      7  H2  UNL     1       4.433  -0.920   2.114  1.00  0.00     0.210 HD
ENDBRANCH   5   6
BRANCH   5   8
HETATM    8  C18 UNL     1       3.314  -1.611  -0.129  1.00  0.00     0.129 C 
BRANCH   8   9
HETATM    9  S1  UNL     1       4.806  -2.519  -0.024  1.00  0.00    -0.082 SA
HETATM   10  C19 UNL     1       4.733  -4.067   0.830  1.00  0.00     0.134 C 
HETATM   11  C20 UNL     1       5.736  -4.431  -0.271  1.00  0.00     0.236 C 
HETATM   12  O4  UNL     1       4.910  -3.747  -1.159  1.00  0.00    -0.316 OA
BRANCH  11  13
HETATM   13  C21 UNL     1       7.018  -3.740  -0.086  1.00  0.00     0.262 C 
HETATM   14  N6  UNL     1       7.372  -2.532  -0.740  1.00  0.00    -0.060 NA
HETATM   15  O3  UNL     1       7.861  -4.252   0.705  1.00  0.00    -0.274 OA
ENDBRANCH  11  13
ENDBRANCH   8   9
ENDBRANCH   5   8
ENDBRANCH   3   5
BRANCH   4  16
HETATM   16  C5  UNL     1       0.428   1.767   1.273  1.00  0.00     0.242 C 
HETATM   17  O1  UNL     1       0.754   2.909   1.796  1.00  0.00    -0.269 OA
HETATM   18  N1  UNL     1      -0.828   1.698   0.716  1.00  0.00    -0.351 N 
ATOM     19  H1  UNL     1      -1.069   0.785   0.330  1.00  0.00     0.163 HD
BRANCH  18  20
HETATM   20  C6  UNL     1      -1.846   2.679   0.586  1.00  0.00     0.108 C 
BRANCH  20  21
HETATM   21  C7  UNL     1      -1.467   4.115   0.783  1.00  0.00     0.166 C 
BRANCH  21  22
HETATM   22  N2  UNL     1      -0.515   4.581  -0.178  1.00  0.00    -0.321 N 
ATOM     23  H2  UNL     1       0.360   5.025   0.102  1.00  0.00     0.181 HD
BRANCH  22  24
HETATM   24  N3  UNL     1      -0.855   4.391  -1.536  1.00  0.00    -0.254 N 
HETATM   25  N4  UNL     1       0.063   4.203  -2.379  1.00  0.00    -0.331 N 
ATOM     26  H42 UNL     1       1.034   4.191  -2.068  1.00  0.00     0.178 HD
ATOM     27  H41 UNL     1      -0.182   4.066  -3.359  1.00  0.00     0.178 HD
ATOM     28  H3  UNL     1      -1.831   4.406  -1.831  1.00  0.00     0.207 HD
ENDBRANCH  22  24
ENDBRANCH  21  22
ENDBRANCH  20  21
BRANCH  20  29
HETATM   29  C8  UNL     1      -3.078   2.373   1.393  1.00  0.00     0.067 C 
BRANCH  29  30
HETATM   30  C9  UNL     1      -3.680   1.090   0.984  1.00  0.00    -0.028 A 
HETATM   31  C10 UNL     1      -3.547  -0.075   1.717  1.00  0.00     0.096 A 
HETATM   32  N5  UNL     1      -4.202  -1.051   1.087  1.00  0.00    -0.365 N 
HETATM   33  C11 UNL     1      -4.755  -0.560  -0.030  1.00  0.00     0.042 A 
ATOM     34  H5  UNL     1      -4.271  -2.018   1.405  1.00  0.00     0.165 HD
HETATM   35  C12 UNL     1      -5.528  -1.119  -1.035  1.00  0.00     0.030 A 
HETATM   36  C16 UNL     1      -4.440   0.797  -0.121  1.00  0.00    -0.002 A 
HETATM   37  C13 UNL     1      -5.978  -0.381  -2.090  1.00  0.00     0.002 A 
HETATM   38  C14 UNL     1      -5.661   0.953  -2.167  1.00  0.00     0.001 A 
HETATM   39  C15 UNL     1      -4.884   1.550  -1.173  1.00  0.00     0.014 A 
ENDBRANCH  29  30
ENDBRANCH  20  29
ENDBRANCH  18  20
ENDBRANCH   4  16
TORSDOF 12
