REMARK  12 active torsions:
REMARK  status: ('A' for Active; 'I' for Inactive)
REMARK    1  A    between atoms: C2_2  and  N1_3 
REMARK    2  A    between atoms: C4_5  and  N2_6 
REMARK    3  A    between atoms: C4_5  and  C18_25 
REMARK    4  A    between atoms: C5_8  and  C6_9 
REMARK    5  A    between atoms: C5_8  and  C15_20 
REMARK    6  A    between atoms: C6_9  and  C7_10 
REMARK       I    between atoms: C15_20  and  N4_22 
REMARK    7  A    between atoms: C18_25  and  N5_26 
REMARK    8  A    between atoms: C18_25  and  C21_38 
REMARK       I    between atoms: N5_26  and  C19_28 
REMARK    9  A    between atoms: C19_28  and  C20_30 
REMARK   10  A    between atoms: C20_30  and  N6_31 
REMARK   11  A    between atoms: N6_31  and  N7_33 
REMARK   12  A    between atoms: N7_33  and  N8_35 
ROOT
HETATM    1  N1  UNL     1       1.387  -0.773  -2.252  1.00  0.00    -0.373 N 
HETATM    2  C3  UNL     1       0.288  -0.936  -3.230  1.00  0.00     0.150 C 
HETATM    3  C4  UNL     1       1.315   0.103  -1.304  1.00  0.00     0.111 C 
ENDROOT
BRANCH   3   4
HETATM    4  N2  UNL     1       0.132   0.861  -1.279  1.00  0.00    -0.343 N 
HETATM    5  C5  UNL     1      -1.030   0.568  -0.776  1.00  0.00     0.083 C 
ATOM      6  H2  UNL     1       0.195   1.778  -1.722  1.00  0.00     0.167 HD
BRANCH   5   7
HETATM    7  C6  UNL     1      -1.144  -0.732  -0.139  1.00  0.00     0.104 C 
BRANCH   7   8
HETATM    8  C7  UNL     1      -1.775  -0.817   1.185  1.00  0.00    -0.025 A 
HETATM    9  C8  UNL     1      -1.272  -0.466   2.414  1.00  0.00     0.096 A 
HETATM   10  N3  UNL     1      -2.218  -0.642   3.335  1.00  0.00    -0.365 N 
HETATM   11  C9  UNL     1      -3.349  -1.102   2.774  1.00  0.00     0.042 A 
ATOM     12  H3  UNL     1      -2.100  -0.453   4.330  1.00  0.00     0.165 HD
HETATM   13  C10 UNL     1      -4.581  -1.466   3.306  1.00  0.00     0.030 A 
HETATM   14  C14 UNL     1      -3.088  -1.219   1.409  1.00  0.00    -0.002 A 
HETATM   15  C11 UNL     1      -5.528  -1.949   2.441  1.00  0.00     0.002 A 
HETATM   16  C12 UNL     1      -5.292  -2.078   1.078  1.00  0.00     0.001 A 
HETATM   17  C13 UNL     1      -4.083  -1.715   0.579  1.00  0.00     0.014 A 
ENDBRANCH   7   8
ENDBRANCH   5   7
BRANCH   5  18
HETATM   18  C15 UNL     1      -2.051   1.562  -1.003  1.00  0.00     0.265 C 
HETATM   19  O1  UNL     1      -3.236   1.383  -0.526  1.00  0.00    -0.266 OA
HETATM   20  N4  UNL     1      -1.895   2.760  -1.718  1.00  0.00    -0.356 N 
HETATM   21  C16 UNL     1      -3.014   3.706  -1.868  1.00  0.00     0.152 C 
HETATM   22  C17 UNL     1      -0.666   3.138  -2.352  1.00  0.00     0.152 C 
ENDBRANCH   5  18
ENDBRANCH   3   4
BRANCH   3  23
HETATM   23  C18 UNL     1       2.355   0.374  -0.297  1.00  0.00     0.241 C 
BRANCH  23  24
HETATM   24  N5  UNL     1       2.576  -0.612   0.703  1.00  0.00    -0.340 N 
HETATM   25  C19 UNL     1       2.771  -0.234   2.048  1.00  0.00     0.237 C 
HETATM   26  O2  UNL     1       2.751   0.980   2.354  1.00  0.00    -0.272 OA
ATOM     27  H5  UNL     1       2.594  -1.599   0.446  1.00  0.00     0.163 HD
BRANCH  25  28
HETATM   28  C20 UNL     1       2.999  -1.230   3.140  1.00  0.00     0.243 C 
BRANCH  28  29
HETATM   29  N6  UNL     1       3.168  -0.509   4.376  1.00  0.00    -0.314 N 
ATOM     30  H6  UNL     1       4.043  -0.629   4.887  1.00  0.00     0.182 HD
BRANCH  29  31
HETATM   31  N7  UNL     1       2.207   0.342   4.913  1.00  0.00    -0.253 N 
ATOM     32  H7  UNL     1       1.420   0.633   4.333  1.00  0.00     0.207 HD
BRANCH  31  33
HETATM   33  N8  UNL     1       2.288   0.772   6.127  1.00  0.00    -0.331 N 
ATOM     34  H82 UNL     1       3.082   0.471   6.693  1.00  0.00     0.178 HD
ATOM     35  H81 UNL     1       1.584   1.396   6.521  1.00  0.00     0.178 HD
ENDBRANCH  31  33
ENDBRANCH  29  31
ENDBRANCH  28  29
ENDBRANCH  25  28
ENDBRANCH  23  24
BRANCH  23  36
HETATM   36  C21 UNL     1       3.661   0.813  -0.909  1.00  0.00     0.261 C 
HETATM   37  N9  UNL     1       3.614   1.819  -1.899  1.00  0.00    -0.060 NA
HETATM   38  O3  UNL     1       4.754   0.300  -0.546  1.00  0.00    -0.274 OA
ENDBRANCH  23  36
ENDBRANCH   3  23
BRANCH   1  39
HETATM   39  C2  UNL     1       2.483  -1.678  -2.504  1.00  0.00     0.119 C 
HETATM   40  C1  UNL     1       3.172  -1.332  -3.822  1.00  0.00     0.026 C 
ENDBRANCH   1  39
TORSDOF 12
