REMARK  13 active torsions:
REMARK  status: ('A' for Active; 'I' for Inactive)
REMARK    1  A    between atoms: N1_3  and  C3_5 
REMARK    2  A    between atoms: C3_5  and  N2_6 
REMARK    3  A    between atoms: N2_6  and  N3_7 
REMARK    4  A    between atoms: N2_6  and  C4_10 
REMARK    5  A    between atoms: C4_10  and  C5_11 
REMARK    6  A    between atoms: C6_12  and  C7_13 
REMARK    7  A    between atoms: C7_13  and  C8_14 
REMARK    8  A    between atoms: C14_23  and  C15_24 
REMARK    9  A    between atoms: N5_26  and  C17_27 
REMARK   10  A    between atoms: C17_27  and  C18_28 
REMARK   11  A    between atoms: C18_28  and  C19_29 
REMARK   12  A    between atoms: C19_29  and  C20_30 
REMARK   13  A    between atoms: C20_30  and  N6_31 
ROOT
HETATM    1  C1  UNL     1     -10.278  -2.458   0.137  1.00  0.00     0.037 C 
HETATM    2  C2  UNL     1      -9.460  -2.403   1.037  1.00  0.00    -0.004 C 
HETATM    3  N1  UNL     1      -8.521  -2.318   2.066  1.00  0.00    -0.337 N 
ATOM      4  H1  UNL     1      -8.261  -3.162   2.577  1.00  0.00     0.171 HD
ENDROOT
BRANCH   3   5
HETATM    5  C3  UNL     1      -7.901  -1.040   2.426  1.00  0.00     0.243 C 
BRANCH   5   6
HETATM    6  N2  UNL     1      -7.190  -0.487   1.291  1.00  0.00    -0.209 NA
BRANCH   6   7
HETATM    7  N3  UNL     1      -8.070   0.287   0.558  1.00  0.00    -0.361 NA
ATOM      8  H32 UNL     1      -8.483   1.011   1.146  1.00  0.00     0.171 HD
ATOM      9  H31 UNL     1      -7.569   0.676  -0.241  1.00  0.00     0.171 HD
ENDBRANCH   6   7
BRANCH   6  10
HETATM   10  C4  UNL     1      -6.610  -1.503   0.465  1.00  0.00     0.208 C 
BRANCH  10  11
HETATM   11  C5  UNL     1      -5.166  -1.297   0.286  1.00  0.00    -0.090 C 
HETATM   12  C6  UNL     1      -3.988  -1.108   0.137  1.00  0.00    -0.103 C 
BRANCH  12  13
HETATM   13  C7  UNL     1      -2.524  -0.869  -0.073  1.00  0.00     0.124 C 
BRANCH  13  14
HETATM   14  C8  UNL     1      -2.312   0.458  -0.709  1.00  0.00     0.135 C 
HETATM   15  N4  UNL     1      -2.992   0.569  -2.026  1.00  0.00    -0.347 N 
HETATM   16  C9  UNL     1      -2.035   1.586  -2.295  1.00  0.00     0.251 C 
ATOM     17  H4  UNL     1      -3.774   0.126  -2.508  1.00  0.00     0.163 HD
HETATM   18  O1  UNL     1      -1.928   2.665  -2.893  1.00  0.00    -0.268 OA
HETATM   19  C10 UNL     1      -1.098   0.736  -1.473  1.00  0.00     0.045 C 
HETATM   20  C11 UNL     1       0.170   0.587  -1.678  1.00  0.00     0.024 C 
HETATM   21  C12 UNL     1       0.925   1.253  -2.823  1.00  0.00     0.047 C 
HETATM   22  C24 UNL     1       1.040  -0.228  -0.826  1.00  0.00     0.254 C 
HETATM   23  C13 UNL     1       2.007   2.033  -2.143  1.00  0.00     0.030 C 
HETATM   24  C14 UNL     1       2.979   1.189  -1.336  1.00  0.00     0.092 C 
HETATM   25  N5  UNL     1       2.487  -0.104  -1.009  1.00  0.00    -0.323 N 
HETATM   26  O2  UNL     1       0.550  -0.985   0.006  1.00  0.00    -0.267 OA
BRANCH  24  27
HETATM   27  C15 UNL     1       3.402   2.081  -0.207  1.00  0.00     0.021 C 
HETATM   28  C16 UNL     1       2.261   2.509   0.683  1.00  0.00     0.007 C 
ENDBRANCH  24  27
BRANCH  25  29
HETATM   29  C17 UNL     1       3.254  -1.272  -0.935  1.00  0.00     0.068 C 
BRANCH  29  30
HETATM   30  C18 UNL     1       3.767  -1.829   0.313  1.00  0.00     0.046 C 
BRANCH  30  31
HETATM   31  C19 UNL     1       4.744  -1.089   1.143  1.00  0.00     0.025 C 
BRANCH  31  32
HETATM   32  C20 UNL     1       6.038  -0.800   0.409  1.00  0.00     0.129 C 
BRANCH  32  33
HETATM   33  N6  UNL     1       7.011  -0.095   1.183  1.00  0.00    -0.352 N 
HETATM   34  C21 UNL     1       7.208   1.226   1.309  1.00  0.00     0.108 A 
HETATM   35  C22 UNL     1       8.264   1.414   2.170  1.00  0.00     0.106 A 
HETATM   36  N7  UNL     1       8.678   0.178   2.543  1.00  0.00    -0.361 N 
HETATM   37  C23 UNL     1       7.918  -0.753   1.946  1.00  0.00     0.182 A 
ATOM     38  H7  UNL     1       9.450  -0.015   3.181  1.00  0.00     0.166 HD
ENDBRANCH  32  33
ENDBRANCH  31  32
ENDBRANCH  30  31
ENDBRANCH  29  30
ENDBRANCH  25  29
ENDBRANCH  13  14
ENDBRANCH  12  13
ENDBRANCH  10  11
ENDBRANCH   6  10
ENDBRANCH   5   6
ENDBRANCH   3   5
TORSDOF 13
