REMARK  15 active torsions:
REMARK  status: ('A' for Active; 'I' for Inactive)
REMARK    1  A    between atoms: N1_2  and  C2_3 
REMARK    2  A    between atoms: C2_3  and  C3_4 
REMARK    3  A    between atoms: C4_5  and  C5_6 
REMARK    4  A    between atoms: C5_6  and  C6_7 
REMARK    5  A    between atoms: N2_10  and  C9_11 
REMARK    6  A    between atoms: C9_11  and  C10_12 
REMARK    7  A    between atoms: C10_12  and  C11_13 
REMARK    8  A    between atoms: C11_13  and  C12_14 
REMARK    9  A    between atoms: C12_14  and  C13_15 
REMARK   10  A    between atoms: C13_15  and  C14_16 
REMARK   11  A    between atoms: C14_16  and  N3_17 
REMARK   12  A    between atoms: C21_26  and  O1_27 
REMARK   13  A    between atoms: C22_29  and  O2_30 
REMARK   14  A    between atoms: C23_32  and  O3_33 
REMARK   15  A    between atoms: C24_35  and  O4_36 
ROOT
HETATM    1  C5  UNL     1      -1.838  -0.323  -1.992  1.00  0.00     0.132 C 
ENDROOT
BRANCH   1   2
HETATM    2  C4  UNL     1      -2.729  -0.633  -0.875  1.00  0.00    -0.100 C 
HETATM    3  C3  UNL     1      -3.480  -0.879   0.036  1.00  0.00    -0.078 C 
BRANCH   3   4
HETATM    4  C2  UNL     1      -4.378  -1.199   1.123  1.00  0.00     0.333 C 
BRANCH   4   5
HETATM    5  N1  UNL     1      -5.737  -0.791   0.900  1.00  0.00    -0.030 N 
HETATM    6  C1  UNL     1      -6.455  -0.977   2.155  1.00  0.00     0.277 C 
HETATM    7  C20 UNL     1      -5.750   0.612   0.572  1.00  0.00     0.275 C 
HETATM    8  C21 UNL     1      -7.114   1.189   0.405  1.00  0.00     0.175 C 
HETATM    9  C22 UNL     1      -8.075   0.333  -0.339  1.00  0.00     0.181 C 
HETATM   10  C23 UNL     1      -7.817  -1.129  -0.264  1.00  0.00     0.206 C 
HETATM   11  C24 UNL     1      -6.364  -1.501  -0.185  1.00  0.00     0.355 C 
BRANCH   8  12
HETATM   12  O1  UNL     1      -6.968   2.390  -0.330  1.00  0.00    -0.391 OA
ATOM     13  H1  UNL     1      -7.837   2.758  -0.436  1.00  0.00     0.210 HD
ENDBRANCH   8  12
BRANCH   9  14
HETATM   14  O2  UNL     1      -9.357   0.561   0.214  1.00  0.00    -0.390 OA
ATOM     15  H2  UNL     1      -9.971   0.014  -0.261  1.00  0.00     0.210 HD
ENDBRANCH   9  14
BRANCH  10  16
HETATM   16  O3  UNL     1      -8.566  -1.765   0.752  1.00  0.00    -0.388 OA
ATOM     17  H3  UNL     1      -8.401  -2.699   0.800  1.00  0.00     0.210 HD
ENDBRANCH  10  16
BRANCH  11  18
HETATM   18  O4  UNL     1      -5.763  -1.061  -1.376  1.00  0.00    -0.367 OA
ATOM     19  H4  UNL     1      -6.177  -1.529  -2.092  1.00  0.00     0.212 HD
ENDBRANCH  11  18
ENDBRANCH   4   5
ENDBRANCH   3   4
ENDBRANCH   1   2
BRANCH   1  20
HETATM   20  C6  UNL     1      -0.506   0.008  -1.460  1.00  0.00    -0.044 A 
HETATM   21  C7  UNL     1       0.482  -0.933  -1.253  1.00  0.00     0.025 A 
HETATM   22  C8  UNL     1       1.691  -0.528  -0.753  1.00  0.00     0.091 A 
HETATM   23  N2  UNL     1       1.981   0.750  -0.446  1.00  0.00    -0.366 N 
HETATM   24  C18 UNL     1       1.026   1.701  -0.640  1.00  0.00     0.091 A 
HETATM   25  C19 UNL     1      -0.193   1.324  -1.139  1.00  0.00     0.025 A 
BRANCH  23  26
HETATM   26  C9  UNL     1       3.258   1.177   0.081  1.00  0.00     0.128 C 
BRANCH  26  27
HETATM   27  C10 UNL     1       4.141   1.523  -1.094  1.00  0.00     0.020 C 
BRANCH  27  28
HETATM   28  C11 UNL     1       5.502   1.983  -0.665  1.00  0.00     0.002 C 
BRANCH  28  29
HETATM   29  C12 UNL     1       6.246   0.936   0.133  1.00  0.00     0.002 C 
BRANCH  29  30
HETATM   30  C13 UNL     1       6.460  -0.327  -0.629  1.00  0.00     0.020 C 
BRANCH  30  31
HETATM   31  C14 UNL     1       7.190  -1.363   0.181  1.00  0.00     0.129 C 
BRANCH  31  32
HETATM   32  N3  UNL     1       8.489  -0.890   0.586  1.00  0.00    -0.352 N 
HETATM   33  C15 UNL     1       8.807  -0.228   1.722  1.00  0.00     0.108 A 
HETATM   34  C16 UNL     1      10.155   0.061   1.762  1.00  0.00     0.106 A 
HETATM   35  N4  UNL     1      10.648  -0.445   0.618  1.00  0.00    -0.361 N 
HETATM   36  C17 UNL     1       9.655  -1.014  -0.087  1.00  0.00     0.182 A 
ATOM     37  H4  UNL     1      11.625  -0.403   0.329  1.00  0.00     0.166 HD
ENDBRANCH  31  32
ENDBRANCH  30  31
ENDBRANCH  29  30
ENDBRANCH  28  29
ENDBRANCH  27  28
ENDBRANCH  26  27
ENDBRANCH  23  26
ENDBRANCH   1  20
TORSDOF 15
