REMARK  9 active torsions:
REMARK  status: ('A' for Active; 'I' for Inactive)
REMARK       I    between atoms: C2_4  and  N3_6 
REMARK    1  A    between atoms: C3_7  and  C4_8 
REMARK    2  A    between atoms: C4_8  and  C5_9 
REMARK    3  A    between atoms: C5_9  and  N4_10 
REMARK    4  A    between atoms: C10_18  and  C11_19 
REMARK    5  A    between atoms: C11_19  and  C12_20 
REMARK    6  A    between atoms: C12_20  and  C13_21 
REMARK    7  A    between atoms: C13_21  and  N6_22 
REMARK    8  A    between atoms: C16_31  and  C17_32 
REMARK    9  A    between atoms: C17_32  and  C18_33 
ROOT
HETATM    1  C1  UNL     1      -3.943   2.177   1.042  1.00  0.00     0.148 C 
HETATM    2  N1  UNL     1      -3.213   1.361   1.949  1.00  0.00    -0.369 N 
ATOM      3  H1  UNL     1      -3.614   1.260   2.881  1.00  0.00     0.161 HD
HETATM    4  C2  UNL     1      -2.122   0.742   1.742  1.00  0.00     0.188 C 
HETATM    5  N2  UNL     1      -1.582  -0.018   2.817  1.00  0.00    -0.064 NA
HETATM    6  N3  UNL     1      -1.384   0.739   0.527  1.00  0.00    -0.321 N 
HETATM    7  C3  UNL     1      -1.514  -0.496  -0.172  1.00  0.00     0.191 C 
HETATM    8  N5  UNL     1      -0.471  -1.389   0.357  1.00  0.00    -0.338 N 
ATOM      9  H5  UNL     1      -0.831  -2.216   0.833  1.00  0.00     0.164 HD
HETATM   10  C9  UNL     1       0.922  -1.309   0.325  1.00  0.00     0.242 C 
HETATM   11  O1  UNL     1       1.472  -2.295   0.856  1.00  0.00    -0.271 OA
HETATM   12  C10 UNL     1       1.905  -0.333  -0.189  1.00  0.00     0.176 C 
HETATM   13  N9  UNL     1       1.815   0.942   0.481  1.00  0.00    -0.346 N 
ATOM     14  H9  UNL     1       2.679   1.220   0.947  1.00  0.00     0.163 HD
HETATM   15  C15 UNL     1       0.765   1.887   0.621  1.00  0.00     0.241 C 
HETATM   16  O2  UNL     1       1.188   2.922   1.198  1.00  0.00    -0.271 OA
HETATM   17  C16 UNL     1      -0.673   1.975   0.275  1.00  0.00     0.181 C 
ENDROOT
BRANCH  12  18
HETATM   18  C11 UNL     1       3.257  -0.949  -0.131  1.00  0.00     0.036 C 
BRANCH  18  19
HETATM   19  C12 UNL     1       4.362  -0.060  -0.627  1.00  0.00     0.022 C 
BRANCH  19  20
HETATM   20  C13 UNL     1       5.659  -0.868  -0.487  1.00  0.00     0.122 C 
BRANCH  20  21
HETATM   21  N6  UNL     1       6.794  -0.111  -0.936  1.00  0.00    -0.367 N 
HETATM   22  C14 UNL     1       7.877  -0.162  -0.243  1.00  0.00     0.196 C 
HETATM   23  N7  UNL     1       9.055   0.544  -0.593  1.00  0.00    -0.067 NA
HETATM   24  N8  UNL     1       7.940  -0.957   0.944  1.00  0.00    -0.067 NA
ATOM     25  H6  UNL     1       6.743   0.454  -1.784  1.00  0.00     0.161 HD
ENDBRANCH  20  21
ENDBRANCH  19  20
ENDBRANCH  18  19
ENDBRANCH  12  18
BRANCH   7  26
HETATM   26  C4  UNL     1      -2.823  -1.171  -0.032  1.00  0.00     0.075 C 
BRANCH  26  27
HETATM   27  C5  UNL     1      -2.849  -2.478  -0.819  1.00  0.00     0.240 C 
BRANCH  27  28
HETATM   28  N4  UNL     1      -4.131  -3.143  -0.684  1.00  0.00    -0.078 N 
HETATM   29  C6  UNL     1      -4.773  -2.837   0.578  1.00  0.00     0.271 C 
HETATM   30  C7  UNL     1      -3.921  -4.578  -0.732  1.00  0.00     0.271 C 
HETATM   31  C8  UNL     1      -5.042  -2.735  -1.735  1.00  0.00     0.271 C 
ENDBRANCH  27  28
ENDBRANCH  26  27
ENDBRANCH   7  26
BRANCH  17  32
HETATM   32  C17 UNL     1      -0.896   2.356  -1.158  1.00  0.00     0.039 C 
BRANCH  32  33
HETATM   33  C18 UNL     1      -0.233   3.609  -1.592  1.00  0.00    -0.020 C 
HETATM   34  C19 UNL     1      -0.573   3.823  -3.063  1.00  0.00     0.009 C 
HETATM   35  C20 UNL     1      -0.605   4.837  -0.843  1.00  0.00     0.009 C 
ENDBRANCH  32  33
ENDBRANCH  17  32
TORSDOF 9
