REMARK  10 active torsions:
REMARK  status: ('A' for Active; 'I' for Inactive)
REMARK    1  A    between atoms: C2_2  and  C3_3 
REMARK    2  A    between atoms: C3_3  and  C4_4 
REMARK    3  A    between atoms: C4_4  and  C5_5 
REMARK    4  A    between atoms: N2_9  and  C7_10 
REMARK    5  A    between atoms: C7_10  and  C8_11 
REMARK    6  A    between atoms: C9_12  and  C10_13 
REMARK    7  A    between atoms: C10_13  and  N3_14 
REMARK    8  A    between atoms: C14_20  and  N5_21 
REMARK    9  A    between atoms: C19_30  and  C20_31 
REMARK   10  A    between atoms: N8_32  and  N9_34 
REMARK       I    between atoms: N9_34  and  C21_36 
ROOT
HETATM    1  C7  UNL     1      -0.927   0.274  -0.050  1.00  0.00     0.157 C 
ENDROOT
BRANCH   1   2
HETATM    2  N2  UNL     1      -2.228   0.293   0.535  1.00  0.00    -0.337 N 
HETATM    3  C6  UNL     1      -2.989   1.414   0.619  1.00  0.00     0.184 A 
HETATM    4  N1  UNL     1      -4.144   1.112   1.182  1.00  0.00    -0.354 N 
HETATM    5  C5  UNL     1      -4.143  -0.224   1.471  1.00  0.00     0.038 A 
ATOM      6  H1  UNL     1      -4.906   1.763   1.369  1.00  0.00     0.166 HD
HETATM    7  C19 UNL     1      -2.954  -0.705   1.064  1.00  0.00     0.075 A 
BRANCH   5   8
HETATM    8  C4  UNL     1      -5.274  -0.922   2.097  1.00  0.00     0.059 C 
BRANCH   8   9
HETATM    9  C3  UNL     1      -5.024  -1.210   3.563  1.00  0.00     0.006 C 
BRANCH   9  10
HETATM   10  C2  UNL     1      -6.288  -1.887   4.117  1.00  0.00    -0.004 C 
HETATM   11  C1  UNL     1      -7.468  -0.946   3.921  1.00  0.00     0.005 C 
ENDBRANCH   9  10
ENDBRANCH   8   9
ENDBRANCH   5   8
BRANCH   7  12
HETATM   12  C20 UNL     1      -2.484  -2.114   1.179  1.00  0.00     0.139 C 
HETATM   13  N8  UNL     1      -1.406  -2.494   0.805  1.00  0.00    -0.306 N 
ATOM     14  H8  UNL     1      -0.945  -1.669   0.422  1.00  0.00     0.186 HD
BRANCH  13  15
HETATM   15  N9  UNL     1      -0.525  -3.498   0.656  1.00  0.00    -0.254 N 
HETATM   16  C21 UNL     1      -0.750  -4.544  -0.285  1.00  0.00     0.347 C 
HETATM   17  N10 UNL     1       0.191  -5.591  -0.428  1.00  0.00    -0.038 NA
HETATM   18  O1  UNL     1      -1.783  -4.525  -0.983  1.00  0.00    -0.249 OA
ATOM     19  H9  UNL     1       0.320  -3.511   1.227  1.00  0.00     0.191 HD
ENDBRANCH  13  15
ENDBRANCH   7  12
ENDBRANCH   1   2
BRANCH   1  20
HETATM   20  C8  UNL     1       0.138   0.509   0.939  1.00  0.00    -0.009 C 
HETATM   21  C9  UNL     1       1.026   1.465   0.876  1.00  0.00    -0.009 C 
BRANCH  21  22
HETATM   22  C10 UNL     1       1.143   2.488  -0.174  1.00  0.00     0.156 C 
BRANCH  22  23
HETATM   23  N3  UNL     1       2.449   2.298  -0.838  1.00  0.00    -0.347 N 
HETATM   24  C11 UNL     1       2.511   1.474  -1.896  1.00  0.00     0.125 A 
HETATM   25  C12 UNL     1       3.745   1.330  -2.484  1.00  0.00     0.094 A 
HETATM   26  C13 UNL     1       4.881   1.986  -2.031  1.00  0.00     0.138 A 
HETATM   27  N6  UNL     1       3.875   0.522  -3.559  1.00  0.00    -0.353 N 
HETATM   28  N4  UNL     1       6.075   1.828  -2.634  1.00  0.00    -0.326 N 
HETATM   29  N7  UNL     1       4.762   2.798  -0.968  1.00  0.00    -0.332 N 
HETATM   30  C14 UNL     1       6.186   1.031  -3.685  1.00  0.00     0.116 A 
ATOM     31  H4  UNL     1       6.894   2.323  -2.281  1.00  0.00     0.169 HD
HETATM   32  C15 UNL     1       5.056   0.364  -4.156  1.00  0.00     0.139 A 
HETATM   33  C17 UNL     1       5.878   3.532  -0.415  1.00  0.00     0.158 C 
HETATM   34  C18 UNL     1       3.531   2.939  -0.386  1.00  0.00     0.186 A 
HETATM   35  C16 UNL     1       2.685  -0.156  -4.032  1.00  0.00     0.156 C 
BRANCH  30  36
HETATM   36  N5  UNL     1       7.279   0.834  -4.300  1.00  0.00    -0.384 N 
ATOM     37  H52 UNL     1       8.106   1.322  -3.955  1.00  0.00     0.157 HD
ATOM     38  H51 UNL     1       7.365   0.220  -5.110  1.00  0.00     0.157 HD
ENDBRANCH  30  36
ENDBRANCH  22  23
ENDBRANCH  21  22
ENDBRANCH   1  20
TORSDOF 10
