REMARK  11 active torsions:
REMARK  status: ('A' for Active; 'I' for Inactive)
REMARK    1  A    between atoms: N2_6  and  O1_8 
REMARK    2  A    between atoms: C6_14  and  C7_15 
REMARK    3  A    between atoms: C7_15  and  N4_16 
REMARK       I    between atoms: N4_16  and  C8_18 
REMARK    4  A    between atoms: C8_18  and  C9_20 
REMARK    5  A    between atoms: C9_20  and  C10_21 
REMARK    6  A    between atoms: C10_21  and  C11_22 
REMARK    7  A    between atoms: N5_24  and  C13_25 
REMARK    8  A    between atoms: C13_25  and  C14_26 
REMARK    9  A    between atoms: C14_26  and  C15_27 
REMARK   10  A    between atoms: C15_27  and  C16_28 
REMARK   11  A    between atoms: C16_28  and  N6_29 
ROOT
HETATM    1  N4  UNL     1      -4.615  -0.552   0.203  1.00  0.00    -0.335 N 
ATOM      2  H4  UNL     1      -4.692   0.361  -0.246  1.00  0.00     0.168 HD
HETATM    3  C8  UNL     1      -3.331  -1.057   0.586  1.00  0.00     0.221 C 
HETATM    4  O3  UNL     1      -3.262  -2.176   1.134  1.00  0.00    -0.273 OA
ENDROOT
BRANCH   3   5
HETATM    5  C9  UNL     1      -2.128  -0.269   0.337  1.00  0.00     0.109 C 
BRANCH   5   6
HETATM    6  C10 UNL     1      -0.903  -1.000   0.823  1.00  0.00     0.067 C 
BRANCH   6   7
HETATM    7  C11 UNL     1       0.316  -0.190   0.564  1.00  0.00     0.026 A 
HETATM    8  C12 UNL     1       1.602  -0.571   0.888  1.00  0.00     0.116 A 
HETATM    9  N5  UNL     1       2.486   0.376   0.526  1.00  0.00    -0.351 N 
HETATM   10  C23 UNL     1       1.739   1.365  -0.033  1.00  0.00     0.183 A 
HETATM   11  N7  UNL     1       0.439   1.020  -0.007  1.00  0.00    -0.354 N 
ATOM     12  H7  UNL     1      -0.330   1.587  -0.364  1.00  0.00     0.166 HD
BRANCH   9  13
HETATM   13  C13 UNL     1       3.939   0.363   0.690  1.00  0.00     0.129 C 
BRANCH  13  14
HETATM   14  C14 UNL     1       4.527  -0.259  -0.539  1.00  0.00     0.022 C 
BRANCH  14  15
HETATM   15  C15 UNL     1       6.017  -0.341  -0.517  1.00  0.00     0.022 C 
BRANCH  15  16
HETATM   16  C16 UNL     1       6.675   1.016  -0.396  1.00  0.00     0.128 C 
BRANCH  16  17
HETATM   17  N6  UNL     1       8.117   0.860  -0.380  1.00  0.00    -0.366 N 
HETATM   18  C17 UNL     1       8.810   0.879  -1.533  1.00  0.00     0.090 A 
HETATM   19  C18 UNL     1      10.192   0.732  -1.557  1.00  0.00     0.018 A 
HETATM   20  C19 UNL     1      10.876   0.561  -0.376  1.00  0.00     0.009 A 
HETATM   21  C20 UNL     1      10.164   0.542   0.801  1.00  0.00    -0.046 A 
HETATM   22  C21 UNL     1      10.914   0.358   2.069  1.00  0.00     0.049 C 
HETATM   23  C22 UNL     1       8.793   0.693   0.770  1.00  0.00     0.097 A 
ENDBRANCH  16  17
ENDBRANCH  15  16
ENDBRANCH  14  15
ENDBRANCH  13  14
ENDBRANCH   9  13
ENDBRANCH   6   7
ENDBRANCH   5   6
ENDBRANCH   3   5
BRANCH   1  24
HETATM   24  C7  UNL     1      -5.777  -1.321   0.448  1.00  0.00     0.122 C 
BRANCH  24  25
HETATM   25  C6  UNL     1      -6.987  -0.910   0.118  1.00  0.00     0.076 A 
HETATM   26  C2  UNL     1      -8.121  -1.660   0.357  1.00  0.00     0.052 A 
HETATM   27  C1  UNL     1      -8.058  -2.828   0.928  1.00  0.00     0.045 C 
HETATM   28  N1  UNL     1      -9.343  -1.167  -0.014  1.00  0.00    -0.335 N 
HETATM   29  C3  UNL     1      -9.502   0.029  -0.608  1.00  0.00     0.197 A 
ATOM     30  H1  UNL     1     -10.172  -1.733   0.169  1.00  0.00     0.168 HD
HETATM   31  N2  UNL     1     -10.681   0.426  -0.928  1.00  0.00    -0.244 N 
HETATM   32  C5  UNL     1      -8.374   0.778  -0.847  1.00  0.00     0.292 A 
HETATM   33  C4  UNL     1     -10.983   1.664  -1.559  1.00  0.00     0.187 C 
HETATM   34  O2  UNL     1      -8.488   1.897  -1.400  1.00  0.00    -0.264 OA
HETATM   35  N3  UNL     1      -7.175   0.280  -0.477  1.00  0.00    -0.317 N 
ATOM     36  H3  UNL     1      -6.350   0.850  -0.663  1.00  0.00     0.169 HD
BRANCH  31  37
HETATM   37  O1  UNL     1     -11.752  -0.425  -0.633  1.00  0.00    -0.286 OA
ATOM     38  H1  UNL     1     -12.624  -0.131  -0.870  1.00  0.00     0.244 HD
ENDBRANCH  31  37
ENDBRANCH  24  25
ENDBRANCH   1  24
TORSDOF 11
