REMARK  13 active torsions:
REMARK  status: ('A' for Active; 'I' for Inactive)
REMARK    1  A    between atoms: C2_4  and  C3_5 
REMARK    2  A    between atoms: C2_4  and  N10_33 
REMARK    3  A    between atoms: C3_5  and  C4_6 
REMARK    4  A    between atoms: C4_6  and  N2_7 
REMARK       I    between atoms: N2_7  and  C5_9 
REMARK    5  A    between atoms: C5_9  and  C6_11 
REMARK    6  A    between atoms: C6_11  and  N3_12 
REMARK    7  A    between atoms: C9_15  and  C10_16 
REMARK    8  A    between atoms: C12_18  and  N4_19 
REMARK    9  A    between atoms: N4_19  and  C13_21 
REMARK   10  A    between atoms: C13_21  and  N5_23 
REMARK   11  A    between atoms: N10_33  and  C16_35 
REMARK   12  A    between atoms: C16_35  and  C17_36 
REMARK   13  A    between atoms: C17_36  and  N11_37 
ROOT
HETATM    1  N5  UNL     1       8.636   1.783   2.498  1.00  0.00    -0.283 N 
ATOM      2  H5  UNL     1       8.556   1.693   3.511  1.00  0.00     0.179 HD
HETATM    3  C15 UNL     1       8.566   3.059   1.934  1.00  0.00     0.183 C 
HETATM    4  N6  UNL     1       8.524   4.119   1.479  1.00  0.00    -0.172 NA
ENDROOT
BRANCH   1   5
HETATM    5  C13 UNL     1       8.798   0.704   1.790  1.00  0.00     0.087 C 
HETATM    6  C14 UNL     1       8.861  -0.597   2.473  1.00  0.00     0.089 C 
BRANCH   5   7
HETATM    7  N4  UNL     1       8.904   0.871   0.392  1.00  0.00    -0.331 N 
ATOM      8  H4  UNL     1       9.788   1.224   0.026  1.00  0.00     0.168 HD
BRANCH   7   9
HETATM    9  C12 UNL     1       7.976   0.614  -0.452  1.00  0.00     0.123 A 
HETATM   10  C11 UNL     1       6.700   0.132  -0.226  1.00  0.00     0.083 A 
HETATM   11  C10 UNL     1       6.095   0.027  -1.445  1.00  0.00     0.080 A 
HETATM   12  N8  UNL     1       6.980   0.433  -2.379  1.00  0.00    -0.297 N 
HETATM   13  N7  UNL     1       8.097   0.780  -1.773  1.00  0.00    -0.285 N 
ATOM     14  H8  UNL     1       6.812   0.466  -3.385  1.00  0.00     0.187 HD
ATOM     15  H7  UNL     1       8.933   1.125  -2.244  1.00  0.00     0.188 HD
BRANCH  11  16
HETATM   16  C9  UNL     1       4.730  -0.440  -1.710  1.00  0.00     0.077 A 
HETATM   17  C8  UNL     1       4.135  -0.537  -2.954  1.00  0.00     0.052 A 
HETATM   18  C7  UNL     1       2.856  -1.016  -2.775  1.00  0.00     0.113 A 
HETATM   19  N3  UNL     1       2.712  -1.194  -1.446  1.00  0.00    -0.294 N 
HETATM   20  N9  UNL     1       3.829  -0.849  -0.828  1.00  0.00    -0.296 N 
ATOM     21  H9  UNL     1       3.976  -0.891   0.180  1.00  0.00     0.187 HD
BRANCH  19  22
HETATM   22  C6  UNL     1       1.537  -1.680  -0.786  1.00  0.00     0.250 C 
BRANCH  22  23
HETATM   23  C5  UNL     1       0.628  -0.539  -0.416  1.00  0.00     0.237 C 
HETATM   24  N2  UNL     1      -0.597  -0.807   0.249  1.00  0.00    -0.359 N 
ATOM     25  H2  UNL     1      -0.872  -1.762   0.479  1.00  0.00     0.162 HD
HETATM   26  O1  UNL     1       0.996   0.633  -0.715  1.00  0.00    -0.272 OA
BRANCH  24  27
HETATM   27  C4  UNL     1      -1.438   0.308   0.588  1.00  0.00     0.130 C 
BRANCH  27  28
HETATM   28  C3  UNL     1      -2.709  -0.108   1.288  1.00  0.00     0.096 C 
BRANCH  28  29
HETATM   29  C2  UNL     1      -3.545  -0.999   0.489  1.00  0.00     0.077 C 
HETATM   30  N1  UNL     1      -3.215  -1.367  -0.726  1.00  0.00    -0.384 N 
HETATM   31  C1  UNL     1      -4.010  -2.238  -1.534  1.00  0.00     0.147 C 
ATOM     32  H1  UNL     1      -2.342  -1.012  -1.116  1.00  0.00     0.160 HD
BRANCH  29  33
HETATM   33  N10 UNL     1      -4.736  -1.529   1.008  1.00  0.00    -0.355 N 
ATOM     34  H10 UNL     1      -4.819  -2.536   0.865  1.00  0.00     0.166 HD
BRANCH  33  35
HETATM   35  C16 UNL     1      -5.837  -0.979   1.680  1.00  0.00     0.114 C 
BRANCH  35  36
HETATM   36  C17 UNL     1      -6.829  -0.117   1.040  1.00  0.00     0.218 C 
BRANCH  36  37
HETATM   37  N11 UNL     1      -6.542   1.150   0.509  1.00  0.00    -0.057 N 
HETATM   38  C18 UNL     1      -5.822   1.265  -0.702  1.00  0.00     0.277 C 
HETATM   39  C19 UNL     1      -6.036   2.036   1.551  1.00  0.00     0.277 C 
HETATM   40  C20 UNL     1      -7.895   1.741   0.184  1.00  0.00     0.277 C 
ENDBRANCH  36  37
ENDBRANCH  35  36
ENDBRANCH  33  35
ENDBRANCH  29  33
ENDBRANCH  28  29
ENDBRANCH  27  28
ENDBRANCH  24  27
ENDBRANCH  22  23
ENDBRANCH  19  22
ENDBRANCH  11  16
ENDBRANCH   7   9
ENDBRANCH   5   7
ENDBRANCH   1   5
TORSDOF 13
