REMARK  5 active torsions:
REMARK  status: ('A' for Active; 'I' for Inactive)
REMARK    1  A    between atoms: C5_6  and  C6_7 
REMARK    2  A    between atoms: C6_7  and  N1_8 
REMARK    3  A    between atoms: C6_7  and  C10_19 
REMARK       I    between atoms: N1_8  and  C7_10 
REMARK       I    between atoms: C7_10  and  N2_12 
REMARK       I    between atoms: C8_14  and  N4_16 
REMARK    4  A    between atoms: C10_19  and  N6_20 
REMARK    5  A    between atoms: C10_19  and  C11_24 
ROOT
HETATM    1  C1  UNL     1      -2.478   3.840  -1.335  1.00  0.00     0.015 C 
HETATM    2  C2  UNL     1      -2.417   2.772  -0.824  1.00  0.00    -0.076 C 
HETATM    3  C3  UNL     1      -2.352   1.447  -0.178  1.00  0.00     0.147 A 
HETATM    4  C4  UNL     1      -2.328   1.400   1.307  1.00  0.00     0.063 C 
HETATM    5  O1  UNL     1      -3.067   0.419  -0.793  1.00  0.00    -0.354 OA
HETATM    6  C5  UNL     1      -1.700   0.407  -1.050  1.00  0.00     0.195 A 
ENDROOT
BRANCH   6   7
HETATM    7  C6  UNL     1      -0.805  -0.568  -0.400  1.00  0.00     0.150 C 
BRANCH   7   8
HETATM    8  N1  UNL     1       0.557  -0.193  -0.875  1.00  0.00    -0.333 N 
HETATM    9  C7  UNL     1       1.616  -0.070   0.016  1.00  0.00     0.323 C 
HETATM   10  O2  UNL     1       1.468  -0.312   1.223  1.00  0.00    -0.247 OA
HETATM   11  N2  UNL     1       2.926   0.368  -0.521  1.00  0.00    -0.270 N 
HETATM   12  C8  UNL     1       3.938   0.484   0.360  1.00  0.00     0.283 C 
ATOM     13  H2  UNL     1       3.055   0.572  -1.512  1.00  0.00     0.174 HD
HETATM   14  N3  UNL     1       5.073   1.075  -0.896  1.00  0.00    -0.048 NA
HETATM   15  N4  UNL     1       4.826   0.585   1.131  1.00  0.00    -0.296 NA
HETATM   16  C9  UNL     1       5.497   0.556   2.213  1.00  0.00     0.271 C 
HETATM   17  N5  UNL     1       6.077   0.520   3.196  1.00  0.00    -0.156 NA
ATOM     18  H1  UNL     1       0.714  -0.024  -1.869  1.00  0.00     0.164 HD
ENDBRANCH   7   8
BRANCH   7  19
HETATM   19  C10 UNL     1      -1.017  -2.014  -0.817  1.00  0.00     0.218 C 
BRANCH  19  20
HETATM   20  N6  UNL     1      -0.787  -2.123  -2.250  1.00  0.00    -0.072 N 
ATOM     21  H63 UNL     1      -1.360  -1.473  -2.788  1.00  0.00     0.274 HD
ATOM     22  H62 UNL     1       0.128  -1.767  -2.527  1.00  0.00     0.274 HD
ATOM     23  H61 UNL     1      -0.929  -3.093  -2.530  1.00  0.00     0.274 HD
ENDBRANCH  19  20
BRANCH  19  24
HETATM   24  C11 UNL     1      -2.382  -2.533  -0.510  1.00  0.00     0.121 C 
HETATM   25  S1  UNL     1      -2.765  -2.489   1.259  1.00  0.00    -0.095 SA
ENDBRANCH  19  24
ENDBRANCH   7  19
ENDBRANCH   6   7
TORSDOF 5
