REMARK  7 active torsions:
REMARK  status: ('A' for Active; 'I' for Inactive)
REMARK    1  A    between atoms: C2_3  and  C4_6 
REMARK    2  A    between atoms: C4_6  and  S1_10 
REMARK    3  A    between atoms: S1_10  and  C5_11 
REMARK    4  A    between atoms: C5_11  and  C6_12 
REMARK       I    between atoms: C6_12  and  N4_14 
REMARK    5  A    between atoms: N4_14  and  N5_16 
REMARK    6  A    between atoms: N5_16  and  C7_18 
REMARK    7  A    between atoms: C7_18  and  C8_22 
ROOT
HETATM    1  N1  UNL     1       5.921  -2.297  -2.042  1.00  0.00    -0.195 NA
HETATM    2  C1  UNL     1       5.798  -1.591  -1.130  1.00  0.00     0.085 C 
HETATM    3  C2  UNL     1       5.644  -0.720   0.029  1.00  0.00     0.255 C 
HETATM    4  C3  UNL     1       5.511  -1.565   1.217  1.00  0.00     0.085 C 
HETATM    5  N2  UNL     1       5.408  -2.228   2.167  1.00  0.00    -0.195 NA
ENDROOT
BRANCH   3   6
HETATM    6  C4  UNL     1       4.435   0.178  -0.128  1.00  0.00     0.072 C 
HETATM    7  N3  UNL     1       3.759   0.099  -1.199  1.00  0.00    -0.395 N 
ATOM      8  H32 UNL     1       3.955  -0.526  -1.981  1.00  0.00     0.156 HD
ATOM      9  H31 UNL     1       2.945   0.704  -1.305  1.00  0.00     0.156 HD
BRANCH   6  10
HETATM   10  S1  UNL     1       4.093   1.266   1.233  1.00  0.00    -0.105 SA
BRANCH  10  11
HETATM   11  C5  UNL     1       2.626   2.254   0.916  1.00  0.00     0.185 C 
BRANCH  11  12
HETATM   12  C6  UNL     1       1.444   1.368   0.865  1.00  0.00     0.245 C 
HETATM   13  O1  UNL     1       1.043   0.890   1.966  1.00  0.00    -0.271 OA
HETATM   14  N4  UNL     1       0.774   1.055  -0.354  1.00  0.00    -0.268 N 
ATOM     15  H4  UNL     1       1.088   1.442  -1.244  1.00  0.00     0.190 HD
BRANCH  14  16
HETATM   16  N5  UNL     1      -0.329   0.198  -0.284  1.00  0.00    -0.286 N 
ATOM     17  H5  UNL     1      -0.211  -0.790  -0.509  1.00  0.00     0.188 HD
BRANCH  16  18
HETATM   18  C7  UNL     1      -1.605   0.676   0.093  1.00  0.00     0.093 C 
HETATM   19  N6  UNL     1      -1.776   1.923   0.349  1.00  0.00    -0.388 N 
ATOM     20  H62 UNL     1      -0.980   2.557   0.275  1.00  0.00     0.157 HD
ATOM     21  H61 UNL     1      -2.697   2.268   0.621  1.00  0.00     0.157 HD
BRANCH  18  22
HETATM   22  C8  UNL     1      -2.747  -0.233   0.199  1.00  0.00     0.054 C 
HETATM   23  C9  UNL     1      -4.034   0.481   0.582  1.00  0.00     0.012 C 
HETATM   24  C10 UNL     1      -5.014  -0.692   0.426  1.00  0.00     0.001 C 
HETATM   25  C11 UNL     1      -4.592  -1.269  -0.914  1.00  0.00     0.001 C 
HETATM   26  C12 UNL     1      -3.139  -0.884  -1.097  1.00  0.00     0.012 C 
ENDBRANCH  18  22
ENDBRANCH  16  18
ENDBRANCH  14  16
ENDBRANCH  11  12
ENDBRANCH  10  11
ENDBRANCH   6  10
ENDBRANCH   3   6
TORSDOF 7
