REMARK  8 active torsions:
REMARK  status: ('A' for Active; 'I' for Inactive)
REMARK    1  A    between atoms: C3_3  and  C4_4 
REMARK    2  A    between atoms: C4_4  and  O1_5 
REMARK    3  A    between atoms: N1_7  and  O2_9 
REMARK    4  A    between atoms: C5_11  and  C6_12 
REMARK    5  A    between atoms: C9_15  and  O3_16 
REMARK    6  A    between atoms: O3_16  and  O4_17 
REMARK    7  A    between atoms: C12_21  and  O5_23 
REMARK    8  A    between atoms: N2_25  and  O6_26 
ROOT
HETATM    1  C1  UNL     1      -3.579   0.326   0.153  1.00  0.00     0.029 C 
HETATM    2  C2  UNL     1      -2.296  -0.344   0.500  1.00  0.00     0.098 C 
HETATM    3  C3  UNL     1      -1.112   0.668   0.507  1.00  0.00     0.094 C 
HETATM    4  C5  UNL     1      -0.001  -0.293   0.639  1.00  0.00     0.083 C 
HETATM    5  C12 UNL     1      -0.451  -1.442  -0.268  1.00  0.00     0.141 C 
HETATM    6  C13 UNL     1      -0.447  -2.714   0.557  1.00  0.00     0.067 C 
HETATM    7  N2  UNL     1      -1.829  -1.167  -0.632  1.00  0.00    -0.159 NA
ENDROOT
BRANCH   4   8
HETATM    8  C6  UNL     1       1.356   0.143   0.382  1.00  0.00    -0.049 A 
HETATM    9  C7  UNL     1       1.821   1.432   0.283  1.00  0.00     0.010 A 
HETATM   10  C8  UNL     1       3.148   1.714   0.025  1.00  0.00     0.040 A 
HETATM   11  C9  UNL     1       4.084   0.714  -0.149  1.00  0.00     0.106 A 
HETATM   12  C10 UNL     1       3.631  -0.580  -0.051  1.00  0.00     0.040 A 
HETATM   13  C11 UNL     1       2.317  -0.865   0.205  1.00  0.00     0.010 A 
BRANCH  11  14
HETATM   14  O3  UNL     1       5.419   0.978  -0.409  1.00  0.00    -0.200 OA
BRANCH  14  15
HETATM   15  O4  UNL     1       5.863   2.229  -0.504  1.00  0.00    -0.245 OA
ATOM     16  H4  UNL     1       6.778   2.410  -0.682  1.00  0.00     0.254 HD
ENDBRANCH  14  15
ENDBRANCH  11  14
ENDBRANCH   4   8
BRANCH   3  17
HETATM   17  C4  UNL     1      -1.193   1.435  -0.747  1.00  0.00     0.141 C 
HETATM   18  N1  UNL     1      -1.550   2.700  -0.680  1.00  0.00    -0.251 N 
ATOM     19  H1  UNL     1      -1.608   3.234  -1.547  1.00  0.00     0.196 HD
BRANCH  17  20
HETATM   20  O1  UNL     1      -0.939   0.978  -2.010  1.00  0.00    -0.348 OA
ATOM     21  H1  UNL     1      -0.991   1.473  -2.819  1.00  0.00     0.219 HD
ENDBRANCH  17  20
BRANCH  18  22
HETATM   22  O2  UNL     1      -1.844   3.327   0.484  1.00  0.00    -0.288 OA
ATOM     23  H2  UNL     1      -2.102   4.240   0.532  1.00  0.00     0.244 HD
ENDBRANCH  18  22
ENDBRANCH   3  17
BRANCH   5  24
HETATM   24  O5  UNL     1       0.315  -1.513  -1.399  1.00  0.00    -0.373 OA
ATOM     25  H5  UNL     1       0.036  -2.226  -1.962  1.00  0.00     0.212 HD
ENDBRANCH   5  24
BRANCH   7  26
HETATM   26  O6  UNL     1      -2.556  -2.306  -0.716  1.00  0.00    -0.310 OA
ATOM     27  H6  UNL     1      -2.255  -2.836  -1.445  1.00  0.00     0.237 HD
ENDBRANCH   7  26
TORSDOF 8
