REMARK  7 active torsions:
REMARK  status: ('A' for Active; 'I' for Inactive)
REMARK    1  A    between atoms: O1_2  and  C2_3 
REMARK       I    between atoms: C2_3  and  N1_5 
REMARK    2  A    between atoms: N1_5  and  C3_7 
REMARK    3  A    between atoms: C3_7  and  C4_8 
REMARK    4  A    between atoms: C4_8  and  O3_9 
REMARK    5  A    between atoms: C4_8  and  C5_11 
REMARK    6  A    between atoms: C8_15  and  O4_16 
REMARK    7  A    between atoms: C12_21  and  O5_22 
ROOT
HETATM    1  C5  UNL     1      -0.059  -0.153  -0.664  1.00  0.00     0.047 A 
HETATM    2  S1  UNL     1      -0.589  -0.517   0.913  1.00  0.00    -0.090 SA
HETATM    3  C6  UNL     1      -2.262  -0.607   0.629  1.00  0.00     0.021 A 
HETATM    4  C7  UNL     1      -2.371  -0.347  -0.713  1.00  0.00    -0.008 A 
HETATM    5  C8  UNL     1      -1.222  -0.111  -1.381  1.00  0.00     0.088 A 
HETATM    6  C9  UNL     1      -3.818  -0.371  -1.207  1.00  0.00     0.043 C 
HETATM    7  C10 UNL     1      -4.555   0.567  -0.294  1.00  0.00     0.007 C 
HETATM    8  C11 UNL     1      -4.614   0.036   1.100  1.00  0.00     0.037 C 
HETATM    9  C12 UNL     1      -3.487  -0.887   1.474  1.00  0.00     0.158 C 
ENDROOT
BRANCH   1  10
HETATM   10  C4  UNL     1       1.347   0.072  -1.178  1.00  0.00     0.178 C 
BRANCH  10  11
HETATM   11  C3  UNL     1       2.247  -0.017   0.026  1.00  0.00     0.162 C 
BRANCH  11  12
HETATM   12  N1  UNL     1       3.609   0.233  -0.380  1.00  0.00    -0.334 N 
HETATM   13  C2  UNL     1       4.693   0.221   0.537  1.00  0.00     0.360 C 
HETATM   14  O2  UNL     1       4.486  -0.014   1.752  1.00  0.00    -0.239 OA
ATOM     15  H1  UNL     1       3.800   0.426  -1.363  1.00  0.00     0.164 HD
BRANCH  13  16
HETATM   16  O1  UNL     1       5.991   0.462   0.130  1.00  0.00    -0.309 OA
HETATM   17  C1  UNL     1       7.020   0.434   1.090  1.00  0.00     0.215 C 
ENDBRANCH  13  16
ENDBRANCH  11  12
ENDBRANCH  10  11
BRANCH  10  18
HETATM   18  O3  UNL     1       1.469   1.356  -1.702  1.00  0.00    -0.389 OA
ATOM     19  H3  UNL     1       0.901   1.412  -2.462  1.00  0.00     0.210 HD
ENDBRANCH  10  18
ENDBRANCH   1  10
BRANCH   5  20
HETATM   20  O4  UNL     1      -1.197   0.172  -2.774  1.00  0.00    -0.359 OA
ATOM     21  H4  UNL     1      -2.005   0.201  -3.272  1.00  0.00     0.217 HD
ENDBRANCH   5  20
BRANCH   9  22
HETATM   22  O5  UNL     1      -3.099  -0.631   2.788  1.00  0.00    -0.390 OA
ATOM     23  H5  UNL     1      -3.868  -0.807   3.318  1.00  0.00     0.210 HD
ENDBRANCH   9  22
TORSDOF 7
