REMARK  6 active torsions:
REMARK  status: ('A' for Active; 'I' for Inactive)
REMARK    1  A    between atoms: N1_2  and  C2_3 
REMARK    2  A    between atoms: N1_2  and  C6_16 
REMARK    3  A    between atoms: C2_3  and  N2_5 
REMARK    4  A    between atoms: N2_5  and  N3_7 
REMARK    5  A    between atoms: N3_7  and  N4_8 
REMARK    6  A    between atoms: N4_8  and  C3_10 
ROOT
HETATM    1  N2  UNL     1       1.650  -1.034  -0.131  1.00  0.00    -0.260 N 
ATOM      2  H2  UNL     1       1.393  -0.139  -0.548  1.00  0.00     0.186 HD
ENDROOT
BRANCH   1   3
HETATM    3  C2  UNL     1       0.664  -1.805   0.528  1.00  0.00     0.187 C 
HETATM    4  S1  UNL     1       1.114  -3.260   1.195  1.00  0.00    -0.040 SA
BRANCH   3   5
HETATM    5  N1  UNL     1      -0.696  -1.433   0.666  1.00  0.00    -0.357 N 
HETATM    6  C1  UNL     1      -1.584  -2.361   1.384  1.00  0.00     0.152 C 
BRANCH   5   7
HETATM    7  C6  UNL     1      -1.243  -0.191   0.138  1.00  0.00     0.086 C 
HETATM    8  C7  UNL     1      -1.824   0.634   1.253  1.00  0.00     0.025 C 
HETATM    9  C8  UNL     1      -2.752   1.711   0.783  1.00  0.00     0.002 C 
HETATM   10  C9  UNL     1      -3.700   1.291  -0.286  1.00  0.00     0.000 C 
HETATM   11  C10 UNL     1      -2.863   0.753  -1.455  1.00  0.00     0.002 C 
HETATM   12  C11 UNL     1      -2.262  -0.553  -0.912  1.00  0.00     0.025 C 
ENDBRANCH   5   7
ENDBRANCH   3   5
ENDBRANCH   1   3
BRANCH   1  13
HETATM   13  N3  UNL     1       2.958  -1.475  -0.219  1.00  0.00    -0.019 NA
BRANCH  13  14
HETATM   14  N4  UNL     1       3.707  -0.808  -1.161  1.00  0.00    -0.268 N 
ATOM     15  H4  UNL     1       3.859  -1.250  -2.068  1.00  0.00     0.186 HD
BRANCH  14  16
HETATM   16  C3  UNL     1       4.277   0.472  -0.921  1.00  0.00     0.140 A 
HETATM   17  C4  UNL     1       4.182   1.227   0.238  1.00  0.00     0.078 A 
HETATM   18  C5  UNL     1       4.882   2.387   0.020  1.00  0.00     0.171 A 
HETATM   19  O1  UNL     1       5.363   2.326  -1.191  1.00  0.00    -0.248 OA
HETATM   20  N5  UNL     1       5.020   1.210  -1.762  1.00  0.00    -0.244 N 
ATOM     21  H5  UNL     1       5.277   0.935  -2.710  1.00  0.00     0.196 HD
ENDBRANCH  14  16
ENDBRANCH  13  14
ENDBRANCH   1  13
TORSDOF 6
