REMARK  4 active torsions:
REMARK  status: ('A' for Active; 'I' for Inactive)
REMARK       I    between atoms: C1_2  and  N1_3 
REMARK       I    between atoms: C1_2  and  N3_13 
REMARK    1  A    between atoms: N1_3  and  N2_5 
REMARK    2  A    between atoms: C2_7  and  C3_8 
REMARK    3  A    between atoms: N3_13  and  N4_14 
REMARK    4  A    between atoms: N4_14  and  C7_16 
ROOT
HETATM    1  O1  UNL     1       0.912   0.811   0.481  1.00  0.00    -0.227 OA
HETATM    2  C1  UNL     1       0.541  -0.236   0.422  1.00  0.00     0.430 C 
HETATM    3  N1  UNL     1       1.360  -1.415   0.088  1.00  0.00    -0.238 N 
ATOM      4  H1  UNL     1       0.737  -2.199   0.282  1.00  0.00     0.193 HD
HETATM    5  N3  UNL     1      -0.745  -0.848   0.529  1.00  0.00    -0.264 NA
ENDROOT
BRANCH   3   6
HETATM    6  N2  UNL     1       2.413  -1.971  -0.307  1.00  0.00    -0.306 N 
HETATM    7  C2  UNL     1       3.596  -1.756  -0.649  1.00  0.00     0.126 C 
ATOM      8  H2  UNL     1       2.239  -2.974  -0.374  1.00  0.00     0.186 HD
BRANCH   7   9
HETATM    9  C3  UNL     1       4.071  -0.354  -0.629  1.00  0.00     0.021 A 
HETATM   10  C4  UNL     1       4.678   0.136   0.519  1.00  0.00     0.021 A 
HETATM   11  C5  UNL     1       4.996   1.437   0.544  1.00  0.00     0.008 A 
HETATM   12  C6  UNL     1       4.695   2.167  -0.585  1.00  0.00     0.050 A 
HETATM   13  S1  UNL     1       3.974   1.008  -1.604  1.00  0.00    -0.101 SA
ENDBRANCH   7   9
ENDBRANCH   3   6
BRANCH   5  14
HETATM   14  N4  UNL     1      -1.946  -1.388   0.637  1.00  0.00    -0.231 N 
ATOM     15  H4  UNL     1      -2.097  -2.279   1.110  1.00  0.00     0.202 HD
BRANCH  14  16
HETATM   16  C7  UNL     1      -3.038  -0.639   0.043  1.00  0.00     0.061 A 
HETATM   17  C8  UNL     1      -3.089  -0.231  -1.229  1.00  0.00     0.032 A 
HETATM   18  C9  UNL     1      -4.080   0.742  -1.613  1.00  0.00     0.002 A 
HETATM   19  C10 UNL     1      -4.944   1.237  -0.663  1.00  0.00     0.000 A 
HETATM   20  C11 UNL     1      -4.877   0.772   0.645  1.00  0.00     0.002 A 
HETATM   21  C12 UNL     1      -3.952  -0.149   0.973  1.00  0.00     0.032 A 
ENDBRANCH  14  16
ENDBRANCH   5  14
TORSDOF 4
