REMARK  12 active torsions:
REMARK  status: ('A' for Active; 'I' for Inactive)
REMARK    1  A    between atoms: C2_2  and  C3_3 
REMARK    2  A    between atoms: C3_3  and  C4_4 
REMARK    3  A    between atoms: C4_4  and  N1_5 
REMARK    4  A    between atoms: C4_4  and  C27_43 
REMARK       I    between atoms: N1_5  and  C5_7 
REMARK    5  A    between atoms: C5_7  and  C6_9 
REMARK       I    between atoms: N2_14  and  C11_15 
REMARK    6  A    between atoms: C11_15  and  C12_17 
REMARK    7  A    between atoms: C12_17  and  C13_18 
REMARK    8  A    between atoms: C13_18  and  C14_19 
REMARK    9  A    between atoms: C16_23  and  N4_24 
REMARK       I    between atoms: N4_24  and  C17_26 
REMARK       I    between atoms: C17_26  and  N6_31 
REMARK   10  A    between atoms: N5_27  and  C18_29 
REMARK       I    between atoms: N6_31  and  C20_32 
REMARK       I    between atoms: C20_32  and  N7_34 
REMARK       I    between atoms: C27_43  and  N9_45 
REMARK   11  A    between atoms: N9_45  and  C28_47 
REMARK   12  A    between atoms: C28_47  and  C30_49 
ROOT
HETATM    1  C12 UNL     1      -0.981   1.548  -2.592  1.00  0.00     0.132 C 
ENDROOT
BRANCH   1   2
HETATM    2  C11 UNL     1      -1.679   0.604  -1.715  1.00  0.00     0.224 C 
HETATM    3  N2  UNL     1      -2.632  -0.323  -2.150  1.00  0.00    -0.338 N 
HETATM    4  C6  UNL     1      -3.567  -1.155  -1.491  1.00  0.00     0.179 C 
HETATM    5  C10 UNL     1      -2.556  -0.649  -3.618  1.00  0.00     0.127 C 
HETATM    6  C7  UNL     1      -2.811  -2.475  -1.246  1.00  0.00     0.035 C 
HETATM    7  C8  UNL     1      -1.726  -2.589  -2.323  1.00  0.00     0.004 C 
HETATM    8  C9  UNL     1      -2.279  -2.167  -3.647  1.00  0.00     0.020 C 
HETATM    9  O2  UNL     1      -1.365   0.689  -0.476  1.00  0.00    -0.273 OA
BRANCH   4  10
HETATM   10  C5  UNL     1      -4.293  -0.691  -0.339  1.00  0.00     0.241 C 
HETATM   11  N1  UNL     1      -5.452  -1.375   0.170  1.00  0.00    -0.346 N 
ATOM     12  H1  UNL     1      -5.750  -2.236  -0.289  1.00  0.00     0.163 HD
HETATM   13  O1  UNL     1      -3.976   0.338   0.286  1.00  0.00    -0.271 OA
BRANCH  11  14
HETATM   14  C4  UNL     1      -6.224  -0.891   1.317  1.00  0.00     0.180 C 
BRANCH  14  15
HETATM   15  C3  UNL     1      -6.653  -2.020   2.183  1.00  0.00     0.061 C 
BRANCH  15  16
HETATM   16  C2  UNL     1      -7.433  -1.626   3.365  1.00  0.00    -0.034 C 
HETATM   17  C1  UNL     1      -8.647  -2.050   3.658  1.00  0.00     0.007 C 
ENDBRANCH  15  16
ENDBRANCH  14  15
BRANCH  14  18
HETATM   18  C27 UNL     1      -7.347  -0.049   0.787  1.00  0.00     0.241 C 
HETATM   19  O4  UNL     1      -7.545  -0.024  -0.477  1.00  0.00    -0.271 OA
HETATM   20  N9  UNL     1      -8.200   0.728   1.585  1.00  0.00    -0.347 N 
ATOM     21  H9  UNL     1      -8.073   0.739   2.597  1.00  0.00     0.163 HD
BRANCH  20  22
HETATM   22  C28 UNL     1      -9.264   1.518   0.983  1.00  0.00     0.169 C 
HETATM   23  C29 UNL     1     -10.629   1.139   1.475  1.00  0.00     0.042 C 
BRANCH  22  24
HETATM   24  C30 UNL     1      -9.018   2.937   1.331  1.00  0.00     0.253 C 
HETATM   25  N10 UNL     1      -9.870   3.978   0.834  1.00  0.00    -0.060 NA
HETATM   26  O5  UNL     1      -8.061   3.292   2.067  1.00  0.00    -0.275 OA
ENDBRANCH  22  24
ENDBRANCH  20  22
ENDBRANCH  14  18
ENDBRANCH  11  14
ENDBRANCH   4  10
ENDBRANCH   1   2
BRANCH   1  27
HETATM   27  C13 UNL     1       0.385   1.317  -3.017  1.00  0.00     0.014 C 
BRANCH  27  28
HETATM   28  C14 UNL     1       1.494   1.148  -2.084  1.00  0.00     0.061 A 
HETATM   29  C15 UNL     1       1.959  -0.080  -1.591  1.00  0.00     0.136 A 
HETATM   30  N3  UNL     1       3.047   0.141  -0.839  1.00  0.00    -0.199 N 
HETATM   31  C16 UNL     1       3.299   1.435  -0.823  1.00  0.00     0.686 A 
ATOM     32  H3  UNL     1       3.591  -0.575  -0.358  1.00  0.00     0.183 HD
HETATM   33  N8  UNL     1       2.346   2.055  -1.584  1.00  0.00    -0.191 N 
ATOM     34  H8  UNL     1       2.291   3.060  -1.747  1.00  0.00     0.184 HD
BRANCH  31  35
HETATM   35  N4  UNL     1       4.321   2.046  -0.283  1.00  0.00    -0.149 N 
HETATM   36  C17 UNL     1       5.302   1.187   0.372  1.00  0.00     0.274 C 
HETATM   37  N5  UNL     1       5.121   1.008   1.620  1.00  0.00    -0.350 N 
HETATM   38  N6  UNL     1       6.353   0.594  -0.291  1.00  0.00    -0.316 NA
ATOM     39  H5  UNL     1       5.787   0.412   2.112  1.00  0.00     0.163 HD
HETATM   40  C20 UNL     1       7.384   0.018  -0.960  1.00  0.00     0.399 C 
HETATM   41  O3  UNL     1       7.664   0.124  -2.208  1.00  0.00    -0.230 OA
HETATM   42  N7  UNL     1       8.361  -0.845  -0.285  1.00  0.00    -0.322 N 
HETATM   43  C21 UNL     1       8.089  -0.974   1.115  1.00  0.00     0.129 C 
HETATM   44  C26 UNL     1       9.387  -1.350  -1.147  1.00  0.00     0.129 C 
HETATM   45  C22 UNL     1       9.216  -1.678   1.852  1.00  0.00     0.020 C 
HETATM   46  C23 UNL     1      10.517  -0.969   1.747  1.00  0.00     0.002 C 
HETATM   47  C24 UNL     1      10.668  -0.099   0.520  1.00  0.00     0.002 C 
HETATM   48  C25 UNL     1      10.765  -0.873  -0.759  1.00  0.00     0.020 C 
ATOM     49  H4  UNL     1       4.426   3.060  -0.317  1.00  0.00     0.188 HD
BRANCH  37  50
HETATM   50  C18 UNL     1       4.058   1.578   2.383  1.00  0.00     0.119 C 
HETATM   51  C19 UNL     1       4.502   2.985   2.784  1.00  0.00     0.026 C 
ENDBRANCH  37  50
ENDBRANCH  31  35
ENDBRANCH  27  28
ENDBRANCH   1  27
TORSDOF 12
