REMARK  13 active torsions:
REMARK  status: ('A' for Active; 'I' for Inactive)
REMARK    1  A    between atoms: C2_2  and  C3_3 
REMARK    2  A    between atoms: C5_8  and  C6_9 
REMARK    3  A    between atoms: C6_9  and  C7_10 
REMARK    4  A    between atoms: N3_14  and  C9_15 
REMARK    5  A    between atoms: C12_20  and  O2_21 
REMARK    6  A    between atoms: C13_23  and  C14_24 
REMARK    7  A    between atoms: C14_24  and  C15_25 
REMARK    8  A    between atoms: C15_25  and  C16_26 
REMARK    9  A    between atoms: C16_26  and  C17_27 
REMARK   10  A    between atoms: C17_27  and  C18_28 
REMARK   11  A    between atoms: C24_37  and  O4_38 
REMARK   12  A    between atoms: C25_42  and  C26_43 
REMARK   13  A    between atoms: C29_46  and  O5_47 
ROOT
HETATM    1  C3  UNL     1       2.210  -2.731   2.177  1.00  0.00     0.187 C 
HETATM    2  N1  UNL     1       2.045  -1.611   3.098  1.00  0.00    -0.338 N 
ATOM      3  H1  UNL     1       2.415  -1.742   4.039  1.00  0.00     0.164 HD
HETATM    4  C4  UNL     1       1.441  -0.386   2.839  1.00  0.00     0.242 C 
HETATM    5  O1  UNL     1       0.796   0.165   3.771  1.00  0.00    -0.271 OA
HETATM    6  C5  UNL     1       1.503   0.332   1.520  1.00  0.00     0.179 C 
HETATM    7  N4  UNL     1       0.774   1.568   1.619  1.00  0.00    -0.360 N 
ATOM      8  H4  UNL     1       0.885   2.052   2.510  1.00  0.00     0.162 HD
HETATM    9  C12 UNL     1      -0.061   2.223   0.706  1.00  0.00     0.125 C 
HETATM   10  C13 UNL     1      -1.236   1.712  -0.041  1.00  0.00     0.152 C 
HETATM   11  C19 UNL     1      -1.996   0.658   0.615  1.00  0.00     0.232 C 
HETATM   12  O3  UNL     1      -1.967   0.655   1.896  1.00  0.00    -0.272 OA
HETATM   13  N5  UNL     1      -2.775  -0.377   0.049  1.00  0.00    -0.339 N 
HETATM   14  C20 UNL     1      -4.129  -0.882   0.215  1.00  0.00     0.127 C 
HETATM   15  C21 UNL     1      -4.656  -0.911  -1.188  1.00  0.00     0.022 C 
HETATM   16  C22 UNL     1      -3.414  -1.016  -2.036  1.00  0.00     0.035 C 
HETATM   17  C23 UNL     1      -2.288  -1.285  -1.022  1.00  0.00     0.161 C 
HETATM   18  C24 UNL     1      -2.300  -2.707  -0.616  1.00  0.00     0.135 C 
HETATM   19  N6  UNL     1      -1.442  -3.484   0.117  1.00  0.00    -0.360 N 
ATOM     20  H6  UNL     1      -1.828  -3.704   1.035  1.00  0.00     0.162 HD
HETATM   21  C25 UNL     1      -0.145  -4.070  -0.064  1.00  0.00     0.161 C 
HETATM   22  C29 UNL     1       0.493  -4.416   1.226  1.00  0.00     0.138 C 
HETATM   23  N7  UNL     1       1.079  -3.624   2.214  1.00  0.00    -0.347 N 
HETATM   24  C30 UNL     1       0.486  -3.719   3.576  1.00  0.00     0.153 C 
ENDROOT
BRANCH   6  25
HETATM   25  C6  UNL     1       3.003   0.604   1.367  1.00  0.00     0.076 C 
BRANCH  25  26
HETATM   26  C7  UNL     1       3.387   1.295   0.149  1.00  0.00    -0.022 A 
HETATM   27  C8  UNL     1       3.657   0.731  -1.081  1.00  0.00     0.115 A 
HETATM   28  N2  UNL     1       4.003   1.717  -1.932  1.00  0.00    -0.310 N 
HETATM   29  N3  UNL     1       3.960   2.865  -1.290  1.00  0.00    -0.304 N 
ATOM     30  H2  UNL     1       4.256   1.594  -2.912  1.00  0.00     0.186 HD
HETATM   31  C11 UNL     1       3.588   2.638  -0.020  1.00  0.00     0.118 A 
BRANCH  29  32
HETATM   32  C9  UNL     1       4.263   4.158  -1.857  1.00  0.00     0.143 C 
HETATM   33  C10 UNL     1       5.719   4.517  -1.720  1.00  0.00     0.028 C 
ENDBRANCH  29  32
ENDBRANCH  25  26
ENDBRANCH   6  25
BRANCH   9  34
HETATM   34  O2  UNL     1       0.159   3.474   0.415  1.00  0.00    -0.349 OA
ATOM     35  H2  UNL     1      -0.408   3.918  -0.205  1.00  0.00     0.219 HD
ENDBRANCH   9  34
BRANCH   1  36
HETATM   36  C2  UNL     1       3.380  -3.610   2.685  1.00  0.00     0.042 C 
HETATM   37  C1  UNL     1       4.673  -2.885   2.767  1.00  0.00     0.009 C 
ENDBRANCH   1  36
BRANCH  10  38
HETATM   38  C14 UNL     1      -2.113   2.921  -0.298  1.00  0.00     0.022 C 
BRANCH  38  39
HETATM   39  C15 UNL     1      -3.361   2.739  -1.024  1.00  0.00     0.001 C 
BRANCH  39  40
HETATM   40  C16 UNL     1      -4.025   4.127  -1.140  1.00  0.00     0.001 C 
BRANCH  40  41
HETATM   41  C17 UNL     1      -5.325   4.027  -1.876  1.00  0.00     0.011 C 
BRANCH  41  42
HETATM   42  C18 UNL     1      -5.930   5.415  -1.957  1.00  0.00     0.086 C 
HETATM   43  S1  UNL     1      -6.217   6.072  -0.272  1.00  0.00    -0.098 SA
ENDBRANCH  41  42
ENDBRANCH  40  41
ENDBRANCH  39  40
ENDBRANCH  38  39
ENDBRANCH  10  38
BRANCH  22  44
HETATM   44  O5  UNL     1       0.492  -5.716   1.464  1.00  0.00    -0.348 OA
ATOM     45  H5  UNL     1       0.901  -5.938   2.292  1.00  0.00     0.219 HD
ENDBRANCH  22  44
BRANCH  21  46
HETATM   46  C26 UNL     1       0.796  -3.420  -1.000  1.00  0.00     0.008 C 
HETATM   47  C27 UNL     1       0.204  -3.384  -2.429  1.00  0.00     0.012 C 
HETATM   48  C28 UNL     1       2.066  -4.251  -1.214  1.00  0.00     0.012 C 
ENDBRANCH  21  46
BRANCH  18  49
HETATM   49  O4  UNL     1      -3.363  -3.330  -1.062  1.00  0.00    -0.348 OA
ATOM     50  H4  UNL     1      -3.371  -4.243  -0.801  1.00  0.00     0.219 HD
ENDBRANCH  18  49
TORSDOF 13
