REMARK  11 active torsions:
REMARK  status: ('A' for Active; 'I' for Inactive)
REMARK    1  A    between atoms: C9_9  and  N1_10 
REMARK       I    between atoms: N1_10  and  C10_12 
REMARK       I    between atoms: N3_14  and  C11_16 
REMARK       I    between atoms: C11_16  and  N5_20 
REMARK    2  A    between atoms: N5_20  and  C12_22 
REMARK    3  A    between atoms: C12_22  and  C13_23 
REMARK    4  A    between atoms: C13_23  and  C14_24 
REMARK    5  A    between atoms: C14_24  and  N6_25 
REMARK       I    between atoms: N6_25  and  C15_27 
REMARK       I    between atoms: C15_27  and  N7_29 
REMARK    6  A    between atoms: C18_32  and  C19_33 
REMARK       I    between atoms: C19_33  and  N8_35 
REMARK    7  A    between atoms: N8_35  and  C20_37 
REMARK    8  A    between atoms: C20_37  and  C21_38 
REMARK    9  A    between atoms: C21_38  and  N9_39 
REMARK   10  A    between atoms: C25_43  and  C26_44 
REMARK   11  A    between atoms: C26_44  and  S1_45 
ROOT
HETATM    1  C13 UNL     1      -0.462  -1.317   0.666  1.00  0.00     0.040 C 
ENDROOT
BRANCH   1   2
HETATM    2  C12 UNL     1      -0.254   0.097   1.220  1.00  0.00     0.139 C 
BRANCH   2   3
HETATM    3  N5  UNL     1      -1.466   0.813   1.216  1.00  0.00    -0.226 N 
HETATM    4  C11 UNL     1      -2.541   0.552   2.076  1.00  0.00     0.674 C 
HETATM    5  N3  UNL     1      -3.099  -0.705   2.246  1.00  0.00    -0.164 N 
HETATM    6  N4  UNL     1      -3.011   1.568   2.748  1.00  0.00    -0.235 N 
HETATM    7  C10 UNL     1      -4.149  -1.078   1.561  1.00  0.00     0.203 C 
ATOM      8  H3  UNL     1      -2.684  -1.351   2.917  1.00  0.00     0.187 HD
HETATM    9  N1  UNL     1      -4.715  -0.189   0.642  1.00  0.00    -0.355 N 
HETATM   10  N2  UNL     1      -4.683  -2.373   1.760  1.00  0.00    -0.063 NA
ATOM     11  H1  UNL     1      -4.097   0.297  -0.008  1.00  0.00     0.163 HD
ATOM     12  H42 UNL     1      -3.794   1.378   3.374  1.00  0.00     0.174 HD
ATOM     13  H41 UNL     1      -2.600   2.493   2.623  1.00  0.00     0.174 HD
ATOM     14  H5  UNL     1      -1.568   1.572   0.542  1.00  0.00     0.177 HD
BRANCH   9  15
HETATM   15  C9  UNL     1      -6.122   0.072   0.570  1.00  0.00     0.034 C 
HETATM   16  C8  UNL     1      -6.363   1.258  -0.381  1.00  0.00     0.035 C 
HETATM   17  C6  UNL     1      -7.829   1.542  -0.450  1.00  0.00    -0.011 C 
HETATM   18  C5  UNL     1      -8.578   0.347  -1.012  1.00  0.00     0.009 C 
HETATM   19  C7  UNL     1      -8.369   1.911   0.902  1.00  0.00     0.014 C 
HETATM   20  C4  UNL     1      -8.350  -0.818  -0.107  1.00  0.00    -0.011 C 
HETATM   21  C3  UNL     1      -8.808  -0.516   1.303  1.00  0.00     0.014 C 
HETATM   22  C28 UNL     1      -6.847  -1.089  -0.047  1.00  0.00     0.035 C 
HETATM   23  C2  UNL     1      -8.141   0.728   1.820  1.00  0.00    -0.041 C 
HETATM   24  C1  UNL     1      -8.636   1.043   3.208  1.00  0.00     0.015 C 
HETATM   25  C29 UNL     1      -6.659   0.453   1.911  1.00  0.00     0.040 C 
ENDBRANCH   9  15
ENDBRANCH   2   3
ENDBRANCH   1   2
BRANCH   1  26
HETATM   26  C14 UNL     1      -0.980  -1.082  -0.748  1.00  0.00     0.126 C 
BRANCH  26  27
HETATM   27  N6  UNL     1       0.024  -0.371  -1.485  1.00  0.00    -0.343 N 
HETATM   28  C15 UNL     1       1.264  -0.947  -1.788  1.00  0.00     0.318 C 
HETATM   29  O1  UNL     1       1.480  -2.139  -1.417  1.00  0.00    -0.247 OA
HETATM   30  N7  UNL     1       2.238  -0.199  -2.494  1.00  0.00    -0.328 N 
HETATM   31  C16 UNL     1       2.103   1.174  -2.924  1.00  0.00     0.129 C 
HETATM   32  C25 UNL     1       3.555  -0.599  -2.983  1.00  0.00     0.115 C 
HETATM   33  C17 UNL     1       3.516   1.711  -2.744  1.00  0.00     0.036 C 
HETATM   34  C18 UNL     1       4.431   0.512  -2.619  1.00  0.00     0.103 C 
ATOM     35  H6  UNL     1      -0.170   0.580  -1.797  1.00  0.00     0.164 HD
BRANCH  34  36
HETATM   36  C19 UNL     1       5.054   0.548  -1.296  1.00  0.00     0.224 C 
HETATM   37  O2  UNL     1       4.765  -0.217  -0.346  1.00  0.00    -0.273 OA
HETATM   38  N8  UNL     1       6.054   1.504  -1.059  1.00  0.00    -0.359 N 
ATOM     39  H8  UNL     1       6.300   2.138  -1.820  1.00  0.00     0.162 HD
BRANCH  38  40
HETATM   40  C20 UNL     1       6.759   1.647   0.198  1.00  0.00     0.150 C 
BRANCH  40  41
HETATM   41  C21 UNL     1       7.534   0.418   0.583  1.00  0.00     0.255 C 
BRANCH  41  42
HETATM   42  N9  UNL     1       8.208   0.673   1.842  1.00  0.00    -0.077 N 
HETATM   43  C22 UNL     1       9.346   1.577   1.637  1.00  0.00     0.271 C 
HETATM   44  C23 UNL     1       7.323   1.325   2.762  1.00  0.00     0.271 C 
HETATM   45  C24 UNL     1       8.678  -0.594   2.379  1.00  0.00     0.271 C 
ENDBRANCH  41  42
ENDBRANCH  40  41
ENDBRANCH  38  40
ENDBRANCH  34  36
BRANCH  32  46
HETATM   46  C26 UNL     1       3.931  -1.971  -2.628  1.00  0.00     0.166 C 
BRANCH  46  47
HETATM   47  S1  UNL     1       5.531  -2.419  -3.283  1.00  0.00     0.142 S 
HETATM   48  C27 UNL     1       5.872  -4.112  -2.786  1.00  0.00     0.161 C 
HETATM   49  O3  UNL     1       6.630  -1.534  -2.861  1.00  0.00    -0.228 OA
HETATM   50  O4  UNL     1       5.375  -2.456  -4.797  1.00  0.00    -0.228 OA
ENDBRANCH  46  47
ENDBRANCH  32  46
ENDBRANCH  26  27
ENDBRANCH   1  26
TORSDOF 11
