REMARK  12 active torsions:
REMARK  status: ('A' for Active; 'I' for Inactive)
REMARK       I    between atoms: N1_1  and  C1_4 
REMARK       I    between atoms: C1_4  and  N3_6 
REMARK    1  A    between atoms: C4_9  and  C5_10 
REMARK       I    between atoms: C5_10  and  N4_12 
REMARK    2  A    between atoms: C6_13  and  C7_14 
REMARK       I    between atoms: C7_14  and  N5_16 
REMARK    3  A    between atoms: N5_16  and  C8_17 
REMARK    4  A    between atoms: C16_27  and  C17_28 
REMARK       I    between atoms: C17_28  and  N7_30 
REMARK    5  A    between atoms: N7_30  and  C18_32 
REMARK       I    between atoms: N8_38  and  C24_39 
REMARK    6  A    between atoms: C24_39  and  C25_41 
REMARK    7  A    between atoms: C25_41  and  C26_42 
REMARK    8  A    between atoms: C26_42  and  C27_43 
REMARK    9  A    between atoms: C27_43  and  C28_44 
REMARK   10  A    between atoms: C28_44  and  C29_45 
REMARK   11  A    between atoms: C29_45  and  C30_46 
REMARK   12  A    between atoms: C30_46  and  N9_47 
REMARK       I    between atoms: N9_47  and  C31_49 
ROOT
HETATM    1  C5  UNL     1      -1.127  -0.977   0.113  1.00  0.00     0.246 C 
HETATM    2  O1  UNL     1      -0.914  -2.158   0.570  1.00  0.00    -0.271 OA
HETATM    3  N4  UNL     1      -2.445  -0.579   0.016  1.00  0.00    -0.322 N 
HETATM    4  C6  UNL     1      -3.487  -1.514   0.202  1.00  0.00     0.195 C 
HETATM    5  C13 UNL     1      -4.843  -0.961   0.421  1.00  0.00     0.036 C 
HETATM    6  C14 UNL     1      -5.227   0.171  -0.482  1.00  0.00     0.005 C 
HETATM    7  C15 UNL     1      -4.050   0.747  -1.231  1.00  0.00     0.035 C 
HETATM    8  C16 UNL     1      -2.803   0.776  -0.300  1.00  0.00     0.180 C 
ENDROOT
BRANCH   1   9
HETATM    9  C4  UNL     1       0.124  -0.266  -0.248  1.00  0.00     0.205 C 
HETATM   10  C3  UNL     1       0.257  -0.385  -1.799  1.00  0.00     0.059 C 
HETATM   11  C2  UNL     1       0.285  -1.906  -1.892  1.00  0.00     0.155 C 
HETATM   12  N3  UNL     1       1.216  -2.226  -0.778  1.00  0.00    -0.259 N 
HETATM   13  C1  UNL     1       1.874  -3.448  -0.752  1.00  0.00     0.203 C 
HETATM   14  N8  UNL     1       1.285  -1.078   0.060  1.00  0.00    -0.242 N 
HETATM   15  N1  UNL     1       3.017  -3.647  -1.313  1.00  0.00    -0.372 N 
HETATM   16  N2  UNL     1       1.386  -4.648  -0.112  1.00  0.00    -0.062 NA
ATOM     17  H12 UNL     1       3.500  -4.545  -1.294  1.00  0.00     0.158 HD
ATOM     18  H11 UNL     1       3.361  -2.800  -1.765  1.00  0.00     0.158 HD
HETATM   19  C24 UNL     1       2.346  -0.920   1.025  1.00  0.00     0.239 C 
HETATM   20  O4  UNL     1       3.024  -1.881   1.376  1.00  0.00    -0.272 OA
BRANCH  19  21
HETATM   21  C25 UNL     1       2.596   0.441   1.579  1.00  0.00     0.105 C 
BRANCH  21  22
HETATM   22  C26 UNL     1       4.041   0.620   2.028  1.00  0.00     0.009 C 
BRANCH  22  23
HETATM   23  C27 UNL     1       4.968   0.215   0.918  1.00  0.00     0.001 C 
BRANCH  23  24
HETATM   24  C28 UNL     1       6.425   0.582   1.267  1.00  0.00     0.002 C 
BRANCH  24  25
HETATM   25  C29 UNL     1       7.348  -0.128   0.348  1.00  0.00     0.020 C 
BRANCH  25  26
HETATM   26  C30 UNL     1       8.815   0.280   0.435  1.00  0.00     0.122 C 
BRANCH  26  27
HETATM   27  N9  UNL     1       8.846   1.648  -0.162  1.00  0.00    -0.365 N 
HETATM   28  C31 UNL     1       9.817   1.752  -1.116  1.00  0.00     0.181 C 
HETATM   29  N10 UNL     1      10.631   0.715  -1.421  1.00  0.00    -0.374 N 
HETATM   30  N11 UNL     1       9.781   3.025  -1.714  1.00  0.00    -0.064 NA
ATOM     31 2H10 UNL     1      10.657  -0.208  -0.987  1.00  0.00     0.158 HD
ATOM     32 1H10 UNL     1      11.356   0.793  -2.134  1.00  0.00     0.158 HD
ATOM     33  H9  UNL     1       8.222   2.408   0.108  1.00  0.00     0.162 HD
ENDBRANCH  26  27
ENDBRANCH  25  26
ENDBRANCH  24  25
ENDBRANCH  23  24
ENDBRANCH  22  23
ENDBRANCH  21  22
ENDBRANCH  19  21
ENDBRANCH   1   9
BRANCH   4  34
HETATM   34  C7  UNL     1      -3.254  -2.589   1.293  1.00  0.00     0.315 C 
HETATM   35  O2  UNL     1      -3.066  -2.208   2.468  1.00  0.00    -0.255 OA
HETATM   36  N5  UNL     1      -3.270  -3.837   0.838  1.00  0.00    -0.369 NA
BRANCH  36  37
HETATM   37  C8  UNL     1      -3.283  -4.936   0.438  1.00  0.00     0.113 A 
HETATM   38  C9  UNL     1      -4.564  -4.933  -0.422  1.00  0.00     0.062 A 
HETATM   39  C10 UNL     1      -4.911  -6.017  -1.088  1.00  0.00     0.091 A 
HETATM   40  N6  UNL     1      -4.131  -7.205  -1.033  1.00  0.00    -0.375 N 
HETATM   41  C11 UNL     1      -3.048  -7.154  -0.279  1.00  0.00     0.091 A 
ATOM     42  H6  UNL     1      -4.393  -8.047  -1.546  1.00  0.00     0.164 HD
HETATM   43  C12 UNL     1      -2.655  -6.064   0.417  1.00  0.00     0.062 A 
ENDBRANCH  36  37
ENDBRANCH   4  34
BRANCH   8  44
HETATM   44  C17 UNL     1      -3.180   1.607   0.884  1.00  0.00     0.241 C 
HETATM   45  O3  UNL     1      -3.336   1.533   2.010  1.00  0.00    -0.271 OA
HETATM   46  N7  UNL     1      -3.462   3.043   0.342  1.00  0.00    -0.355 N 
ATOM     47  H7  UNL     1      -3.315   3.264  -0.643  1.00  0.00     0.162 HD
BRANCH  46  48
HETATM   48  C18 UNL     1      -3.928   4.040   1.246  1.00  0.00     0.084 C 
HETATM   49  C19 UNL     1      -5.436   4.240   0.908  1.00  0.00     0.025 C 
HETATM   50  C20 UNL     1      -5.579   4.697  -0.509  1.00  0.00     0.002 C 
HETATM   51  C21 UNL     1      -4.989   6.061  -0.634  1.00  0.00     0.000 C 
HETATM   52  C22 UNL     1      -4.235   6.400   0.617  1.00  0.00     0.002 C 
HETATM   53  C23 UNL     1      -3.257   5.355   1.059  1.00  0.00     0.025 C 
ENDBRANCH  46  48
ENDBRANCH   8  44
TORSDOF 12
