REMARK  12 active torsions:
REMARK  status: ('A' for Active; 'I' for Inactive)
REMARK    1  A    between atoms: C2_2  and  C4_4 
REMARK    2  A    between atoms: C4_4  and  N1_5 
REMARK    3  A    between atoms: C4_4  and  C25_37 
REMARK       I    between atoms: N1_5  and  C5_7 
REMARK    4  A    between atoms: C5_7  and  C6_9 
REMARK    5  A    between atoms: C6_9  and  C7_10 
REMARK    6  A    between atoms: C6_9  and  N2_17 
REMARK    7  A    between atoms: C7_10  and  C8_11 
REMARK       I    between atoms: N2_17  and  C14_19 
REMARK       I    between atoms: C14_19  and  N3_21 
REMARK    8  A    between atoms: C17_24  and  N4_25 
REMARK       I    between atoms: C25_37  and  N7_39 
REMARK    9  A    between atoms: N7_39  and  C26_41 
REMARK   10  A    between atoms: C26_41  and  C27_42 
REMARK   11  A    between atoms: C27_42  and  C28_43 
REMARK   12  A    between atoms: C28_43  and  N8_44 
ROOT
HETATM    1  C6  UNL     1       0.336  -2.116   0.478  1.00  0.00     0.178 C 
ENDROOT
BRANCH   1   2
HETATM    2  C5  UNL     1      -0.975  -1.509   0.705  1.00  0.00     0.241 C 
HETATM    3  N1  UNL     1      -2.127  -1.641  -0.071  1.00  0.00    -0.346 N 
ATOM      4  H1  UNL     1      -2.093  -2.221  -0.909  1.00  0.00     0.163 HD
HETATM    5  O1  UNL     1      -1.068  -0.763   1.745  1.00  0.00    -0.271 OA
BRANCH   3   6
HETATM    6  C4  UNL     1      -3.370  -0.982   0.274  1.00  0.00     0.180 C 
BRANCH   6   7
HETATM    7  C2  UNL     1      -4.575  -1.808   0.011  1.00  0.00     0.009 C 
HETATM    8  C1  UNL     1      -4.504  -3.100   0.837  1.00  0.00     0.012 C 
HETATM    9  C3  UNL     1      -4.716  -2.183  -1.459  1.00  0.00     0.012 C 
ENDBRANCH   6   7
BRANCH   6  10
HETATM   10  C25 UNL     1      -3.502   0.320  -0.446  1.00  0.00     0.241 C 
HETATM   11  O3  UNL     1      -2.597   0.687  -1.197  1.00  0.00    -0.271 OA
HETATM   12  N7  UNL     1      -4.652   1.096  -0.244  1.00  0.00    -0.350 N 
ATOM     13  H7  UNL     1      -5.360   0.714   0.383  1.00  0.00     0.163 HD
BRANCH  12  14
HETATM   14  C26 UNL     1      -4.934   2.385  -0.837  1.00  0.00     0.034 C 
HETATM   15  C30 UNL     1      -4.648   2.598  -2.270  1.00  0.00     0.031 C 
HETATM   16  C31 UNL     1      -4.008   3.947  -1.905  1.00  0.00     0.005 C 
HETATM   17  C32 UNL     1      -3.856   3.425  -0.499  1.00  0.00     0.031 C 
BRANCH  14  18
HETATM   18  C27 UNL     1      -6.260   2.936  -0.373  1.00  0.00     0.050 C 
BRANCH  18  19
HETATM   19  C28 UNL     1      -7.436   2.074  -0.687  1.00  0.00     0.124 C 
BRANCH  19  20
HETATM   20  N8  UNL     1      -7.671   1.832  -2.079  1.00  0.00    -0.367 N 
HETATM   21  C29 UNL     1      -8.778   2.149  -2.677  1.00  0.00     0.196 C 
HETATM   22  N9  UNL     1      -8.900   1.867  -4.045  1.00  0.00    -0.067 NA
HETATM   23  N10 UNL     1      -9.777   2.754  -1.887  1.00  0.00    -0.067 NA
ATOM     24  H8  UNL     1      -6.933   1.389  -2.626  1.00  0.00     0.161 HD
ENDBRANCH  19  20
ENDBRANCH  18  19
ENDBRANCH  14  18
ENDBRANCH  12  14
ENDBRANCH   6  10
ENDBRANCH   3   6
ENDBRANCH   1   2
BRANCH   1  25
HETATM   25  C7  UNL     1       0.656  -3.209   1.478  1.00  0.00     0.039 C 
BRANCH  25  26
HETATM   26  C8  UNL     1      -0.331  -4.345   1.467  1.00  0.00    -0.012 C 
HETATM   27  C9  UNL     1      -0.431  -5.033   0.153  1.00  0.00     0.005 C 
HETATM   28  C10 UNL     1      -0.829  -6.478   0.359  1.00  0.00     0.000 C 
HETATM   29  C11 UNL     1       0.219  -7.283   1.073  1.00  0.00     0.000 C 
HETATM   30  C12 UNL     1       1.069  -6.372   1.898  1.00  0.00     0.000 C 
HETATM   31  C13 UNL     1       0.141  -5.335   2.512  1.00  0.00     0.005 C 
ENDBRANCH  25  26
ENDBRANCH   1  25
BRANCH   1  32
HETATM   32  N2  UNL     1       1.319  -1.051   0.776  1.00  0.00    -0.329 N 
HETATM   33  C14 UNL     1       2.409  -0.795  -0.059  1.00  0.00     0.324 C 
HETATM   34  O2  UNL     1       2.531  -1.539  -1.089  1.00  0.00    -0.247 OA
HETATM   35  N3  UNL     1       3.376   0.206   0.138  1.00  0.00    -0.287 N 
HETATM   36  C15 UNL     1       3.282   1.143   1.262  1.00  0.00     0.138 C 
HETATM   37  C24 UNL     1       4.540   0.521  -0.607  1.00  0.00     0.115 C 
HETATM   38  C16 UNL     1       3.849   2.430   0.680  1.00  0.00     0.064 C 
HETATM   39  C17 UNL     1       4.824   1.930  -0.375  1.00  0.00     0.291 C 
HETATM   40  N6  UNL     1       5.186  -0.297  -1.336  1.00  0.00    -0.387 N 
ATOM     41  H62 UNL     1       4.987  -1.284  -1.499  1.00  0.00     0.157 HD
ATOM     42  H61 UNL     1       6.024  -0.070  -1.872  1.00  0.00     0.157 HD
ATOM     43  H2  UNL     1       1.197  -0.487   1.617  1.00  0.00     0.165 HD
BRANCH  39  44
HETATM   44  N4  UNL     1       6.123   2.323  -0.015  1.00  0.00     0.103 N 
HETATM   45  C18 UNL     1       6.221   3.770  -0.044  1.00  0.00     0.301 C 
HETATM   46  C19 UNL     1       7.334   4.211   0.859  1.00  0.00     0.266 C 
HETATM   47  N5  UNL     1       8.322   3.186   1.073  1.00  0.00    -0.071 N 
HETATM   48  C20 UNL     1       8.030   2.412   2.288  1.00  0.00     0.272 C 
HETATM   49  C21 UNL     1       9.590   3.862   1.332  1.00  0.00     0.272 C 
HETATM   50  C22 UNL     1       8.517   2.337  -0.060  1.00  0.00     0.266 C 
HETATM   51  C23 UNL     1       7.247   1.756  -0.643  1.00  0.00     0.301 C 
ENDBRANCH  39  44
ENDBRANCH   1  32
TORSDOF 12
