REMARK  12 active torsions:
REMARK  status: ('A' for Active; 'I' for Inactive)
REMARK    1  A    between atoms: C2_2  and  C3_6 
REMARK    2  A    between atoms: C3_6  and  N2_8 
REMARK       I    between atoms: N2_8  and  C5_10 
REMARK    3  A    between atoms: C5_10  and  C6_12 
REMARK    4  A    between atoms: C6_12  and  C7_13 
REMARK    5  A    between atoms: C6_12  and  N9_41 
REMARK       I    between atoms: N3_18  and  C12_19 
REMARK    6  A    between atoms: C12_19  and  C13_21 
REMARK    7  A    between atoms: C13_21  and  N4_23 
REMARK       I    between atoms: N4_23  and  C15_25 
REMARK    8  A    between atoms: C15_25  and  C16_27 
REMARK    9  A    between atoms: C16_27  and  C17_28 
REMARK   10  A    between atoms: C16_27  and  N5_32 
REMARK   11  A    between atoms: C17_28  and  C18_29 
REMARK       I    between atoms: N5_32  and  C21_34 
REMARK       I    between atoms: C21_34  and  N6_36 
REMARK   12  A    between atoms: C31_52  and  O5_53 
ROOT
HETATM    1  C7  UNL     1      -0.983   2.227   0.571  1.00  0.00     0.024 C 
HETATM    2  C8  UNL     1      -1.771   3.195   1.426  1.00  0.00     0.055 C 
HETATM    3  C9  UNL     1      -0.861   4.403   1.759  1.00  0.00     0.007 C 
HETATM    4  C10 UNL     1      -0.497   5.086   0.452  1.00  0.00     0.021 C 
HETATM    5  C11 UNL     1       0.478   4.153  -0.207  1.00  0.00     0.131 C 
HETATM    6  N3  UNL     1       0.282   2.804   0.280  1.00  0.00    -0.321 N 
HETATM    7  C12 UNL     1       1.526   2.094   0.485  1.00  0.00     0.246 C 
HETATM    8  O2  UNL     1       2.591   2.686   0.116  1.00  0.00    -0.271 OA
ENDROOT
BRANCH   1   9
HETATM    9  C6  UNL     1      -1.735   1.525  -0.487  1.00  0.00     0.222 C 
BRANCH   9  10
HETATM   10  C5  UNL     1      -2.361   2.490  -1.410  1.00  0.00     0.246 C 
HETATM   11  N2  UNL     1      -3.773   2.771  -1.452  1.00  0.00    -0.350 N 
ATOM     12  H2  UNL     1      -4.369   2.273  -0.791  1.00  0.00     0.163 HD
HETATM   13  O1  UNL     1      -1.718   3.179  -2.276  1.00  0.00    -0.271 OA
BRANCH  11  14
HETATM   14  C3  UNL     1      -4.409   3.690  -2.343  1.00  0.00     0.125 C 
HETATM   15  C4  UNL     1      -5.342   3.013  -3.324  1.00  0.00     0.038 C 
BRANCH  14  16
HETATM   16  C2  UNL     1      -5.182   4.769  -1.667  1.00  0.00    -0.002 C 
HETATM   17  C1  UNL     1      -4.548   5.705  -0.698  1.00  0.00     0.065 C 
HETATM   18  N1  UNL     1      -6.454   4.947  -1.887  1.00  0.00    -0.404 N 
ATOM     19  H12 UNL     1      -6.983   5.686  -1.424  1.00  0.00     0.155 HD
ATOM     20  H11 UNL     1      -6.888   4.306  -2.551  1.00  0.00     0.155 HD
ENDBRANCH  14  16
ENDBRANCH  11  14
ENDBRANCH   9  10
BRANCH   9  21
HETATM   21  N9  UNL     1      -2.632   0.475  -0.082  1.00  0.00    -0.368 N 
HETATM   22  C23 UNL     1      -3.126  -0.262  -1.242  1.00  0.00     0.123 C 
HETATM   23  C24 UNL     1      -2.924  -1.712  -1.277  1.00  0.00     0.020 C 
HETATM   24  C25 UNL     1      -4.108  -2.561  -0.924  1.00  0.00     0.002 C 
HETATM   25  C26 UNL     1      -3.614  -3.947  -0.607  1.00  0.00     0.000 C 
HETATM   26  C27 UNL     1      -3.593  -4.235   0.879  1.00  0.00     0.000 C 
HETATM   27  C28 UNL     1      -2.194  -4.151   1.448  1.00  0.00     0.002 C 
HETATM   28  C29 UNL     1      -2.098  -3.292   2.662  1.00  0.00     0.020 C 
HETATM   29  C30 UNL     1      -1.412  -1.966   2.474  1.00  0.00     0.121 C 
HETATM   30  N10 UNL     1      -2.207  -0.819   2.861  1.00  0.00    -0.370 N 
HETATM   31  C31 UNL     1      -3.276  -0.192   2.245  1.00  0.00     0.151 C 
ATOM     32  H10 UNL     1      -1.929  -0.397   3.747  1.00  0.00     0.161 HD
HETATM   33  C32 UNL     1      -3.466   0.532   0.987  1.00  0.00     0.142 C 
BRANCH  31  34
HETATM   34  O5  UNL     1      -4.380  -0.252   2.944  1.00  0.00    -0.345 OA
ATOM     35  H5  UNL     1      -5.114   0.178   2.521  1.00  0.00     0.219 HD
ENDBRANCH  31  34
ENDBRANCH   9  21
ENDBRANCH   1   9
BRANCH   7  36
HETATM   36  C13 UNL     1       1.682   0.764   1.074  1.00  0.00     0.173 C 
HETATM   37  C14 UNL     1       1.464   0.909   2.575  1.00  0.00     0.042 C 
BRANCH  36  38
HETATM   38  N4  UNL     1       3.085   0.356   0.859  1.00  0.00    -0.346 N 
HETATM   39  C15 UNL     1       3.338  -0.639  -0.112  1.00  0.00     0.241 C 
HETATM   40  O3  UNL     1       2.413  -1.155  -0.774  1.00  0.00    -0.271 OA
ATOM     41  H4  UNL     1       3.845   0.778   1.393  1.00  0.00     0.163 HD
BRANCH  39  42
HETATM   42  C16 UNL     1       4.767  -1.036  -0.302  1.00  0.00     0.178 C 
BRANCH  42  43
HETATM   43  C17 UNL     1       5.257  -1.521   1.034  1.00  0.00     0.038 C 
BRANCH  43  44
HETATM   44  C18 UNL     1       4.519  -2.681   1.612  1.00  0.00    -0.020 C 
HETATM   45  C19 UNL     1       5.161  -2.962   2.988  1.00  0.00     0.009 C 
HETATM   46  C20 UNL     1       4.756  -3.946   0.795  1.00  0.00     0.009 C 
ENDBRANCH  43  44
ENDBRANCH  42  43
BRANCH  42  47
HETATM   47  N5  UNL     1       4.953  -1.942  -1.377  1.00  0.00    -0.330 N 
HETATM   48  C21 UNL     1       5.993  -1.735  -2.339  1.00  0.00     0.323 C 
HETATM   49  O4  UNL     1       6.728  -0.729  -2.195  1.00  0.00    -0.247 OA
HETATM   50  N6  UNL     1       6.225  -2.598  -3.424  1.00  0.00    -0.285 N 
HETATM   51  C22 UNL     1       7.460  -2.919  -3.706  1.00  0.00     0.204 C 
ATOM     52  H6  UNL     1       5.450  -2.964  -3.977  1.00  0.00     0.172 HD
HETATM   53  N7  UNL     1       8.537  -2.411  -2.939  1.00  0.00    -0.066 NA
HETATM   54  N8  UNL     1       7.690  -3.788  -4.803  1.00  0.00    -0.066 NA
ATOM     55  H5  UNL     1       4.338  -2.751  -1.466  1.00  0.00     0.165 HD
ENDBRANCH  42  47
ENDBRANCH  39  42
ENDBRANCH  36  38
ENDBRANCH   7  36
TORSDOF 12
