REMARK  11 active torsions:
REMARK  status: ('A' for Active; 'I' for Inactive)
REMARK    1  A    between atoms: N1_2  and  C3_4 
REMARK    2  A    between atoms: N1_2  and  C9_10 
REMARK    3  A    between atoms: C14_18  and  C15_19 
REMARK    4  A    between atoms: C15_19  and  C16_20 
REMARK    5  A    between atoms: C16_20  and  C17_21 
REMARK    6  A    between atoms: C17_21  and  N3_22 
REMARK    7  A    between atoms: C20_31  and  C21_32 
REMARK    8  A    between atoms: C21_32  and  C22_33 
REMARK    9  A    between atoms: C22_33  and  C23_34 
REMARK   10  A    between atoms: C23_34  and  C24_35 
REMARK   11  A    between atoms: C24_35  and  N7_36 
ROOT
HETATM    1  C9  UNL     1      -4.152   0.790  -0.302  1.00  0.00     0.293 C 
HETATM    2  C10 UNL     1      -4.007   1.295   1.130  1.00  0.00     0.058 C 
HETATM    3  C11 UNL     1      -2.645   1.915   1.056  1.00  0.00     0.039 C 
HETATM    4  C12 UNL     1      -1.918   0.951   0.142  1.00  0.00     0.181 C 
HETATM    5  C13 UNL     1      -1.194   1.817  -0.835  1.00  0.00     0.241 C 
HETATM    6  O1  UNL     1      -1.907   2.321  -1.781  1.00  0.00    -0.271 OA
HETATM    7  N2  UNL     1       0.180   2.089  -0.759  1.00  0.00    -0.346 N 
ATOM      8  H2  UNL     1       0.546   2.703  -1.487  1.00  0.00     0.163 HD
HETATM    9  C14 UNL     1       1.141   1.627   0.196  1.00  0.00     0.176 C 
HETATM   10  C19 UNL     1       2.515   1.702  -0.397  1.00  0.00     0.241 C 
HETATM   11  O2  UNL     1       2.865   2.872  -0.777  1.00  0.00    -0.271 OA
HETATM   12  N6  UNL     1       3.414   0.639  -0.568  1.00  0.00    -0.347 N 
ATOM     13  H6  UNL     1       3.791   0.526  -1.509  1.00  0.00     0.163 HD
HETATM   14  C20 UNL     1       3.873  -0.308   0.400  1.00  0.00     0.162 C 
HETATM   15  C26 UNL     1       2.859  -1.242   0.920  1.00  0.00     0.217 C 
HETATM   16  O3  UNL     1       2.477  -1.141   2.142  1.00  0.00    -0.287 OA
HETATM   17  C27 UNL     1       2.239  -2.297   0.144  1.00  0.00     0.197 C 
HETATM   18  O4  UNL     1       2.062  -3.450   0.670  1.00  0.00    -0.289 OA
HETATM   19  C28 UNL     1       1.774  -2.161  -1.246  1.00  0.00     0.087 C 
HETATM   20  C29 UNL     1       0.651  -3.137  -1.558  1.00  0.00     0.008 C 
HETATM   21  C30 UNL     1      -0.593  -2.401  -2.001  1.00  0.00     0.010 C 
HETATM   22  C31 UNL     1      -1.307  -1.767  -0.795  1.00  0.00     0.103 C 
HETATM   23  C32 UNL     1      -2.420  -0.934  -1.285  1.00  0.00     0.222 C 
HETATM   24  O5  UNL     1      -2.921  -1.229  -2.391  1.00  0.00    -0.273 OA
HETATM   25  N10 UNL     1      -2.939   0.175  -0.560  1.00  0.00    -0.310 N 
ENDROOT
BRANCH   1  26
HETATM   26  N1  UNL     1      -5.428   0.229  -0.422  1.00  0.00    -0.050 N 
HETATM   27  C1  UNL     1      -5.802  -0.110  -1.797  1.00  0.00     0.275 C 
HETATM   28  C2  UNL     1      -6.324   1.386  -0.122  1.00  0.00     0.275 C 
BRANCH  26  29
HETATM   29  C3  UNL     1      -5.845  -0.737   0.537  1.00  0.00     0.192 C 
HETATM   30  C4  UNL     1      -7.292  -1.125   0.327  1.00  0.00     0.033 C 
HETATM   31  C5  UNL     1      -7.439  -2.619   0.035  1.00  0.00     0.002 C 
HETATM   32  C6  UNL     1      -7.075  -3.338   1.312  1.00  0.00     0.000 C 
HETATM   33  C7  UNL     1      -5.771  -2.808   1.779  1.00  0.00     0.002 C 
HETATM   34  C8  UNL     1      -5.053  -1.969   0.703  1.00  0.00     0.033 C 
ENDBRANCH  26  29
ENDBRANCH   1  26
BRANCH   9  35
HETATM   35  C15 UNL     1       1.175   2.249   1.525  1.00  0.00     0.036 C 
BRANCH  35  36
HETATM   36  C16 UNL     1       1.431   3.679   1.707  1.00  0.00     0.022 C 
BRANCH  36  37
HETATM   37  C17 UNL     1       0.408   4.557   1.083  1.00  0.00     0.122 C 
BRANCH  37  38
HETATM   38  N3  UNL     1       0.766   5.973   1.384  1.00  0.00    -0.367 N 
HETATM   39  C18 UNL     1       1.043   6.760   0.426  1.00  0.00     0.196 C 
HETATM   40  N4  UNL     1       1.382   8.103   0.718  1.00  0.00    -0.067 NA
HETATM   41  N5  UNL     1       1.031   6.356  -0.940  1.00  0.00    -0.067 NA
ATOM     42  H3  UNL     1       0.788   6.306   2.348  1.00  0.00     0.161 HD
ENDBRANCH  37  38
ENDBRANCH  36  37
ENDBRANCH  35  36
ENDBRANCH   9  35
BRANCH  14  43
HETATM   43  C21 UNL     1       5.056  -1.119  -0.133  1.00  0.00     0.033 C 
BRANCH  43  44
HETATM   44  C22 UNL     1       6.212  -0.228  -0.476  1.00  0.00     0.004 C 
BRANCH  44  45
HETATM   45  C23 UNL     1       7.373  -1.018  -1.013  1.00  0.00     0.020 C 
BRANCH  45  46
HETATM   46  C24 UNL     1       7.881  -2.028  -0.013  1.00  0.00     0.122 C 
BRANCH  46  47
HETATM   47  N7  UNL     1       9.011  -2.769  -0.563  1.00  0.00    -0.367 N 
HETATM   48  C25 UNL     1       9.329  -3.956  -0.152  1.00  0.00     0.196 C 
HETATM   49  N8  UNL     1       8.557  -4.555   0.864  1.00  0.00    -0.067 NA
HETATM   50  N9  UNL     1      10.443  -4.564  -0.767  1.00  0.00    -0.067 NA
ATOM     51  H7  UNL     1       9.571  -2.337  -1.298  1.00  0.00     0.161 HD
ENDBRANCH  46  47
ENDBRANCH  45  46
ENDBRANCH  44  45
ENDBRANCH  43  44
ENDBRANCH  14  43
TORSDOF 11
