REMARK  11 active torsions:
REMARK  status: ('A' for Active; 'I' for Inactive)
REMARK    1  A    between atoms: C2_2  and  C3_3 
REMARK    2  A    between atoms: C3_3  and  C5_5 
REMARK    3  A    between atoms: C5_5  and  N1_6 
REMARK    4  A    between atoms: C5_5  and  C30_49 
REMARK       I    between atoms: N1_6  and  C6_8 
REMARK    5  A    between atoms: C6_8  and  C7_10 
REMARK    6  A    between atoms: C7_10  and  N2_12 
REMARK    7  A    between atoms: N2_12  and  S1_14 
REMARK    8  A    between atoms: S1_14  and  C9_16 
REMARK    9  A    between atoms: S1_14  and  N6_37 
REMARK       I    between atoms: C9_16  and  N3_18 
REMARK       I    between atoms: C10_20  and  N4_21 
REMARK       I    between atoms: C10_20  and  N5_29 
REMARK   10  A    between atoms: N4_21  and  C11_23 
REMARK   11  A    between atoms: N5_29  and  C18_31 
REMARK       I    between atoms: N7_41  and  C27_42 
ROOT
HETATM    1  S1  UNL     1       0.567   1.500   0.083  1.00  0.00     0.194 S 
HETATM    2  O2  UNL     1       0.817   1.527  -1.743  1.00  0.00    -0.218 OA
ENDROOT
BRANCH   1   3
HETATM    3  N2  UNL     1       1.489  -0.086   0.011  1.00  0.00    -0.315 N 
ATOM      4  H2  UNL     1       1.023  -0.940   0.317  1.00  0.00     0.172 HD
BRANCH   3   5
HETATM    5  C7  UNL     1       2.806  -0.164  -0.448  1.00  0.00     0.179 C 
HETATM    6  C8  UNL     1       3.843   0.586   0.366  1.00  0.00     0.043 C 
BRANCH   5   7
HETATM    7  C6  UNL     1       3.290  -1.580  -0.605  1.00  0.00     0.241 C 
HETATM    8  N1  UNL     1       4.621  -1.779  -1.020  1.00  0.00    -0.346 N 
ATOM      9  H1  UNL     1       5.221  -0.973  -1.195  1.00  0.00     0.163 HD
HETATM   10  O1  UNL     1       2.483  -2.509  -0.356  1.00  0.00    -0.271 OA
BRANCH   8  11
HETATM   11  C5  UNL     1       5.162  -3.154  -1.206  1.00  0.00     0.177 C 
BRANCH  11  12
HETATM   12  C3  UNL     1       5.939  -3.499  -0.004  1.00  0.00     0.013 C 
HETATM   13  C4  UNL     1       6.760  -2.385   0.619  1.00  0.00     0.012 C 
BRANCH  12  14
HETATM   14  C2  UNL     1       6.594  -4.811   0.088  1.00  0.00     0.002 C 
HETATM   15  C1  UNL     1       7.958  -4.957  -0.491  1.00  0.00     0.005 C 
ENDBRANCH  12  14
ENDBRANCH  11  12
BRANCH  11  16
HETATM   16  C30 UNL     1       5.896  -3.231  -2.458  1.00  0.00     0.254 C 
HETATM   17  N10 UNL     1       6.376  -4.396  -3.108  1.00  0.00    -0.060 NA
HETATM   18  O4  UNL     1       6.161  -2.141  -3.091  1.00  0.00    -0.275 OA
ENDBRANCH  11  16
ENDBRANCH   8  11
ENDBRANCH   5   7
ENDBRANCH   3   5
ENDBRANCH   1   3
BRANCH   1  19
HETATM   19  C9  UNL     1      -1.440   1.232  -0.565  1.00  0.00     0.353 C 
HETATM   20  O3  UNL     1      -2.012   2.309  -0.683  1.00  0.00    -0.254 OA
HETATM   21  N3  UNL     1      -1.819  -0.061  -0.759  1.00  0.00    -0.146 N 
HETATM   22  C10 UNL     1      -3.015  -0.522  -0.641  1.00  0.00     0.679 C 
ATOM     23  H3  UNL     1      -1.090  -0.724  -1.021  1.00  0.00     0.188 HD
HETATM   24  N4  UNL     1      -3.152  -1.904  -0.897  1.00  0.00    -0.221 N 
HETATM   25  N5  UNL     1      -4.118   0.267  -0.300  1.00  0.00    -0.217 N 
ATOM     26  H4  UNL     1      -2.328  -2.346  -1.305  1.00  0.00     0.178 HD
HETATM   27  C17 UNL     1      -4.755   1.123  -1.316  1.00  0.00     0.169 C 
BRANCH  24  28
HETATM   28  C11 UNL     1      -4.256  -2.783  -0.678  1.00  0.00     0.099 C 
HETATM   29  C12 UNL     1      -5.425  -2.384  -1.505  1.00  0.00     0.026 C 
HETATM   30  C13 UNL     1      -6.336  -3.443  -1.998  1.00  0.00     0.002 C 
HETATM   31  C14 UNL     1      -5.742  -4.776  -2.297  1.00  0.00     0.000 C 
HETATM   32  C15 UNL     1      -4.913  -5.172  -1.090  1.00  0.00     0.002 C 
HETATM   33  C16 UNL     1      -3.784  -4.190  -1.029  1.00  0.00     0.026 C 
ENDBRANCH  24  28
BRANCH  25  34
HETATM   34  C18 UNL     1      -4.677   0.289   1.012  1.00  0.00     0.101 C 
HETATM   35  C19 UNL     1      -5.759   1.353   1.154  1.00  0.00     0.026 C 
HETATM   36  C20 UNL     1      -6.240   1.343   2.575  1.00  0.00     0.002 C 
HETATM   37  C21 UNL     1      -5.741   0.162   3.354  1.00  0.00     0.000 C 
HETATM   38  C22 UNL     1      -4.250   0.197   3.413  1.00  0.00     0.002 C 
HETATM   39  C23 UNL     1      -3.630   0.553   2.053  1.00  0.00     0.026 C 
ENDBRANCH  25  34
ENDBRANCH   1  19
BRANCH   1  40
HETATM   40  N6  UNL     1       1.117   3.131   0.218  1.00  0.00    -0.318 N 
HETATM   41  C24 UNL     1       0.724   4.184  -0.701  1.00  0.00     0.135 C 
HETATM   42  C25 UNL     1       1.898   4.965  -1.249  1.00  0.00     0.040 C 
HETATM   43  C26 UNL     1       1.797   6.361  -0.618  1.00  0.00     0.127 C 
HETATM   44  N7  UNL     1       1.721   6.141   0.831  1.00  0.00    -0.354 N 
HETATM   45  C27 UNL     1       2.562   7.083   1.527  1.00  0.00     0.184 C 
HETATM   46  C28 UNL     1       0.977   5.180   1.617  1.00  0.00     0.146 C 
HETATM   47  N8  UNL     1       3.820   7.060   1.242  1.00  0.00    -0.374 N 
HETATM   48  N9  UNL     1       2.055   8.001   2.483  1.00  0.00    -0.064 NA
ATOM     49  H82 UNL     1       4.184   6.400   0.555  1.00  0.00     0.158 HD
ATOM     50  H81 UNL     1       4.415   7.726   1.734  1.00  0.00     0.158 HD
HETATM   51  C29 UNL     1       1.452   3.778   1.468  1.00  0.00     0.153 C 
ENDBRANCH   1  40
TORSDOF 11
