REMARK  13 active torsions:
REMARK  status: ('A' for Active; 'I' for Inactive)
REMARK    1  A    between atoms: C3_3  and  O1_4 
REMARK    2  A    between atoms: O1_4  and  C4_5 
REMARK    3  A    between atoms: C4_5  and  C5_6 
REMARK    4  A    between atoms: C5_6  and  N1_7 
REMARK       I    between atoms: N1_7  and  C6_9 
REMARK    5  A    between atoms: C6_9  and  C7_11 
REMARK    6  A    between atoms: C11_15  and  N2_16 
REMARK    7  A    between atoms: C12_18  and  N3_20 
REMARK    8  A    between atoms: N3_20  and  C14_22 
REMARK    9  A    between atoms: C14_22  and  C15_23 
REMARK   10  A    between atoms: C15_23  and  C16_24 
REMARK   11  A    between atoms: C16_24  and  C17_25 
REMARK   12  A    between atoms: C17_25  and  N4_26 
REMARK   13  A    between atoms: C20_34  and  C22_36 
REMARK       I    between atoms: N8_45  and  C28_46 
ROOT
HETATM    1  C1  UNL     1      10.423  -1.173  -1.346  1.00  0.00     0.099 C 
HETATM    2  C2  UNL     1      10.348   0.024  -1.105  1.00  0.00    -0.162 C 
HETATM    3  C3  UNL     1      10.299   1.457  -0.836  1.00  0.00     0.246 C 
ENDROOT
BRANCH   3   4
HETATM    4  O1  UNL     1       9.270   2.111  -1.338  1.00  0.00    -0.379 OA
BRANCH   4   5
HETATM    5  C4  UNL     1       8.013   1.962  -0.943  1.00  0.00     0.188 C 
BRANCH   5   6
HETATM    6  C5  UNL     1       7.351   0.628  -0.987  1.00  0.00     0.148 C 
BRANCH   6   7
HETATM    7  N1  UNL     1       5.954   0.722  -0.533  1.00  0.00    -0.358 N 
HETATM    8  C6  UNL     1       5.165  -0.425  -0.510  1.00  0.00     0.229 C 
HETATM    9  O2  UNL     1       5.664  -1.521  -0.874  1.00  0.00    -0.273 OA
ATOM     10  H1  UNL     1       5.568   1.619  -0.238  1.00  0.00     0.162 HD
BRANCH   8  11
HETATM   11  C7  UNL     1       3.740  -0.436  -0.075  1.00  0.00     0.072 C 
HETATM   12  C8  UNL     1       3.663   0.032   1.348  1.00  0.00     0.048 C 
HETATM   13  C9  UNL     1       2.272   0.023   1.904  1.00  0.00     0.100 C 
HETATM   14  C10 UNL     1       1.185   0.274   0.926  1.00  0.00     0.057 C 
HETATM   15  N8  UNL     1       2.105  -1.273   2.608  1.00  0.00    -0.274 N 
HETATM   16  C11 UNL     1       1.478  -0.054  -0.495  1.00  0.00     0.043 C 
HETATM   17  C25 UNL     1       1.703  -1.561  -0.682  1.00  0.00     0.058 C 
HETATM   18  C29 UNL     1       2.877   0.435  -0.912  1.00  0.00    -0.004 C 
HETATM   19  C26 UNL     1       3.174  -1.792  -0.309  1.00  0.00     0.105 C 
HETATM   20  N7  UNL     1       3.260  -2.709   0.804  1.00  0.00    -0.361 N 
HETATM   21  C27 UNL     1       2.600  -2.494   2.072  1.00  0.00     0.178 C 
ATOM     22  H7  UNL     1       3.818  -3.555   0.689  1.00  0.00     0.162 HD
HETATM   23  S1  UNL     1       2.395  -3.820   3.012  1.00  0.00    -0.041 SA
HETATM   24  C30 UNL     1       2.942   1.893  -0.685  1.00  0.00     0.019 C 
HETATM   25  C31 UNL     1       3.000   0.160  -2.394  1.00  0.00     0.019 C 
HETATM   26  C28 UNL     1       1.436  -1.244   3.835  1.00  0.00     0.337 C 
HETATM   27  N9  UNL     1       1.203  -2.386   4.616  1.00  0.00    -0.039 NA
HETATM   28  O4  UNL     1       1.017  -0.150   4.273  1.00  0.00    -0.250 OA
BRANCH  16  29
HETATM   29  N2  UNL     1       0.492   0.350  -1.406  1.00  0.00    -0.370 N 
HETATM   30  C12 UNL     1      -0.729   0.528  -1.394  1.00  0.00     0.069 C 
HETATM   31  C13 UNL     1      -1.421   0.989  -2.659  1.00  0.00     0.088 C 
ATOM     32  H2  UNL     1       0.890   0.550  -2.324  1.00  0.00     0.161 HD
BRANCH  30  33
HETATM   33  N3  UNL     1      -1.651   0.353  -0.293  1.00  0.00    -0.380 N 
ATOM     34  H3  UNL     1      -1.925  -0.569   0.047  1.00  0.00     0.160 HD
BRANCH  33  35
HETATM   35  C14 UNL     1      -2.150   1.553   0.284  1.00  0.00     0.121 C 
BRANCH  35  36
HETATM   36  C15 UNL     1      -3.221   1.505   1.283  1.00  0.00     0.021 C 
BRANCH  36  37
HETATM   37  C16 UNL     1      -4.570   1.071   0.813  1.00  0.00     0.032 C 
BRANCH  37  38
HETATM   38  C17 UNL     1      -4.622  -0.260   0.244  1.00  0.00     0.268 C 
BRANCH  38  39
HETATM   39  N4  UNL     1      -5.839  -0.831  -0.216  1.00  0.00     0.043 N 
HETATM   40  C18 UNL     1      -5.784  -1.086  -1.647  1.00  0.00     0.306 C 
HETATM   41  N5  UNL     1      -5.861  -2.111   0.387  1.00  0.00    -0.164 N 
HETATM   42  C19 UNL     1      -6.368  -1.903   1.686  1.00  0.00     0.342 C 
ATOM     43  H5  UNL     1      -5.572  -2.996  -0.030  1.00  0.00     0.199 HD
HETATM   44  O3  UNL     1      -6.275  -2.640   2.711  1.00  0.00    -0.246 OA
HETATM   45  N6  UNL     1      -7.054  -0.626   1.637  1.00  0.00    -0.303 N 
HETATM   46  C20 UNL     1      -7.091  -0.341   0.222  1.00  0.00     0.247 C 
ATOM     47  H6  UNL     1      -7.419  -0.069   2.409  1.00  0.00     0.167 HD
HETATM   48  C21 UNL     1      -8.168  -1.349  -0.296  1.00  0.00     0.079 C 
BRANCH  46  49
HETATM   49  C22 UNL     1      -7.536   0.978  -0.165  1.00  0.00    -0.035 C 
HETATM   50  C23 UNL     1      -7.948   1.853   0.726  1.00  0.00     0.018 C 
HETATM   51  C24 UNL     1      -7.586   1.364  -1.596  1.00  0.00     0.047 C 
ENDBRANCH  46  49
ENDBRANCH  38  39
ENDBRANCH  37  38
ENDBRANCH  36  37
ENDBRANCH  35  36
ENDBRANCH  33  35
ENDBRANCH  30  33
ENDBRANCH  16  29
ENDBRANCH   8  11
ENDBRANCH   6   7
ENDBRANCH   5   6
ENDBRANCH   4   5
ENDBRANCH   3   4
TORSDOF 13
