REMARK  12 active torsions:
REMARK  status: ('A' for Active; 'I' for Inactive)
REMARK    1  A    between atoms: C2_2  and  N1_3 
REMARK    2  A    between atoms: N1_3  and  N2_4 
REMARK       I    between atoms: N1_3  and  C28_46 
REMARK       I    between atoms: N2_4  and  C3_6 
REMARK    3  A    between atoms: C3_6  and  O2_8 
REMARK    4  A    between atoms: O2_8  and  C4_9 
REMARK    5  A    between atoms: N3_11  and  C6_12 
REMARK    6  A    between atoms: C6_12  and  C7_13 
REMARK    7  A    between atoms: C7_13  and  C8_14 
REMARK    8  A    between atoms: C8_14  and  C9_15 
REMARK    9  A    between atoms: C9_15  and  N4_16 
REMARK       I    between atoms: N4_16  and  C10_18 
REMARK       I    between atoms: C10_18  and  N5_19 
REMARK       I    between atoms: N5_19  and  C11_20 
REMARK       I    between atoms: C11_20  and  N7_22 
REMARK       I    between atoms: C12_24  and  N9_26 
REMARK   10  A    between atoms: N9_26  and  C13_28 
REMARK   11  A    between atoms: C13_28  and  C14_29 
REMARK       I    between atoms: C28_46  and  N12_48 
REMARK   12  A    between atoms: N12_48  and  C29_50 
ROOT
HETATM    1  N4  UNL     1      -0.651  -0.148  -2.717  1.00  0.00    -0.350 N 
ATOM      2  H4  UNL     1      -0.209   0.607  -3.241  1.00  0.00     0.163 HD
HETATM    3  C10 UNL     1      -2.084  -0.358  -2.777  1.00  0.00     0.267 C 
HETATM    4  N5  UNL     1      -2.985   0.191  -1.977  1.00  0.00    -0.338 NA
HETATM    5  C11 UNL     1      -3.789   0.680  -1.263  1.00  0.00     0.273 C 
HETATM    6  N6  UNL     1      -3.590   1.833  -0.428  1.00  0.00    -0.049 NA
HETATM    7  N7  UNL     1      -5.127   0.129  -1.159  1.00  0.00    -0.293 N 
ATOM      8  H7  UNL     1      -5.256  -0.853  -0.917  1.00  0.00     0.172 HD
HETATM    9  C12 UNL     1      -6.143   0.874  -1.370  1.00  0.00     0.191 C 
HETATM   10  N8  UNL     1      -5.971   2.231  -1.704  1.00  0.00    -0.063 NA
HETATM   11  N9  UNL     1      -7.447   0.334  -1.272  1.00  0.00    -0.364 N 
ATOM     12  H9  UNL     1      -7.945   0.120  -2.136  1.00  0.00     0.162 HD
HETATM   13  N10 UNL     1      -2.411  -1.195  -3.760  1.00  0.00    -0.253 N 
ATOM     14  H10 UNL     1      -3.397  -1.417  -3.896  1.00  0.00     0.182 HD
HETATM   15  C23 UNL     1      -1.491  -1.776  -4.602  1.00  0.00     0.185 C 
HETATM   16  N11 UNL     1      -0.715  -2.277  -5.293  1.00  0.00    -0.172 NA
ENDROOT
BRANCH   1  17
HETATM   17  C9  UNL     1       0.126  -1.031  -1.901  1.00  0.00     0.123 C 
BRANCH  17  18
HETATM   18  C8  UNL     1      -0.174  -0.816  -0.409  1.00  0.00     0.021 C 
BRANCH  18  19
HETATM   19  C7  UNL     1       0.638  -1.753   0.433  1.00  0.00     0.029 C 
BRANCH  19  20
HETATM   20  C6  UNL     1       2.095  -1.678   0.342  1.00  0.00     0.237 C 
BRANCH  20  21
HETATM   21  N3  UNL     1       2.811  -0.529   0.704  1.00  0.00    -0.064 N 
HETATM   22  C5  UNL     1       3.632   0.029  -0.384  1.00  0.00     0.270 C 
HETATM   23  C4  UNL     1       4.785   0.771   0.292  1.00  0.00     0.165 C 
HETATM   24  C26 UNL     1       4.479   0.524   1.754  1.00  0.00     0.045 C 
HETATM   25  C25 UNL     1       3.266   1.255   2.204  1.00  0.00     0.037 C 
HETATM   26  C27 UNL     1       3.921  -0.882   1.637  1.00  0.00     0.244 C 
HETATM   27  C24 UNL     1       2.163   0.497   1.443  1.00  0.00     0.238 C 
BRANCH  23  28
HETATM   28  O2  UNL     1       6.012   0.096   0.060  1.00  0.00    -0.295 OA
BRANCH  28  29
HETATM   29  C3  UNL     1       7.153   0.650  -0.443  1.00  0.00     0.380 C 
HETATM   30  N2  UNL     1       8.289  -0.184  -0.607  1.00  0.00    -0.239 N 
ATOM     31  H2  UNL     1       8.250  -1.171  -0.355  1.00  0.00     0.192 HD
HETATM   32  O1  UNL     1       7.150   1.869  -0.737  1.00  0.00    -0.237 OA
BRANCH  30  33
HETATM   33  N1  UNL     1       9.454   0.369  -1.117  1.00  0.00    -0.239 N 
HETATM   34  C28 UNL     1      10.552   0.720  -0.296  1.00  0.00     0.337 C 
HETATM   35  O3  UNL     1      11.601   1.214  -0.780  1.00  0.00    -0.245 OA
HETATM   36  N12 UNL     1      10.498   0.521   1.130  1.00  0.00    -0.338 N 
ATOM     37  H12 UNL     1       9.655   0.124   1.544  1.00  0.00     0.164 HD
BRANCH  33  38
HETATM   38  C2  UNL     1       9.551   0.589  -2.540  1.00  0.00     0.150 C 
HETATM   39  C1  UNL     1      10.127  -0.655  -3.183  1.00  0.00     0.028 C 
ENDBRANCH  33  38
BRANCH  36  40
HETATM   40  C29 UNL     1      11.595   0.865   1.980  1.00  0.00     0.078 C 
HETATM   41  C30 UNL     1      11.209   1.913   3.010  1.00  0.00     0.032 C 
HETATM   42  C31 UNL     1      12.092  -0.345   2.730  1.00  0.00     0.032 C 
ENDBRANCH  36  40
ENDBRANCH  30  33
ENDBRANCH  28  29
ENDBRANCH  23  28
ENDBRANCH  20  21
ENDBRANCH  19  20
ENDBRANCH  18  19
ENDBRANCH  17  18
ENDBRANCH   1  17
BRANCH  11  43
HETATM   43  C13 UNL     1      -8.109   0.070  -0.025  1.00  0.00     0.127 C 
BRANCH  43  44
HETATM   44  C14 UNL     1      -9.475  -0.503  -0.291  1.00  0.00     0.004 C 
HETATM   45  C15 UNL     1     -10.336   0.430  -1.083  1.00  0.00     0.007 C 
HETATM   46  C16 UNL     1     -11.100   1.345  -0.183  1.00  0.00     0.006 C 
HETATM   47  C17 UNL     1     -12.143   0.530   0.559  1.00  0.00    -0.003 C 
HETATM   48  C18 UNL     1     -12.388   1.084   1.947  1.00  0.00     0.032 C 
HETATM   49  C21 UNL     1     -11.689  -0.868   0.814  1.00  0.00     0.012 C 
HETATM   50  C19 UNL     1     -12.679  -0.135   2.736  1.00  0.00    -0.030 C 
HETATM   51  C20 UNL     1     -12.293  -1.224   2.112  1.00  0.00    -0.026 C 
HETATM   52  C22 UNL     1     -10.183  -0.972   0.949  1.00  0.00     0.015 C 
ENDBRANCH  43  44
ENDBRANCH  11  43
TORSDOF 12
