REMARK  12 active torsions:
REMARK  status: ('A' for Active; 'I' for Inactive)
REMARK    1  A    between atoms: N1_2  and  C3_4 
REMARK    2  A    between atoms: C5_9  and  C6_10 
REMARK    3  A    between atoms: C6_10  and  C7_11 
REMARK    4  A    between atoms: C7_11  and  C8_12 
REMARK    5  A    between atoms: C11_18  and  C13_20 
REMARK    6  A    between atoms: C13_20  and  C14_21 
REMARK    7  A    between atoms: C22_31  and  O3_32 
REMARK    8  A    between atoms: C23_36  and  C24_37 
REMARK    9  A    between atoms: C24_37  and  C25_38 
REMARK   10  A    between atoms: C25_38  and  C26_39 
REMARK   11  A    between atoms: C26_39  and  N6_40 
REMARK   12  A    between atoms: C33_53  and  O5_54 
ROOT
HETATM    1  C14 UNL     1      -1.657  -2.241   1.358  1.00  0.00    -0.038 A 
HETATM    2  C15 UNL     1      -1.810  -3.382   0.600  1.00  0.00     0.013 A 
HETATM    3  C16 UNL     1      -0.695  -4.076   0.217  1.00  0.00     0.031 A 
HETATM    4  C17 UNL     1       0.590  -3.668   0.567  1.00  0.00     0.044 A 
HETATM    5  N4  UNL     1       1.808  -4.169   0.330  1.00  0.00    -0.352 N 
ATOM      6  H4  UNL     1       1.993  -5.015  -0.209  1.00  0.00     0.166 HD
HETATM    7  C18 UNL     1       2.772  -3.389   0.912  1.00  0.00     0.081 A 
HETATM    8  C19 UNL     1       2.156  -2.348   1.545  1.00  0.00     0.056 A 
HETATM    9  C20 UNL     1       0.770  -2.558   1.306  1.00  0.00     0.008 A 
HETATM   10  C21 UNL     1      -0.381  -1.871   1.683  1.00  0.00     0.026 A 
HETATM   11  C22 UNL     1       2.735  -1.247   2.300  1.00  0.00     0.150 C 
HETATM   12  N5  UNL     1       3.748  -0.353   2.116  1.00  0.00    -0.360 N 
ATOM     13  H5  UNL     1       4.067   0.075   2.985  1.00  0.00     0.162 HD
HETATM   14  C23 UNL     1       4.488   0.133   0.922  1.00  0.00     0.129 C 
HETATM   15  C28 UNL     1       5.781  -0.615   0.891  1.00  0.00     0.008 C 
HETATM   16  C29 UNL     1       6.695  -0.424  -0.281  1.00  0.00     0.065 C 
HETATM   17  N9  UNL     1       6.169  -1.399   1.780  1.00  0.00    -0.333 N 
ATOM     18  H9  UNL     1       7.079  -1.756   1.490  1.00  0.00     0.168 HD
HETATM   19  C30 UNL     1       5.877  -1.969   2.970  1.00  0.00     0.225 C 
HETATM   20  O4  UNL     1       6.118  -1.452   4.116  1.00  0.00    -0.273 OA
HETATM   21  C31 UNL     1       5.215  -3.334   3.117  1.00  0.00     0.133 C 
HETATM   22  C32 UNL     1       5.230  -3.937   1.788  1.00  0.00     0.021 C 
HETATM   23  C33 UNL     1       4.190  -3.700   0.818  1.00  0.00     0.090 C 
ENDROOT
BRANCH   1  24
HETATM   24  C13 UNL     1      -2.794  -1.508   1.836  1.00  0.00     0.007 C 
BRANCH  24  25
HETATM   25  C11 UNL     1      -3.494  -0.467   1.061  1.00  0.00     0.094 C 
HETATM   26  C3  UNL     1      -2.796   0.730   0.640  1.00  0.00     0.206 C 
HETATM   27  N2  UNL     1      -3.544   1.897   0.292  1.00  0.00    -0.337 N 
HETATM   28  C4  UNL     1      -4.887   2.142   0.023  1.00  0.00     0.242 C 
ATOM     29  H2  UNL     1      -2.966   2.735   0.226  1.00  0.00     0.164 HD
HETATM   30  O1  UNL     1      -5.146   2.864  -0.996  1.00  0.00    -0.271 OA
HETATM   31  C5  UNL     1      -6.040   1.682   0.755  1.00  0.00     0.176 C 
HETATM   32  N3  UNL     1      -5.759   0.687   1.763  1.00  0.00    -0.347 N 
HETATM   33  C10 UNL     1      -4.594   0.001   2.009  1.00  0.00     0.234 C 
ATOM     34  H3  UNL     1      -6.538   0.461   2.382  1.00  0.00     0.163 HD
HETATM   35  O2  UNL     1      -4.432  -0.280   3.250  1.00  0.00    -0.272 OA
HETATM   36  C12 UNL     1      -4.250  -1.191  -0.050  1.00  0.00     0.034 C 
BRANCH  26  37
HETATM   37  N1  UNL     1      -1.785   0.665  -0.371  1.00  0.00    -0.381 N 
HETATM   38  C1  UNL     1      -0.684   1.293  -0.208  1.00  0.00     0.116 C 
HETATM   39  C2  UNL     1      -1.934  -0.018  -1.617  1.00  0.00     0.150 C 
ENDBRANCH  26  37
BRANCH  31  40
HETATM   40  C6  UNL     1      -7.250   1.252  -0.013  1.00  0.00     0.035 C 
BRANCH  40  41
HETATM   41  C7  UNL     1      -7.901   2.274  -0.876  1.00  0.00     0.002 C 
BRANCH  41  42
HETATM   42  C8  UNL     1      -8.364   3.491  -0.080  1.00  0.00    -0.004 C 
HETATM   43  C9  UNL     1      -9.001   4.426  -1.116  1.00  0.00     0.005 C 
ENDBRANCH  41  42
ENDBRANCH  40  41
ENDBRANCH  31  40
ENDBRANCH  24  25
ENDBRANCH   1  24
BRANCH  11  44
HETATM   44  O3  UNL     1       2.125  -1.069   3.459  1.00  0.00    -0.346 OA
ATOM     45  H3  UNL     1       2.503  -0.350   3.952  1.00  0.00     0.219 HD
ENDBRANCH  11  44
BRANCH  23  46
HETATM   46  O5  UNL     1       4.619  -3.786  -0.414  1.00  0.00    -0.359 OA
ATOM     47  H5  UNL     1       5.545  -3.989  -0.475  1.00  0.00     0.217 HD
ENDBRANCH  23  46
BRANCH  14  48
HETATM   48  C24 UNL     1       3.654   0.181  -0.270  1.00  0.00     0.033 C 
BRANCH  48  49
HETATM   49  C25 UNL     1       4.116   0.695  -1.565  1.00  0.00     0.022 C 
BRANCH  49  50
HETATM   50  C26 UNL     1       4.509   2.159  -1.610  1.00  0.00     0.122 C 
BRANCH  50  51
HETATM   51  N6  UNL     1       4.920   2.494  -2.950  1.00  0.00    -0.367 N 
HETATM   52  C27 UNL     1       6.079   2.830  -3.350  1.00  0.00     0.196 C 
HETATM   53  N7  UNL     1       6.274   3.120  -4.724  1.00  0.00    -0.067 NA
HETATM   54  N8  UNL     1       7.187   2.931  -2.478  1.00  0.00    -0.067 NA
ATOM     55  H6  UNL     1       4.193   2.457  -3.664  1.00  0.00     0.161 HD
ENDBRANCH  50  51
ENDBRANCH  49  50
ENDBRANCH  48  49
ENDBRANCH  14  48
TORSDOF 12
