REMARK  14 active torsions:
REMARK  status: ('A' for Active; 'I' for Inactive)
REMARK    1  A    between atoms: C2_2  and  C4_4 
REMARK    2  A    between atoms: C4_4  and  C5_5 
REMARK    3  A    between atoms: C7_10  and  C8_11 
REMARK    4  A    between atoms: C8_11  and  C9_12 
REMARK    5  A    between atoms: C9_12  and  N2_13 
REMARK    6  A    between atoms: C14_20  and  C15_21 
REMARK    7  A    between atoms: C18_26  and  O2_27 
REMARK    8  A    between atoms: C25_37  and  C26_38 
REMARK    9  A    between atoms: C29_43  and  O4_44 
REMARK   10  A    between atoms: C30_46  and  C31_47 
REMARK   11  A    between atoms: C31_47  and  C32_48 
REMARK   12  A    between atoms: C32_48  and  C33_49 
REMARK   13  A    between atoms: C33_49  and  C34_50 
REMARK   14  A    between atoms: C34_50  and  N7_51 
ROOT
HETATM    1  C5  UNL     1      -0.034   3.470   0.201  1.00  0.00     0.177 C 
HETATM    2  N1  UNL     1      -0.664   2.588   1.163  1.00  0.00    -0.346 N 
ATOM      3  H1  UNL     1      -0.662   2.922   2.127  1.00  0.00     0.163 HD
HETATM    4  C6  UNL     1      -1.269   1.357   0.966  1.00  0.00     0.240 C 
HETATM    5  O1  UNL     1      -0.840   0.385   1.686  1.00  0.00    -0.271 OA
HETATM    6  C7  UNL     1      -2.358   1.024   0.021  1.00  0.00     0.171 C 
HETATM    7  N3  UNL     1      -2.684  -0.382   0.090  1.00  0.00    -0.404 N 
ATOM      8  H3  UNL     1      -2.510  -0.941   0.925  1.00  0.00     0.154 HD
HETATM    9  C13 UNL     1      -3.261  -0.930  -1.081  1.00  0.00     0.167 C 
HETATM   10  C14 UNL     1      -2.379  -1.876  -1.863  1.00  0.00     0.009 C 
HETATM   11  N4  UNL     1      -1.140  -2.108  -1.223  1.00  0.00    -0.344 N 
ATOM     12  H4  UNL     1      -0.628  -1.232  -1.123  1.00  0.00     0.167 HD
HETATM   13  C18 UNL     1      -0.404  -3.152  -0.689  1.00  0.00     0.139 C 
HETATM   14  C19 UNL     1      -0.310  -3.801   0.619  1.00  0.00     0.162 C 
HETATM   15  C20 UNL     1      -1.445  -3.526   1.581  1.00  0.00     0.034 C 
HETATM   16  C21 UNL     1      -1.256  -4.424   2.774  1.00  0.00     0.004 C 
HETATM   17  C22 UNL     1      -0.163  -5.433   2.629  1.00  0.00     0.020 C 
HETATM   18  C23 UNL     1       1.163  -4.810   2.253  1.00  0.00     0.127 C 
HETATM   19  N5  UNL     1       0.931  -3.651   1.339  1.00  0.00    -0.338 N 
HETATM   20  C24 UNL     1       1.896  -2.667   1.367  1.00  0.00     0.243 C 
HETATM   21  O3  UNL     1       2.162  -2.138   2.521  1.00  0.00    -0.271 OA
HETATM   22  C25 UNL     1       2.734  -2.064   0.273  1.00  0.00     0.179 C 
HETATM   23  N6  UNL     1       3.543  -0.965   0.772  1.00  0.00    -0.359 N 
ATOM     24  H6  UNL     1       4.526  -1.178   0.945  1.00  0.00     0.162 HD
HETATM   25  C29 UNL     1       3.145   0.346   1.045  1.00  0.00     0.135 C 
HETATM   26  C30 UNL     1       2.564   1.326   0.116  1.00  0.00     0.159 C 
HETATM   27  N8  UNL     1       2.311   2.585   0.843  1.00  0.00    -0.347 N 
ATOM     28  H8  UNL     1       2.847   2.728   1.699  1.00  0.00     0.163 HD
HETATM   29  C35 UNL     1       1.424   3.599   0.493  1.00  0.00     0.241 C 
HETATM   30  O5  UNL     1       1.933   4.780   0.416  1.00  0.00    -0.271 OA
ENDROOT
BRANCH  26  31
HETATM   31  C31 UNL     1       3.379   1.584  -1.088  1.00  0.00     0.033 C 
BRANCH  31  32
HETATM   32  C32 UNL     1       4.723   2.153  -0.992  1.00  0.00     0.004 C 
BRANCH  32  33
HETATM   33  C33 UNL     1       5.786   1.398  -0.255  1.00  0.00     0.027 C 
BRANCH  33  34
HETATM   34  C34 UNL     1       7.118   2.202  -0.312  1.00  0.00     0.229 C 
BRANCH  34  35
HETATM   35  N7  UNL     1       8.150   1.499   0.385  1.00  0.00    -0.079 N 
ATOM     36  H73 UNL     1       7.880   1.277   1.343  1.00  0.00     0.274 HD
ATOM     37  H72 UNL     1       8.264   0.547   0.037  1.00  0.00     0.274 HD
ATOM     38  H71 UNL     1       9.023   2.026   0.348  1.00  0.00     0.274 HD
ENDBRANCH  34  35
ENDBRANCH  33  34
ENDBRANCH  32  33
ENDBRANCH  31  32
ENDBRANCH  26  31
BRANCH  25  39
HETATM   39  O4  UNL     1       3.304   0.753   2.270  1.00  0.00    -0.348 OA
ATOM     40  H4  UNL     1       3.033   1.645   2.456  1.00  0.00     0.219 HD
ENDBRANCH  25  39
BRANCH  22  41
HETATM   41  C26 UNL     1       3.722  -3.060  -0.281  1.00  0.00     0.009 C 
HETATM   42  C27 UNL     1       4.510  -2.384  -1.372  1.00  0.00     0.012 C 
HETATM   43  C28 UNL     1       4.689  -3.561   0.748  1.00  0.00     0.012 C 
ENDBRANCH  22  41
BRANCH   1  44
HETATM   44  C4  UNL     1      -0.303   3.171  -1.222  1.00  0.00     0.038 C 
BRANCH  44  45
HETATM   45  C2  UNL     1       0.408   4.182  -2.106  1.00  0.00    -0.020 C 
HETATM   46  C1  UNL     1       0.080   3.759  -3.546  1.00  0.00     0.009 C 
HETATM   47  C3  UNL     1      -0.271   5.552  -1.969  1.00  0.00     0.009 C 
ENDBRANCH  44  45
ENDBRANCH   1  44
BRANCH   6  48
HETATM   48  C8  UNL     1      -3.595   1.873   0.279  1.00  0.00     0.062 C 
BRANCH  48  49
HETATM   49  C9  UNL     1      -4.132   1.677   1.661  1.00  0.00     0.238 C 
BRANCH  49  50
HETATM   50  N2  UNL     1      -5.315   2.534   1.811  1.00  0.00    -0.079 N 
HETATM   51  C10 UNL     1      -5.674   2.419   3.234  1.00  0.00     0.271 C 
HETATM   52  C11 UNL     1      -6.347   1.960   0.990  1.00  0.00     0.271 C 
HETATM   53  C12 UNL     1      -5.001   3.896   1.473  1.00  0.00     0.271 C 
ENDBRANCH  49  50
ENDBRANCH  48  49
ENDBRANCH   6  48
BRANCH  13  54
HETATM   54  O2  UNL     1       0.430  -3.732  -1.522  1.00  0.00    -0.348 OA
ATOM     55  H2  UNL     1       0.935  -4.448  -1.156  1.00  0.00     0.219 HD
ENDBRANCH  13  54
BRANCH  10  56
HETATM   56  C15 UNL     1      -3.190  -2.947  -2.447  1.00  0.00     0.025 C 
HETATM   57  C16 UNL     1      -3.977  -3.830  -1.520  1.00  0.00     0.016 C 
HETATM   58  C17 UNL     1      -2.484  -3.835  -3.446  1.00  0.00     0.016 C 
ENDBRANCH  10  56
TORSDOF 14
