REMARK  12 active torsions:
REMARK  status: ('A' for Active; 'I' for Inactive)
REMARK    1  A    between atoms: C2_2  and  C3_3 
REMARK    2  A    between atoms: C3_3  and  C4_4 
REMARK    3  A    between atoms: C4_4  and  C5_5 
REMARK    4  A    between atoms: C7_10  and  C8_11 
REMARK    5  A    between atoms: C8_11  and  C9_12 
REMARK    6  A    between atoms: C13_19  and  C14_20 
REMARK    7  A    between atoms: C14_20  and  C15_21 
REMARK    8  A    between atoms: C18_26  and  O3_27 
REMARK    9  A    between atoms: C19_29  and  C20_30 
REMARK   10  A    between atoms: C20_30  and  C21_31 
REMARK   11  A    between atoms: C30_45  and  C31_46 
REMARK   12  A    between atoms: C31_46  and  C33_48 
ROOT
HETATM    1  C5  UNL     1       3.376   1.782   0.012  1.00  0.00     0.178 C 
HETATM    2  N1  UNL     1       2.400   1.093  -0.812  1.00  0.00    -0.346 N 
ATOM      3  H1  UNL     1       2.811   0.350  -1.377  1.00  0.00     0.163 HD
HETATM    4  C6  UNL     1       1.051   1.220  -0.998  1.00  0.00     0.241 C 
HETATM    5  O1  UNL     1       0.320   0.239  -0.578  1.00  0.00    -0.271 OA
HETATM    6  C7  UNL     1       0.184   2.262  -1.597  1.00  0.00     0.177 C 
HETATM    7  N2  UNL     1      -0.487   2.975  -0.540  1.00  0.00    -0.346 N 
ATOM      8  H2  UNL     1       0.126   3.597  -0.013  1.00  0.00     0.163 HD
HETATM    9  C12 UNL     1      -1.799   2.983  -0.097  1.00  0.00     0.241 C 
HETATM   10  O2  UNL     1      -2.445   4.090  -0.310  1.00  0.00    -0.271 OA
HETATM   11  C13 UNL     1      -2.616   1.935   0.594  1.00  0.00     0.175 C 
HETATM   12  N3  UNL     1      -3.343   1.084  -0.327  1.00  0.00    -0.359 N 
ATOM     13  H3  UNL     1      -4.165   1.522  -0.742  1.00  0.00     0.162 HD
HETATM   14  C18 UNL     1      -3.120  -0.218  -0.744  1.00  0.00     0.135 C 
HETATM   15  C19 UNL     1      -3.118  -1.496  -0.025  1.00  0.00     0.159 C 
HETATM   16  N4  UNL     1      -2.151  -1.639   1.032  1.00  0.00    -0.347 N 
ATOM     17  H4  UNL     1      -2.110  -0.873   1.704  1.00  0.00     0.163 HD
HETATM   18  C24 UNL     1      -1.255  -2.701   1.257  1.00  0.00     0.241 C 
HETATM   19  O4  UNL     1      -1.222  -3.215   2.445  1.00  0.00    -0.271 OA
HETATM   20  C25 UNL     1      -0.327  -3.323   0.300  1.00  0.00     0.179 C 
HETATM   21  C26 UNL     1      -1.029  -4.519  -0.355  1.00  0.00     0.037 C 
HETATM   22  C27 UNL     1      -0.131  -5.694  -0.114  1.00  0.00     0.022 C 
HETATM   23  C28 UNL     1       0.469  -5.302   1.222  1.00  0.00     0.127 C 
HETATM   24  N5  UNL     1       0.823  -3.920   0.992  1.00  0.00    -0.337 N 
HETATM   25  C29 UNL     1       1.997  -3.209   1.341  1.00  0.00     0.245 C 
HETATM   26  O5  UNL     1       2.457  -3.327   2.531  1.00  0.00    -0.271 OA
HETATM   27  C30 UNL     1       2.749  -2.306   0.379  1.00  0.00     0.195 C 
HETATM   28  N6  UNL     1       3.135  -1.116   1.002  1.00  0.00    -0.320 N 
ATOM     29  H6  UNL     1       2.517  -0.690   1.693  1.00  0.00     0.181 HD
HETATM   30  N7  UNL     1       4.329  -0.510   0.702  1.00  0.00    -0.272 N 
ATOM     31  H7  UNL     1       5.163  -1.092   0.775  1.00  0.00     0.189 HD
HETATM   32  C35 UNL     1       4.533   0.839   0.300  1.00  0.00     0.258 C 
HETATM   33  O6  UNL     1       5.671   1.332   0.158  1.00  0.00    -0.269 OA
ENDROOT
BRANCH   1  34
HETATM   34  C4  UNL     1       2.869   2.205   1.344  1.00  0.00     0.035 C 
BRANCH  34  35
HETATM   35  C3  UNL     1       3.942   2.929   2.109  1.00  0.00     0.002 C 
BRANCH  35  36
HETATM   36  C2  UNL     1       4.418   4.196   1.471  1.00  0.00    -0.004 C 
HETATM   37  C1  UNL     1       5.500   4.772   2.390  1.00  0.00     0.005 C 
ENDBRANCH  35  36
ENDBRANCH  34  35
ENDBRANCH   1  34
BRANCH   6  38
HETATM   38  C8  UNL     1       0.962   3.201  -2.500  1.00  0.00     0.038 C 
BRANCH  38  39
HETATM   39  C9  UNL     1       0.160   4.274  -3.133  1.00  0.00    -0.020 C 
HETATM   40  C10 UNL     1      -0.963   3.811  -4.024  1.00  0.00     0.009 C 
HETATM   41  C11 UNL     1       1.124   5.059  -4.037  1.00  0.00     0.009 C 
ENDBRANCH  38  39
ENDBRANCH   6  38
BRANCH  27  42
HETATM   42  C31 UNL     1       3.789  -3.159  -0.272  1.00  0.00     0.014 C 
HETATM   43  C32 UNL     1       4.791  -3.760   0.685  1.00  0.00     0.012 C 
BRANCH  42  44
HETATM   44  C33 UNL     1       4.360  -2.652  -1.547  1.00  0.00     0.002 C 
HETATM   45  C34 UNL     1       5.406  -3.645  -2.079  1.00  0.00     0.005 C 
ENDBRANCH  42  44
ENDBRANCH  27  42
BRANCH  11  46
HETATM   46  C14 UNL     1      -3.728   2.665   1.390  1.00  0.00     0.038 C 
BRANCH  46  47
HETATM   47  C15 UNL     1      -4.638   1.803   2.150  1.00  0.00    -0.020 C 
HETATM   48  C16 UNL     1      -5.649   2.763   2.828  1.00  0.00     0.009 C 
HETATM   49  C17 UNL     1      -4.012   1.048   3.286  1.00  0.00     0.009 C 
ENDBRANCH  46  47
ENDBRANCH  11  46
BRANCH  14  50
HETATM   50  O3  UNL     1      -2.865  -0.319  -2.019  1.00  0.00    -0.348 OA
ATOM     51  H3  UNL     1      -2.712  -1.212  -2.305  1.00  0.00     0.219 HD
ENDBRANCH  14  50
BRANCH  15  52
HETATM   52  C20 UNL     1      -4.516  -1.887   0.482  1.00  0.00     0.037 C 
BRANCH  52  53
HETATM   53  C21 UNL     1      -5.443  -2.022  -0.705  1.00  0.00    -0.020 C 
HETATM   54  C22 UNL     1      -5.010  -3.081  -1.686  1.00  0.00     0.009 C 
HETATM   55  C23 UNL     1      -6.857  -2.374  -0.240  1.00  0.00     0.009 C 
ENDBRANCH  52  53
ENDBRANCH  15  52
TORSDOF 12
