REMARK  3 active torsions:
REMARK  status: ('A' for Active; 'I' for Inactive)
REMARK    1  A    between atoms: C2_3  and  N2_4 
REMARK    2  A    between atoms: C4_6  and  N3_7 
REMARK       I    between atoms: N3_7  and  C5_9 
REMARK       I    between atoms: C5_9  and  N4_11 
REMARK       I    between atoms: C6_13  and  N5_14 
REMARK       I    between atoms: C6_13  and  N7_19 
REMARK    3  A    between atoms: N5_14  and  N6_16 
ROOT
HETATM    1  N1  UNL     1      -4.881  -2.590   1.045  1.00  0.00    -0.196 NA
HETATM    2  C1  UNL     1      -4.414  -1.995   0.185  1.00  0.00     0.079 C 
HETATM    3  C2  UNL     1      -3.827  -1.232  -0.887  1.00  0.00     0.256 C 
ENDROOT
BRANCH   3   4
HETATM    4  N2  UNL     1      -3.144  -0.037  -0.448  1.00  0.00    -0.294 N 
HETATM    5  C3  UNL     1      -1.817  -0.051  -0.120  1.00  0.00     0.132 A 
HETATM    6  C4  UNL     1      -1.121   1.041   0.299  1.00  0.00     0.120 A 
HETATM    7  C8  UNL     1      -1.826   2.250   0.395  1.00  0.00     0.277 A 
HETATM    8  O2  UNL     1      -1.251   3.287   0.772  1.00  0.00    -0.266 OA
HETATM    9  N9  UNL     1      -3.117   2.255   0.074  1.00  0.00    -0.273 N 
HETATM   10  C9  UNL     1      -3.769   1.139  -0.339  1.00  0.00     0.330 A 
ATOM     11  H9  UNL     1      -3.636   3.130   0.141  1.00  0.00     0.173 HD
HETATM   12  O3  UNL     1      -5.002   1.186  -0.636  1.00  0.00    -0.246 OA
BRANCH   6  13
HETATM   13  N3  UNL     1       0.235   1.018   0.632  1.00  0.00    -0.302 N 
HETATM   14  C5  UNL     1       1.102  -0.081   0.601  1.00  0.00     0.339 C 
HETATM   15  O1  UNL     1       0.826  -1.238   0.271  1.00  0.00    -0.246 OA
HETATM   16  N4  UNL     1       2.470   0.154   0.994  1.00  0.00    -0.139 N 
HETATM   17  C6  UNL     1       3.405  -0.447   0.377  1.00  0.00     0.709 C 
ATOM     18  H4  UNL     1       2.685   0.795   1.758  1.00  0.00     0.189 HD
HETATM   19  N5  UNL     1       4.747  -0.231   0.746  1.00  0.00    -0.138 N 
HETATM   20  N7  UNL     1       3.121  -1.330  -0.678  1.00  0.00    -0.124 N 
ATOM     21  H5  UNL     1       5.286  -0.944   1.237  1.00  0.00     0.205 HD
HETATM   22  C7  UNL     1       3.515  -2.680  -0.606  1.00  0.00     0.196 C 
ATOM     23  H7  UNL     1       2.626  -0.991  -1.503  1.00  0.00     0.197 HD
HETATM   24  N8  UNL     1       3.831  -3.789  -0.530  1.00  0.00    -0.171 NA
ATOM     25  H3  UNL     1       0.641   1.904   0.933  1.00  0.00     0.171 HD
BRANCH  19  26
HETATM   26  N6  UNL     1       5.313   1.016   0.406  1.00  0.00    -0.331 N 
ATOM     27  H62 UNL     1       4.761   1.719  -0.085  1.00  0.00     0.177 HD
ATOM     28  H61 UNL     1       6.285   1.172   0.673  1.00  0.00     0.177 HD
ENDBRANCH  19  26
ENDBRANCH   6  13
ENDBRANCH   3   4
TORSDOF 3
