REMARK  4 active torsions:
REMARK  status: ('A' for Active; 'I' for Inactive)
REMARK    1  A    between atoms: N1_1  and  C1_4 
REMARK    2  A    between atoms: C4_10  and  N3_11 
REMARK    3  A    between atoms: N5_16  and  C5_17 
REMARK    4  A    between atoms: N6_21  and  C8_22 
ROOT
HETATM    1  C1  UNL     1       2.939   1.294  -0.904  1.00  0.00     0.680 A 
HETATM    2  N2  UNL     1       3.987   0.556  -0.508  1.00  0.00    -0.155 N 
ATOM      3  H2  UNL     1       4.942   0.847  -0.718  1.00  0.00     0.187 HD
HETATM    4  C2  UNL     1       3.745  -0.573   0.170  1.00  0.00     0.277 A 
HETATM    5  O1  UNL     1       4.701  -1.292   0.558  1.00  0.00    -0.266 OA
HETATM    6  C3  UNL     1       2.453  -0.950   0.443  1.00  0.00     0.123 A 
HETATM    7  C4  UNL     1       1.872  -2.006   1.090  1.00  0.00     0.133 A 
HETATM    8  N4  UNL     1       0.556  -1.843   1.044  1.00  0.00    -0.281 N 
ATOM      9  H4  UNL     1      -0.115  -2.493   1.454  1.00  0.00     0.189 HD
HETATM   10  N5  UNL     1       0.214  -0.716   0.391  1.00  0.00    -0.267 N 
HETATM   11  C10 UNL     1       1.374  -0.177   0.027  1.00  0.00     0.158 A 
HETATM   12  N7  UNL     1       1.652   0.945  -0.647  1.00  0.00    -0.174 N 
ATOM     13  H7  UNL     1       0.891   1.543  -0.970  1.00  0.00     0.186 HD
ENDROOT
BRANCH  10  14
HETATM   14  C5  UNL     1      -1.134  -0.353   0.230  1.00  0.00     0.132 C 
HETATM   15  C6  UNL     1      -1.846  -1.028  -0.952  1.00  0.00     0.057 C 
HETATM   16  C7  UNL     1      -3.256  -0.525  -1.084  1.00  0.00     0.203 C 
HETATM   17  O2  UNL     1      -3.728   0.197  -0.006  1.00  0.00    -0.276 OA
HETATM   18  N6  UNL     1      -2.933   1.138   0.451  1.00  0.00    -0.232 N 
HETATM   19  C9  UNL     1      -1.508   1.079   0.167  1.00  0.00     0.186 C 
BRANCH  18  20
HETATM   20  C8  UNL     1      -3.412   2.218   1.217  1.00  0.00     0.376 C 
HETATM   21  O3  UNL     1      -2.648   3.129   1.660  1.00  0.00    -0.281 OA
ENDBRANCH  18  20
ENDBRANCH  10  14
BRANCH   7  22
HETATM   22  N3  UNL     1       2.564  -2.966   1.631  1.00  0.00    -0.384 N 
ATOM     23  H32 UNL     1       3.576  -3.091   1.666  1.00  0.00     0.157 HD
ATOM     24  H31 UNL     1       2.131  -3.753   2.113  1.00  0.00     0.157 HD
ENDBRANCH   7  22
BRANCH   1  25
HETATM   25  N1  UNL     1       3.149   2.382  -1.555  1.00  0.00    -0.234 N 
ATOM     26  H12 UNL     1       4.116   2.644  -1.748  1.00  0.00     0.174 HD
ATOM     27  H11 UNL     1       2.352   2.943  -1.856  1.00  0.00     0.174 HD
ENDBRANCH   1  25
TORSDOF 4
