REMARK  4 active torsions:
REMARK  status: ('A' for Active; 'I' for Inactive)
REMARK    1  A    between atoms: O1_2  and  C2_3 
REMARK    2  A    between atoms: C2_3  and  N1_4 
REMARK    3  A    between atoms: C8_16  and  N4_17 
REMARK    4  A    between atoms: C9_22  and  N6_23 
ROOT
HETATM    1  N1  UNL     1       2.206  -0.480  -0.478  1.00  0.00    -0.250 N 
HETATM    2  C3  UNL     1       2.658   0.081  -1.705  1.00  0.00     0.306 A 
HETATM    3  O2  UNL     1       3.848   0.095  -2.134  1.00  0.00    -0.263 OA
HETATM    4  C4  UNL     1       1.470   0.630  -2.352  1.00  0.00     0.258 A 
HETATM    5  O3  UNL     1       1.435   1.218  -3.464  1.00  0.00    -0.281 OA
HETATM    6  C5  UNL     1       0.357   0.359  -1.460  1.00  0.00     0.116 A 
HETATM    7  C6  UNL     1       0.783  -0.305  -0.333  1.00  0.00     0.136 A 
HETATM    8  N2  UNL     1      -0.066  -0.669   0.648  1.00  0.00    -0.326 N 
ATOM      9  H2  UNL     1       0.298  -1.160   1.464  1.00  0.00     0.169 HD
HETATM   10  C7  UNL     1      -1.388  -0.399   0.577  1.00  0.00     0.140 A 
HETATM   11  N3  UNL     1      -2.251  -0.748   1.536  1.00  0.00    -0.176 N 
ATOM     12  H3  UNL     1      -1.898  -1.239   2.357  1.00  0.00     0.186 HD
HETATM   13  C8  UNL     1      -3.587  -0.474   1.461  1.00  0.00     0.679 A 
HETATM   14  N5  UNL     1      -4.074   0.171   0.394  1.00  0.00    -0.176 N 
ATOM     15  H5  UNL     1      -5.069   0.384   0.324  1.00  0.00     0.186 HD
HETATM   16  C9  UNL     1      -3.225   0.533  -0.584  1.00  0.00     0.132 A 
HETATM   17  C10 UNL     1      -1.866   0.262  -0.525  1.00  0.00     0.104 A 
HETATM   18  C11 UNL     1      -1.006   0.640  -1.536  1.00  0.00     0.207 A 
HETATM   19  O4  UNL     1      -1.442   1.246  -2.549  1.00  0.00    -0.286 OA
ENDROOT
BRANCH   1  20
HETATM   20  C2  UNL     1       3.011  -1.134   0.522  1.00  0.00     0.237 C 
BRANCH  20  21
HETATM   21  O1  UNL     1       3.505  -0.303   1.506  1.00  0.00    -0.351 OA
HETATM   22  C1  UNL     1       4.306   0.730   1.064  1.00  0.00     0.210 C 
ENDBRANCH  20  21
ENDBRANCH   1  20
BRANCH  16  23
HETATM   23  N6  UNL     1      -3.633   1.149  -1.625  1.00  0.00    -0.384 N 
ATOM     24  H62 UNL     1      -4.632   1.348  -1.668  1.00  0.00     0.157 HD
ATOM     25  H61 UNL     1      -2.989   1.424  -2.367  1.00  0.00     0.157 HD
ENDBRANCH  16  23
BRANCH  13  26
HETATM   26  N4  UNL     1      -4.368  -0.831   2.406  1.00  0.00    -0.234 N 
ATOM     27  H42 UNL     1      -3.997  -1.323   3.219  1.00  0.00     0.174 HD
ATOM     28  H41 UNL     1      -5.366  -0.626   2.350  1.00  0.00     0.174 HD
ENDBRANCH  13  26
TORSDOF 4
