REMARK  3 active torsions:
REMARK  status: ('A' for Active; 'I' for Inactive)
REMARK    1  A    between atoms: C7_12  and  C8_13 
REMARK    2  A    between atoms: C8_13  and  O1_14 
REMARK    3  A    between atoms: C8_13  and  C10_18 
ROOT
HETATM    1  C8  UNL     1       2.972  -0.230  -0.519  1.00  0.00     0.263 C 
HETATM    2  C9  UNL     1       2.678  -1.032  -1.706  1.00  0.00     0.112 C 
HETATM    3  N4  UNL     1       2.441  -1.654  -2.663  1.00  0.00    -0.193 NA
ENDROOT
BRANCH   1   4
HETATM    4  C7  UNL     1       1.671   0.105   0.165  1.00  0.00     0.240 C 
HETATM    5  N3  UNL     1       0.817   0.966  -0.635  1.00  0.00    -0.376 N 
HETATM    6  C6  UNL     1       0.692   2.283  -0.162  1.00  0.00     0.076 C 
ATOM      7  H3  UNL     1       0.344   0.639  -1.477  1.00  0.00     0.160 HD
HETATM    8  C5  UNL     1      -0.574   3.021  -0.326  1.00  0.00     0.158 C 
HETATM    9  N2  UNL     1      -1.711   2.611   0.418  1.00  0.00    -0.417 N 
HETATM   10  C4  UNL     1      -1.952   1.211   0.442  1.00  0.00     0.115 C 
ATOM     11  H2  UNL     1      -2.314   3.276   0.902  1.00  0.00     0.153 HD
HETATM   12  C3  UNL     1      -3.372   0.821   0.787  1.00  0.00     0.038 C 
HETATM   13  C2  UNL     1      -3.279  -0.712   0.938  1.00  0.00     0.118 C 
HETATM   14  N1  UNL     1      -2.312  -1.226   0.022  1.00  0.00    -0.412 N 
HETATM   15  C1  UNL     1      -2.843  -1.731  -1.199  1.00  0.00     0.143 C 
HETATM   16  C12 UNL     1      -1.227  -1.941   0.575  1.00  0.00     0.160 C 
HETATM   17  C11 UNL     1       0.063  -1.688  -0.163  1.00  0.00     0.077 C 
HETATM   18  N6  UNL     1       1.095  -1.109   0.559  1.00  0.00    -0.376 N 
ATOM     19  H6  UNL     1       1.442  -1.578   1.396  1.00  0.00     0.160 HD
ENDBRANCH   1   4
BRANCH   1  20
HETATM   20  O1  UNL     1       3.749   0.860  -0.826  1.00  0.00    -0.365 OA
ATOM     21  H1  UNL     1       4.569   0.649  -1.257  1.00  0.00     0.212 HD
ENDBRANCH   1  20
BRANCH   1  22
HETATM   22  C10 UNL     1       3.755  -1.088   0.417  1.00  0.00     0.284 C 
HETATM   23  N5  UNL     1       5.057  -0.727   0.847  1.00  0.00    -0.058 NA
HETATM   24  O2  UNL     1       3.306  -2.172   0.874  1.00  0.00    -0.272 OA
ENDBRANCH   1  22
TORSDOF 3
