REMARK  11 active torsions:
REMARK  status: ('A' for Active; 'I' for Inactive)
REMARK    1  A    between atoms: S1_2  and  C2_3 
REMARK    2  A    between atoms: C2_3  and  N2_7 
REMARK    3  A    between atoms: N2_7  and  C3_9 
REMARK    4  A    between atoms: C5_12  and  N3_13 
REMARK       I    between atoms: N3_13  and  C6_15 
REMARK    5  A    between atoms: C6_15  and  C7_17 
REMARK    6  A    between atoms: C7_17  and  C8_18 
REMARK    7  A    between atoms: C8_18  and  C9_19 
REMARK    8  A    between atoms: C9_19  and  N4_20 
REMARK    9  A    between atoms: C9_19  and  C10_24 
REMARK   10  A    between atoms: C10_24  and  C11_25 
REMARK   11  A    between atoms: C15_30  and  O2_31 
ROOT
HETATM    1  N3  UNL     1       1.232  -0.388  -0.650  1.00  0.00    -0.324 N 
ATOM      2  H3  UNL     1       1.410  -1.327  -0.294  1.00  0.00     0.169 HD
HETATM    3  C6  UNL     1       0.112  -0.260  -1.468  1.00  0.00     0.222 C 
HETATM    4  O1  UNL     1      -0.207   0.837  -1.964  1.00  0.00    -0.273 OA
ENDROOT
BRANCH   3   5
HETATM    5  C7  UNL     1      -0.730  -1.425  -1.773  1.00  0.00     0.105 C 
BRANCH   5   6
HETATM    6  C8  UNL     1      -2.033  -1.238  -2.402  1.00  0.00     0.042 C 
BRANCH   6   7
HETATM    7  C9  UNL     1      -3.120  -0.523  -1.712  1.00  0.00     0.188 C 
BRANCH   7   8
HETATM    8  N4  UNL     1      -2.948   0.823  -1.326  1.00  0.00    -0.075 N 
ATOM      9  H43 UNL     1      -2.106   0.889  -0.755  1.00  0.00     0.274 HD
ATOM     10  H42 UNL     1      -2.680   1.362  -2.149  1.00  0.00     0.274 HD
ATOM     11  H41 UNL     1      -3.701   1.318  -0.848  1.00  0.00     0.274 HD
ENDBRANCH   7   8
BRANCH   7  12
HETATM   12  C10 UNL     1      -3.662  -1.398  -0.586  1.00  0.00     0.074 C 
BRANCH  12  13
HETATM   13  C11 UNL     1      -4.752  -0.784   0.173  1.00  0.00    -0.012 A 
HETATM   14  C12 UNL     1      -4.565  -0.260   1.431  1.00  0.00     0.052 A 
HETATM   15  C13 UNL     1      -5.606   0.311   2.123  1.00  0.00     0.119 A 
HETATM   16  F1  UNL     1      -5.395   0.828   3.377  1.00  0.00    -0.206 F 
HETATM   17  C14 UNL     1      -6.855   0.355   1.542  1.00  0.00     0.082 A 
HETATM   18  C15 UNL     1      -7.088  -0.161   0.280  1.00  0.00     0.107 A 
HETATM   19  C16 UNL     1      -6.019  -0.715  -0.361  1.00  0.00     0.155 A 
HETATM   20  F2  UNL     1      -6.246  -1.226  -1.613  1.00  0.00    -0.203 F 
BRANCH  18  21
HETATM   21  O2  UNL     1      -8.367  -0.105  -0.291  1.00  0.00    -0.357 OA
ATOM     22  H2  UNL     1      -8.527  -0.459  -1.158  1.00  0.00     0.217 HD
ENDBRANCH  18  21
ENDBRANCH  12  13
ENDBRANCH   7  12
ENDBRANCH   6   7
ENDBRANCH   5   6
ENDBRANCH   3   5
BRANCH   1  23
HETATM   23  C5  UNL     1       2.147   0.590  -0.248  1.00  0.00     0.074 A 
HETATM   24  C4  UNL     1       3.210   0.199   0.580  1.00  0.00     0.094 A 
HETATM   25  C3  UNL     1       4.119   1.108   0.996  1.00  0.00     0.127 A 
HETATM   26 CL1  UNL     1       3.367  -1.481   1.086  1.00  0.00    -0.079 Cl
HETATM   27  C18 UNL     1       4.001   2.428   0.604  1.00  0.00     0.274 A 
HETATM   28  N5  UNL     1       3.006   2.833  -0.181  1.00  0.00    -0.329 N 
HETATM   29  O3  UNL     1       4.871   3.244   1.014  1.00  0.00    -0.266 OA
HETATM   30  C17 UNL     1       2.097   1.906  -0.592  1.00  0.00     0.122 A 
ATOM     31  H5  UNL     1       2.926   3.809  -0.467  1.00  0.00     0.168 HD
BRANCH  25  32
HETATM   32  N2  UNL     1       5.194   0.709   1.834  1.00  0.00    -0.331 N 
ATOM     33  H2  UNL     1       5.085   0.736   2.848  1.00  0.00     0.168 HD
BRANCH  32  34
HETATM   34  C2  UNL     1       6.410   0.276   1.270  1.00  0.00     0.138 C 
HETATM   35  N1  UNL     1       6.544   0.133   0.004  1.00  0.00    -0.380 N 
ATOM     36  H12 UNL     1       7.425  -0.181  -0.404  1.00  0.00     0.158 HD
ATOM     37  H11 UNL     1       5.750   0.338  -0.603  1.00  0.00     0.158 HD
BRANCH  34  38
HETATM   38  S1  UNL     1       7.791  -0.080   2.327  1.00  0.00    -0.099 SA
HETATM   39  C1  UNL     1       9.220  -0.615   1.362  1.00  0.00     0.099 C 
ENDBRANCH  34  38
ENDBRANCH  32  34
ENDBRANCH  25  32
ENDBRANCH   1  23
TORSDOF 11
