REMARK  9 active torsions:
REMARK  status: ('A' for Active; 'I' for Inactive)
REMARK    1  A    between atoms: C2_2  and  C3_3 
REMARK    2  A    between atoms: C3_3  and  N1_4 
REMARK    3  A    between atoms: C3_3  and  C7_19 
REMARK    4  A    between atoms: C6_13  and  N4_14 
REMARK    5  A    between atoms: C10_23  and  N6_24 
REMARK    6  A    between atoms: N6_24  and  C11_26 
REMARK    7  A    between atoms: C13_28  and  C14_29 
REMARK    8  A    between atoms: C14_29  and  N7_30 
REMARK    9  A    between atoms: C15_36  and  O1_37 
ROOT
HETATM    1  C7  UNL     1       1.505   0.979   0.789  1.00  0.00     0.009 A 
HETATM    2  C8  UNL     1       0.685   1.001   1.904  1.00  0.00     0.038 A 
HETATM    3  C9  UNL     1      -0.657   1.350   1.840  1.00  0.00     0.064 A 
HETATM    4 CL2  UNL     1      -1.681   1.368   3.260  1.00  0.00    -0.082 Cl
HETATM    5  C10 UNL     1      -1.212   1.693   0.629  1.00  0.00     0.097 A 
HETATM    6  C17 UNL     1      -0.380   1.670  -0.499  1.00  0.00     0.183 A 
HETATM    7  F1  UNL     1      -0.870   2.000  -1.727  1.00  0.00    -0.200 F 
HETATM    8  C18 UNL     1       0.949   1.323  -0.431  1.00  0.00     0.165 A 
HETATM    9  F2  UNL     1       1.706   1.320  -1.524  1.00  0.00    -0.202 F 
ENDROOT
BRANCH   1  10
HETATM   10  C3  UNL     1       2.910   0.595   0.874  1.00  0.00     0.135 C 
BRANCH  10  11
HETATM   11  C2  UNL     1       3.402   0.597   2.342  1.00  0.00     0.026 C 
HETATM   12  C1  UNL     1       4.863   0.124   2.362  1.00  0.00     0.007 C 
ENDBRANCH  10  11
BRANCH  10  13
HETATM   13  N1  UNL     1       3.056  -0.783   0.491  1.00  0.00    -0.217 N 
HETATM   14  C4  UNL     1       3.733  -1.312  -0.423  1.00  0.00     0.695 A 
HETATM   15  N2  UNL     1       3.644  -2.678  -0.516  1.00  0.00    -0.165 N 
HETATM   16  N5  UNL     1       4.537  -0.731  -1.318  1.00  0.00    -0.022 N 
HETATM   17  C5  UNL     1       4.324  -3.365  -1.447  1.00  0.00     0.208 A 
ATOM     18  H2  UNL     1       3.047  -3.184   0.138  1.00  0.00     0.186 HD
HETATM   19 CL1  UNL     1       4.203  -5.106  -1.558  1.00  0.00    -0.044 Cl
HETATM   20  N3  UNL     1       5.126  -2.755  -2.337  1.00  0.00    -0.165 N 
HETATM   21  C6  UNL     1       5.223  -1.413  -2.257  1.00  0.00     0.692 A 
ATOM     22  H3  UNL     1       5.639  -3.285  -3.042  1.00  0.00     0.186 HD
ATOM     23  H5  UNL     1       4.637   0.284  -1.289  1.00  0.00     0.203 HD
ATOM     24  H1  UNL     1       2.519  -1.440   1.057  1.00  0.00     0.178 HD
BRANCH  21  25
HETATM   25  N4  UNL     1       5.994  -0.796  -3.111  1.00  0.00    -0.234 N 
ATOM     26  H42 UNL     1       6.513  -1.312  -3.821  1.00  0.00     0.174 HD
ATOM     27  H41 UNL     1       6.067   0.220  -3.050  1.00  0.00     0.174 HD
ENDBRANCH  21  25
ENDBRANCH  10  13
ENDBRANCH   1  10
BRANCH   5  28
HETATM   28  N6  UNL     1      -2.555   2.053   0.469  1.00  0.00    -0.349 N 
ATOM     29  H6  UNL     1      -2.808   3.029   0.621  1.00  0.00     0.166 HD
BRANCH  28  30
HETATM   30  C11 UNL     1      -3.589   1.149   0.109  1.00  0.00     0.086 A 
HETATM   31  C12 UNL     1      -3.430  -0.193  -0.162  1.00  0.00     0.060 A 
HETATM   32  C13 UNL     1      -4.669  -0.727  -0.491  1.00  0.00     0.039 A 
HETATM   33  N8  UNL     1      -5.567   0.267  -0.421  1.00  0.00    -0.337 N 
HETATM   34  C15 UNL     1      -4.935   1.398  -0.062  1.00  0.00     0.169 A 
ATOM     35  H8  UNL     1      -6.566   0.179  -0.609  1.00  0.00     0.168 HD
BRANCH  32  36
HETATM   36  C14 UNL     1      -4.946  -2.157  -0.860  1.00  0.00     0.286 C 
BRANCH  36  37
HETATM   37  N7  UNL     1      -3.676  -2.895  -0.797  1.00  0.00    -0.074 N 
ATOM     38  H73 UNL     1      -2.945  -2.474  -1.371  1.00  0.00     0.274 HD
ATOM     39  H72 UNL     1      -3.210  -2.803   0.106  1.00  0.00     0.274 HD
ATOM     40  H71 UNL     1      -3.864  -3.866  -1.047  1.00  0.00     0.274 HD
ENDBRANCH  36  37
ENDBRANCH  32  36
BRANCH  34  41
HETATM   41  O1  UNL     1      -5.570   2.607   0.099  1.00  0.00    -0.339 OA
HETATM   42  C16 UNL     1      -6.186   2.877   1.348  1.00  0.00     0.211 C 
ENDBRANCH  34  41
ENDBRANCH  28  30
ENDBRANCH   5  28
TORSDOF 9
