REMARK  5 active torsions:
REMARK  status: ('A' for Active; 'I' for Inactive)
REMARK    1  A    between atoms: N1_1  and  N2_4 
REMARK    2  A    between atoms: N2_4  and  O1_5 
REMARK    3  A    between atoms: O1_5  and  N3_6 
REMARK    4  A    between atoms: N3_6  and  S1_8 
REMARK    5  A    between atoms: S1_8  and  C1_10 
ROOT
HETATM    1  S1  UNL     1       0.005  -0.448  -1.419  1.00  0.00     0.174 S 
HETATM    2  O2  UNL     1      -0.263  -1.927  -2.104  1.00  0.00    -0.228 OA
ENDROOT
BRANCH   1   3
HETATM    3  N3  UNL     1       1.397  -0.361  -0.443  1.00  0.00    -0.186 N 
ATOM      4  H3  UNL     1       2.178   0.261  -0.651  1.00  0.00     0.207 HD
BRANCH   3   5
HETATM    5  O1  UNL     1       1.383  -1.172   0.617  1.00  0.00    -0.135 OA
BRANCH   5   6
HETATM    6  N2  UNL     1       2.487  -0.904   1.354  1.00  0.00     0.040 NA
BRANCH   6   7
HETATM    7  N1  UNL     1       3.039   0.334   1.086  1.00  0.00    -0.321 N 
ATOM      8  H12 UNL     1       2.642   0.972   0.397  1.00  0.00     0.174 HD
ATOM      9  H11 UNL     1       3.871   0.536   1.641  1.00  0.00     0.174 HD
ENDBRANCH   6   7
ENDBRANCH   5   6
ENDBRANCH   3   5
ENDBRANCH   1   3
BRANCH   1  10
HETATM   10  C1  UNL     1      -1.381   0.260  -0.679  1.00  0.00     0.087 A 
HETATM   11  C2  UNL     1      -1.770   1.571  -0.787  1.00  0.00     0.131 A 
HETATM   12  N4  UNL     1      -2.912   1.728  -0.056  1.00  0.00    -0.311 N 
HETATM   13  N5  UNL     1      -3.246   0.568   0.502  1.00  0.00    -0.311 N 
ATOM     14  H4  UNL     1      -3.430   2.601   0.047  1.00  0.00     0.186 HD
HETATM   15  C3  UNL     1      -2.309  -0.354   0.128  1.00  0.00     0.131 A 
ATOM     16  H5  UNL     1      -4.054   0.397   1.100  1.00  0.00     0.186 HD
ENDBRANCH   1  10
TORSDOF 5
