REMARK  6 active torsions:
REMARK  status: ('A' for Active; 'I' for Inactive)
REMARK    1  A    between atoms: C1_4  and  N2_5 
REMARK    2  A    between atoms: N2_5  and  C2_7 
REMARK    3  A    between atoms: C3_13  and  N5_14 
REMARK    4  A    between atoms: N5_14  and  C4_16 
REMARK    5  A    between atoms: C4_16  and  C5_17 
REMARK    6  A    between atoms: C5_17  and  N6_18 
ROOT
HETATM    1  C2  UNL     1      -1.628   0.162   0.205  1.00  0.00     0.174 A 
HETATM    2  N3  UNL     1      -2.566  -0.793   0.309  1.00  0.00    -0.222 N 
ATOM      3  H3  UNL     1      -3.575  -0.658   0.241  1.00  0.00     0.198 HD
HETATM    4  O1  UNL     1      -1.952  -1.921   0.512  1.00  0.00    -0.153 OA
HETATM    5  N4  UNL     1      -0.665  -1.746   0.546  1.00  0.00    -0.222 N 
ATOM      6  H4  UNL     1       0.025  -2.483   0.693  1.00  0.00     0.198 HD
HETATM    7  C3  UNL     1      -0.379  -0.431   0.356  1.00  0.00     0.170 A 
ENDROOT
BRANCH   7   8
HETATM    8  N5  UNL     1       0.775   0.144   0.322  1.00  0.00    -0.370 N 
ATOM      9  H5  UNL     1       0.862   1.149   0.171  1.00  0.00     0.161 HD
BRANCH   8  10
HETATM   10  C4  UNL     1       1.939  -0.689   0.506  1.00  0.00     0.148 C 
BRANCH  10  11
HETATM   11  C5  UNL     1       3.225   0.065   0.263  1.00  0.00     0.249 C 
BRANCH  11  12
HETATM   12  N6  UNL     1       3.330   0.598  -1.058  1.00  0.00    -0.078 N 
ATOM     13  H63 UNL     1       3.204  -0.136  -1.755  1.00  0.00     0.274 HD
ATOM     14  H62 UNL     1       2.522   1.181  -1.278  1.00  0.00     0.274 HD
ATOM     15  H61 UNL     1       4.198   1.107  -1.222  1.00  0.00     0.274 HD
ENDBRANCH  11  12
ENDBRANCH  10  11
ENDBRANCH   8  10
ENDBRANCH   7   8
BRANCH   1  16
HETATM   16  N2  UNL     1      -1.839   1.424  -0.001  1.00  0.00    -0.334 N 
ATOM     17  H2  UNL     1      -1.052   2.070  -0.065  1.00  0.00     0.168 HD
BRANCH  16  18
HETATM   18  C1  UNL     1      -3.158   1.902  -0.137  1.00  0.00     0.175 C 
HETATM   19  N1  UNL     1      -3.856   1.550  -1.149  1.00  0.00    -0.395 N 
ATOM     20  H12 UNL     1      -3.446   0.927  -1.844  1.00  0.00     0.156 HD
ATOM     21  H11 UNL     1      -4.810   1.896  -1.247  1.00  0.00     0.156 HD
ENDBRANCH  16  18
ENDBRANCH   1  16
TORSDOF 6
