REMARK  0 active torsions:
REMARK  status: ('A' for Active; 'I' for Inactive)
REMARK       I    between atoms: C1_2  and  N2_4 
ROOT
HETATM    1  N1  UNL     1       3.690   0.321   0.858  1.00  0.00    -0.039 NA
HETATM    2  C1  UNL     1       2.723  -0.663   0.448  1.00  0.00     0.340 C 
HETATM    3  O1  UNL     1       3.165  -1.852   0.633  1.00  0.00    -0.250 OA
HETATM    4  N2  UNL     1       1.487  -0.382  -0.064  1.00  0.00    -0.265 N 
HETATM    5  C2  UNL     1       1.079   0.987  -0.262  1.00  0.00     0.055 A 
HETATM    6  C3  UNL     1       2.101   1.755  -0.748  1.00  0.00     0.031 A 
HETATM    7  C4  UNL     1       1.907   3.086  -1.037  1.00  0.00     0.002 A 
HETATM    8  C5  UNL     1       0.655   3.622  -0.827  1.00  0.00     0.001 A 
HETATM    9  C6  UNL     1      -0.424   2.874  -0.332  1.00  0.00     0.014 A 
HETATM   10  C7  UNL     1      -0.179   1.564  -0.058  1.00  0.00     0.002 A 
HETATM   11  C8  UNL     1      -1.334   0.882   0.477  1.00  0.00    -0.013 A 
HETATM   12  C9  UNL     1      -2.174   1.738   1.117  1.00  0.00     0.013 A 
HETATM   13  C10 UNL     1      -3.313   1.173   1.702  1.00  0.00     0.001 A 
HETATM   14  C11 UNL     1      -3.569  -0.174   1.638  1.00  0.00     0.001 A 
HETATM   15  C12 UNL     1      -2.702  -1.042   0.983  1.00  0.00     0.013 A 
HETATM   16  C13 UNL     1      -1.593  -0.511   0.407  1.00  0.00    -0.013 A 
HETATM   17  C14 UNL     1      -0.773  -1.550  -0.220  1.00  0.00     0.002 A 
HETATM   18  C15 UNL     1      -1.509  -2.627  -0.612  1.00  0.00     0.014 A 
HETATM   19  C16 UNL     1      -0.823  -3.671  -1.196  1.00  0.00     0.001 A 
HETATM   20  C17 UNL     1       0.568  -3.624  -1.380  1.00  0.00     0.002 A 
HETATM   21  C18 UNL     1       1.271  -2.511  -0.970  1.00  0.00     0.031 A 
HETATM   22  C19 UNL     1       0.607  -1.468  -0.388  1.00  0.00     0.055 A 
ENDROOT
TORSDOF 0
