REMARK  2 active torsions:
REMARK  status: ('A' for Active; 'I' for Inactive)
REMARK    1  A    between atoms: O1_1  and  N1_3 
REMARK    2  A    between atoms: C2_5  and  C18_25 
ROOT
HETATM    1  N1  UNL     1       0.360   3.517  -0.012  1.00  0.00    -0.174 N 
HETATM    2  C1  UNL     1       1.505   2.816  -0.004  1.00  0.00     0.158 A 
HETATM    3  C2  UNL     1       1.149   1.505   0.041  1.00  0.00     0.025 A 
HETATM    4  C3  UNL     1      -0.236   1.419   0.060  1.00  0.00     0.076 A 
HETATM    5  N2  UNL     1      -0.676   2.697   0.026  1.00  0.00    -0.273 N 
ATOM      6  H2  UNL     1      -1.655   2.984   0.029  1.00  0.00     0.189 HD
HETATM    7  C4  UNL     1      -0.841   0.201   0.105  1.00  0.00     0.033 A 
HETATM    8  C5  UNL     1      -2.158  -0.184   0.133  1.00  0.00     0.005 A 
HETATM    9  C6  UNL     1      -3.335   0.500   0.126  1.00  0.00     0.014 A 
HETATM   10  C7  UNL     1      -4.554  -0.195   0.162  1.00  0.00     0.001 A 
HETATM   11  C8  UNL     1      -4.595  -1.571   0.205  1.00  0.00     0.002 A 
HETATM   12  C9  UNL     1      -3.371  -2.235   0.211  1.00  0.00     0.030 A 
HETATM   13  C10 UNL     1      -2.179  -1.562   0.176  1.00  0.00     0.043 A 
HETATM   14  N3  UNL     1      -0.900  -2.002   0.174  1.00  0.00    -0.354 N 
ATOM     15  H3  UNL     1      -0.614  -2.981   0.201  1.00  0.00     0.166 HD
HETATM   16  C11 UNL     1      -0.066  -0.952   0.131  1.00  0.00     0.058 A 
HETATM   17  C12 UNL     1       1.323  -0.874   0.112  1.00  0.00     0.015 A 
HETATM   18  C13 UNL     1       2.568  -1.454   0.115  1.00  0.00    -0.012 A 
HETATM   19  C14 UNL     1       3.599  -2.359   0.131  1.00  0.00     0.013 A 
HETATM   20  C15 UNL     1       4.821  -1.674   0.095  1.00  0.00     0.002 A 
HETATM   21  C16 UNL     1       4.587  -0.327   0.056  1.00  0.00     0.013 A 
HETATM   22  C17 UNL     1       3.217  -0.151   0.067  1.00  0.00    -0.013 A 
HETATM   23  C18 UNL     1       1.929   0.359   0.067  1.00  0.00     0.002 A 
ENDROOT
BRANCH   1  24
HETATM   24  O1  UNL     1       0.255   4.904  -0.054  1.00  0.00    -0.268 OA
ATOM     25  H1  UNL     1      -0.555   5.400  -0.060  1.00  0.00     0.247 HD
ENDBRANCH   1  24
TORSDOF 2
