REMARK  7 active torsions:
REMARK  status: ('A' for Active; 'I' for Inactive)
REMARK    1  A    between atoms: C4_5  and  C5_6 
REMARK    2  A    between atoms: C5_6  and  C6_7 
REMARK    3  A    between atoms: C6_7  and  O1_8 
REMARK    4  A    between atoms: C8_11  and  O2_12 
REMARK    5  A    between atoms: C9_14  and  N2_15 
REMARK       I    between atoms: N2_15  and  C10_17 
REMARK    6  A    between atoms: C10_17  and  O4_19 
REMARK    7  A    between atoms: O4_19  and  C11_20 
ROOT
HETATM    1  C5  UNL     1       2.285  -0.337   0.038  1.00  0.00    -0.008 C 
HETATM    2  C7  UNL     1       1.815   0.049   1.451  1.00  0.00     0.046 C 
HETATM    3  C8  UNL     1       0.769   1.119   1.271  1.00  0.00     0.141 C 
HETATM    4  C9  UNL     1       0.083   0.708   0.005  1.00  0.00     0.116 C 
HETATM    5  C17 UNL     1       1.112   0.052  -0.865  1.00  0.00     0.040 C 
ENDROOT
BRANCH   4   6
HETATM    6  N2  UNL     1      -1.009  -0.182   0.334  1.00  0.00    -0.330 N 
HETATM    7  C10 UNL     1      -2.355   0.179   0.056  1.00  0.00     0.361 C 
HETATM    8  O3  UNL     1      -2.643   1.295  -0.491  1.00  0.00    -0.238 OA
ATOM      9  H2  UNL     1      -0.810  -1.082   0.772  1.00  0.00     0.165 HD
BRANCH   7  10
HETATM   10  O4  UNL     1      -3.427  -0.639   0.354  1.00  0.00    -0.299 OA
BRANCH  10  11
HETATM   11  C11 UNL     1      -4.759  -0.335   0.103  1.00  0.00     0.133 C 
HETATM   12  C12 UNL     1      -5.544  -0.260   1.393  1.00  0.00     0.032 C 
HETATM   13  C13 UNL     1      -6.947   0.248   1.158  1.00  0.00     0.002 C 
HETATM   14  C14 UNL     1      -7.642  -0.434   0.029  1.00  0.00     0.000 C 
HETATM   15  C15 UNL     1      -6.797  -0.631  -1.191  1.00  0.00     0.002 C 
HETATM   16  C16 UNL     1      -5.463  -1.283  -0.812  1.00  0.00     0.032 C 
ENDBRANCH  10  11
ENDBRANCH   7  10
ENDBRANCH   4   6
BRANCH   3  17
HETATM   17  O2  UNL     1       1.365   2.368   1.204  1.00  0.00    -0.393 OA
ATOM     18  H2  UNL     1       0.706   3.042   1.091  1.00  0.00     0.210 HD
ENDBRANCH   3  17
BRANCH   1  19
HETATM   19  C4  UNL     1       3.427   0.521  -0.291  1.00  0.00     0.048 C 
HETATM   20  C3  UNL     1       4.662   0.496   0.536  1.00  0.00     0.243 C 
HETATM   21  N1  UNL     1       5.462   0.523  -0.677  1.00  0.00    -0.074 N 
HETATM   22  C1  UNL     1       6.511  -0.452  -0.677  1.00  0.00     0.272 C 
HETATM   23  C2  UNL     1       6.010   1.850  -0.951  1.00  0.00     0.272 C 
HETATM   24  C18 UNL     1       4.286   0.193  -1.464  1.00  0.00     0.243 C 
ENDBRANCH   1  19
BRANCH   1  25
HETATM   25  C6  UNL     1       2.463  -1.800   0.036  1.00  0.00     0.174 C 
BRANCH  25  26
HETATM   26  O1  UNL     1       3.412  -2.295   0.923  1.00  0.00    -0.400 OA
ATOM     27  H1  UNL     1       3.527  -3.238   0.922  1.00  0.00     0.209 HD
ENDBRANCH  25  26
ENDBRANCH   1  25
TORSDOF 7
