REMARK  6 active torsions:
REMARK  status: ('A' for Active; 'I' for Inactive)
REMARK    1  A    between atoms: N1_1  and  C1_4 
REMARK    2  A    between atoms: C3_6  and  N2_7 
REMARK    3  A    between atoms: N3_13  and  C9_14 
REMARK    4  A    between atoms: C9_14  and  C10_15 
REMARK    5  A    between atoms: C14_19  and  C15_20 
REMARK    6  A    between atoms: C15_20  and  O1_21 
ROOT
HETATM    1  N2  UNL     1       2.600   0.379   0.609  1.00  0.00    -0.381 N 
HETATM    2  C4  UNL     1       1.712   1.243  -0.093  1.00  0.00     0.123 C 
HETATM    3  C5  UNL     1       0.318   0.811  -0.290  1.00  0.00     0.030 C 
HETATM    4  C6  UNL     1      -0.092  -0.537   0.220  1.00  0.00    -0.023 C 
HETATM    5  C7  UNL     1      -0.975  -0.298   1.437  1.00  0.00     0.055 C 
HETATM    6  C8  UNL     1      -2.420  -0.490   1.244  1.00  0.00     0.064 C 
HETATM    7  N3  UNL     1      -2.947  -0.454  -0.062  1.00  0.00    -0.373 N 
HETATM    8  C13 UNL     1      -2.175  -0.882  -1.146  1.00  0.00     0.070 C 
HETATM    9  C14 UNL     1      -0.771  -1.294  -0.866  1.00  0.00     0.057 C 
HETATM   10  C16 UNL     1       1.060  -1.383   0.703  1.00  0.00     0.030 C 
HETATM   11  C17 UNL     1       2.041  -0.547   1.541  1.00  0.00     0.123 C 
ENDROOT
BRANCH   9  12
HETATM   12  C15 UNL     1      -0.667  -2.787  -0.789  1.00  0.00     0.174 C 
BRANCH  12  13
HETATM   13  O1  UNL     1      -1.188  -3.358   0.342  1.00  0.00    -0.400 OA
ATOM     14  H1  UNL     1      -1.122  -4.304   0.391  1.00  0.00     0.209 HD
ENDBRANCH  12  13
ENDBRANCH   9  12
BRANCH   1  15
HETATM   15  C3  UNL     1       3.994   0.475   0.376  1.00  0.00     0.035 A 
HETATM   16  C2  UNL     1       4.483   1.648  -0.192  1.00  0.00     0.077 A 
HETATM   17  C1  UNL     1       5.830   1.773  -0.446  1.00  0.00     0.100 A 
HETATM   18  N4  UNL     1       6.726   0.799  -0.169  1.00  0.00    -0.353 N 
HETATM   19  C19 UNL     1       6.254  -0.333   0.380  1.00  0.00     0.092 A 
ATOM     20  H4  UNL     1       7.719   0.919  -0.369  1.00  0.00     0.166 HD
HETATM   21  C18 UNL     1       4.903  -0.510   0.656  1.00  0.00     0.046 A 
BRANCH  17  22
HETATM   22  N1  UNL     1       6.290   2.865  -0.975  1.00  0.00    -0.385 N 
ATOM     23  H12 UNL     1       5.614   3.600  -1.184  1.00  0.00     0.157 HD
ATOM     24  H11 UNL     1       7.288   2.958  -1.163  1.00  0.00     0.157 HD
ENDBRANCH  17  22
ENDBRANCH   1  15
BRANCH   7  25
HETATM   25  C9  UNL     1      -3.774   0.682  -0.323  1.00  0.00     0.131 C 
BRANCH  25  26
HETATM   26  C10 UNL     1      -5.071   0.678   0.442  1.00  0.00     0.004 A 
HETATM   27  C11 UNL     1      -5.936   1.892   0.149  1.00  0.00     0.007 A 
HETATM   28  C12 UNL     1      -6.305   0.447  -0.309  1.00  0.00     0.007 A 
ENDBRANCH  25  26
ENDBRANCH   7  25
TORSDOF 6
