REMARK  5 active torsions:
REMARK  status: ('A' for Active; 'I' for Inactive)
REMARK    1  A    between atoms: O1_2  and  C2_3 
REMARK    2  A    between atoms: C4_5  and  C5_6 
REMARK    3  A    between atoms: C5_6  and  O2_9 
REMARK    4  A    between atoms: C13_16  and  O3_17 
REMARK    5  A    between atoms: C17_22  and  C18_23 
ROOT
HETATM    1  C2  UNL     1       1.328   0.513   0.759  1.00  0.00     0.100 C 
HETATM    2  C3  UNL     1       0.054   0.011   1.317  1.00  0.00     0.050 C 
HETATM    3  C4  UNL     1      -1.104   0.337   0.342  1.00  0.00     0.032 C 
HETATM    4  C8  UNL     1      -0.650  -0.176  -0.964  1.00  0.00    -0.021 C 
HETATM    5  C9  UNL     1      -1.475   0.225  -2.104  1.00  0.00     0.012 C 
HETATM    6  C10 UNL     1      -0.747   1.585  -2.077  1.00  0.00     0.013 C 
HETATM    7  C11 UNL     1       0.407   0.766  -1.571  1.00  0.00    -0.007 C 
HETATM    8  C12 UNL     1       1.158   0.285  -2.756  1.00  0.00     0.019 C 
HETATM    9  C13 UNL     1       1.240   1.347  -0.478  1.00  0.00     0.162 C 
HETATM   10  C14 UNL     1      -0.123  -1.557  -0.822  1.00  0.00    -0.008 C 
HETATM   11  C15 UNL     1      -0.422  -2.487  -1.991  1.00  0.00     0.011 C 
HETATM   12  C16 UNL     1       1.293  -1.732  -0.466  1.00  0.00     0.023 C 
HETATM   13  C17 UNL     1       2.069  -0.768   0.295  1.00  0.00     0.124 C 
ENDROOT
BRANCH   3  14
HETATM   14  C5  UNL     1      -2.403   0.068   0.918  1.00  0.00     0.055 C 
HETATM   15  C6  UNL     1      -2.504   0.964   2.188  1.00  0.00     0.045 C 
HETATM   16  C7  UNL     1      -2.817  -1.260   1.396  1.00  0.00     0.045 C 
BRANCH  14  17
HETATM   17  O2  UNL     1      -3.448   0.590   0.149  1.00  0.00    -0.390 OA
ATOM     18  H2  UNL     1      -4.301   0.413   0.527  1.00  0.00     0.210 HD
ENDBRANCH  14  17
ENDBRANCH   3  14
BRANCH   1  19
HETATM   19  O1  UNL     1       2.187   1.094   1.643  1.00  0.00    -0.381 OA
HETATM   20  C1  UNL     1       1.847   2.134   2.398  1.00  0.00     0.202 C 
ENDBRANCH   1  19
BRANCH   9  21
HETATM   21  O3  UNL     1       1.023   2.701  -0.292  1.00  0.00    -0.392 OA
ATOM     22  H3  UNL     1       0.967   3.231  -1.078  1.00  0.00     0.210 HD
ENDBRANCH   9  21
BRANCH  13  23
HETATM   23  C18 UNL     1       2.598  -1.370   1.566  1.00  0.00     0.180 C 
HETATM   24  O4  UNL     1       2.372  -0.932   2.712  1.00  0.00    -0.648 OA
HETATM   25  O5  UNL     1       3.407  -2.516   1.449  1.00  0.00    -0.648 OA
ENDBRANCH  13  23
TORSDOF 5
