REMARK  13 active torsions:
REMARK  status: ('A' for Active; 'I' for Inactive)
REMARK    1  A    between atoms: C2_2  and  C3_3 
REMARK       I    between atoms: C3_3  and  N1_5 
REMARK    2  A    between atoms: N1_5  and  C4_7 
REMARK    3  A    between atoms: C4_7  and  C5_8 
REMARK    4  A    between atoms: C4_7  and  C9_17 
REMARK    5  A    between atoms: C5_8  and  C6_9 
REMARK    6  A    between atoms: C6_9  and  O2_11 
REMARK    7  A    between atoms: C6_9  and  C8_13 
REMARK       I    between atoms: C9_17  and  N3_19 
REMARK    8  A    between atoms: N3_19  and  C10_21 
REMARK    9  A    between atoms: C10_21  and  C11_22 
REMARK   10  A    between atoms: C10_21  and  C15_26 
REMARK   11  A    between atoms: C15_26  and  O4_27 
REMARK   12  A    between atoms: C15_26  and  C16_29 
REMARK   13  A    between atoms: C16_29  and  O5_31 
ROOT
HETATM    1  C4  UNL     1       2.004  -0.113   0.579  1.00  0.00     0.083 C 
ENDROOT
BRANCH   1   2
HETATM    2  N1  UNL     1       2.824   0.953   1.091  1.00  0.00    -0.322 N 
HETATM    3  C3  UNL     1       3.364   0.939   2.382  1.00  0.00     0.244 C 
HETATM    4  O1  UNL     1       3.143  -0.035   3.158  1.00  0.00    -0.268 OA
ATOM      5  H1  UNL     1       3.020   1.752   0.488  1.00  0.00     0.169 HD
BRANCH   3   6
HETATM    6  C2  UNL     1       4.198   2.021   2.906  1.00  0.00     0.064 C 
HETATM    7  C1  UNL     1       4.700   1.997   4.119  1.00  0.00     0.017 C 
ENDBRANCH   3   6
ENDBRANCH   1   2
BRANCH   1   8
HETATM    8  C5  UNL     1       2.655  -0.910  -0.478  1.00  0.00     0.106 C 
BRANCH   8   9
HETATM    9  C6  UNL     1       3.134  -0.230  -1.697  1.00  0.00     0.091 C 
HETATM   10  C7  UNL     1       2.029   0.460  -2.441  1.00  0.00     0.052 C 
BRANCH   9  11
HETATM   11  O2  UNL     1       4.211   0.630  -1.472  1.00  0.00    -0.384 OA
ATOM     12  H2  UNL     1       4.519   1.068  -2.257  1.00  0.00     0.211 HD
ENDBRANCH   9  11
BRANCH   9  13
HETATM   13  C8  UNL     1       3.682  -1.271  -2.652  1.00  0.00     0.090 C 
HETATM   14  N2  UNL     1       4.912  -1.519  -2.760  1.00  0.00    -0.409 N 
ATOM     15  H22 UNL     1       5.554  -0.987  -2.172  1.00  0.00     0.155 HD
ATOM     16  H21 UNL     1       5.281  -2.220  -3.403  1.00  0.00     0.155 HD
ENDBRANCH   9  13
ENDBRANCH   8   9
ENDBRANCH   1   8
BRANCH   1  17
HETATM   17  C9  UNL     1       0.582   0.230   0.436  1.00  0.00     0.264 C 
HETATM   18  O3  UNL     1       0.249   1.425   0.725  1.00  0.00    -0.266 OA
HETATM   19  N3  UNL     1      -0.446  -0.636   0.020  1.00  0.00    -0.348 N 
ATOM     20  H3  UNL     1      -0.212  -1.595  -0.238  1.00  0.00     0.163 HD
BRANCH  19  21
HETATM   21  C10 UNL     1      -1.876  -0.191  -0.055  1.00  0.00     0.120 C 
BRANCH  21  22
HETATM   22  C11 UNL     1      -2.483  -0.823   1.136  1.00  0.00     0.011 C 
HETATM   23  C12 UNL     1      -3.888  -0.632   1.537  1.00  0.00     0.007 C 
HETATM   24  C13 UNL     1      -3.374  -0.621   3.006  1.00  0.00     0.001 C 
HETATM   25  C14 UNL     1      -2.094  -0.034   2.406  1.00  0.00     0.007 C 
ENDBRANCH  21  22
BRANCH  21  26
HETATM   26  C15 UNL     1      -2.399  -0.519  -1.405  1.00  0.00     0.169 C 
BRANCH  26  27
HETATM   27  O4  UNL     1      -1.502   0.232  -2.280  1.00  0.00    -0.391 OA
ATOM     28  H4  UNL     1      -1.837   0.022  -3.144  1.00  0.00     0.210 HD
ENDBRANCH  26  27
BRANCH  26  29
HETATM   29  C16 UNL     1      -3.722   0.084  -1.755  1.00  0.00     0.145 C 
HETATM   30  C17 UNL     1      -3.930   0.041  -3.286  1.00  0.00     0.042 C 
BRANCH  29  31
HETATM   31  O5  UNL     1      -4.840  -0.466  -1.215  1.00  0.00    -0.393 OA
ATOM     32  H5  UNL     1      -5.680  -0.083  -1.437  1.00  0.00     0.210 HD
ENDBRANCH  29  31
ENDBRANCH  26  29
ENDBRANCH  21  26
ENDBRANCH  19  21
ENDBRANCH   1  17
TORSDOF 13
