REMARK  11 active torsions:
REMARK  status: ('A' for Active; 'I' for Inactive)
REMARK    1  A    between atoms: C2_2  and  C4_4 
REMARK    2  A    between atoms: C4_4  and  C5_5 
REMARK    3  A    between atoms: C5_5  and  N1_6 
REMARK    4  A    between atoms: N1_6  and  C6_9 
REMARK    5  A    between atoms: C6_9  and  C7_10 
REMARK    6  A    between atoms: C6_9  and  C8_15 
REMARK    7  A    between atoms: N2_11  and  O1_13 
REMARK    8  A    between atoms: C8_15  and  S1_16 
REMARK    9  A    between atoms: S1_16  and  N3_19 
REMARK   10  A    between atoms: N3_19  and  C9_21 
REMARK   11  A    between atoms: C9_21  and  C10_22 
ROOT
HETATM    1  C8  UNL     1      -0.010   0.896  -0.555  1.00  0.00     0.201 C 
ENDROOT
BRANCH   1   2
HETATM    2  C6  UNL     1      -1.493   0.825  -0.731  1.00  0.00     0.241 C 
BRANCH   2   3
HETATM    3  N1  UNL     1      -2.155  -0.126   0.135  1.00  0.00    -0.065 N 
ATOM      4  H12 UNL     1      -1.796  -0.086   1.089  1.00  0.00     0.278 HD
ATOM      5  H11 UNL     1      -1.893  -1.087  -0.084  1.00  0.00     0.278 HD
BRANCH   3   6
HETATM    6  C5  UNL     1      -3.614   0.070   0.088  1.00  0.00     0.233 C 
BRANCH   6   7
HETATM    7  C4  UNL     1      -4.215  -0.955   1.001  1.00  0.00     0.031 C 
BRANCH   7   8
HETATM    8  C2  UNL     1      -5.723  -0.876   1.048  1.00  0.00    -0.021 C 
HETATM    9  C1  UNL     1      -6.230   0.441   1.528  1.00  0.00     0.009 C 
HETATM   10  C3  UNL     1      -6.289  -1.109  -0.341  1.00  0.00     0.009 C 
ENDBRANCH   7   8
ENDBRANCH   6   7
ENDBRANCH   3   6
ENDBRANCH   2   3
BRANCH   2  11
HETATM   11  C7  UNL     1      -1.898   0.616  -2.145  1.00  0.00     0.120 C 
HETATM   12  N2  UNL     1      -1.981   1.572  -3.003  1.00  0.00    -0.282 N 
ATOM     13  H2  UNL     1      -2.263   1.390  -3.966  1.00  0.00     0.192 HD
BRANCH  12  14
HETATM   14  O1  UNL     1      -1.681   2.837  -2.586  1.00  0.00    -0.291 OA
ATOM     15  H1  UNL     1      -1.742   3.543  -3.219  1.00  0.00     0.244 HD
ENDBRANCH  12  14
ENDBRANCH   2  11
ENDBRANCH   1   2
BRANCH   1  16
HETATM   16  S1  UNL     1       0.800  -0.649  -0.870  1.00  0.00     0.228 S 
HETATM   17  O2  UNL     1       0.308  -1.627   0.192  1.00  0.00    -0.206 OA
HETATM   18  O3  UNL     1       0.439  -1.202  -2.196  1.00  0.00    -0.206 OA
BRANCH  16  19
HETATM   19  N3  UNL     1       2.491  -0.550  -0.683  1.00  0.00    -0.319 N 
ATOM     20  H3  UNL     1       3.162  -0.724  -1.431  1.00  0.00     0.172 HD
BRANCH  19  21
HETATM   21  C9  UNL     1       2.852  -0.193   0.650  1.00  0.00     0.145 C 
BRANCH  21  22
HETATM   22  C10 UNL     1       4.348  -0.099   0.850  1.00  0.00     0.096 C 
HETATM   23  C11 UNL     1       4.935   0.933  -0.061  1.00  0.00     0.017 C 
HETATM   24  C12 UNL     1       6.406   0.836  -0.252  1.00  0.00     0.020 C 
HETATM   25  C13 UNL     1       7.112  -0.132   0.637  1.00  0.00     0.122 C 
HETATM   26  N4  UNL     1       6.437  -1.421   0.638  1.00  0.00    -0.361 N 
HETATM   27  C14 UNL     1       5.019  -1.393   0.706  1.00  0.00     0.223 C 
ATOM     28  H4  UNL     1       6.955  -2.298   0.592  1.00  0.00     0.162 HD
HETATM   29  O4  UNL     1       4.353  -2.443   0.645  1.00  0.00    -0.273 OA
ENDBRANCH  21  22
ENDBRANCH  19  21
ENDBRANCH  16  19
ENDBRANCH   1  16
TORSDOF 11
