REMARK  12 active torsions:
REMARK  status: ('A' for Active; 'I' for Inactive)
REMARK    1  A    between atoms: C2_2  and  N1_4 
REMARK    2  A    between atoms: N1_4  and  C4_7 
REMARK    3  A    between atoms: C4_7  and  C5_8 
REMARK    4  A    between atoms: C5_8  and  O1_9 
REMARK    5  A    between atoms: C5_8  and  C6_11 
REMARK    6  A    between atoms: C6_11  and  N2_12 
REMARK       I    between atoms: N2_12  and  C7_14 
REMARK       I    between atoms: C7_14  and  N3_16 
REMARK    7  A    between atoms: N3_16  and  C8_18 
REMARK    8  A    between atoms: C8_18  and  C9_19 
REMARK    9  A    between atoms: C8_18  and  C14_26 
REMARK   10  A    between atoms: C9_19  and  O4_21 
REMARK   11  A    between atoms: O4_21  and  C10_22 
REMARK   12  A    between atoms: C10_22  and  C11_23 
ROOT
HETATM    1  N2  UNL     1       1.851   1.647  -0.932  1.00  0.00    -0.341 N 
ATOM      2  H2  UNL     1       2.037   2.098  -0.036  1.00  0.00     0.164 HD
HETATM    3  C7  UNL     1       0.567   1.097  -1.068  1.00  0.00     0.316 C 
HETATM    4  O2  UNL     1       0.233   0.535  -2.127  1.00  0.00    -0.247 OA
HETATM    5  N3  UNL     1      -0.416   1.145  -0.024  1.00  0.00    -0.327 N 
ATOM      6  H3  UNL     1      -0.175   1.600   0.856  1.00  0.00     0.165 HD
ENDROOT
BRANCH   5   7
HETATM    7  C8  UNL     1      -1.726   0.577  -0.171  1.00  0.00     0.216 C 
BRANCH   7   8
HETATM    8  C9  UNL     1      -2.778   1.620  -0.038  1.00  0.00     0.283 C 
HETATM    9  O3  UNL     1      -2.516   2.830   0.177  1.00  0.00    -0.263 OA
BRANCH   8  10
HETATM   10  O4  UNL     1      -4.120   1.286  -0.148  1.00  0.00    -0.319 OA
BRANCH  10  11
HETATM   11  C10 UNL     1      -5.183   2.213  -0.035  1.00  0.00     0.183 C 
BRANCH  11  12
HETATM   12  C11 UNL     1      -6.464   1.401  -0.221  1.00  0.00     0.010 A 
HETATM   13  C12 UNL     1      -7.771   2.068  -0.161  1.00  0.00     0.007 A 
HETATM   14  C13 UNL     1      -7.336   1.246   1.015  1.00  0.00     0.007 A 
ENDBRANCH  11  12
ENDBRANCH  10  11
ENDBRANCH   8  10
ENDBRANCH   7   8
BRANCH   7  15
HETATM   15  C14 UNL     1      -2.015  -0.490   0.863  1.00  0.00     0.218 C 
HETATM   16  C15 UNL     1      -1.949  -0.001   2.266  1.00  0.00     0.037 C 
HETATM   17  C16 UNL     1      -1.326  -1.175   3.034  1.00  0.00     0.029 C 
HETATM   18  C17 UNL     1      -1.254  -2.298   2.021  1.00  0.00     0.233 C 
HETATM   19  N4  UNL     1      -1.085  -1.595   0.780  1.00  0.00    -0.068 N 
ATOM     20  H42 UNL     1      -1.203  -2.178  -0.049  1.00  0.00     0.277 HD
ATOM     21  H41 UNL     1      -0.123  -1.317   0.586  1.00  0.00     0.277 HD
ENDBRANCH   7  15
ENDBRANCH   5   7
BRANCH   1  22
HETATM   22  C6  UNL     1       2.926   1.670  -1.851  1.00  0.00     0.157 C 
BRANCH  22  23
HETATM   23  C5  UNL     1       3.509   0.379  -2.295  1.00  0.00     0.161 C 
BRANCH  23  24
HETATM   24  C4  UNL     1       4.296  -0.312  -1.192  1.00  0.00     0.265 C 
BRANCH  24  25
HETATM   25  N1  UNL     1       5.086  -1.355  -1.773  1.00  0.00    -0.069 N 
ATOM     26  H12 UNL     1       5.678  -0.990  -2.519  1.00  0.00     0.277 HD
ATOM     27  H11 UNL     1       4.504  -1.992  -2.318  1.00  0.00     0.277 HD
BRANCH  25  28
HETATM   28  C2  UNL     1       5.871  -2.079  -0.799  1.00  0.00     0.178 C 
HETATM   29  C1  UNL     1       6.838  -1.071  -0.183  1.00  0.00     0.039 C 
HETATM   30  C3  UNL     1       5.020  -2.664   0.306  1.00  0.00     0.039 C 
ENDBRANCH  25  28
ENDBRANCH  24  25
ENDBRANCH  23  24
BRANCH  23  31
HETATM   31  O1  UNL     1       2.671  -0.490  -2.953  1.00  0.00    -0.392 OA
ATOM     32  H1  UNL     1       2.179  -0.058  -3.642  1.00  0.00     0.210 HD
ENDBRANCH  23  31
ENDBRANCH  22  23
ENDBRANCH   1  22
TORSDOF 12
