REMARK  11 active torsions:
REMARK  status: ('A' for Active; 'I' for Inactive)
REMARK    1  A    between atoms: O1_2  and  C2_3 
REMARK    2  A    between atoms: C2_3  and  O2_4 
REMARK    3  A    between atoms: C2_3  and  C3_6 
REMARK    4  A    between atoms: C4_7  and  C5_8 
REMARK    5  A    between atoms: C6_9  and  C7_10 
REMARK    6  A    between atoms: C9_13  and  C10_14 
REMARK    7  A    between atoms: C11_15  and  C12_16 
REMARK    8  A    between atoms: C13_17  and  C15_19 
REMARK       I    between atoms: C15_19  and  N1_21 
REMARK    9  A    between atoms: N1_21  and  C16_23 
REMARK   10  A    between atoms: C16_23  and  C17_24 
REMARK       I    between atoms: C17_24  and  N2_26 
REMARK   11  A    between atoms: N2_26  and  N3_28 
ROOT
HETATM    1  C10 UNL     1       0.272   2.761  -0.267  1.00  0.00    -0.017 C 
HETATM    2  C11 UNL     1       0.536   1.493  -0.144  1.00  0.00    -0.003 C 
ENDROOT
BRANCH   2   3
HETATM    3  C12 UNL     1       1.869   0.944  -0.479  1.00  0.00     0.012 C 
HETATM    4  C13 UNL     1       2.106  -0.338  -0.345  1.00  0.00     0.006 C 
HETATM    5  C14 UNL     1       0.998  -1.206   0.149  1.00  0.00     0.054 C 
BRANCH   4   6
HETATM    6  C15 UNL     1       3.382  -0.964  -0.649  1.00  0.00     0.247 C 
HETATM    7  O4  UNL     1       3.527  -2.225  -0.490  1.00  0.00    -0.268 OA
HETATM    8  N1  UNL     1       4.511  -0.263  -1.123  1.00  0.00    -0.348 N 
ATOM      9  H1  UNL     1       4.417   0.743  -1.263  1.00  0.00     0.163 HD
BRANCH   8  10
HETATM   10  C16 UNL     1       5.789  -0.863  -1.425  1.00  0.00     0.227 C 
BRANCH  10  11
HETATM   11  C17 UNL     1       6.443  -1.494  -0.260  1.00  0.00     0.253 C 
HETATM   12  O5  UNL     1       5.886  -1.457   0.857  1.00  0.00    -0.270 OA
HETATM   13  N2  UNL     1       7.686  -2.134  -0.403  1.00  0.00    -0.275 N 
ATOM     14  H2  UNL     1       8.135  -2.161  -1.319  1.00  0.00     0.189 HD
BRANCH  13  15
HETATM   15  N3  UNL     1       8.317  -2.735   0.691  1.00  0.00    -0.343 N 
ATOM     16  H32 UNL     1       7.855  -2.699   1.599  1.00  0.00     0.176 HD
ATOM     17  H31 UNL     1       9.219  -3.200   0.587  1.00  0.00     0.176 HD
ENDBRANCH  13  15
ENDBRANCH  10  11
ENDBRANCH   8  10
ENDBRANCH   4   6
ENDBRANCH   2   3
BRANCH   1  18
HETATM   18  C9  UNL     1      -0.988   3.386   0.033  1.00  0.00     0.065 C 
HETATM   19  C7  UNL     1      -1.862   2.948   1.140  1.00  0.00     0.153 C 
HETATM   20  O3  UNL     1      -0.829   3.348   2.019  1.00  0.00    -0.381 OA
HETATM   21  C8  UNL     1      -0.725   4.460   1.136  1.00  0.00     0.179 C 
BRANCH  19  22
HETATM   22  C6  UNL     1      -2.349   1.594   1.248  1.00  0.00     0.005 C 
HETATM   23  C5  UNL     1      -3.421   1.226   0.542  1.00  0.00    -0.002 C 
BRANCH  23  24
HETATM   24  C4  UNL     1      -3.973  -0.104   0.591  1.00  0.00     0.001 C 
HETATM   25  C3  UNL     1      -5.025  -0.425  -0.116  1.00  0.00     0.033 C 
BRANCH  25  26
HETATM   26  C2  UNL     1      -5.612  -1.805  -0.076  1.00  0.00     0.280 C 
BRANCH  26  27
HETATM   27  O1  UNL     1      -6.506  -2.005  -1.109  1.00  0.00    -0.363 OA
HETATM   28  C1  UNL     1      -7.756  -2.246  -0.601  1.00  0.00     0.205 C 
ENDBRANCH  26  27
BRANCH  26  29
HETATM   29  O2  UNL     1      -4.596  -2.760  -0.060  1.00  0.00    -0.368 OA
ATOM     30  H2  UNL     1      -3.981  -2.622   0.651  1.00  0.00     0.213 HD
ENDBRANCH  26  29
ENDBRANCH  25  26
ENDBRANCH  23  24
ENDBRANCH  19  22
ENDBRANCH   1  18
TORSDOF 11
