REMARK  18 active torsions:
REMARK  status: ('A' for Active; 'I' for Inactive)
REMARK    1  A    between atoms: C3_4  and  C4_5 
REMARK    2  A    between atoms: C4_5  and  O2_14 
REMARK    3  A    between atoms: N2_6  and  N3_8 
REMARK    4  A    between atoms: N3_8  and  N4_9 
REMARK    5  A    between atoms: N3_8  and  O1_12 
REMARK    6  A    between atoms: O2_14  and  C5_15 
REMARK    7  A    between atoms: C6_16  and  N5_17 
REMARK    8  A    between atoms: N5_17  and  C7_19 
REMARK    9  A    between atoms: C8_26  and  N10_27 
REMARK   10  A    between atoms: C10_32  and  N11_33 
REMARK   11  A    between atoms: N11_33  and  C11_36 
REMARK   12  A    between atoms: C11_36  and  C12_37 
REMARK   13  A    between atoms: C13_40  and  O5_41 
REMARK   14  A    between atoms: C13_40  and  C14_43 
REMARK   15  A    between atoms: C14_43  and  O7_45 
REMARK   16  A    between atoms: O7_45  and  C15_46 
REMARK   17  A    between atoms: C15_46  and  C16_47 
REMARK   18  A    between atoms: C18_54  and  N13_55 
ROOT
HETATM    1  C5  UNL     1      -0.340   0.338  -0.643  1.00  0.00     0.202 C 
HETATM    2  C6  UNL     1      -0.285  -1.133  -0.839  1.00  0.00     0.163 C 
HETATM    3  C8  UNL     1      -0.586  -1.937   0.414  1.00  0.00     0.211 C 
HETATM    4  C9  UNL     1      -1.882  -1.458   1.074  1.00  0.00     0.071 C 
HETATM    5  C10 UNL     1      -1.681  -0.026   1.434  1.00  0.00     0.235 C 
HETATM    6  C13 UNL     1      -1.438   0.856   0.222  1.00  0.00     0.202 C 
ENDROOT
BRANCH   1   7
HETATM    7  O2  UNL     1       0.889   0.784  -0.098  1.00  0.00    -0.323 OA
BRANCH   7   8
HETATM    8  C4  UNL     1       2.125   0.611  -0.797  1.00  0.00     0.174 C 
HETATM    9  N2  UNL     1       2.000   0.626  -2.022  1.00  0.00    -0.237 N 
ATOM     10  H2  UNL     1       1.028   0.759  -2.300  1.00  0.00     0.193 HD
BRANCH   8  11
HETATM   11  C3  UNL     1       3.272   0.455   0.061  1.00  0.00     0.048 A 
HETATM   12  C2  UNL     1       4.535   0.269  -0.434  1.00  0.00     0.125 A 
HETATM   13  N1  UNL     1       5.595   0.130   0.425  1.00  0.00    -0.197 N 
HETATM   14  C1  UNL     1       6.914  -0.064  -0.144  1.00  0.00     0.174 C 
HETATM   15  C18 UNL     1       5.450   0.168   1.758  1.00  0.00     0.677 A 
HETATM   16  N12 UNL     1       4.227   0.349   2.273  1.00  0.00    -0.201 N 
HETATM   17  C17 UNL     1       3.173   0.487   1.449  1.00  0.00     0.123 A 
ATOM     18  H12 UNL     1       4.096   0.382   3.284  1.00  0.00     0.183 HD
BRANCH  15  19
HETATM   19  N13 UNL     1       6.504   0.029   2.504  1.00  0.00    -0.234 N 
ATOM     20 2H13 UNL     1       7.435  -0.109   2.112  1.00  0.00     0.174 HD
ATOM     21 1H13 UNL     1       6.394   0.058   3.518  1.00  0.00     0.174 HD
ENDBRANCH  15  19
ENDBRANCH   8  11
BRANCH   9  22
HETATM   22  N3  UNL     1       2.799   0.514  -3.075  1.00  0.00    -0.100 N 
BRANCH  22  23
HETATM   23  N4  UNL     1       3.008  -0.579  -3.733  1.00  0.00    -0.303 N 
ATOM     24  H42 UNL     1       2.500  -1.377  -3.351  1.00  0.00     0.181 HD
ATOM     25  H41 UNL     1       3.622  -0.665  -4.543  1.00  0.00     0.181 HD
ENDBRANCH  22  23
BRANCH  22  26
HETATM   26  O1  UNL     1       3.495   1.608  -3.599  1.00  0.00    -0.254 OA
ATOM     27  H1  UNL     1       4.067   1.528  -4.353  1.00  0.00     0.248 HD
ENDBRANCH  22  26
ENDBRANCH   9  22
ENDBRANCH   7   8
ENDBRANCH   1   7
BRANCH   2  28
HETATM   28  N5  UNL     1      -1.119  -1.571  -1.947  1.00  0.00    -0.215 N 
ATOM     29  H5  UNL     1      -2.051  -1.167  -2.037  1.00  0.00     0.178 HD
BRANCH  28  30
HETATM   30  C7  UNL     1      -0.746  -2.439  -2.819  1.00  0.00     0.704 A 
HETATM   31  N6  UNL     1       0.430  -3.088  -2.887  1.00  0.00    -0.117 N 
HETATM   32  N7  UNL     1       0.389  -3.887  -3.940  1.00  0.00     0.006 NA
ATOM     33  H6  UNL     1       1.213  -2.983  -2.242  1.00  0.00     0.202 HD
HETATM   34  N8  UNL     1      -0.793  -3.733  -4.513  1.00  0.00     0.006 NA
HETATM   35  N9  UNL     1      -1.513  -2.848  -3.845  1.00  0.00    -0.117 N 
ATOM     36  H9  UNL     1      -2.460  -2.538  -4.064  1.00  0.00     0.202 HD
ENDBRANCH  28  30
ENDBRANCH   2  28
BRANCH   6  37
HETATM   37  O5  UNL     1      -0.977   2.079   0.767  1.00  0.00    -0.375 OA
ATOM     38  H5  UNL     1      -1.677   2.409   1.318  1.00  0.00     0.211 HD
ENDBRANCH   6  37
BRANCH   6  39
HETATM   39  C14 UNL     1      -2.670   1.142  -0.516  1.00  0.00     0.298 C 
HETATM   40  O6  UNL     1      -3.347   0.273  -1.126  1.00  0.00    -0.262 OA
BRANCH  39  41
HETATM   41  O7  UNL     1      -3.154   2.434  -0.572  1.00  0.00    -0.310 OA
BRANCH  41  42
HETATM   42  C15 UNL     1      -4.328   2.819  -1.252  1.00  0.00     0.296 C 
BRANCH  42  43
HETATM   43  C16 UNL     1      -4.473   4.323  -1.048  1.00  0.00     0.409 C 
HETATM   44  F1  UNL     1      -4.574   4.632   0.278  1.00  0.00    -0.169 F 
HETATM   45  F2  UNL     1      -3.384   4.997  -1.565  1.00  0.00    -0.169 F 
HETATM   46  F3  UNL     1      -5.595   4.746  -1.755  1.00  0.00    -0.169 F 
ENDBRANCH  42  43
ENDBRANCH  41  42
ENDBRANCH  39  41
ENDBRANCH   6  39
BRANCH   3  47
HETATM   47  N10 UNL     1      -0.746  -3.318   0.013  1.00  0.00    -0.073 N 
ATOM     48 3H10 UNL     1      -1.447  -3.442  -0.718  1.00  0.00     0.274 HD
ATOM     49 2H10 UNL     1       0.054  -3.677  -0.508  1.00  0.00     0.274 HD
ATOM     50 1H10 UNL     1      -0.948  -3.858   0.854  1.00  0.00     0.274 HD
ENDBRANCH   3  47
BRANCH   5  51
HETATM   51  N11 UNL     1      -2.779   0.534   2.190  1.00  0.00    -0.058 N 
ATOM     52 2H11 UNL     1      -2.661   1.541   2.303  1.00  0.00     0.278 HD
ATOM     53 1H11 UNL     1      -3.637   0.523   1.639  1.00  0.00     0.278 HD
BRANCH  51  54
HETATM   54  C11 UNL     1      -2.987  -0.092   3.456  1.00  0.00     0.345 C 
BRANCH  54  55
HETATM   55  C12 UNL     1      -4.134   0.583   4.117  1.00  0.00     0.199 C 
HETATM   56  O3  UNL     1      -4.756   1.532   3.577  1.00  0.00    -0.647 OA
HETATM   57  O4  UNL     1      -4.561   0.177   5.373  1.00  0.00    -0.647 OA
ENDBRANCH  54  55
ENDBRANCH  51  54
ENDBRANCH   5  51
TORSDOF 18
