REMARK  13 active torsions:
REMARK  status: ('A' for Active; 'I' for Inactive)
REMARK    1  A    between atoms: N1_1  and  C1_4 
REMARK    2  A    between atoms: C2_7  and  N3_8 
REMARK    3  A    between atoms: N5_14  and  C4_16 
REMARK    4  A    between atoms: C6_19  and  O2_20 
REMARK    5  A    between atoms: C7_22  and  O3_23 
REMARK    6  A    between atoms: C8_25  and  N6_26 
REMARK    7  A    between atoms: C8_25  and  C18_42 
REMARK    8  A    between atoms: C9_28  and  C10_29 
REMARK    9  A    between atoms: C10_29  and  C11_30 
REMARK   10  A    between atoms: C11_30  and  N7_31 
REMARK   11  A    between atoms: N7_31  and  S1_33 
REMARK   12  A    between atoms: S1_33  and  C12_36 
REMARK   13  A    between atoms: N10_47  and  C19_48 
ROOT
HETATM    1  C4  UNL     1      -2.779  -0.058   0.383  1.00  0.00     0.210 C 
HETATM    2  C5  UNL     1      -3.245  -0.248   1.840  1.00  0.00     0.184 C 
HETATM    3  O1  UNL     1      -4.332  -0.128   2.283  1.00  0.00    -0.293 OA
HETATM    4  C6  UNL     1      -2.000  -0.621   2.577  1.00  0.00     0.221 C 
HETATM    5  C7  UNL     1      -1.363  -1.622   1.610  1.00  0.00     0.192 C 
HETATM    6  C8  UNL     1      -1.795  -1.177   0.193  1.00  0.00     0.148 C 
ENDROOT
BRANCH   6   7
HETATM    7  N6  UNL     1      -0.790  -1.108  -0.697  1.00  0.00    -0.382 N 
HETATM    8  C9  UNL     1       0.395  -0.540  -0.984  1.00  0.00     0.058 C 
ATOM      9  H6  UNL     1      -1.018  -1.741  -1.463  1.00  0.00     0.160 HD
BRANCH   8  10
HETATM   10  C10 UNL     1       1.595  -1.074  -0.172  1.00  0.00     0.064 C 
BRANCH  10  11
HETATM   11  C11 UNL     1       2.928  -0.594  -0.727  1.00  0.00     0.137 C 
BRANCH  11  12
HETATM   12  N7  UNL     1       3.920  -1.322   0.022  1.00  0.00    -0.315 N 
ATOM     13  H7  UNL     1       3.638  -1.948   0.776  1.00  0.00     0.172 HD
BRANCH  12  14
HETATM   14  S1  UNL     1       5.526  -1.134  -0.353  1.00  0.00     0.258 S 
HETATM   15  O4  UNL     1       5.722  -1.629  -1.809  1.00  0.00    -0.201 OA
HETATM   16  O5  UNL     1       6.388  -2.159   0.428  1.00  0.00    -0.201 OA
BRANCH  14  17
HETATM   17  C12 UNL     1       6.315   0.398  -0.194  1.00  0.00     0.079 A 
HETATM   18  C13 UNL     1       7.461   0.507   0.594  1.00  0.00     0.025 A 
HETATM   19  C14 UNL     1       8.163   1.666   0.731  1.00  0.00     0.002 A 
HETATM   20  C15 UNL     1       7.751   2.821   0.070  1.00  0.00     0.000 A 
HETATM   21  C16 UNL     1       6.613   2.743  -0.718  1.00  0.00     0.002 A 
HETATM   22  C17 UNL     1       5.916   1.538  -0.839  1.00  0.00     0.025 A 
ENDBRANCH  14  17
ENDBRANCH  12  14
ENDBRANCH  11  12
ENDBRANCH  10  11
ENDBRANCH   8  10
ENDBRANCH   6   7
BRANCH   6  23
HETATM   23  C18 UNL     1      -2.680  -2.338  -0.293  1.00  0.00     0.147 A 
HETATM   24  N8  UNL     1      -3.672  -2.307  -1.181  1.00  0.00    -0.270 N 
HETATM   25  N9  UNL     1      -4.154  -3.556  -1.322  1.00  0.00    -0.217 N 
ATOM     26  H8  UNL     1      -4.009  -1.478  -1.671  1.00  0.00     0.190 HD
HETATM   27  N10 UNL     1      -3.474  -4.349  -0.531  1.00  0.00    -0.115 N 
ATOM     28  H9  UNL     1      -4.917  -3.837  -1.938  1.00  0.00     0.210 HD
HETATM   29  N11 UNL     1      -2.580  -3.602   0.089  1.00  0.00    -0.260 N 
ATOM     30  H11 UNL     1      -1.905  -3.950   0.769  1.00  0.00     0.190 HD
BRANCH  27  31
HETATM   31  C19 UNL     1      -3.611  -5.783  -0.303  1.00  0.00     0.521 C 
HETATM   32  F1  UNL     1      -2.341  -6.254  -0.056  1.00  0.00    -0.148 F 
HETATM   33  F2  UNL     1      -4.090  -6.399  -1.408  1.00  0.00    -0.148 F 
HETATM   34  F3  UNL     1      -4.439  -5.990   0.790  1.00  0.00    -0.148 F 
ENDBRANCH  27  31
ENDBRANCH   6  23
BRANCH   1  35
HETATM   35  N5  UNL     1      -2.401   1.285   0.213  1.00  0.00    -0.210 N 
HETATM   36  C3  UNL     1      -3.183   2.191  -0.217  1.00  0.00     0.708 A 
HETATM   37  N4  UNL     1      -4.460   2.047  -0.589  1.00  0.00    -0.022 N 
HETATM   38  N12 UNL     1      -2.766   3.507  -0.211  1.00  0.00    -0.022 N 
HETATM   39  C2  UNL     1      -5.273   3.072  -0.926  1.00  0.00     0.705 A 
ATOM     40  H4  UNL     1      -4.844   1.103  -0.620  1.00  0.00     0.203 HD
HETATM   41  N2  UNL     1      -4.827   4.339  -0.903  1.00  0.00    -0.022 N 
HETATM   42  C1  UNL     1      -3.560   4.520  -0.538  1.00  0.00     0.705 A 
ATOM     43  H2  UNL     1      -5.429   5.123  -1.153  1.00  0.00     0.203 HD
ATOM     44  H12 UNL     1      -1.803   3.711   0.057  1.00  0.00     0.203 HD
ATOM     45  H5  UNL     1      -1.444   1.548   0.448  1.00  0.00     0.178 HD
BRANCH  39  46
HETATM   46  N3  UNL     1      -6.508   2.894  -1.298  1.00  0.00    -0.234 N 
ATOM     47  H32 UNL     1      -7.122   3.668  -1.552  1.00  0.00     0.174 HD
ATOM     48  H31 UNL     1      -6.847   1.932  -1.315  1.00  0.00     0.174 HD
ENDBRANCH  39  46
BRANCH  42  49
HETATM   49  N1  UNL     1      -3.114   5.744  -0.475  1.00  0.00    -0.234 N 
ATOM     50  H12 UNL     1      -3.724   6.522  -0.726  1.00  0.00     0.174 HD
ATOM     51  H11 UNL     1      -2.143   5.883  -0.195  1.00  0.00     0.174 HD
ENDBRANCH  42  49
ENDBRANCH   1  35
BRANCH   5  52
HETATM   52  O3  UNL     1      -1.859  -2.857   1.992  1.00  0.00    -0.389 OA
ATOM     53  H3  UNL     1      -1.464  -3.478   1.392  1.00  0.00     0.210 HD
ENDBRANCH   5  52
BRANCH   4  54
HETATM   54  O2  UNL     1      -1.179   0.466   2.846  1.00  0.00    -0.385 OA
ATOM     55  H2  UNL     1      -0.387   0.229   3.315  1.00  0.00     0.210 HD
ENDBRANCH   4  54
TORSDOF 13
