REMARK  9 active torsions:
REMARK  status: ('A' for Active; 'I' for Inactive)
REMARK    1  A    between atoms: C4_7  and  C5_8 
REMARK    2  A    between atoms: C5_8  and  C6_11 
REMARK    3  A    between atoms: C6_11  and  C7_14 
REMARK    4  A    between atoms: C8_15  and  C9_16 
REMARK    5  A    between atoms: C9_16  and  C10_17 
REMARK    6  A    between atoms: C10_17  and  C11_18 
REMARK    7  A    between atoms: C11_18  and  O2_19 
REMARK    8  A    between atoms: O2_19  and  N2_20 
REMARK    9  A    between atoms: N9_42  and  N10_43 
ROOT
HETATM    1  C1  UNL     1      -1.360  -2.638   0.837  1.00  0.00     0.042 C 
HETATM    2  C2  UNL     1      -2.308  -1.494   1.093  1.00  0.00     0.174 C 
HETATM    3  N1  UNL     1      -1.655  -0.368   1.704  1.00  0.00    -0.346 N 
ATOM      4  H1  UNL     1      -1.948  -0.156   2.658  1.00  0.00     0.163 HD
HETATM    5  C3  UNL     1      -0.694   0.461   1.185  1.00  0.00     0.247 C 
HETATM    6  O1  UNL     1      -0.058   1.224   2.016  1.00  0.00    -0.271 OA
HETATM    7  C4  UNL     1      -0.227   0.674  -0.218  1.00  0.00     0.256 C 
HETATM    8  N5  UNL     1      -0.939   1.808  -0.734  1.00  0.00    -0.346 N 
ATOM      9  H5  UNL     1      -1.105   2.488   0.008  1.00  0.00     0.163 HD
HETATM   10  C13 UNL     1      -1.412   2.213  -1.799  1.00  0.00     0.184 C 
HETATM   11  N6  UNL     1      -2.075   3.520  -1.846  1.00  0.00    -0.064 NA
HETATM   12  N7  UNL     1      -1.378   1.508  -3.030  1.00  0.00    -0.363 N 
ATOM     13  H7  UNL     1      -0.919   1.972  -3.814  1.00  0.00     0.162 HD
HETATM   14  C14 UNL     1      -1.938   0.179  -3.283  1.00  0.00     0.148 C 
HETATM   15  C15 UNL     1      -3.388   0.176  -2.916  1.00  0.00     0.187 C 
HETATM   16  O3  UNL     1      -4.216  -0.640  -3.636  1.00  0.00    -0.387 OA
HETATM   17  C16 UNL     1      -5.518  -0.098  -3.475  1.00  0.00     0.193 C 
HETATM   18  C17 UNL     1      -5.650   0.261  -2.006  1.00  0.00     0.193 C 
HETATM   19  O4  UNL     1      -6.990   0.447  -1.630  1.00  0.00    -0.387 OA
HETATM   20  C18 UNL     1      -7.014   1.301  -0.515  1.00  0.00     0.187 C 
HETATM   21  C19 UNL     1      -7.177   0.548   0.778  1.00  0.00     0.141 C 
HETATM   22  N8  UNL     1      -6.204  -0.476   0.971  1.00  0.00    -0.402 N 
ATOM     23  H8  UNL     1      -6.353  -1.439   0.670  1.00  0.00     0.154 HD
HETATM   24  C20 UNL     1      -4.989  -0.044   1.626  1.00  0.00     0.268 C 
HETATM   25  N9  UNL     1      -4.439  -1.131   2.445  1.00  0.00    -0.248 N 
HETATM   26  C21 UNL     1      -3.409  -2.004   1.963  1.00  0.00     0.261 C 
HETATM   27  O5  UNL     1      -3.492  -3.208   2.316  1.00  0.00    -0.269 OA
ENDROOT
BRANCH   7  28
HETATM   28  C5  UNL     1       1.199   1.043  -0.211  1.00  0.00     0.340 C 
HETATM   29  F1  UNL     1       1.353   1.280  -1.714  1.00  0.00    -0.196 F 
HETATM   30  F2  UNL     1       1.285   2.389   0.180  1.00  0.00    -0.196 F 
BRANCH  28  31
HETATM   31  C6  UNL     1       2.414   0.290   0.030  1.00  0.00     0.328 C 
HETATM   32  F3  UNL     1       2.819  -0.637  -0.806  1.00  0.00    -0.195 F 
HETATM   33  F4  UNL     1       2.103  -0.601   1.204  1.00  0.00    -0.195 F 
BRANCH  31  34
HETATM   34  C7  UNL     1       3.414   1.170   0.714  1.00  0.00     0.053 C 
HETATM   35  C8  UNL     1       4.751   0.861   0.956  1.00  0.00    -0.024 C 
BRANCH  35  36
HETATM   36  C9  UNL     1       5.216  -0.479   1.533  1.00  0.00     0.029 C 
BRANCH  36  37
HETATM   37  C10 UNL     1       6.654  -0.251   1.686  1.00  0.00     0.032 C 
BRANCH  37  38
HETATM   38  C11 UNL     1       7.761  -1.217   1.880  1.00  0.00     0.201 C 
BRANCH  38  39
HETATM   39  O2  UNL     1       8.850  -0.229   2.008  1.00  0.00    -0.278 OA
BRANCH  39  40
HETATM   40  N2  UNL     1       9.752   0.104   1.163  1.00  0.00    -0.241 N 
HETATM   41  C12 UNL     1       9.920  -0.088  -0.056  1.00  0.00     0.221 C 
HETATM   42  N3  UNL     1      11.085   0.478  -0.717  1.00  0.00    -0.065 NA
HETATM   43  N4  UNL     1       9.088  -0.854  -0.888  1.00  0.00    -0.065 NA
ATOM     44  H2  UNL     1      10.504   0.651   1.583  1.00  0.00     0.196 HD
ENDBRANCH  39  40
ENDBRANCH  38  39
ENDBRANCH  37  38
ENDBRANCH  36  37
ENDBRANCH  35  36
ENDBRANCH  31  34
ENDBRANCH  28  31
ENDBRANCH   7  28
BRANCH  25  45
HETATM   45  N10 UNL     1      -4.951  -1.305   3.737  1.00  0.00    -0.339 N 
ATOM     46 2H10 UNL     1      -5.684  -0.684   4.080  1.00  0.00     0.177 HD
ATOM     47 1H10 UNL     1      -4.569  -2.060   4.306  1.00  0.00     0.177 HD
ENDBRANCH  25  45
TORSDOF 9
