REMARK  8 active torsions:
REMARK  status: ('A' for Active; 'I' for Inactive)
REMARK    1  A    between atoms: C2_3  and  O1_4 
REMARK    2  A    between atoms: C4_11  and  N4_12 
REMARK    3  A    between atoms: C5_17  and  N6_18 
REMARK    4  A    between atoms: N6_18  and  C6_20 
REMARK    5  A    between atoms: C6_20  and  C7_21 
REMARK    6  A    between atoms: C7_21  and  O2_22 
REMARK    7  A    between atoms: C7_21  and  C8_24 
REMARK    8  A    between atoms: C8_24  and  N7_25 
ROOT
HETATM    1  C1  UNL     1      -3.195  -3.208   1.350  1.00  0.00     0.163 C 
HETATM    2  N1  UNL     1      -3.125  -1.956   0.610  1.00  0.00    -0.283 N 
HETATM    3  C2  UNL     1      -4.187  -1.394   0.022  1.00  0.00     0.227 A 
HETATM    4  N2  UNL     1      -4.165  -0.245  -0.666  1.00  0.00    -0.307 N 
ATOM      5  H2  UNL     1      -5.020   0.120  -1.086  1.00  0.00     0.171 HD
HETATM    6  C3  UNL     1      -2.992   0.430  -0.799  1.00  0.00     0.143 A 
HETATM    7  N3  UNL     1      -2.899   1.581  -1.473  1.00  0.00    -0.176 N 
ATOM      8  H3  UNL     1      -3.737   1.970  -1.905  1.00  0.00     0.186 HD
HETATM    9  C4  UNL     1      -1.737   2.239  -1.598  1.00  0.00     0.679 A 
HETATM   10  N5  UNL     1      -0.651   1.702  -1.020  1.00  0.00    -0.176 N 
ATOM     11  H5  UNL     1       0.230   2.207  -1.119  1.00  0.00     0.186 HD
HETATM   12  C5  UNL     1      -0.627   0.554  -0.321  1.00  0.00     0.140 A 
HETATM   13  C9  UNL     1      -1.870  -0.106  -0.213  1.00  0.00     0.121 A 
HETATM   14  C10 UNL     1      -1.938  -1.292   0.487  1.00  0.00     0.268 A 
HETATM   15  O3  UNL     1      -0.915  -1.774   1.017  1.00  0.00    -0.267 OA
ENDROOT
BRANCH  12  16
HETATM   16  N6  UNL     1       0.324  -0.003   0.238  1.00  0.00    -0.352 N 
ATOM     17  H6  UNL     1      -0.013  -0.860   0.676  1.00  0.00     0.166 HD
BRANCH  16  18
HETATM   18  C6  UNL     1       1.676   0.114   0.484  1.00  0.00     0.096 C 
BRANCH  18  19
HETATM   19  C7  UNL     1       2.320   1.461   0.440  1.00  0.00     0.178 C 
BRANCH  19  20
HETATM   20  O2  UNL     1       1.657   2.266   1.392  1.00  0.00    -0.389 OA
ATOM     21  H2  UNL     1       2.067   3.123   1.364  1.00  0.00     0.210 HD
ENDBRANCH  19  20
BRANCH  19  22
HETATM   22  C8  UNL     1       3.755   1.376   1.011  1.00  0.00     0.209 C 
BRANCH  22  23
HETATM   23  N7  UNL     1       4.522   0.461   0.229  1.00  0.00    -0.200 N 
HETATM   24  N8  UNL     1       5.245   0.755  -0.854  1.00  0.00    -0.209 N 
HETATM   25  N9  UNL     1       5.831  -0.328  -1.324  1.00  0.00    -0.211 N 
ATOM     26  H8  UNL     1       5.332   1.686  -1.260  1.00  0.00     0.211 HD
HETATM   27  N10 UNL     1       5.472  -1.310  -0.529  1.00  0.00    -0.211 N 
ATOM     28  H9  UNL     1       6.440  -0.391  -2.140  1.00  0.00     0.211 HD
HETATM   29  N11 UNL     1       4.685  -0.844   0.407  1.00  0.00    -0.209 N 
ATOM     30  H10 UNL     1       5.761  -2.283  -0.626  1.00  0.00     0.211 HD
ATOM     31  H11 UNL     1       4.264  -1.396   1.154  1.00  0.00     0.211 HD
ENDBRANCH  22  23
ENDBRANCH  19  22
ENDBRANCH  18  19
ENDBRANCH  16  18
ENDBRANCH  12  16
BRANCH   9  32
HETATM   32  N4  UNL     1      -1.657   3.367  -2.260  1.00  0.00    -0.234 N 
ATOM     33  H42 UNL     1      -2.482   3.775  -2.699  1.00  0.00     0.174 HD
ATOM     34  H41 UNL     1      -0.773   3.867  -2.355  1.00  0.00     0.174 HD
ENDBRANCH   9  32
BRANCH   3  35
HETATM   35  O1  UNL     1      -5.402  -2.070   0.147  1.00  0.00    -0.332 OA
ATOM     36  H1  UNL     1      -6.156  -1.671  -0.271  1.00  0.00     0.221 HD
ENDBRANCH   3  35
TORSDOF 8
