REMARK  9 active torsions:
REMARK  status: ('A' for Active; 'I' for Inactive)
REMARK       I    between atoms: C2_2  and  N1_4 
REMARK       I    between atoms: N1_4  and  C3_6 
REMARK    1  A    between atoms: C3_6  and  C4_8 
REMARK    2  A    between atoms: C5_10  and  O4_11 
REMARK    3  A    between atoms: O4_11  and  C6_12 
REMARK    4  A    between atoms: C6_12  and  O5_14 
REMARK    5  A    between atoms: C8_16  and  O6_18 
REMARK    6  A    between atoms: C10_20  and  O7_21 
REMARK    7  A    between atoms: C10_20  and  O8_23 
REMARK    8  A    between atoms: O8_23  and  C11_24 
REMARK       I    between atoms: C11_24  and  N2_26 
REMARK    9  A    between atoms: N2_26  and  N3_28 
ROOT
HETATM    1  C4  UNL     1      -0.779   0.488   0.685  1.00  0.00     0.282 C 
HETATM    2  O3  UNL     1       0.530   0.867   0.880  1.00  0.00    -0.338 OA
HETATM    3  C5  UNL     1       1.388  -0.068   0.400  1.00  0.00     0.303 C 
HETATM    4  C8  UNL     1       0.663  -0.573  -0.831  1.00  0.00     0.163 C 
HETATM    5  C9  UNL     1       0.868   0.264  -2.036  1.00  0.00     0.057 C 
HETATM    6  C10 UNL     1      -0.794  -0.545  -0.347  1.00  0.00     0.243 C 
ENDROOT
BRANCH   6   7
HETATM    7  O7  UNL     1      -1.553  -0.209  -1.464  1.00  0.00    -0.360 OA
ATOM      8  H7  UNL     1      -1.563  -0.881  -2.135  1.00  0.00     0.213 HD
ENDBRANCH   6   7
BRANCH   6   9
HETATM    9  O8  UNL     1      -1.078  -1.848   0.004  1.00  0.00    -0.258 OA
BRANCH   9  10
HETATM   10  C11 UNL     1      -2.184  -2.387   0.582  1.00  0.00     0.381 C 
HETATM   11  O9  UNL     1      -3.101  -1.602   0.847  1.00  0.00    -0.237 OA
HETATM   12  N2  UNL     1      -2.245  -3.786   0.852  1.00  0.00    -0.252 N 
ATOM     13  H2  UNL     1      -1.444  -4.365   0.601  1.00  0.00     0.191 HD
BRANCH  12  14
HETATM   14  N3  UNL     1      -3.346  -4.397   1.441  1.00  0.00    -0.341 N 
ATOM     15  H32 UNL     1      -4.138  -3.803   1.685  1.00  0.00     0.177 HD
ATOM     16  H31 UNL     1      -3.390  -5.398   1.634  1.00  0.00     0.177 HD
ENDBRANCH  12  14
ENDBRANCH   9  10
ENDBRANCH   6   9
BRANCH   1  17
HETATM   17  C3  UNL     1      -1.498   1.745   0.330  1.00  0.00     0.259 C 
HETATM   18  N1  UNL     1      -0.843   2.991   0.252  1.00  0.00    -0.296 N 
HETATM   19  C2  UNL     1      -1.489   4.207  -0.081  1.00  0.00     0.220 C 
ATOM     20  H1  UNL     1       0.158   3.019   0.447  1.00  0.00     0.171 HD
HETATM   21  C1  UNL     1      -2.945   4.285  -0.384  1.00  0.00     0.117 C 
HETATM   22  O1  UNL     1      -0.812   5.263  -0.123  1.00  0.00    -0.274 OA
HETATM   23  O2  UNL     1      -2.716   1.671   0.100  1.00  0.00    -0.270 OA
ENDBRANCH   1  17
BRANCH   4  24
HETATM   24  O6  UNL     1       1.112  -1.870  -1.065  1.00  0.00    -0.379 OA
ATOM     25  H6  UNL     1       0.657  -2.187  -1.837  1.00  0.00     0.211 HD
ENDBRANCH   4  24
BRANCH   3  26
HETATM   26  O4  UNL     1       2.637   0.417   0.107  1.00  0.00    -0.329 OA
BRANCH  26  27
HETATM   27  C6  UNL     1       3.658  -0.225   0.801  1.00  0.00     0.256 C 
HETATM   28  C7  UNL     1       4.659  -0.821  -0.176  1.00  0.00     0.070 C 
BRANCH  27  29
HETATM   29  O5  UNL     1       4.393   0.696   1.580  1.00  0.00    -0.372 OA
ATOM     30  H5  UNL     1       5.090   0.258   2.054  1.00  0.00     0.212 HD
ENDBRANCH  27  29
ENDBRANCH  26  27
ENDBRANCH   3  26
TORSDOF 9
