REMARK  9 active torsions:
REMARK  status: ('A' for Active; 'I' for Inactive)
REMARK    1  A    between atoms: N1_1  and  C1_5 
REMARK    2  A    between atoms: C1_5  and  C2_6 
REMARK    3  A    between atoms: C1_5  and  C3_9 
REMARK    4  A    between atoms: C2_6  and  O1_7 
REMARK    5  A    between atoms: C3_9  and  C4_11 
REMARK    6  A    between atoms: C5_14  and  N3_15 
REMARK    7  A    between atoms: N3_15  and  C6_16 
REMARK    8  A    between atoms: C9_23  and  N6_24 
REMARK    9  A    between atoms: N7_29  and  N8_30 
ROOT
HETATM    1  C4  UNL     1      -1.791  -0.649  -0.354  1.00  0.00     0.181 A 
HETATM    2  N2  UNL     1      -0.574  -0.094  -0.302  1.00  0.00    -0.310 N 
ATOM      3  H2  UNL     1      -0.506   0.924  -0.317  1.00  0.00     0.170 HD
HETATM    4  C5  UNL     1       0.587  -0.823  -0.230  1.00  0.00     0.223 A 
HETATM    5  C9  UNL     1       0.384  -2.216  -0.216  1.00  0.00     0.230 A 
HETATM    6  C10 UNL     1      -0.868  -2.773  -0.270  1.00  0.00     0.306 A 
HETATM    7  O5  UNL     1      -0.999  -4.038  -0.254  1.00  0.00    -0.263 OA
HETATM    8  N7  UNL     1      -1.956  -1.995  -0.338  1.00  0.00    -0.204 N 
ENDROOT
BRANCH   1   9
HETATM    9  C3  UNL     1      -2.987   0.170  -0.448  1.00  0.00     0.227 C 
HETATM   10  O2  UNL     1      -4.104  -0.403  -0.530  1.00  0.00    -0.287 OA
BRANCH   9  11
HETATM   11  C1  UNL     1      -2.980   1.647  -0.455  1.00  0.00     0.284 C 
BRANCH  11  12
HETATM   12  N1  UNL     1      -4.282   2.146  -0.895  1.00  0.00    -0.066 N 
ATOM     13  H13 UNL     1      -5.053   1.931  -0.263  1.00  0.00     0.275 HD
ATOM     14  H12 UNL     1      -4.385   3.160  -0.846  1.00  0.00     0.275 HD
ATOM     15  H11 UNL     1      -4.380   1.755  -1.832  1.00  0.00     0.275 HD
ENDBRANCH  11  12
BRANCH  11  16
HETATM   16  C2  UNL     1      -2.832   2.236   0.956  1.00  0.00     0.205 C 
BRANCH  16  17
HETATM   17  O1  UNL     1      -1.665   1.904   1.578  1.00  0.00    -0.398 OA
ATOM     18  H1  UNL     1      -1.573   2.268   2.451  1.00  0.00     0.209 HD
ENDBRANCH  16  17
ENDBRANCH  11  16
ENDBRANCH   9  11
ENDBRANCH   1   9
BRANCH   8  19
HETATM   19  N8  UNL     1      -3.234  -2.568  -0.392  1.00  0.00    -0.334 N 
ATOM     20  H82 UNL     1      -4.063  -1.975  -0.444  1.00  0.00     0.177 HD
ATOM     21  H81 UNL     1      -3.358  -3.580  -0.380  1.00  0.00     0.177 HD
ENDBRANCH   8  19
BRANCH   4  22
HETATM   22  N3  UNL     1       1.776  -0.301  -0.187  1.00  0.00    -0.350 NA
BRANCH  22  23
HETATM   23  C6  UNL     1       2.881   0.173  -0.145  1.00  0.00     0.253 C 
HETATM   24  N4  UNL     1       4.187  -0.424  -0.062  1.00  0.00    -0.349 N 
HETATM   25  C7  UNL     1       5.066   0.519   0.553  1.00  0.00     0.143 C 
ATOM     26  H4  UNL     1       4.441  -1.357  -0.386  1.00  0.00     0.163 HD
HETATM   27  C8  UNL     1       4.427   1.862   0.468  1.00  0.00     0.143 C 
HETATM   28  N5  UNL     1       3.169   1.606  -0.179  1.00  0.00    -0.349 N 
ATOM     29  H5  UNL     1       2.569   2.316  -0.598  1.00  0.00     0.163 HD
ENDBRANCH  22  23
ENDBRANCH   4  22
BRANCH   5  30
HETATM   30  N6  UNL     1       1.530  -3.037  -0.148  1.00  0.00    -0.105 N 
HETATM   31  O3  UNL     1       2.168  -3.165   0.905  1.00  0.00    -0.531 OA
HETATM   32  O4  UNL     1       1.941  -3.706  -1.265  1.00  0.00    -0.531 OA
ENDBRANCH   5  30
TORSDOF 9
