REMARK  2 active torsions:
REMARK  status: ('A' for Active; 'I' for Inactive)
REMARK    1  A    between atoms: C6_7  and  N1_8 
REMARK    2  A    between atoms: N1_8  and  C7_10 
ROOT
HETATM    1  C1  UNL     1      -1.966  -0.261   1.828  1.00  0.00     0.068 C 
HETATM    2  S1  UNL     1      -1.738   0.555   0.022  1.00  0.00    -0.260 SA
HETATM    3  C2  UNL     1      -2.761   2.021   0.581  1.00  0.00     0.068 C 
HETATM    4  C3  UNL     1      -2.325  -1.086  -0.744  1.00  0.00     0.053 C 
HETATM    5  C4  UNL     1      -1.060  -1.959  -0.496  1.00  0.00     0.011 C 
HETATM    6  C5  UNL     1       0.008  -1.345  -1.331  1.00  0.00     0.026 C 
HETATM    7  C6  UNL     1       0.867  -0.297  -0.788  1.00  0.00     0.090 C 
HETATM    8  C9  UNL     1       0.243   0.648   0.244  1.00  0.00     0.078 C 
ENDROOT
BRANCH   7   9
HETATM    9  N1  UNL     1       2.133  -0.758  -0.283  1.00  0.00    -0.375 N 
ATOM     10  H1  UNL     1       2.339  -1.756  -0.337  1.00  0.00     0.161 HD
BRANCH   9  11
HETATM   11  C7  UNL     1       3.112   0.099   0.286  1.00  0.00     0.066 C 
HETATM   12  C8  UNL     1       3.300   1.498  -0.188  1.00  0.00     0.088 C 
HETATM   13  N2  UNL     1       3.848  -0.360   1.236  1.00  0.00    -0.389 N 
ATOM     14  H22 UNL     1       3.719  -1.318   1.561  1.00  0.00     0.157 HD
ATOM     15  H21 UNL     1       4.551   0.256   1.645  1.00  0.00     0.157 HD
ENDBRANCH   9  11
ENDBRANCH   7   9
TORSDOF 2
