REMARK  2 active torsions:
REMARK  status: ('A' for Active; 'I' for Inactive)
REMARK    1  A    between atoms: N1_2  and  O1_3 
REMARK    2  A    between atoms: N1_2  and  C2_5 
ROOT
HETATM    1  C2  UNL     1      -0.897   0.169   0.127  1.00  0.00     0.038 C 
HETATM    2  C3  UNL     1      -1.147   0.499  -1.340  1.00  0.00     0.035 C 
HETATM    3  C4  UNL     1      -0.855   1.520   0.826  1.00  0.00     0.027 C 
HETATM    4  C5  UNL     1       0.483   2.196   0.696  1.00  0.00     0.002 C 
HETATM    5  C6  UNL     1       1.449   1.300   1.449  1.00  0.00     0.005 C 
HETATM    6  C7  UNL     1       1.553  -0.008   0.761  1.00  0.00    -0.008 C 
HETATM    7  C8  UNL     1       2.450   0.074  -0.476  1.00  0.00     0.005 C 
HETATM    8  C9  UNL     1       2.224  -1.298  -1.040  1.00  0.00     0.001 C 
HETATM    9  C10 UNL     1       0.726  -1.468  -0.881  1.00  0.00     0.007 C 
HETATM   10  C11 UNL     1       0.313  -0.670   0.337  1.00  0.00     0.014 C 
ENDROOT
BRANCH   1  11
HETATM   11  N1  UNL     1      -2.075  -0.469   0.695  1.00  0.00    -0.194 NA
HETATM   12  C1  UNL     1      -2.350  -1.761   0.177  1.00  0.00     0.144 C 
BRANCH  11  13
HETATM   13  O1  UNL     1      -3.174   0.300   0.596  1.00  0.00    -0.313 OA
ATOM     14  H1  UNL     1      -2.990   1.165   0.943  1.00  0.00     0.237 HD
ENDBRANCH  11  13
ENDBRANCH   1  11
TORSDOF 2
