REMARK  3 active torsions:
REMARK  status: ('A' for Active; 'I' for Inactive)
REMARK    1  A    between atoms: C2_2  and  C5_5 
REMARK    2  A    between atoms: C9_9  and  N1_10 
REMARK    3  A    between atoms: N1_10  and  O1_11 
ROOT
HETATM    1  C5  UNL     1      -0.771  -0.076   0.939  1.00  0.00     0.059 C 
HETATM    2  C6  UNL     1      -0.380  -1.580   0.785  1.00  0.00     0.017 C 
HETATM    3  C7  UNL     1       1.145  -1.757   0.718  1.00  0.00     0.003 C 
HETATM    4  C8  UNL     1       1.940  -1.132  -0.304  1.00  0.00     0.024 C 
HETATM    5  C9  UNL     1       2.578   0.234  -0.157  1.00  0.00     0.116 C 
HETATM    6  C10 UNL     1       1.511   1.346   0.140  1.00  0.00     0.103 C 
HETATM    7  C11 UNL     1       0.357   0.672   0.562  1.00  0.00    -0.176 C 
ENDROOT
BRANCH   1   8
HETATM    8  C2  UNL     1      -2.000   0.225   0.095  1.00  0.00    -0.038 C 
HETATM    9  C1  UNL     1      -3.182  -0.621   0.516  1.00  0.00     0.015 C 
HETATM   10  C3  UNL     1      -1.817   0.054  -1.367  1.00  0.00     0.015 C 
HETATM   11  C4  UNL     1      -2.454   1.669   0.330  1.00  0.00     0.015 C 
ENDBRANCH   1   8
BRANCH   5  12
HETATM   12  N1  UNL     1       3.272   0.535  -1.360  1.00  0.00    -0.098 NA
BRANCH  12  13
HETATM   13  O1  UNL     1       3.850   1.774  -1.229  1.00  0.00    -0.296 OA
ATOM     14  H1  UNL     1       4.314   1.975  -2.033  1.00  0.00     0.238 HD
ENDBRANCH  12  13
ENDBRANCH   5  12
TORSDOF 3
