REMARK  9 active torsions:
REMARK  status: ('A' for Active; 'I' for Inactive)
REMARK    1  A    between atoms: N1_1  and  C1_4 
REMARK    2  A    between atoms: C3_8  and  O1_9 
REMARK    3  A    between atoms: O1_9  and  C4_10 
REMARK    4  A    between atoms: C4_10  and  C5_11 
REMARK    5  A    between atoms: C5_11  and  N3_12 
REMARK    6  A    between atoms: C5_11  and  O2_16 
REMARK    7  A    between atoms: C5_11  and  C6_18 
REMARK    8  A    between atoms: C6_18  and  N4_19 
REMARK    9  A    between atoms: C8_27  and  N8_28 
ROOT
HETATM    1  C4  UNL     1      -0.317   0.785  -0.880  1.00  0.00     0.246 C 
ENDROOT
BRANCH   1   2
HETATM    2  O1  UNL     1       0.493   0.170   0.058  1.00  0.00    -0.341 OA
BRANCH   2   3
HETATM    3  C3  UNL     1       1.851   0.083   0.067  1.00  0.00     0.128 A 
HETATM    4  C2  UNL     1       2.556   0.665  -0.969  1.00  0.00     0.146 A 
HETATM    5  N2  UNL     1       3.902   0.607  -1.007  1.00  0.00    -0.199 N 
HETATM    6  C1  UNL     1       4.520  -0.041   0.003  1.00  0.00     0.677 A 
ATOM      7  H2  UNL     1       4.431   1.035  -1.767  1.00  0.00     0.183 HD
HETATM    8  N9  UNL     1       3.851  -0.615   1.023  1.00  0.00    -0.175 N 
HETATM    9  C8  UNL     1       2.508  -0.572   1.086  1.00  0.00     0.149 A 
ATOM     10  H9  UNL     1       4.372  -1.090   1.760  1.00  0.00     0.186 HD
BRANCH   6  11
HETATM   11  N1  UNL     1       5.818  -0.112  -0.009  1.00  0.00    -0.234 N 
ATOM     12  H12 UNL     1       6.324   0.322  -0.781  1.00  0.00     0.174 HD
ATOM     13  H11 UNL     1       6.285  -0.602   0.754  1.00  0.00     0.174 HD
ENDBRANCH   6  11
BRANCH   9  14
HETATM   14  N8  UNL     1       1.883  -1.135   2.082  1.00  0.00    -0.383 N 
ATOM     15  H82 UNL     1       0.865  -1.102   2.130  1.00  0.00     0.157 HD
ATOM     16  H81 UNL     1       2.369  -1.620   2.836  1.00  0.00     0.157 HD
ENDBRANCH   9  14
ENDBRANCH   2   3
ENDBRANCH   1   2
BRANCH   1  17
HETATM   17  C5  UNL     1      -1.758   0.614  -0.451  1.00  0.00     0.262 C 
BRANCH  17  18
HETATM   18  N3  UNL     1      -2.629   1.238  -1.398  1.00  0.00    -0.043 N 
ATOM     19  H33 UNL     1      -2.389   2.218  -1.550  1.00  0.00     0.278 HD
ATOM     20  H32 UNL     1      -2.470   0.897  -2.346  1.00  0.00     0.278 HD
ATOM     21  H31 UNL     1      -3.600   1.123  -1.109  1.00  0.00     0.278 HD
ENDBRANCH  17  18
BRANCH  17  22
HETATM   22  O2  UNL     1      -1.945   1.229   0.790  1.00  0.00    -0.362 OA
ATOM     23  H2  UNL     1      -2.850   1.122   1.059  1.00  0.00     0.212 HD
ENDBRANCH  17  22
BRANCH  17  24
HETATM   24  C6  UNL     1      -2.121  -0.845  -0.289  1.00  0.00     0.222 C 
BRANCH  24  25
HETATM   25  N4  UNL     1      -3.501  -0.967   0.121  1.00  0.00    -0.266 N 
HETATM   26  C7  UNL     1      -3.934  -0.993   1.392  1.00  0.00     0.220 A 
HETATM   27  N5  UNL     1      -5.273  -1.115   1.371  1.00  0.00    -0.279 N 
HETATM   28  N6  UNL     1      -5.627  -1.162   0.105  1.00  0.00    -0.227 N 
ATOM     29  H5  UNL     1      -5.893  -1.162   2.179  1.00  0.00     0.189 HD
HETATM   30  N7  UNL     1      -4.567  -1.073  -0.662  1.00  0.00    -0.225 N 
ATOM     31  H6  UNL     1      -6.586  -1.254  -0.231  1.00  0.00     0.210 HD
ATOM     32  H7  UNL     1      -4.563  -1.083  -1.682  1.00  0.00     0.210 HD
ENDBRANCH  24  25
ENDBRANCH  17  24
ENDBRANCH   1  17
TORSDOF 9
