REMARK  9 active torsions:
REMARK  status: ('A' for Active; 'I' for Inactive)
REMARK    1  A    between atoms: C2_2  and  N2_6 
REMARK    2  A    between atoms: N2_6  and  C3_8 
REMARK    3  A    between atoms: C3_8  and  C4_9 
REMARK    4  A    between atoms: C4_9  and  N3_10 
REMARK    5  A    between atoms: N3_10  and  C5_12 
REMARK    6  A    between atoms: C6_16  and  N5_17 
REMARK    7  A    between atoms: C7_23  and  N9_24 
REMARK    8  A    between atoms: C8_27  and  C9_28 
REMARK    9  A    between atoms: C9_28  and  O1_29 
ROOT
HETATM    1  C5  UNL     1      -0.244   0.055  -0.647  1.00  0.00     0.427 C 
HETATM    2  N4  UNL     1      -1.194   0.873   0.085  1.00  0.00    -0.005 N 
ATOM      3  H41 UNL     1      -1.163   1.875  -0.105  1.00  0.00     0.285 HD
ATOM      4  H42 UNL     1      -1.019   0.979   1.084  1.00  0.00     0.285 HD
HETATM    5  C6  UNL     1      -2.441   0.181  -0.285  1.00  0.00     0.362 C 
HETATM    6  C8  UNL     1      -1.987  -1.257  -0.187  1.00  0.00     0.202 C 
HETATM    7  O2  UNL     1      -0.596  -1.234  -0.260  1.00  0.00    -0.333 OA
ENDROOT
BRANCH   1   8
HETATM    8  N3  UNL     1       1.115   0.375  -0.384  1.00  0.00    -0.373 N 
ATOM      9  H3  UNL     1       1.751   0.682  -1.120  1.00  0.00     0.157 HD
BRANCH   8  10
HETATM   10  C4  UNL     1       1.535   0.240   0.973  1.00  0.00     0.137 C 
BRANCH  10  11
HETATM   11  C3  UNL     1       3.003   0.619   1.040  1.00  0.00     0.140 C 
BRANCH  11  12
HETATM   12  N2  UNL     1       3.802  -0.235   0.202  1.00  0.00    -0.379 N 
ATOM     13  H2  UNL     1       3.377  -0.984  -0.344  1.00  0.00     0.160 HD
BRANCH  12  14
HETATM   14  C2  UNL     1       5.206   0.001   0.161  1.00  0.00     0.066 C 
HETATM   15  C1  UNL     1       5.728   1.181  -0.604  1.00  0.00     0.088 C 
HETATM   16  N1  UNL     1       6.034  -0.774   0.764  1.00  0.00    -0.389 N 
ATOM     17  H12 UNL     1       7.039  -0.605   0.735  1.00  0.00     0.157 HD
ATOM     18  H11 UNL     1       5.679  -1.576   1.284  1.00  0.00     0.157 HD
ENDBRANCH  12  14
ENDBRANCH  11  12
ENDBRANCH  10  11
ENDBRANCH   8  10
ENDBRANCH   1   8
BRANCH   5  19
HETATM   19  N5  UNL     1      -3.524   0.507   0.572  1.00  0.00    -0.075 N 
HETATM   20  N6  UNL     1      -3.530   0.573   1.888  1.00  0.00    -0.207 N 
HETATM   21  N7  UNL     1      -4.746   0.912   2.291  1.00  0.00     0.009 NA
ATOM     22  H6  UNL     1      -2.731   0.393   2.496  1.00  0.00     0.206 HD
HETATM   23  N8  UNL     1      -5.540   1.068   1.246  1.00  0.00    -0.114 N 
HETATM   24  C7  UNL     1      -4.771   0.814   0.168  1.00  0.00     0.708 A 
ATOM     25  H8  UNL     1      -6.527   1.326   1.253  1.00  0.00     0.203 HD
BRANCH  24  26
HETATM   26  N9  UNL     1      -5.189   0.863  -1.065  1.00  0.00    -0.232 N 
ATOM     27  H92 UNL     1      -4.607   0.671  -1.881  1.00  0.00     0.174 HD
ATOM     28  H91 UNL     1      -6.134   1.096  -1.371  1.00  0.00     0.174 HD
ENDBRANCH  24  26
ENDBRANCH   5  19
BRANCH   6  29
HETATM   29  C9  UNL     1      -2.591  -2.007  -1.360  1.00  0.00     0.200 C 
BRANCH  29  30
HETATM   30  O1  UNL     1      -2.162  -3.329  -1.410  1.00  0.00    -0.398 OA
ATOM     31  H1  UNL     1      -2.540  -3.798  -2.144  1.00  0.00     0.209 HD
ENDBRANCH  29  30
ENDBRANCH   6  29
TORSDOF 9
