REMARK  7 active torsions:
REMARK  status: ('A' for Active; 'I' for Inactive)
REMARK    1  A    between atoms: N1_1  and  C1_5 
REMARK    2  A    between atoms: C3_13  and  C4_14 
REMARK    3  A    between atoms: C4_14  and  N5_15 
REMARK    4  A    between atoms: N5_15  and  C5_17 
REMARK    5  A    between atoms: C5_17  and  C6_18 
REMARK    6  A    between atoms: C6_18  and  C7_19 
REMARK    7  A    between atoms: C7_19  and  N6_20 
ROOT
HETATM    1  C1  UNL     1      -3.350   1.538  -0.134  1.00  0.00     0.396 C 
HETATM    2  N2  UNL     1      -4.200   0.636  -0.845  1.00  0.00    -0.274 N 
ATOM      3  H2  UNL     1      -4.365   0.715  -1.848  1.00  0.00     0.181 HD
HETATM    4  N3  UNL     1      -4.786  -0.358  -0.069  1.00  0.00    -0.021 NA
HETATM    5  N4  UNL     1      -3.888  -1.427  -0.048  1.00  0.00    -0.252 N 
ATOM      6  H4  UNL     1      -4.280  -2.368  -0.083  1.00  0.00     0.187 HD
HETATM    7  C2  UNL     1      -2.475  -1.313   0.018  1.00  0.00     0.258 C 
HETATM    8  O1  UNL     1      -1.841  -2.398   0.062  1.00  0.00    -0.270 OA
HETATM    9  C3  UNL     1      -1.574  -0.107   0.046  1.00  0.00     0.191 C 
HETATM   10  N9  UNL     1      -2.344   0.945   0.682  1.00  0.00    -0.365 N 
ATOM     11  H9  UNL     1      -2.177   1.239   1.644  1.00  0.00     0.158 HD
ENDROOT
BRANCH   9  12
HETATM   12  C4  UNL     1      -0.377  -0.360   0.932  1.00  0.00     0.153 C 
BRANCH  12  13
HETATM   13  N5  UNL     1       0.430  -1.460   0.528  1.00  0.00    -0.400 N 
ATOM     14  H5  UNL     1       0.473  -2.312   1.087  1.00  0.00     0.158 HD
BRANCH  13  15
HETATM   15  C5  UNL     1       1.169  -1.339  -0.666  1.00  0.00     0.057 C 
BRANCH  15  16
HETATM   16  C6  UNL     1       2.330  -0.363  -0.615  1.00  0.00     0.064 C 
BRANCH  16  17
HETATM   17  C7  UNL     1       3.344  -0.797   0.425  1.00  0.00     0.135 C 
BRANCH  17  18
HETATM   18  N6  UNL     1       4.431   0.153   0.427  1.00  0.00    -0.337 N 
HETATM   19  C8  UNL     1       5.559   0.075  -0.337  1.00  0.00     0.200 A 
HETATM   20  N7  UNL     1       6.361   1.101  -0.084  1.00  0.00    -0.295 N 
HETATM   21  N8  UNL     1       5.754   1.841   0.840  1.00  0.00    -0.295 N 
ATOM     22  H7  UNL     1       7.267   1.286  -0.514  1.00  0.00     0.187 HD
HETATM   23  C9  UNL     1       4.581   1.257   1.145  1.00  0.00     0.200 A 
ATOM     24  H8  UNL     1       6.116   2.703   1.247  1.00  0.00     0.187 HD
ENDBRANCH  17  18
ENDBRANCH  16  17
ENDBRANCH  15  16
ENDBRANCH  13  15
ENDBRANCH  12  13
ENDBRANCH   9  12
BRANCH   1  25
HETATM   25  N1  UNL     1      -4.225   2.291   0.779  1.00  0.00    -0.040 N 
ATOM     26  H13 UNL     1      -5.003   2.752   0.307  1.00  0.00     0.279 HD
ATOM     27  H12 UNL     1      -4.785   1.695   1.389  1.00  0.00     0.279 HD
ATOM     28  H11 UNL     1      -3.618   2.935   1.287  1.00  0.00     0.279 HD
ENDBRANCH   1  25
TORSDOF 7
