REMARK  10 active torsions:
REMARK  status: ('A' for Active; 'I' for Inactive)
REMARK    1  A    between atoms: N1_1  and  C1_4 
REMARK    2  A    between atoms: N4_12  and  C5_13 
REMARK    3  A    between atoms: C5_13  and  O1_14 
REMARK    4  A    between atoms: C6_16  and  N5_17 
REMARK    5  A    between atoms: N6_20  and  C7_21 
REMARK    6  A    between atoms: C7_21  and  C8_22 
REMARK    7  A    between atoms: C8_22  and  N7_23 
REMARK    8  A    between atoms: N7_23  and  C9_25 
REMARK    9  A    between atoms: C9_25  and  C10_26 
REMARK   10  A    between atoms: C10_26  and  O2_27 
ROOT
HETATM    1  C1  UNL     1      -3.646   0.905   0.594  1.00  0.00     0.131 A 
HETATM    2  N2  UNL     1      -3.539   2.201   1.061  1.00  0.00    -0.337 N 
ATOM      3  H2  UNL     1      -4.396   2.718   1.256  1.00  0.00     0.168 HD
HETATM    4  C2  UNL     1      -2.377   2.806   1.269  1.00  0.00     0.183 A 
HETATM    5  N3  UNL     1      -1.214   2.180   1.032  1.00  0.00    -0.336 N 
ATOM      6  H3  UNL     1      -0.320   2.645   1.191  1.00  0.00     0.168 HD
HETATM    7  C3  UNL     1      -1.272   0.922   0.579  1.00  0.00     0.156 A 
HETATM    8  C4  UNL     1      -2.465   0.257   0.351  1.00  0.00     0.142 A 
HETATM    9  N4  UNL     1      -2.174  -0.987  -0.099  1.00  0.00    -0.154 N 
HETATM   10  C6  UNL     1      -0.814  -1.048  -0.140  1.00  0.00     0.684 A 
HETATM   11  N6  UNL     1      -0.279   0.112   0.272  1.00  0.00    -0.161 N 
ENDROOT
BRANCH  11  12
HETATM   12  C7  UNL     1       1.146   0.324   0.334  1.00  0.00     0.194 C 
BRANCH  12  13
HETATM   13  C8  UNL     1       1.764   0.886  -0.861  1.00  0.00     0.081 C 
BRANCH  13  14
HETATM   14  N7  UNL     1       3.148   1.056  -0.771  1.00  0.00    -0.379 N 
ATOM     15  H7  UNL     1       3.481   2.008  -0.618  1.00  0.00     0.164 HD
BRANCH  14  16
HETATM   16  C9  UNL     1       4.108   0.079  -0.866  1.00  0.00     0.086 C 
BRANCH  16  17
HETATM   17  C10 UNL     1       4.154  -0.946   0.225  1.00  0.00     0.208 C 
BRANCH  17  18
HETATM   18  O2  UNL     1       4.360  -0.418   1.496  1.00  0.00    -0.396 OA
ATOM     19  H2  UNL     1       4.389  -1.068   2.188  1.00  0.00     0.209 HD
ENDBRANCH  17  18
ENDBRANCH  16  17
ENDBRANCH  14  16
ENDBRANCH  13  14
ENDBRANCH  12  13
ENDBRANCH  11  12
BRANCH  10  20
HETATM   20  N5  UNL     1      -0.179  -2.119  -0.540  1.00  0.00    -0.234 N 
ATOM     21  H52 UNL     1      -0.586  -3.001  -0.853  1.00  0.00     0.174 HD
ATOM     22  H51 UNL     1       0.840  -2.165  -0.571  1.00  0.00     0.174 HD
ENDBRANCH  10  20
BRANCH   9  23
HETATM   23  C5  UNL     1      -3.064  -2.072  -0.442  1.00  0.00     0.314 C 
BRANCH  23  24
HETATM   24  O1  UNL     1      -3.473  -2.027  -1.751  1.00  0.00    -0.381 OA
ATOM     25  H1  UNL     1      -4.058  -2.741  -1.977  1.00  0.00     0.211 HD
ENDBRANCH  23  24
ENDBRANCH   9  23
BRANCH   1  26
HETATM   26  N1  UNL     1      -4.757   0.393   0.402  1.00  0.00    -0.383 N 
ATOM     27  H12 UNL     1      -5.637   0.876   0.583  1.00  0.00     0.157 HD
ATOM     28  H11 UNL     1      -4.836  -0.564   0.057  1.00  0.00     0.157 HD
ENDBRANCH   1  26
TORSDOF 10
