REMARK  9 active torsions:
REMARK  status: ('A' for Active; 'I' for Inactive)
REMARK    1  A    between atoms: N1_1  and  C1_4 
REMARK    2  A    between atoms: C4_9  and  N3_10 
REMARK    3  A    between atoms: N3_10  and  C5_11 
REMARK    4  A    between atoms: N3_10  and  C7_17 
REMARK    5  A    between atoms: C5_11  and  C6_12 
REMARK    6  A    between atoms: C6_12  and  N4_13 
REMARK    7  A    between atoms: C8_19  and  C9_20 
REMARK    8  A    between atoms: C9_20  and  O2_21 
REMARK    9  A    between atoms: C10_24  and  O4_25 
ROOT
HETATM    1  N3  UNL     1       0.423   0.684  -0.530  1.00  0.00    -0.184 N 
ENDROOT
BRANCH   1   2
HETATM    2  C4  UNL     1       1.470  -0.283  -0.458  1.00  0.00     0.683 A 
HETATM    3  N2  UNL     1       2.759   0.041  -0.567  1.00  0.00    -0.202 N 
HETATM    4  C3  UNL     1       3.769  -0.880  -0.449  1.00  0.00     0.110 A 
ATOM      5  H2  UNL     1       3.004   1.015  -0.746  1.00  0.00     0.183 HD
HETATM    6  C2  UNL     1       3.434  -2.172  -0.211  1.00  0.00     0.066 A 
HETATM    7  C1  UNL     1       2.115  -2.540  -0.093  1.00  0.00     0.116 A 
HETATM    8  N5  UNL     1       1.196  -1.596  -0.219  1.00  0.00    -0.177 N 
ATOM      9  H5  UNL     1       0.217  -1.870  -0.131  1.00  0.00     0.185 HD
BRANCH   7  10
HETATM   10  N1  UNL     1       1.812  -3.794   0.138  1.00  0.00    -0.385 N 
ATOM     11  H12 UNL     1       2.520  -4.522   0.235  1.00  0.00     0.157 HD
ATOM     12  H11 UNL     1       0.833  -4.067   0.226  1.00  0.00     0.157 HD
ENDBRANCH   7  10
ENDBRANCH   1   2
BRANCH   1  13
HETATM   13  C5  UNL     1       0.735   2.109  -0.319  1.00  0.00     0.171 C 
BRANCH  13  14
HETATM   14  C6  UNL     1       0.109   2.623   0.956  1.00  0.00     0.250 C 
BRANCH  14  15
HETATM   15  N4  UNL     1       0.516   4.026   1.077  1.00  0.00    -0.078 N 
ATOM     16  H43 UNL     1       1.527   4.159   1.039  1.00  0.00     0.274 HD
ATOM     17  H42 UNL     1       0.285   4.587   0.257  1.00  0.00     0.274 HD
ATOM     18  H41 UNL     1       0.093   4.373   1.938  1.00  0.00     0.274 HD
ENDBRANCH  14  15
ENDBRANCH  13  14
ENDBRANCH   1  13
BRANCH   1  19
HETATM   19  C7  UNL     1      -0.957   0.402  -0.809  1.00  0.00     0.298 C 
HETATM   20  O1  UNL     1      -1.734   0.383   0.355  1.00  0.00    -0.329 OA
HETATM   21  C8  UNL     1      -2.562  -0.728   0.294  1.00  0.00     0.289 C 
HETATM   22  O3  UNL     1      -1.744  -1.683  -0.340  1.00  0.00    -0.325 OA
HETATM   23  C10 UNL     1      -1.292  -0.903  -1.418  1.00  0.00     0.309 C 
BRANCH  21  24
HETATM   24  C9  UNL     1      -2.951  -1.203   1.680  1.00  0.00     0.225 C 
BRANCH  24  25
HETATM   25  O2  UNL     1      -3.625  -0.198   2.373  1.00  0.00    -0.396 OA
ATOM     26  H2  UNL     1      -3.869  -0.496   3.242  1.00  0.00     0.209 HD
ENDBRANCH  24  25
ENDBRANCH  21  24
BRANCH  23  27
HETATM   27  O4  UNL     1      -2.445  -0.712  -2.214  1.00  0.00    -0.367 OA
ATOM     28  H4  UNL     1      -2.660  -1.550  -2.605  1.00  0.00     0.212 HD
ENDBRANCH  23  27
ENDBRANCH   1  19
TORSDOF 9
