REMARK  12 active torsions:
REMARK  status: ('A' for Active; 'I' for Inactive)
REMARK    1  A    between atoms: O1_1  and  C1_3 
REMARK    2  A    between atoms: C1_3  and  N1_4 
REMARK    3  A    between atoms: C1_3  and  N2_20 
REMARK    4  A    between atoms: N1_4  and  C2_6 
REMARK    5  A    between atoms: C2_6  and  C3_7 
REMARK    6  A    between atoms: C3_7  and  C4_8 
REMARK    7  A    between atoms: C4_8  and  C5_9 
REMARK    8  A    between atoms: C5_9  and  C6_10 
REMARK    9  A    between atoms: C6_10  and  C7_11 
REMARK   10  A    between atoms: C7_11  and  C8_12 
REMARK   11  A    between atoms: N2_20  and  C16_21 
REMARK   12  A    between atoms: N2_20  and  C23_28 
ROOT
HETATM    1  C1  UNL     1      -2.495  -0.938  -1.669  1.00  0.00     0.215 C 
ENDROOT
BRANCH   1   2
HETATM    2  O1  UNL     1      -2.221  -2.201  -1.514  1.00  0.00    -0.333 OA
ATOM      3  H1  UNL     1      -2.714  -2.653  -0.840  1.00  0.00     0.220 HD
ENDBRANCH   1   2
BRANCH   1   4
HETATM    4  N1  UNL     1      -1.772  -0.275  -2.657  1.00  0.00    -0.356 N 
ATOM      5  H1  UNL     1      -1.954   0.715  -2.820  1.00  0.00     0.163 HD
BRANCH   4   6
HETATM    6  C2  UNL     1      -0.769  -0.944  -3.461  1.00  0.00     0.123 C 
BRANCH   6   7
HETATM    7  C3  UNL     1       0.356  -1.502  -2.663  1.00  0.00     0.020 C 
BRANCH   7   8
HETATM    8  C4  UNL     1       1.026  -0.339  -1.916  1.00  0.00     0.002 C 
BRANCH   8   9
HETATM    9  C5  UNL     1       2.154  -0.953  -1.124  1.00  0.00     0.000 C 
BRANCH   9  10
HETATM   10  C6  UNL     1       2.935   0.043  -0.320  1.00  0.00     0.000 C 
BRANCH  10  11
HETATM   11  C7  UNL     1       4.016  -0.705   0.413  1.00  0.00     0.004 C 
BRANCH  11  12
HETATM   12  C8  UNL     1       4.869   0.216   1.260  1.00  0.00    -0.014 C 
HETATM   13  C9  UNL     1       5.932  -0.568   1.972  1.00  0.00     0.004 C 
HETATM   14  C10 UNL     1       6.970  -1.155   1.102  1.00  0.00     0.000 C 
HETATM   15  C11 UNL     1       8.367  -0.670   1.345  1.00  0.00     0.000 C 
HETATM   16  C12 UNL     1       8.473   0.794   1.634  1.00  0.00     0.000 C 
HETATM   17  C13 UNL     1       7.774   1.625   0.578  1.00  0.00     0.000 C 
HETATM   18  C14 UNL     1       6.488   2.130   1.141  1.00  0.00     0.000 C 
HETATM   19  C15 UNL     1       5.362   1.365   0.460  1.00  0.00     0.004 C 
ENDBRANCH  11  12
ENDBRANCH  10  11
ENDBRANCH   9  10
ENDBRANCH   8   9
ENDBRANCH   7   8
ENDBRANCH   6   7
ENDBRANCH   4   6
ENDBRANCH   1   4
BRANCH   1  20
HETATM   20  N2  UNL     1      -3.486  -0.452  -0.806  1.00  0.00    -0.338 N 
BRANCH  20  21
HETATM   21  C16 UNL     1      -4.090  -1.419   0.133  1.00  0.00     0.088 C 
HETATM   22  C17 UNL     1      -3.858  -1.026   1.549  1.00  0.00     0.025 C 
HETATM   23  C18 UNL     1      -4.714  -1.840   2.461  1.00  0.00     0.002 C 
HETATM   24  C19 UNL     1      -6.153  -1.372   2.428  1.00  0.00     0.000 C 
HETATM   25  C20 UNL     1      -7.013  -2.335   1.629  1.00  0.00     0.000 C 
HETATM   26  C21 UNL     1      -6.232  -2.696   0.383  1.00  0.00     0.002 C 
HETATM   27  C22 UNL     1      -5.548  -1.529  -0.248  1.00  0.00     0.025 C 
ENDBRANCH  20  21
BRANCH  20  28
HETATM   28  C23 UNL     1      -3.929   0.910  -0.773  1.00  0.00     0.088 C 
HETATM   29  C24 UNL     1      -4.494   1.441  -2.064  1.00  0.00     0.025 C 
HETATM   30  C25 UNL     1      -4.070   2.903  -2.277  1.00  0.00     0.002 C 
HETATM   31  C26 UNL     1      -4.405   3.632  -1.018  1.00  0.00     0.000 C 
HETATM   32  C27 UNL     1      -3.503   3.192   0.102  1.00  0.00     0.002 C 
HETATM   33  C28 UNL     1      -2.881   1.858  -0.276  1.00  0.00     0.025 C 
ENDBRANCH  20  28
ENDBRANCH   1  20
TORSDOF 12
