REMARK  9 active torsions:
REMARK  status: ('A' for Active; 'I' for Inactive)
REMARK    1  A    between atoms: C2_2  and  C3_3 
REMARK    2  A    between atoms: C9_9  and  S1_10 
REMARK    3  A    between atoms: C9_9  and  N1_17 
REMARK    4  A    between atoms: S1_10  and  C10_11 
REMARK    5  A    between atoms: C10_11  and  C13_14 
REMARK    6  A    between atoms: C13_14  and  C14_15 
REMARK    7  A    between atoms: N1_17  and  C16_18 
REMARK    8  A    between atoms: N1_17  and  C23_25 
REMARK    9  A    between atoms: C16_18  and  C17_19 
ROOT
HETATM    1  C3  UNL     1       0.234   3.106  -0.174  1.00  0.00     0.039 C 
HETATM    2  C4  UNL     1       1.381   4.107  -0.506  1.00  0.00     0.013 C 
HETATM    3  C5  UNL     1       2.242   4.373   0.696  1.00  0.00     0.001 C 
HETATM    4  C6  UNL     1       2.733   3.045   1.240  1.00  0.00     0.004 C 
HETATM    5  C7  UNL     1       1.593   2.106   1.490  1.00  0.00     0.038 C 
HETATM    6  C8  UNL     1       0.781   1.823   0.175  1.00  0.00    -0.038 C 
HETATM    7  C9  UNL     1       0.211   0.507   0.240  1.00  0.00     0.075 C 
ENDROOT
BRANCH   7   8
HETATM    8  S1  UNL     1       1.510  -0.716   0.735  1.00  0.00    -0.102 SA
BRANCH   8   9
HETATM    9  C10 UNL     1       2.687  -1.174  -0.498  1.00  0.00     0.007 C 
HETATM   10  C11 UNL     1       1.899  -1.996  -1.547  1.00  0.00     0.027 C 
HETATM   11  C12 UNL     1       3.352  -0.115  -1.296  1.00  0.00     0.027 C 
BRANCH   9  12
HETATM   12  C13 UNL     1       3.656  -2.118   0.149  1.00  0.00     0.019 C 
BRANCH  12  13
HETATM   13  C14 UNL     1       4.790  -2.639  -0.608  1.00  0.00    -0.003 C 
HETATM   14  C15 UNL     1       4.522  -3.468  -1.818  1.00  0.00     0.005 C 
ENDBRANCH  12  13
ENDBRANCH   9  12
ENDBRANCH   8   9
ENDBRANCH   7   8
BRANCH   7  15
HETATM   15  N1  UNL     1      -0.992   0.000   0.728  1.00  0.00    -0.350 N 
BRANCH  15  16
HETATM   16  C16 UNL     1      -2.226   0.362   0.186  1.00  0.00     0.069 C 
BRANCH  16  17
HETATM   17  C17 UNL     1      -2.520  -0.011  -1.256  1.00  0.00     0.024 C 
HETATM   18  C18 UNL     1      -2.462  -1.481  -1.442  1.00  0.00     0.010 C 
HETATM   19  C19 UNL     1      -2.921  -1.960  -2.789  1.00  0.00     0.001 C 
HETATM   20  C20 UNL     1      -4.411  -1.618  -2.827  1.00  0.00     0.000 C 
HETATM   21  C21 UNL     1      -4.448  -0.133  -2.893  1.00  0.00     0.001 C 
HETATM   22  C22 UNL     1      -3.806   0.598  -1.769  1.00  0.00     0.010 C 
ENDBRANCH  16  17
ENDBRANCH  15  16
BRANCH  15  23
HETATM   23  C23 UNL     1      -0.960  -0.760   1.935  1.00  0.00     0.093 C 
HETATM   24  C24 UNL     1      -2.205  -1.494   2.323  1.00  0.00     0.053 C 
HETATM   25  C25 UNL     1      -1.976  -2.456   3.469  1.00  0.00     0.234 C 
HETATM   26  N2  UNL     1      -0.861  -2.063   4.304  1.00  0.00    -0.075 N 
HETATM   27  C26 UNL     1      -1.054  -0.632   4.453  1.00  0.00     0.234 C 
ATOM     28  H22 UNL     1      -0.785  -2.576   5.182  1.00  0.00     0.277 HD
ATOM     29  H21 UNL     1       0.055  -2.334   3.947  1.00  0.00     0.277 HD
HETATM   30  C27 UNL     1      -0.450  -0.041   3.160  1.00  0.00     0.053 C 
ENDBRANCH  15  23
ENDBRANCH   7  15
BRANCH   1  31
HETATM   31  C2  UNL     1      -0.719   3.372  -1.214  1.00  0.00    -0.028 C 
HETATM   32  C1  UNL     1      -1.881   3.978  -1.024  1.00  0.00     0.007 C 
ENDBRANCH   1  31
TORSDOF 9
