REMARK  10 active torsions:
REMARK  status: ('A' for Active; 'I' for Inactive)
REMARK    1  A    between atoms: C2_2  and  C3_3 
REMARK    2  A    between atoms: C3_3  and  C4_4 
REMARK    3  A    between atoms: C4_4  and  C5_5 
REMARK    4  A    between atoms: C5_5  and  C6_6 
REMARK    5  A    between atoms: C6_6  and  C7_7 
REMARK    6  A    between atoms: C7_7  and  C8_8 
REMARK    7  A    between atoms: C8_8  and  S1_9 
REMARK    8  A    between atoms: S1_9  and  C9_10 
REMARK    9  A    between atoms: C14_15  and  C15_16 
REMARK       I    between atoms: C15_16  and  N1_18 
REMARK   10  A    between atoms: N1_18  and  C16_20 
ROOT
HETATM    1  C15 UNL     1      -1.057  -1.723   0.665  1.00  0.00     0.253 C 
HETATM    2  O1  UNL     1      -1.579  -2.226  -0.361  1.00  0.00    -0.268 OA
HETATM    3  N1  UNL     1      -1.589  -0.484   1.139  1.00  0.00    -0.352 N 
ATOM      4  H1  UNL     1      -1.182  -0.047   1.966  1.00  0.00     0.163 HD
ENDROOT
BRANCH   1   5
HETATM    5  C14 UNL     1       0.027  -2.436   1.281  1.00  0.00     0.048 A 
HETATM    6  C9  UNL     1       1.221  -2.664   0.640  1.00  0.00     0.016 A 
HETATM    7  C10 UNL     1       2.241  -3.365   1.242  1.00  0.00     0.019 A 
HETATM    8  C11 UNL     1       2.130  -3.875   2.520  1.00  0.00     0.001 A 
HETATM    9  C12 UNL     1       0.938  -3.648   3.169  1.00  0.00     0.001 A 
HETATM   10  C13 UNL     1      -0.092  -2.951   2.578  1.00  0.00     0.018 A 
BRANCH   6  11
HETATM   11  S1  UNL     1       1.467  -1.965  -0.991  1.00  0.00    -0.129 SA
BRANCH  11  12
HETATM   12  C8  UNL     1       3.162  -2.212  -1.505  1.00  0.00     0.079 C 
BRANCH  12  13
HETATM   13  C7  UNL     1       4.121  -1.378  -0.679  1.00  0.00     0.010 C 
BRANCH  13  14
HETATM   14  C6  UNL     1       5.505  -1.698  -1.180  1.00  0.00     0.001 C 
BRANCH  14  15
HETATM   15  C5  UNL     1       6.621  -1.032  -0.464  1.00  0.00     0.000 C 
BRANCH  15  16
HETATM   16  C4  UNL     1       6.581   0.458  -0.486  1.00  0.00     0.000 C 
BRANCH  16  17
HETATM   17  C3  UNL     1       7.798   0.961   0.298  1.00  0.00    -0.000 C 
BRANCH  17  18
HETATM   18  C2  UNL     1       7.882   2.461   0.344  1.00  0.00    -0.005 C 
HETATM   19  C1  UNL     1       9.129   2.809   1.156  1.00  0.00     0.005 C 
ENDBRANCH  17  18
ENDBRANCH  16  17
ENDBRANCH  15  16
ENDBRANCH  14  15
ENDBRANCH  13  14
ENDBRANCH  12  13
ENDBRANCH  11  12
ENDBRANCH   6  11
ENDBRANCH   1   5
BRANCH   3  20
HETATM   20  C16 UNL     1      -2.699   0.162   0.462  1.00  0.00     0.084 C 
HETATM   21  C17 UNL     1      -3.797   0.350   1.471  1.00  0.00     0.025 C 
HETATM   22  C18 UNL     1      -4.899  -0.657   1.296  1.00  0.00     0.002 C 
HETATM   23  C19 UNL     1      -6.242  -0.109   1.718  1.00  0.00     0.000 C 
HETATM   24  C20 UNL     1      -7.188   0.027   0.537  1.00  0.00     0.000 C 
HETATM   25  C21 UNL     1      -7.145   1.438   0.054  1.00  0.00     0.000 C 
HETATM   26  C22 UNL     1      -7.055   1.566  -1.447  1.00  0.00     0.000 C 
HETATM   27  C23 UNL     1      -5.661   1.379  -1.972  1.00  0.00     0.000 C 
HETATM   28  C24 UNL     1      -4.790   2.547  -1.623  1.00  0.00     0.000 C 
HETATM   29  C25 UNL     1      -3.426   2.489  -2.242  1.00  0.00     0.000 C 
HETATM   30  C26 UNL     1      -2.550   1.383  -1.723  1.00  0.00     0.002 C 
HETATM   31  C27 UNL     1      -2.318   1.451  -0.234  1.00  0.00     0.025 C 
ENDBRANCH   3  20
TORSDOF 10
