REMARK  11 active torsions:
REMARK  status: ('A' for Active; 'I' for Inactive)
REMARK    1  A    between atoms: C8_8  and  C9_9 
REMARK    2  A    between atoms: C9_9  and  C10_10 
REMARK    3  A    between atoms: C10_10  and  C11_11 
REMARK    4  A    between atoms: C11_11  and  C12_12 
REMARK    5  A    between atoms: C12_12  and  C13_13 
REMARK    6  A    between atoms: C13_13  and  C14_14 
REMARK    7  A    between atoms: C14_14  and  C15_15 
REMARK    8  A    between atoms: C15_15  and  C16_16 
REMARK    9  A    between atoms: C16_16  and  C17_17 
REMARK   10  A    between atoms: C21_24  and  S1_25 
REMARK   11  A    between atoms: S1_25  and  C22_26 
ROOT
HETATM    1  C17 UNL     1      -1.527   0.160  -0.882  1.00  0.00     0.199 C 
HETATM    2  N1  UNL     1      -2.176   0.034  -2.130  1.00  0.00    -0.070 N 
ATOM      3  H11 UNL     1      -2.909  -0.675  -2.108  1.00  0.00     0.277 HD
ATOM      4  H12 UNL     1      -1.572  -0.395  -2.831  1.00  0.00     0.277 HD
HETATM    5  C18 UNL     1      -2.681   1.318  -2.566  1.00  0.00     0.233 C 
HETATM    6  C19 UNL     1      -2.830   2.280  -1.430  1.00  0.00     0.029 C 
HETATM    7  C20 UNL     1      -3.139   1.746  -0.093  1.00  0.00     0.019 C 
HETATM    8  C21 UNL     1      -2.368   0.434   0.280  1.00  0.00     0.078 C 
ENDROOT
BRANCH   1   9
HETATM    9  C16 UNL     1      -0.362  -0.797  -0.698  1.00  0.00     0.034 C 
BRANCH   9  10
HETATM   10  C15 UNL     1       0.276  -0.648   0.643  1.00  0.00     0.002 C 
BRANCH  10  11
HETATM   11  C14 UNL     1       1.529  -1.501   0.745  1.00  0.00     0.000 C 
BRANCH  11  12
HETATM   12  C13 UNL     1       2.539  -1.038  -0.301  1.00  0.00     0.000 C 
BRANCH  12  13
HETATM   13  C12 UNL     1       2.879   0.423  -0.073  1.00  0.00     0.000 C 
BRANCH  13  14
HETATM   14  C11 UNL     1       3.538   0.697   1.239  1.00  0.00     0.000 C 
BRANCH  14  15
HETATM   15  C10 UNL     1       4.907   0.027   1.372  1.00  0.00     0.005 C 
BRANCH  15  16
HETATM   16  C9  UNL     1       5.840   0.568   0.344  1.00  0.00     0.039 C 
BRANCH  16  17
HETATM   17  C8  UNL     1       7.198  -0.010   0.350  1.00  0.00    -0.047 A 
HETATM   18  C3  UNL     1       8.215   0.613  -0.384  1.00  0.00    -0.020 A 
HETATM   19  C2  UNL     1       8.652   1.686  -1.239  1.00  0.00     0.013 A 
HETATM   20  C4  UNL     1       9.490   0.117  -0.442  1.00  0.00    -0.025 A 
HETATM   21  C1  UNL     1       9.897   1.219  -1.309  1.00  0.00     0.013 A 
HETATM   22  C5  UNL     1       9.832  -1.034   0.231  1.00  0.00     0.012 A 
HETATM   23  C6  UNL     1       8.861  -1.676   0.965  1.00  0.00     0.001 A 
HETATM   24  C7  UNL     1       7.562  -1.159   1.016  1.00  0.00     0.008 A 
ENDBRANCH  16  17
ENDBRANCH  15  16
ENDBRANCH  14  15
ENDBRANCH  13  14
ENDBRANCH  12  13
ENDBRANCH  11  12
ENDBRANCH  10  11
ENDBRANCH   9  10
ENDBRANCH   1   9
BRANCH   8  25
HETATM   25  S1  UNL     1      -3.493  -0.771   0.867  1.00  0.00    -0.157 SA
BRANCH  25  26
HETATM   26  C22 UNL     1      -5.215  -0.655   0.587  1.00  0.00     0.047 C 
HETATM   27  C23 UNL     1      -5.679  -0.730  -0.802  1.00  0.00     0.015 C 
HETATM   28  C24 UNL     1      -7.096  -0.186  -0.987  1.00  0.00     0.001 C 
HETATM   29  C25 UNL     1      -7.585   0.618   0.172  1.00  0.00     0.000 C 
HETATM   30  C26 UNL     1      -7.819  -0.193   1.416  1.00  0.00     0.000 C 
HETATM   31  C27 UNL     1      -7.398  -1.620   1.295  1.00  0.00     0.001 C 
HETATM   32  C28 UNL     1      -5.913  -1.853   1.310  1.00  0.00     0.015 C 
ENDBRANCH  25  26
ENDBRANCH   8  25
TORSDOF 11
