REMARK  10 active torsions:
REMARK  status: ('A' for Active; 'I' for Inactive)
REMARK    1  A    between atoms: C1_2  and  C2_3 
REMARK       I    between atoms: C1_2  and  N1_16 
REMARK    2  A    between atoms: C2_3  and  C3_4 
REMARK    3  A    between atoms: C3_4  and  C4_5 
REMARK    4  A    between atoms: C4_5  and  C5_6 
REMARK    5  A    between atoms: C5_6  and  C6_7 
REMARK    6  A    between atoms: C6_7  and  C7_8 
REMARK    7  A    between atoms: C7_8  and  C8_9 
REMARK    8  A    between atoms: C8_9  and  C9_10 
REMARK    9  A    between atoms: N1_16  and  C15_18 
REMARK   10  A    between atoms: C20_23  and  C21_24 
ROOT
HETATM    1  O1  UNL     1      -0.959  -3.925  -0.924  1.00  0.00    -0.273 OA
HETATM    2  C1  UNL     1      -1.263  -2.962  -0.202  1.00  0.00     0.222 C 
HETATM    3  N1  UNL     1      -2.540  -2.393  -0.231  1.00  0.00    -0.326 N 
ATOM      4  H1  UNL     1      -2.678  -1.602   0.398  1.00  0.00     0.169 HD
ENDROOT
BRANCH   3   5
HETATM    5  C15 UNL     1      -3.671  -2.754  -1.007  1.00  0.00     0.046 A 
HETATM    6  C16 UNL     1      -3.812  -4.049  -1.482  1.00  0.00     0.030 A 
HETATM    7  C17 UNL     1      -4.978  -4.422  -2.099  1.00  0.00     0.002 A 
HETATM    8  C18 UNL     1      -6.039  -3.567  -2.276  1.00  0.00     0.001 A 
HETATM    9  C19 UNL     1      -5.864  -2.300  -1.798  1.00  0.00     0.015 A 
HETATM   10  C20 UNL     1      -4.690  -1.873  -1.164  1.00  0.00     0.008 A 
BRANCH  10  11
HETATM   11  C21 UNL     1      -4.633  -0.433  -0.854  1.00  0.00     0.019 A 
HETATM   12  C22 UNL     1      -3.598   0.443  -0.741  1.00  0.00     0.032 A 
HETATM   13  C23 UNL     1      -3.903   1.750  -0.518  1.00  0.00    -0.018 A 
HETATM   14  C24 UNL     1      -3.005   2.829  -0.367  1.00  0.00     0.013 A 
HETATM   15  C28 UNL     1      -5.227   2.073  -0.427  1.00  0.00     0.015 A 
HETATM   16  C25 UNL     1      -3.453   4.105  -0.144  1.00  0.00     0.001 A 
HETATM   17  C26 UNL     1      -4.791   4.419  -0.054  1.00  0.00     0.001 A 
HETATM   18  C27 UNL     1      -5.688   3.384  -0.198  1.00  0.00     0.019 A 
HETATM   19  S1  UNL     1      -5.999   0.568  -0.651  1.00  0.00    -0.089 SA
ENDBRANCH  10  11
ENDBRANCH   3   5
BRANCH   2  20
HETATM   20  C2  UNL     1      -0.189  -2.447   0.697  1.00  0.00     0.103 C 
BRANCH  20  21
HETATM   21  C3  UNL     1       1.078  -3.239   0.526  1.00  0.00     0.009 C 
BRANCH  21  22
HETATM   22  C4  UNL     1       2.164  -2.744   1.415  1.00  0.00     0.000 C 
BRANCH  22  23
HETATM   23  C5  UNL     1       2.545  -1.302   1.175  1.00  0.00     0.000 C 
BRANCH  23  24
HETATM   24  C6  UNL     1       3.638  -0.958   2.135  1.00  0.00     0.000 C 
BRANCH  24  25
HETATM   25  C7  UNL     1       4.132   0.467   2.022  1.00  0.00     0.005 C 
BRANCH  25  26
HETATM   26  C8  UNL     1       4.669   0.719   0.654  1.00  0.00     0.038 C 
BRANCH  26  27
HETATM   27  C9  UNL     1       5.175   2.069   0.440  1.00  0.00    -0.058 A 
HETATM   28  C10 UNL     1       6.487   2.372   0.693  1.00  0.00     0.007 A 
HETATM   29  C11 UNL     1       6.991   3.650   0.497  1.00  0.00     0.001 A 
HETATM   30  C12 UNL     1       6.133   4.641   0.032  1.00  0.00     0.000 A 
HETATM   31  C13 UNL     1       4.809   4.361  -0.230  1.00  0.00     0.001 A 
HETATM   32  C14 UNL     1       4.335   3.059  -0.020  1.00  0.00     0.007 A 
ENDBRANCH  26  27
ENDBRANCH  25  26
ENDBRANCH  24  25
ENDBRANCH  23  24
ENDBRANCH  22  23
ENDBRANCH  21  22
ENDBRANCH  20  21
ENDBRANCH   2  20
TORSDOF 10
