REMARK  1 active torsions:
REMARK  status: ('A' for Active; 'I' for Inactive)
REMARK    1  A    between atoms: C2_2  and  C3_3 
ROOT
HETATM    1  C3  UNL     1       0.678  -0.570   0.251  1.00  0.00     0.215 C 
HETATM    2  N1  UNL     1       0.942  -0.751  -1.185  1.00  0.00    -0.067 N 
ATOM      3  H11 UNL     1       1.804  -1.242  -1.423  1.00  0.00     0.277 HD
ATOM      4  H12 UNL     1       1.186   0.092  -1.705  1.00  0.00     0.277 HD
HETATM    5  C4  UNL     1      -0.295  -1.406  -1.577  1.00  0.00     0.234 C 
HETATM    6  C5  UNL     1      -1.399  -0.704  -0.813  1.00  0.00     0.038 C 
HETATM    7  C6  UNL     1      -0.648   0.090   0.245  1.00  0.00    -0.014 C 
HETATM    8  C7  UNL     1      -0.620   1.527  -0.200  1.00  0.00     0.017 C 
HETATM    9  C8  UNL     1      -1.368   0.037   1.577  1.00  0.00     0.017 C 
ENDROOT
BRANCH   1  10
HETATM   10  C2  UNL     1       1.752   0.187   0.913  1.00  0.00    -0.004 C 
HETATM   11  C1  UNL     1       2.500   1.099   0.332  1.00  0.00     0.009 C 
ENDBRANCH   1  10
TORSDOF 1
