REMARK  2 active torsions:
REMARK  status: ('A' for Active; 'I' for Inactive)
REMARK    1  A    between atoms: C2_2  and  C3_3 
REMARK    2  A    between atoms: C5_5  and  N1_6 
ROOT
HETATM    1  C3  UNL     1       0.567  -0.130   0.439  1.00  0.00    -0.008 C 
HETATM    2  C4  UNL     1      -0.506  -1.224   0.246  1.00  0.00     0.038 C 
HETATM    3  C5  UNL     1      -1.719  -0.475  -0.349  1.00  0.00     0.188 C 
HETATM    4  C6  UNL     1      -1.429   0.858   0.214  1.00  0.00     0.021 A 
HETATM    5  C7  UNL     1      -0.820   2.028  -0.265  1.00  0.00     0.012 A 
HETATM    6  C8  UNL     1       0.013   0.918  -0.443  1.00  0.00    -0.004 A 
ENDROOT
BRANCH   3   7
HETATM    7  N1  UNL     1      -2.931  -1.086   0.081  1.00  0.00    -0.075 N 
ATOM      8  H13 UNL     1      -2.954  -2.082  -0.136  1.00  0.00     0.274 HD
ATOM      9  H12 UNL     1      -2.985  -1.153   1.097  1.00  0.00     0.274 HD
ATOM     10  H11 UNL     1      -3.732  -0.591  -0.312  1.00  0.00     0.274 HD
ENDBRANCH   3   7
BRANCH   1  11
HETATM   11  C2  UNL     1       1.857  -0.724  -0.082  1.00  0.00     0.000 C 
HETATM   12  C1  UNL     1       3.024   0.195   0.021  1.00  0.00     0.005 C 
ENDBRANCH   1  11
TORSDOF 2
