REMARK  0 active torsions:
REMARK  status: ('A' for Active; 'I' for Inactive)
ROOT
HETATM    1  C1  UNL     1       1.919   0.177   0.245  1.00  0.00     0.002 C 
HETATM    2  C2  UNL     1       0.768   1.054   0.624  1.00  0.00     0.007 C 
HETATM    3  C3  UNL     1      -0.267   0.818  -0.438  1.00  0.00     0.018 C 
HETATM    4  C4  UNL     1      -1.670   0.743   0.116  1.00  0.00     0.034 C 
HETATM    5  C5  UNL     1      -1.696  -0.616   0.801  1.00  0.00     0.233 C 
HETATM    6  N1  UNL     1      -0.509  -1.316   0.370  1.00  0.00    -0.070 N 
ATOM      7  H11 UNL     1      -0.667  -2.313   0.220  1.00  0.00     0.277 HD
ATOM      8  H12 UNL     1       0.192  -1.402   1.106  1.00  0.00     0.277 HD
HETATM    9  C6  UNL     1      -0.017  -0.646  -0.796  1.00  0.00     0.190 C 
HETATM   10  C7  UNL     1       1.476  -0.667  -0.931  1.00  0.00     0.033 C 
ENDROOT
TORSDOF 0
