REMARK  2 active torsions:
REMARK  status: ('A' for Active; 'I' for Inactive)
REMARK    1  A    between atoms: C2_2  and  C5_5 
REMARK    2  A    between atoms: C7_7  and  N1_8 
ROOT
HETATM    1  C5  UNL     1       0.743   0.210  -0.181  1.00  0.00     0.025 A 
HETATM    2  C6  UNL     1       1.436   0.613   1.054  1.00  0.00     0.040 A 
HETATM    3  C7  UNL     1       1.558  -0.803   0.510  1.00  0.00     0.188 A 
ENDROOT
BRANCH   1   4
HETATM    4  C2  UNL     1      -0.740   0.211  -0.189  1.00  0.00    -0.046 C 
HETATM    5  C1  UNL     1      -1.355   1.565   0.091  1.00  0.00     0.015 C 
HETATM    6  C3  UNL     1      -1.245  -0.208  -1.574  1.00  0.00     0.015 C 
HETATM    7  C4  UNL     1      -1.355  -0.754   0.798  1.00  0.00     0.015 C 
ENDBRANCH   1   4
BRANCH   3   8
HETATM    8  N1  UNL     1       2.872  -1.132  -0.029  1.00  0.00    -0.075 N 
ATOM      9  H13 UNL     1       2.769  -1.402  -1.007  1.00  0.00     0.274 HD
ATOM     10  H12 UNL     1       3.417  -0.274  -0.117  1.00  0.00     0.274 HD
ATOM     11  H11 UNL     1       3.437  -1.834   0.450  1.00  0.00     0.274 HD
ENDBRANCH   3   8
TORSDOF 2
