REMARK  5 active torsions:
REMARK  status: ('A' for Active; 'I' for Inactive)
REMARK    1  A    between atoms: C2_2  and  C3_3 
REMARK    2  A    between atoms: C5_6  and  N1_7 
REMARK    3  A    between atoms: N1_7  and  C6_9 
REMARK    4  A    between atoms: C10_17  and  N4_18 
REMARK    5  A    between atoms: N4_18  and  C11_20 
ROOT
HETATM    1  C6  UNL     1      -0.805  -2.080  -0.822  1.00  0.00     0.696 A 
HETATM    2  N2  UNL     1      -0.096  -2.820  -0.032  1.00  0.00    -0.199 N 
ATOM      3  H2  UNL     1      -0.577  -3.557   0.483  1.00  0.00     0.180 HD
HETATM    4  C7  UNL     1       1.311  -2.680   0.172  1.00  0.00     0.129 A 
HETATM    5  C8  UNL     1       1.590  -2.456   1.660  1.00  0.00     0.064 C 
HETATM    6  C9  UNL     1       2.045  -3.975  -0.199  1.00  0.00     0.064 C 
HETATM    7  N3  UNL     1       1.901  -1.632  -0.597  1.00  0.00    -0.199 N 
ATOM      8  H3  UNL     1       2.907  -1.500  -0.493  1.00  0.00     0.180 HD
HETATM    9  C10 UNL     1       1.295  -0.835  -1.410  1.00  0.00     0.709 A 
HETATM   10  N7  UNL     1      -0.128  -1.056  -1.542  1.00  0.00    -0.022 N 
ATOM     11  H7  UNL     1      -0.664  -0.459  -2.172  1.00  0.00     0.203 HD
ENDROOT
BRANCH   1  12
HETATM   12  N1  UNL     1      -2.203  -2.302  -0.954  1.00  0.00    -0.170 N 
ATOM     13  H1  UNL     1      -2.541  -3.179  -1.350  1.00  0.00     0.186 HD
BRANCH  12  14
HETATM   14  C5  UNL     1      -3.065  -1.385  -0.569  1.00  0.00     0.164 A 
HETATM   15  S1  UNL     1      -4.766  -1.421  -0.626  1.00  0.00    -0.063 SA
HETATM   16  C4  UNL     1      -5.071   0.119   0.047  1.00  0.00     0.078 A 
HETATM   17  C3  UNL     1      -3.803   0.582   0.283  1.00  0.00     0.017 A 
HETATM   18  N8  UNL     1      -2.806  -0.190  -0.035  1.00  0.00    -0.339 N 
ATOM     19  H8  UNL     1      -1.844   0.112   0.121  1.00  0.00     0.168 HD
BRANCH  17  20
HETATM   20  C2  UNL     1      -3.623   1.962   0.898  1.00  0.00     0.053 C 
HETATM   21  C1  UNL     1      -2.182   2.305   1.083  1.00  0.00     0.011 C 
ENDBRANCH  17  20
ENDBRANCH  12  14
ENDBRANCH   1  12
BRANCH   9  22
HETATM   22  N4  UNL     1       1.936   0.189  -2.148  1.00  0.00    -0.021 N 
ATOM     23  H4  UNL     1       2.099  -0.001  -3.137  1.00  0.00     0.203 HD
BRANCH  22  24
HETATM   24  C11 UNL     1       2.371   1.431  -1.677  1.00  0.00     0.698 A 
HETATM   25  N5  UNL     1       2.985   2.373  -2.455  1.00  0.00    -0.200 N 
HETATM   26  C12 UNL     1       3.286   3.450  -1.739  1.00  0.00     0.124 A 
ATOM     27  H5  UNL     1       3.185   2.263  -3.449  1.00  0.00     0.183 HD
HETATM   28  C13 UNL     1       2.860   3.214  -0.456  1.00  0.00     0.126 A 
HETATM   29  N6  UNL     1       2.306   1.959  -0.475  1.00  0.00    -0.196 N 
HETATM   30  C14 UNL     1       1.737   1.357   0.728  1.00  0.00     0.175 C 
ENDBRANCH  22  24
ENDBRANCH   9  22
TORSDOF 5
