REMARK  4 active torsions:
REMARK  status: ('A' for Active; 'I' for Inactive)
REMARK    1  A    between atoms: O1_1  and  C1_3 
REMARK    2  A    between atoms: C5_8  and  O2_9 
REMARK    3  A    between atoms: C6_11  and  C7_12 
REMARK    4  A    between atoms: N1_13  and  C8_15 
ROOT
HETATM    1  C7  UNL     1       1.526   0.601   0.156  1.00  0.00     0.101 C 
HETATM    2  N1  UNL     1       0.686  -0.368   0.039  1.00  0.00    -0.389 N 
ATOM      3  H1  UNL     1       1.056  -1.316  -0.037  1.00  0.00     0.159 HD
ENDROOT
BRANCH   1   4
HETATM    4  C6  UNL     1       2.962   0.401   0.184  1.00  0.00     0.047 A 
HETATM    5  C1  UNL     1       3.472  -0.895   0.080  1.00  0.00     0.080 A 
HETATM    6  C2  UNL     1       4.822  -1.149   0.100  1.00  0.00     0.039 A 
HETATM    7  C3  UNL     1       5.723  -0.139   0.222  1.00  0.00     0.029 A 
HETATM    8  C4  UNL     1       5.259   1.137   0.326  1.00  0.00     0.068 A 
HETATM    9 CL1  UNL     1       6.369   2.489   0.486  1.00  0.00    -0.081 Cl
HETATM   10  C5  UNL     1       3.888   1.410   0.307  1.00  0.00     0.101 A 
BRANCH   5  11
HETATM   11  O1  UNL     1       2.612  -1.974  -0.047  1.00  0.00    -0.360 OA
ATOM     12  H1  UNL     1       1.678  -1.798  -0.061  1.00  0.00     0.217 HD
ENDBRANCH   5  11
BRANCH  10  13
HETATM   13  O2  UNL     1       3.489   2.727   0.416  1.00  0.00    -0.358 OA
ATOM     14  H2  UNL     1       2.557   2.913   0.403  1.00  0.00     0.217 HD
ENDBRANCH  10  13
ENDBRANCH   1   4
BRANCH   2  15
HETATM   15  C8  UNL     1      -0.732  -0.197   0.009  1.00  0.00     0.030 C 
HETATM   16  C9  UNL     1      -1.223   1.084   0.594  1.00  0.00     0.035 C 
HETATM   17  C10 UNL     1      -2.728   1.113   0.520  1.00  0.00    -0.012 C 
HETATM   18  C11 UNL     1      -3.204   1.110  -0.904  1.00  0.00     0.009 C 
HETATM   19  C15 UNL     1      -3.372  -0.036   1.237  1.00  0.00     0.009 C 
HETATM   20  C12 UNL     1      -2.676  -0.142  -1.568  1.00  0.00    -0.012 C 
HETATM   21  C13 UNL     1      -3.273  -1.355  -0.896  1.00  0.00     0.009 C 
HETATM   22  C17 UNL     1      -1.173  -0.253  -1.445  1.00  0.00     0.035 C 
HETATM   23  C14 UNL     1      -2.892  -1.315   0.569  1.00  0.00    -0.012 C 
HETATM   24  C16 UNL     1      -1.401  -1.359   0.713  1.00  0.00     0.035 C 
ENDBRANCH   2  15
TORSDOF 4
