REMARK  4 active torsions:
REMARK  status: ('A' for Active; 'I' for Inactive)
REMARK    1  A    between atoms: O1_1  and  C1_3 
REMARK    2  A    between atoms: C3_5  and  O2_6 
REMARK    3  A    between atoms: C10_14  and  C11_15 
REMARK    4  A    between atoms: C11_15  and  N1_16 
ROOT
HETATM    1  C1  UNL     1       4.018  -0.718  -1.625  1.00  0.00     0.068 A 
HETATM    2  C2  UNL     1       3.187  -1.817  -1.439  1.00  0.00     0.073 A 
HETATM    3  C3  UNL     1       2.153  -1.803  -0.540  1.00  0.00     0.075 A 
HETATM    4  C4  UNL     1       1.935  -0.647   0.207  1.00  0.00    -0.018 A 
HETATM    5  C5  UNL     1       2.724   0.456   0.057  1.00  0.00    -0.046 A 
HETATM    6  C6  UNL     1       3.769   0.394  -0.875  1.00  0.00     0.044 A 
HETATM    7  C7  UNL     1       2.823   1.835   0.650  1.00  0.00     0.039 C 
HETATM    8  C8  UNL     1       1.533   2.606   0.556  1.00  0.00     0.005 C 
HETATM    9  C9  UNL     1       0.466   1.967  -0.254  1.00  0.00     0.006 C 
HETATM   10  C10 UNL     1      -0.494   1.120   0.534  1.00  0.00     0.014 C 
HETATM   11  C16 UNL     1       0.139   0.263   1.565  1.00  0.00     0.011 C 
HETATM   12  C17 UNL     1       0.773  -0.981   1.058  1.00  0.00     0.042 C 
ENDROOT
BRANCH  10  13
HETATM   13  C11 UNL     1      -1.423   0.419  -0.400  1.00  0.00     0.279 C 
BRANCH  13  14
HETATM   14  N1  UNL     1      -2.387  -0.428   0.290  1.00  0.00     0.107 N 
HETATM   15  C12 UNL     1      -3.326   0.398   1.055  1.00  0.00     0.274 C 
HETATM   16  C13 UNL     1      -4.713   0.015   0.575  1.00  0.00     0.033 C 
HETATM   17  C14 UNL     1      -4.446  -1.437   0.156  1.00  0.00     0.053 C 
HETATM   18  C15 UNL     1      -3.151  -1.230  -0.614  1.00  0.00     0.318 C 
HETATM   19 CL1  UNL     1      -2.472  -2.813  -0.957  1.00  0.00    -0.092 Cl
ENDBRANCH  13  14
ENDBRANCH  10  13
BRANCH   3  20
HETATM   20  O2  UNL     1       1.326  -2.915  -0.363  1.00  0.00    -0.360 OA
ATOM     21  H2  UNL     1       0.609  -2.905   0.260  1.00  0.00     0.217 HD
ENDBRANCH   3  20
BRANCH   1  22
HETATM   22  O1  UNL     1       5.056  -0.796  -2.559  1.00  0.00    -0.361 OA
ATOM     23  H1  UNL     1       5.624  -0.045  -2.686  1.00  0.00     0.217 HD
ENDBRANCH   1  22
TORSDOF 4
