REMARK  2 active torsions:
REMARK  status: ('A' for Active; 'I' for Inactive)
REMARK    1  A    between atoms: C3_3  and  C4_4 
REMARK    2  A    between atoms: C9_9  and  C10_10 
ROOT
HETATM    1  C10 UNL     1      -0.075  -1.211  -0.438  1.00  0.00     0.210 C 
HETATM    2  C11 UNL     1       1.052  -2.223  -0.193  1.00  0.00     0.044 C 
HETATM    3  C12 UNL     1       2.164  -1.640   0.629  1.00  0.00     0.044 C 
HETATM    4  C13 UNL     1       2.654  -0.317   0.086  1.00  0.00     0.099 C 
HETATM    5  C14 UNL     1       4.006  -0.461  -0.560  1.00  0.00     0.069 C 
HETATM    6  C15 UNL     1       4.577   0.866  -0.954  1.00  0.00     0.235 C 
HETATM    7  N1  UNL     1       4.504   1.844   0.108  1.00  0.00    -0.075 N 
ATOM      8  H11 UNL     1       4.985   2.713  -0.123  1.00  0.00     0.277 HD
ATOM      9  H12 UNL     1       5.066   1.588   0.920  1.00  0.00     0.277 HD
HETATM   10  C16 UNL     1       3.118   2.045   0.433  1.00  0.00     0.235 C 
HETATM   11  C17 UNL     1       2.639   0.784   1.124  1.00  0.00     0.069 C 
HETATM   12  O1  UNL     1       1.700   0.074  -0.870  1.00  0.00    -0.229 OA
HETATM   13  O2  UNL     1       0.529   0.035  -0.246  1.00  0.00    -0.229 OA
ENDROOT
BRANCH   1  14
HETATM   14  C9  UNL     1      -1.175  -1.416   0.521  1.00  0.00     0.048 A 
HETATM   15  C3  UNL     1      -2.453  -0.867   0.465  1.00  0.00    -0.027 A 
HETATM   16  C2  UNL     1      -3.139  -1.322   1.596  1.00  0.00     0.026 A 
HETATM   17  C1  UNL     1      -2.288  -2.118   2.301  1.00  0.00     0.089 A 
HETATM   18  N2  UNL     1      -1.099  -2.162   1.629  1.00  0.00    -0.367 N 
ATOM     19  H2  UNL     1      -0.276  -2.686   1.928  1.00  0.00     0.165 HD
BRANCH  15  20
HETATM   20  C4  UNL     1      -3.063  -0.041  -0.558  1.00  0.00     0.021 C 
HETATM   21  C5  UNL     1      -4.270   0.657   0.058  1.00  0.00     0.009 C 
HETATM   22  C6  UNL     1      -4.411   1.972  -0.666  1.00  0.00     0.001 C 
HETATM   23  C7  UNL     1      -3.411   1.902  -1.788  1.00  0.00     0.001 C 
HETATM   24  C8  UNL     1      -2.291   1.079  -1.121  1.00  0.00     0.009 C 
ENDBRANCH  15  20
ENDBRANCH   1  14
TORSDOF 2
