REMARK  5 active torsions:
REMARK  status: ('A' for Active; 'I' for Inactive)
REMARK    1  A    between atoms: N4_10  and  C3_11 
REMARK    2  A    between atoms: C3_11  and  C4_12 
REMARK    3  A    between atoms: C4_12  and  C5_13 
REMARK    4  A    between atoms: C5_13  and  N5_14 
REMARK    5  A    between atoms: C5_13  and  N6_18 
ROOT
HETATM    1  C3  UNL     1      -0.019  -0.035  -0.766  1.00  0.00     0.172 C 
ENDROOT
BRANCH   1   2
HETATM    2  N4  UNL     1      -1.372   0.418  -0.489  1.00  0.00    -0.123 N 
HETATM    3  C1  UNL     1      -2.390  -0.325   0.039  1.00  0.00     0.693 A 
HETATM    4  N1  UNL     1      -2.332  -1.559   0.386  1.00  0.00    -0.233 N 
HETATM    5  N2  UNL     1      -3.490   0.439   0.147  1.00  0.00    -0.185 N 
ATOM      6  H12 UNL     1      -3.092  -2.114   0.780  1.00  0.00     0.174 HD
ATOM      7  H11 UNL     1      -1.497  -2.139   0.304  1.00  0.00     0.174 HD
HETATM    8  C2  UNL     1      -3.173   1.673  -0.314  1.00  0.00     0.215 A 
ATOM      9  H2  UNL     1      -4.397   0.144   0.509  1.00  0.00     0.185 HD
HETATM   10  N3  UNL     1      -1.898   1.615  -0.683  1.00  0.00    -0.279 N 
ATOM     11  H3  UNL     1      -1.383   2.405  -1.072  1.00  0.00     0.188 HD
ENDBRANCH   1   2
BRANCH   1  12
HETATM   12  C4  UNL     1       0.850   0.202   0.467  1.00  0.00     0.084 C 
BRANCH  12  13
HETATM   13  C5  UNL     1       2.259  -0.245   0.245  1.00  0.00     0.379 C 
BRANCH  13  14
HETATM   14  N5  UNL     1       2.371  -1.648  -0.065  1.00  0.00    -0.050 N 
ATOM     15  H53 UNL     1       1.920  -2.215   0.654  1.00  0.00     0.276 HD
ATOM     16  H52 UNL     1       1.784  -1.890  -0.863  1.00  0.00     0.276 HD
ATOM     17  H51 UNL     1       3.332  -1.953  -0.216  1.00  0.00     0.276 HD
ENDBRANCH  13  14
BRANCH  13  18
HETATM   18  N6  UNL     1       2.864   0.477  -0.884  1.00  0.00    -0.050 N 
ATOM     19  H63 UNL     1       2.303   0.391  -1.731  1.00  0.00     0.276 HD
ATOM     20  H62 UNL     1       2.804   1.488  -0.762  1.00  0.00     0.276 HD
ATOM     21  H61 UNL     1       3.825   0.172  -1.035  1.00  0.00     0.276 HD
ENDBRANCH  13  18
ENDBRANCH  12  13
ENDBRANCH   1  12
TORSDOF 5
