REMARK  4 active torsions:
REMARK  status: ('A' for Active; 'I' for Inactive)
REMARK    1  A    between atoms: N1_1  and  N2_4 
REMARK    2  A    between atoms: C1_6  and  N3_7 
REMARK    3  A    between atoms: N3_7  and  C2_9 
REMARK    4  A    between atoms: C2_9  and  C3_10 
ROOT
HETATM    1  C2  UNL     1       0.243  -0.684  -0.269  1.00  0.00     0.130 C 
ENDROOT
BRANCH   1   2
HETATM    2  N3  UNL     1       1.168  -0.407   0.812  1.00  0.00    -0.384 N 
ATOM      3  H3  UNL     1       0.809  -0.193   1.742  1.00  0.00     0.160 HD
BRANCH   2   4
HETATM    4  C1  UNL     1       2.550  -0.430   0.591  1.00  0.00     0.192 C 
HETATM    5  N2  UNL     1       3.155   0.497  -0.052  1.00  0.00    -0.303 N 
ATOM      6  H2  UNL     1       2.628   1.288  -0.421  1.00  0.00     0.187 HD
BRANCH   5   7
HETATM    7  N1  UNL     1       4.534   0.426  -0.248  1.00  0.00    -0.344 N 
ATOM      8  H12 UNL     1       5.046  -0.372   0.128  1.00  0.00     0.176 HD
ATOM      9  H11 UNL     1       5.016   1.165  -0.760  1.00  0.00     0.176 HD
ENDBRANCH   5   7
ENDBRANCH   2   4
ENDBRANCH   1   2
BRANCH   1  10
HETATM   10  C3  UNL     1      -1.178  -0.898   0.182  1.00  0.00     0.045 C 
HETATM   11  C4  UNL     1      -2.007  -1.166  -1.018  1.00  0.00     0.086 C 
HETATM   12  N4  UNL     1      -2.605  -0.213  -1.604  1.00  0.00    -0.320 N 
HETATM   13  N5  UNL     1      -2.535   1.123  -1.176  1.00  0.00    -0.337 N 
ATOM     14  H4  UNL     1      -3.166  -0.428  -2.429  1.00  0.00     0.185 HD
HETATM   15  C5  UNL     1      -2.078   1.465   0.156  1.00  0.00     0.140 C 
ATOM     16  H5  UNL     1      -2.811   1.868  -1.816  1.00  0.00     0.180 HD
HETATM   17  C6  UNL     1      -1.806   0.218   0.935  1.00  0.00     0.032 C 
ENDBRANCH   1  10
TORSDOF 4
