REMARK  4 active torsions:
REMARK  status: ('A' for Active; 'I' for Inactive)
REMARK    1  A    between atoms: C2_2  and  N1_3 
REMARK    2  A    between atoms: C2_2  and  C3_7 
REMARK    3  A    between atoms: C3_7  and  N2_9 
REMARK    4  A    between atoms: N2_9  and  C5_11 
ROOT
HETATM    1  N2  UNL     1       0.264   0.770   0.672  1.00  0.00    -0.382 N 
ATOM      2  H2  UNL     1      -0.149   1.654   0.970  1.00  0.00     0.157 HD
ENDROOT
BRANCH   1   3
HETATM    3  C3  UNL     1      -0.536  -0.272   0.147  1.00  0.00     0.105 C 
HETATM    4  C4  UNL     1      -0.217  -0.663  -1.271  1.00  0.00     0.034 C 
BRANCH   3   5
HETATM    5  C2  UNL     1      -1.968   0.245   0.161  1.00  0.00     0.201 C 
HETATM    6  C1  UNL     1      -2.387   0.664   1.537  1.00  0.00     0.042 C 
BRANCH   5   7
HETATM    7  N1  UNL     1      -2.880  -0.717  -0.415  1.00  0.00    -0.073 N 
ATOM      8  H13 UNL     1      -3.001  -1.524   0.197  1.00  0.00     0.274 HD
ATOM      9  H12 UNL     1      -3.838  -0.367  -0.411  1.00  0.00     0.274 HD
ATOM     10  H11 UNL     1      -2.595  -1.002  -1.352  1.00  0.00     0.274 HD
ENDBRANCH   5   7
ENDBRANCH   3   5
ENDBRANCH   1   3
BRANCH   1  11
HETATM   11  C5  UNL     1       1.650   0.544   0.769  1.00  0.00     0.297 C 
HETATM   12  N3  UNL     1       2.076  -0.544   1.574  1.00  0.00    -0.350 N 
HETATM   13  C6  UNL     1       3.198  -0.974   1.079  1.00  0.00     0.192 C 
ATOM     14  H3  UNL     1       1.592  -0.919   2.390  1.00  0.00     0.163 HD
HETATM   15  N4  UNL     1       3.541  -0.190  -0.056  1.00  0.00    -0.297 N 
HETATM   16  N5  UNL     1       2.320   0.329  -0.492  1.00  0.00    -0.094 NA
ATOM     17  H4  UNL     1       4.466  -0.041  -0.459  1.00  0.00     0.183 HD
ENDBRANCH   1  11
TORSDOF 4
