REMARK  9 active torsions:
REMARK  status: ('A' for Active; 'I' for Inactive)
REMARK    1  A    between atoms: O1_2  and  C2_3 
REMARK    2  A    between atoms: C2_3  and  C3_5 
REMARK    3  A    between atoms: C4_6  and  C5_7 
REMARK       I    between atoms: C5_7  and  N1_9 
REMARK    4  A    between atoms: N1_9  and  N2_11 
REMARK    5  A    between atoms: C6_14  and  C8_16 
REMARK       I    between atoms: C8_16  and  N3_18 
REMARK    6  A    between atoms: N3_18  and  N4_20 
REMARK    7  A    between atoms: C9_22  and  C10_23 
REMARK    8  A    between atoms: C14_28  and  O5_29 
REMARK    9  A    between atoms: C15_31  and  O6_33 
ROOT
HETATM    1  C10 UNL     1       4.959  -1.248   0.281  1.00  0.00     0.128 C 
HETATM    2  C11 UNL     1       6.347  -0.651   0.525  1.00  0.00     0.031 C 
HETATM    3  C12 UNL     1       5.010  -2.717   0.427  1.00  0.00     0.069 C 
HETATM    4  N5  UNL     1       5.057  -3.848   0.549  1.00  0.00    -0.197 NA
ENDROOT
BRANCH   1   5
HETATM    5  C9  UNL     1       4.505  -0.971  -1.098  1.00  0.00     0.099 C 
HETATM    6  N4  UNL     1       3.437  -0.354  -1.412  1.00  0.00    -0.312 N 
ATOM      7  H4  UNL     1       3.232  -0.226  -2.403  1.00  0.00     0.185 HD
BRANCH   6   8
HETATM    8  N3  UNL     1       2.527   0.159  -0.483  1.00  0.00    -0.270 N 
HETATM    9  C8  UNL     1       1.132   0.221  -0.714  1.00  0.00     0.245 C 
HETATM   10  O4  UNL     1       0.748  -0.220  -1.825  1.00  0.00    -0.271 OA
ATOM     11  H3  UNL     1       2.887   0.506   0.406  1.00  0.00     0.190 HD
BRANCH   9  12
HETATM   12  C6  UNL     1       0.269   0.784   0.343  1.00  0.00     0.054 C 
HETATM   13  C4  UNL     1      -1.191   0.845   0.009  1.00  0.00     0.113 C 
HETATM   14  C3  UNL     1      -1.671  -0.559  -0.036  1.00  0.00     0.136 C 
HETATM   15  C15 UNL     1      -1.964  -0.967   1.418  1.00  0.00     0.093 C 
HETATM   16  C14 UNL     1      -0.820  -0.495   2.250  1.00  0.00     0.154 C 
HETATM   17  C16 UNL     1      -3.282  -0.376   1.893  1.00  0.00     0.049 C 
HETATM   18  C13 UNL     1       0.426  -0.118   1.545  1.00  0.00     0.054 C 
HETATM   19  C7  UNL     1       0.741   2.194   0.611  1.00  0.00     0.026 C 
BRANCH  13  20
HETATM   20  C5  UNL     1      -1.563   1.726  -1.096  1.00  0.00     0.241 C 
HETATM   21  O3  UNL     1      -0.699   2.238  -1.891  1.00  0.00    -0.271 OA
HETATM   22  N1  UNL     1      -2.910   2.075  -1.362  1.00  0.00    -0.276 N 
ATOM     23  H1  UNL     1      -3.655   1.706  -0.771  1.00  0.00     0.189 HD
BRANCH  22  24
HETATM   24  N2  UNL     1      -3.223   2.916  -2.421  1.00  0.00    -0.343 N 
ATOM     25  H22 UNL     1      -2.466   3.277  -3.002  1.00  0.00     0.176 HD
ATOM     26  H21 UNL     1      -4.193   3.167  -2.613  1.00  0.00     0.176 HD
ENDBRANCH  22  24
ENDBRANCH  13  20
BRANCH  14  27
HETATM   27  C2  UNL     1      -2.760  -0.876  -0.948  1.00  0.00     0.266 C 
HETATM   28  O2  UNL     1      -3.865  -1.253  -0.482  1.00  0.00    -0.265 OA
BRANCH  27  29
HETATM   29  O1  UNL     1      -2.611  -0.777  -2.298  1.00  0.00    -0.326 OA
HETATM   30  C1  UNL     1      -3.652  -1.085  -3.241  1.00  0.00     0.213 C 
ENDBRANCH  27  29
ENDBRANCH  14  27
BRANCH  15  31
HETATM   31  O6  UNL     1      -2.116  -2.344   1.412  1.00  0.00    -0.387 OA
ATOM     32  H6  UNL     1      -2.297  -2.596   2.310  1.00  0.00     0.210 HD
ENDBRANCH  15  31
BRANCH  16  33
HETATM   33  O5  UNL     1      -1.205   0.488   3.193  1.00  0.00    -0.392 OA
ATOM     34  H5  UNL     1      -2.005   0.246   3.645  1.00  0.00     0.210 HD
ENDBRANCH  16  33
ENDBRANCH   9  12
ENDBRANCH   6   8
ENDBRANCH   1   5
TORSDOF 9
