REMARK  9 active torsions:
REMARK  status: ('A' for Active; 'I' for Inactive)
REMARK    1  A    between atoms: O1_2  and  C2_3 
REMARK    2  A    between atoms: C3_4  and  O2_5 
REMARK    3  A    between atoms: C4_7  and  O3_8 
REMARK    4  A    between atoms: C6_12  and  O5_13 
REMARK    5  A    between atoms: C7_15  and  N1_16 
REMARK    6  A    between atoms: C7_15  and  C8_20 
REMARK       I    between atoms: C8_20  and  N2_22 
REMARK    7  A    between atoms: N2_22  and  O7_24 
REMARK    8  A    between atoms: O7_24  and  C9_25 
REMARK    9  A    between atoms: C15_31  and  O8_32 
ROOT
HETATM    1  C2  UNL     1      -3.569   0.285  -0.344  1.00  0.00     0.181 C 
HETATM    2  C3  UNL     1      -3.711   1.318   0.738  1.00  0.00     0.180 C 
HETATM    3  C4  UNL     1      -2.825   1.033   1.926  1.00  0.00     0.179 C 
HETATM    4  C5  UNL     1      -1.383   0.848   1.556  1.00  0.00     0.165 C 
HETATM    5  O4  UNL     1      -0.623   1.982   1.930  1.00  0.00    -0.350 OA
HETATM    6  C6  UNL     1       0.533   1.898   1.154  1.00  0.00     0.303 C 
HETATM    7  C7  UNL     1       0.100   1.290  -0.197  1.00  0.00     0.262 C 
HETATM    8  C14 UNL     1      -1.303   1.021   0.033  1.00  0.00     0.100 C 
HETATM    9  C15 UNL     1      -2.100   0.039  -0.702  1.00  0.00     0.162 C 
ENDROOT
BRANCH   7  10
HETATM   10  N1  UNL     1       0.214   2.432  -1.145  1.00  0.00    -0.056 N 
ATOM     11  H13 UNL     1      -0.308   3.264  -0.869  1.00  0.00     0.276 HD
ATOM     12  H12 UNL     1       1.130   2.881  -1.158  1.00  0.00     0.276 HD
ATOM     13  H11 UNL     1      -0.072   2.030  -2.038  1.00  0.00     0.276 HD
ENDBRANCH   7  10
BRANCH   7  14
HETATM   14  C8  UNL     1       1.075   0.297  -0.530  1.00  0.00     0.283 C 
HETATM   15  O6  UNL     1       1.719   0.457  -1.635  1.00  0.00    -0.268 OA
HETATM   16  N2  UNL     1       1.447  -0.854   0.193  1.00  0.00    -0.232 N 
ATOM     17  H2  UNL     1       0.968  -1.040   1.074  1.00  0.00     0.197 HD
BRANCH  16  18
HETATM   18  O7  UNL     1       2.401  -1.729  -0.209  1.00  0.00    -0.272 OA
BRANCH  18  19
HETATM   19  C9  UNL     1       3.614  -1.113   0.046  1.00  0.00     0.152 C 
HETATM   20  C10 UNL     1       4.360  -1.951   1.094  1.00  0.00     0.034 C 
HETATM   21  C11 UNL     1       5.717  -1.265   1.027  1.00  0.00     0.003 C 
HETATM   22  C12 UNL     1       5.901  -0.930  -0.436  1.00  0.00     0.003 C 
HETATM   23  C13 UNL     1       4.567  -1.212  -1.106  1.00  0.00     0.034 C 
ENDBRANCH  18  19
ENDBRANCH  16  18
ENDBRANCH   7  14
BRANCH   6  24
HETATM   24  O5  UNL     1       1.186   3.090   0.990  1.00  0.00    -0.368 OA
ATOM     25  H5  UNL     1       1.973   3.033   0.461  1.00  0.00     0.212 HD
ENDBRANCH   6  24
BRANCH   9  26
HETATM   26  O8  UNL     1      -1.776  -1.264  -0.700  1.00  0.00    -0.387 OA
HETATM   27  C16 UNL     1      -1.521  -1.961  -1.802  1.00  0.00     0.202 C 
ENDBRANCH   9  26
BRANCH   3  28
HETATM   28  O3  UNL     1      -3.308  -0.029   2.691  1.00  0.00    -0.390 OA
ATOM     29  H3  UNL     1      -2.750  -0.208   3.439  1.00  0.00     0.210 HD
ENDBRANCH   3  28
BRANCH   1  30
HETATM   30  O1  UNL     1      -4.356   0.611  -1.409  1.00  0.00    -0.385 OA
HETATM   31  C1  UNL     1      -5.460  -0.174  -1.615  1.00  0.00     0.202 C 
ENDBRANCH   1  30
BRANCH   2  32
HETATM   32  O2  UNL     1      -5.036   1.120   1.257  1.00  0.00    -0.390 OA
ATOM     33  H2  UNL     1      -5.126   1.773   1.941  1.00  0.00     0.210 HD
ENDBRANCH   2  32
TORSDOF 9
