REMARK  11 active torsions:
REMARK  status: ('A' for Active; 'I' for Inactive)
REMARK    1  A    between atoms: C2_2  and  C4_4 
REMARK    2  A    between atoms: C4_4  and  N1_5 
REMARK    3  A    between atoms: C4_4  and  C19_26 
REMARK       I    between atoms: N1_5  and  C5_7 
REMARK    4  A    between atoms: C5_7  and  C6_9 
REMARK    5  A    between atoms: C6_9  and  N2_10 
REMARK    6  A    between atoms: C6_9  and  C12_19 
REMARK       I    between atoms: N2_10  and  C7_12 
REMARK    7  A    between atoms: C7_12  and  O3_14 
REMARK    8  A    between atoms: O3_14  and  C8_15 
REMARK    9  A    between atoms: C19_26  and  C20_28 
REMARK   10  A    between atoms: C21_29  and  C22_30 
REMARK       I    between atoms: C22_30  and  N3_32 
REMARK   11  A    between atoms: N3_32  and  C23_34 
ROOT
HETATM    1  C4  UNL     1       0.618  -1.151   0.424  1.00  0.00     0.160 C 
ENDROOT
BRANCH   1   2
HETATM    2  C2  UNL     1       1.048  -1.491   1.840  1.00  0.00     0.007 C 
HETATM    3  C1  UNL     1       0.830  -2.927   2.208  1.00  0.00     0.012 C 
HETATM    4  C3  UNL     1       2.370  -0.965   2.248  1.00  0.00     0.012 C 
ENDBRANCH   1   2
BRANCH   1   5
HETATM    5  N1  UNL     1      -0.825  -1.413   0.286  1.00  0.00    -0.347 N 
HETATM    6  C5  UNL     1      -1.711  -0.354   0.022  1.00  0.00     0.242 C 
HETATM    7  O1  UNL     1      -1.134   0.802  -0.089  1.00  0.00    -0.271 OA
ATOM      8  H1  UNL     1      -1.182  -2.364   0.382  1.00  0.00     0.163 HD
BRANCH   6   9
HETATM    9  C6  UNL     1      -3.171  -0.413  -0.143  1.00  0.00     0.187 C 
BRANCH   9  10
HETATM   10  N2  UNL     1      -3.610   0.923  -0.591  1.00  0.00    -0.323 N 
HETATM   11  C7  UNL     1      -4.283   1.135  -1.798  1.00  0.00     0.362 C 
HETATM   12  O2  UNL     1      -4.584   0.221  -2.621  1.00  0.00    -0.238 OA
ATOM     13  H2  UNL     1      -3.414   1.727   0.006  1.00  0.00     0.165 HD
BRANCH  11  14
HETATM   14  O3  UNL     1      -4.661   2.421  -2.145  1.00  0.00    -0.294 OA
BRANCH  14  15
HETATM   15  C8  UNL     1      -5.339   2.726  -3.333  1.00  0.00     0.061 C 
HETATM   16  C9  UNL     1      -4.597   2.357  -4.577  1.00  0.00     0.046 C 
HETATM   17  C10 UNL     1      -6.713   2.085  -3.387  1.00  0.00     0.046 C 
HETATM   18  C11 UNL     1      -5.576   4.243  -3.317  1.00  0.00     0.046 C 
ENDBRANCH  14  15
ENDBRANCH  11  14
ENDBRANCH   9  10
BRANCH   9  19
HETATM   19  C12 UNL     1      -3.861  -0.734   1.179  1.00  0.00    -0.015 C 
HETATM   20  C13 UNL     1      -3.358  -2.090   1.617  1.00  0.00     0.018 C 
HETATM   21  C14 UNL     1      -3.385   0.251   2.186  1.00  0.00     0.012 C 
HETATM   22  C15 UNL     1      -4.432   1.017   2.935  1.00  0.00     0.001 C 
HETATM   23  C16 UNL     1      -5.575   0.104   3.326  1.00  0.00     0.000 C 
HETATM   24  C17 UNL     1      -6.224  -0.266   2.018  1.00  0.00     0.001 C 
HETATM   25  C18 UNL     1      -5.338  -0.868   1.009  1.00  0.00     0.012 C 
ENDBRANCH   9  19
ENDBRANCH   6   9
ENDBRANCH   1   5
BRANCH   1  26
HETATM   26  C19 UNL     1       1.370  -1.881  -0.613  1.00  0.00     0.175 C 
HETATM   27  O4  UNL     1       0.733  -2.673  -1.325  1.00  0.00    -0.293 OA
BRANCH  26  28
HETATM   28  C20 UNL     1       2.801  -1.728  -0.853  1.00  0.00     0.192 C 
HETATM   29  C21 UNL     1       3.109  -0.471  -1.671  1.00  0.00     0.208 C 
HETATM   30  N4  UNL     1       2.796  -0.876  -3.040  1.00  0.00    -0.327 N 
HETATM   31  C29 UNL     1       3.114  -2.255  -3.125  1.00  0.00     0.319 C 
ATOM     32  H4  UNL     1       2.424  -0.286  -3.784  1.00  0.00     0.165 HD
HETATM   33  O6  UNL     1       3.245  -2.865  -4.202  1.00  0.00    -0.247 OA
HETATM   34  N5  UNL     1       3.241  -2.747  -1.821  1.00  0.00    -0.324 N 
HETATM   35  C30 UNL     1       3.727  -4.056  -1.442  1.00  0.00     0.155 C 
BRANCH  29  36
HETATM   36  C22 UNL     1       4.558  -0.181  -1.636  1.00  0.00     0.243 C 
HETATM   37  O5  UNL     1       5.294  -0.363  -2.650  1.00  0.00    -0.271 OA
HETATM   38  N3  UNL     1       5.226   0.319  -0.484  1.00  0.00    -0.355 N 
ATOM     39  H3  UNL     1       4.672   0.483   0.357  1.00  0.00     0.162 HD
BRANCH  38  40
HETATM   40  C23 UNL     1       6.630   0.607  -0.432  1.00  0.00     0.084 C 
HETATM   41  C24 UNL     1       7.368  -0.055   0.686  1.00  0.00     0.025 C 
HETATM   42  C25 UNL     1       6.850   0.467   2.011  1.00  0.00     0.002 C 
HETATM   43  C26 UNL     1       7.158   1.946   2.068  1.00  0.00     0.000 C 
HETATM   44  C27 UNL     1       6.471   2.706   0.948  1.00  0.00     0.002 C 
HETATM   45  C28 UNL     1       6.815   2.119  -0.405  1.00  0.00     0.025 C 
ENDBRANCH  38  40
ENDBRANCH  29  36
ENDBRANCH  26  28
ENDBRANCH   1  26
TORSDOF 11
