REMARK  5 active torsions:
REMARK  status: ('A' for Active; 'I' for Inactive)
REMARK    1  A    between atoms: C2_2  and  C4_4 
REMARK    2  A    between atoms: C4_4  and  O1_5 
REMARK    3  A    between atoms: C4_4  and  N1_7 
REMARK    4  A    between atoms: N1_7  and  C5_9 
REMARK    5  A    between atoms: C5_9  and  C7_12 
ROOT
HETATM    1  C5  UNL     1       0.225   0.480  -1.105  1.00  0.00     0.100 C 
HETATM    2  C6  UNL     1       0.479   0.102  -2.511  1.00  0.00     0.114 C 
HETATM    3  N2  UNL     1       0.696  -0.176  -3.626  1.00  0.00    -0.190 NA
ENDROOT
BRANCH   1   4
HETATM    4  N1  UNL     1       1.385   0.630  -0.354  1.00  0.00    -0.358 N 
ATOM      5  H1  UNL     1       1.564   1.540   0.070  1.00  0.00     0.162 HD
BRANCH   4   6
HETATM    6  C4  UNL     1       2.321  -0.383  -0.142  1.00  0.00     0.221 C 
BRANCH   6   7
HETATM    7  C2  UNL     1       3.655   0.325   0.214  1.00  0.00     0.026 C 
HETATM    8  C1  UNL     1       3.444   1.208   1.426  1.00  0.00     0.014 C 
HETATM    9  C3  UNL     1       4.161   1.164  -0.928  1.00  0.00     0.014 C 
ENDBRANCH   6   7
BRANCH   6  10
HETATM   10  O1  UNL     1       2.646  -1.167  -1.268  1.00  0.00    -0.377 OA
ATOM     11  H1  UNL     1       1.829  -1.600  -1.486  1.00  0.00     0.212 HD
ENDBRANCH   6  10
ENDBRANCH   4   6
ENDBRANCH   1   4
BRANCH   1  12
HETATM   12  C7  UNL     1      -0.940  -0.176  -0.512  1.00  0.00     0.044 C 
HETATM   13  C8  UNL     1      -0.875  -1.566  -0.033  1.00  0.00     0.020 C 
HETATM   14  C9  UNL     1      -2.103  -1.689   0.894  1.00  0.00     0.020 C 
HETATM   15  C10 UNL     1      -2.672  -0.318   0.945  1.00  0.00     0.039 C 
HETATM   16  C11 UNL     1      -3.453   0.031   2.137  1.00  0.00     0.025 C 
HETATM   17  C12 UNL     1      -3.313   0.025  -0.355  1.00  0.00     0.142 C 
HETATM   18  C15 UNL     1      -1.411   0.544   0.772  1.00  0.00     0.062 C 
HETATM   19  O2  UNL     1      -4.487   0.282  -0.476  1.00  0.00    -0.297 OA
HETATM   20  C13 UNL     1      -2.205  -0.038  -1.347  1.00  0.00     0.069 C 
HETATM   21  C14 UNL     1      -2.494  -1.195  -2.240  1.00  0.00     0.019 C 
HETATM   22  C16 UNL     1      -0.481   0.401   1.916  1.00  0.00     0.035 C 
HETATM   23 CL1  UNL     1      -1.784   2.200   0.338  1.00  0.00    -0.117 Cl
ENDBRANCH   1  12
TORSDOF 5
