REMARK  5 active torsions:
REMARK  status: ('A' for Active; 'I' for Inactive)
REMARK    1  A    between atoms: C2_2  and  C3_3 
REMARK    2  A    between atoms: C3_3  and  C5_5 
REMARK    3  A    between atoms: C3_3  and  C10_10 
REMARK    4  A    between atoms: C5_5  and  C6_6 
REMARK    5  A    between atoms: C12_14  and  N2_15 
ROOT
HETATM    1  C10 UNL     1      -0.289  -0.796  -0.213  1.00  0.00     0.010 A 
HETATM    2  C11 UNL     1       0.510  -0.441  -1.285  1.00  0.00     0.117 A 
HETATM    3  N1  UNL     1       1.808  -0.099  -1.193  1.00  0.00    -0.201 N 
ATOM      4  H1  UNL     1       2.336   0.153  -2.029  1.00  0.00     0.183 HD
HETATM    5  C12 UNL     1       2.394  -0.093  -0.001  1.00  0.00     0.681 A 
HETATM    6  N3  UNL     1       1.702  -0.421   1.073  1.00  0.00    -0.176 N 
ATOM      7  H3  UNL     1       2.163  -0.414   1.983  1.00  0.00     0.186 HD
HETATM    8  C17 UNL     1       0.379  -0.771   0.997  1.00  0.00     0.123 A 
HETATM    9  N4  UNL     1      -0.207  -1.087   2.068  1.00  0.00    -0.385 N 
ATOM     10  H41 UNL     1       0.286  -1.069   2.961  1.00  0.00     0.157 HD
ATOM     11  H42 UNL     1      -1.192  -1.347   2.011  1.00  0.00     0.157 HD
ENDROOT
BRANCH   1  12
HETATM   12  C3  UNL     1      -1.714  -1.152  -0.358  1.00  0.00    -0.011 C 
HETATM   13  C4  UNL     1      -1.806  -2.662  -0.040  1.00  0.00     0.020 C 
BRANCH  12  14
HETATM   14  C2  UNL     1      -2.036  -1.099  -1.838  1.00  0.00     0.010 C 
HETATM   15  C1  UNL     1      -3.363  -1.631  -2.230  1.00  0.00     0.006 C 
ENDBRANCH  12  14
BRANCH  12  16
HETATM   16  C5  UNL     1      -2.694  -0.501   0.499  1.00  0.00     0.022 C 
BRANCH  16  17
HETATM   17  C6  UNL     1      -3.044   0.925   0.401  1.00  0.00    -0.050 C 
HETATM   18  C7  UNL     1      -1.950   1.923   0.592  1.00  0.00     0.014 C 
HETATM   19  C8  UNL     1      -3.954   1.162   1.648  1.00  0.00     0.014 C 
HETATM   20  C9  UNL     1      -3.947   1.327  -0.728  1.00  0.00     0.014 C 
ENDBRANCH  16  17
ENDBRANCH  12  16
ENDBRANCH   1  12
BRANCH   5  21
HETATM   21  N2  UNL     1       3.771   0.276   0.084  1.00  0.00    -0.214 N 
HETATM   22  C13 UNL     1       4.144   1.605   0.471  1.00  0.00     0.167 C 
HETATM   23  C14 UNL     1       5.468   2.065  -0.038  1.00  0.00     0.188 C 
HETATM   24  O1  UNL     1       6.373   1.081  -0.320  1.00  0.00    -0.388 OA
HETATM   25  C15 UNL     1       6.112  -0.160   0.213  1.00  0.00     0.188 C 
HETATM   26  C16 UNL     1       4.775  -0.701  -0.227  1.00  0.00     0.167 C 
ENDBRANCH   5  21
TORSDOF 5
