REMARK  7 active torsions:
REMARK  status: ('A' for Active; 'I' for Inactive)
REMARK    1  A    between atoms: C6_6  and  O1_8 
REMARK    2  A    between atoms: C8_10  and  C9_11 
REMARK    3  A    between atoms: C9_11  and  O3_13 
REMARK    4  A    between atoms: O3_13  and  C10_14 
REMARK    5  A    between atoms: C10_14  and  C11_15 
REMARK    6  A    between atoms: C12_17  and  C14_19 
REMARK    7  A    between atoms: C14_19  and  O4_20 
ROOT
HETATM    1  C1  UNL     1      -4.290   2.208   0.714  1.00  0.00     0.043 C 
HETATM    2  C2  UNL     1      -3.269   1.513  -0.208  1.00  0.00    -0.087 C 
HETATM    3  C3  UNL     1      -2.502   2.297  -0.913  1.00  0.00    -0.024 C 
HETATM    4  C4  UNL     1      -1.406   2.007  -1.903  1.00  0.00     0.030 C 
HETATM    5  C5  UNL     1      -0.671   0.921  -1.290  1.00  0.00     0.042 C 
HETATM    6  C6  UNL     1       0.681   0.409  -1.465  1.00  0.00     0.068 C 
HETATM    7  C7  UNL     1       1.667   1.473  -1.036  1.00  0.00     0.047 C 
HETATM    8  C8  UNL     1       0.749  -0.876  -0.703  1.00  0.00     0.129 C 
HETATM    9  C12 UNL     1      -0.068  -1.275   0.435  1.00  0.00    -0.007 C 
HETATM   10  C13 UNL     1       0.587  -2.691   0.729  1.00  0.00     0.018 C 
HETATM   11  C15 UNL     1      -1.505  -1.567   0.391  1.00  0.00     0.012 C 
HETATM   12  C16 UNL     1      -2.526  -0.615   0.986  1.00  0.00     0.005 C 
HETATM   13  C17 UNL     1      -3.390   0.044  -0.106  1.00  0.00     0.033 C 
ENDROOT
BRANCH   8  14
HETATM   14  C9  UNL     1       2.188  -1.078  -0.329  1.00  0.00     0.266 C 
HETATM   15  O2  UNL     1       2.844  -2.074  -0.794  1.00  0.00    -0.265 OA
BRANCH  14  16
HETATM   16  O3  UNL     1       2.891  -0.265   0.495  1.00  0.00    -0.319 OA
BRANCH  16  17
HETATM   17  C10 UNL     1       4.179  -0.247   0.957  1.00  0.00     0.210 C 
BRANCH  17  18
HETATM   18  C11 UNL     1       5.308  -0.050   0.023  1.00  0.00     0.248 C 
HETATM   19  F1  UNL     1       5.384  -1.021  -0.913  1.00  0.00    -0.253 F 
ENDBRANCH  17  18
ENDBRANCH  16  17
ENDBRANCH  14  16
ENDBRANCH   8  14
BRANCH   6  20
HETATM   20  O1  UNL     1       0.910   0.252  -2.839  1.00  0.00    -0.389 OA
ATOM     21  H1  UNL     1       1.792  -0.082  -2.953  1.00  0.00     0.210 HD
ENDBRANCH   6  20
BRANCH   9  22
HETATM   22  C14 UNL     1       0.262  -0.648   1.776  1.00  0.00     0.174 C 
BRANCH  22  23
HETATM   23  O4  UNL     1      -0.627  -1.171   2.750  1.00  0.00    -0.400 OA
ATOM     24  H4  UNL     1      -0.420  -0.778   3.590  1.00  0.00     0.209 HD
ENDBRANCH  22  23
ENDBRANCH   9  22
TORSDOF 7
