REMARK  11 active torsions:
REMARK  status: ('A' for Active; 'I' for Inactive)
REMARK    1  A    between atoms: C2_2  and  O1_3 
REMARK    2  A    between atoms: O1_3  and  C3_4 
REMARK    3  A    between atoms: C3_4  and  C4_6 
REMARK    4  A    between atoms: C4_6  and  O3_7 
REMARK    5  A    between atoms: N1_12  and  C8_13 
REMARK    6  A    between atoms: C15_29  and  C16_30 
REMARK    7  A    between atoms: N6_32  and  N7_34 
REMARK    8  A    between atoms: N8_36  and  N9_38 
REMARK    9  A    between atoms: N9_38  and  C18_40 
REMARK   10  A    between atoms: C18_40  and  N10_41 
REMARK   11  A    between atoms: C19_44  and  O4_45 
ROOT
HETATM    1  C8  UNL     1      -1.358  -0.522  -0.560  1.00  0.00     0.120 A 
HETATM    2  N2  UNL     1      -1.828  -0.689  -1.845  1.00  0.00    -0.327 N 
ATOM      3  H2  UNL     1      -2.034   0.140  -2.402  1.00  0.00     0.169 HD
HETATM    4  C9  UNL     1      -2.026  -1.896  -2.393  1.00  0.00     0.134 A 
HETATM    5  N3  UNL     1      -2.484  -2.059  -3.649  1.00  0.00    -0.176 N 
ATOM      6  H3  UNL     1      -2.688  -1.227  -4.203  1.00  0.00     0.186 HD
HETATM    7  C10 UNL     1      -2.685  -3.264  -4.207  1.00  0.00     0.677 A 
HETATM    8  N4  UNL     1      -3.125  -3.339  -5.409  1.00  0.00    -0.234 N 
ATOM      9  H41 UNL     1      -3.278  -4.254  -5.833  1.00  0.00     0.174 HD
ATOM     10  H42 UNL     1      -3.317  -2.482  -5.928  1.00  0.00     0.174 HD
HETATM   11  N5  UNL     1      -2.431  -4.398  -3.521  1.00  0.00    -0.195 N 
ATOM     12  H5  UNL     1      -2.585  -5.311  -3.949  1.00  0.00     0.184 HD
HETATM   13  C11 UNL     1      -1.970  -4.299  -2.260  1.00  0.00     0.036 A 
HETATM   14  C12 UNL     1      -1.676  -5.523  -1.464  1.00  0.00     0.070 C 
HETATM   15  C13 UNL     1      -1.760  -3.042  -1.677  1.00  0.00     0.032 A 
HETATM   16  C14 UNL     1      -1.296  -2.916  -0.402  1.00  0.00     0.034 A 
HETATM   17  C15 UNL     1      -1.095  -1.623   0.159  1.00  0.00     0.033 A 
ENDROOT
BRANCH  17  18
HETATM   18  C16 UNL     1      -0.685  -1.659   1.538  1.00  0.00     0.037 C 
HETATM   19  C17 UNL     1      -0.367  -2.961   2.229  1.00  0.00     0.070 C 
HETATM   20  N6  UNL     1      -0.568  -0.630   2.254  1.00  0.00    -0.289 N 
ATOM     21  H6  UNL     1      -0.786   0.253   1.792  1.00  0.00     0.188 HD
BRANCH  20  22
HETATM   22  N7  UNL     1      -0.193  -0.532   3.552  1.00  0.00    -0.228 N 
HETATM   23  N8  UNL     1       0.908  -0.565   4.101  1.00  0.00    -0.231 N 
ATOM     24  H8  UNL     1       0.888  -0.463   5.116  1.00  0.00     0.209 HD
ATOM     25  H7  UNL     1      -0.972  -0.407   4.198  1.00  0.00     0.210 HD
BRANCH  23  26
HETATM   26  N9  UNL     1       2.162  -0.719   3.554  1.00  0.00    -0.301 N 
ATOM     27  H9  UNL     1       2.278  -1.395   2.799  1.00  0.00     0.183 HD
BRANCH  26  28
HETATM   28  C18 UNL     1       3.328   0.027   3.991  1.00  0.00     0.294 C 
BRANCH  28  29
HETATM   29  N10 UNL     1       3.187   1.453   3.777  1.00  0.00    -0.220 N 
HETATM   30  N11 UNL     1       3.580   2.037   2.631  1.00  0.00    -0.257 N 
HETATM   31  C19 UNL     1       3.331   3.345   2.724  1.00  0.00     0.240 A 
ATOM     32  H11 UNL     1       3.996   1.563   1.830  1.00  0.00     0.191 HD
HETATM   33  N12 UNL     1       2.792   3.548   3.916  1.00  0.00    -0.272 N 
HETATM   34  C20 UNL     1       2.689   2.399   4.593  1.00  0.00     0.345 A 
ATOM     35  H12 UNL     1       2.495   4.457   4.270  1.00  0.00     0.174 HD
HETATM   36  O5  UNL     1       2.223   2.202   5.762  1.00  0.00    -0.245 OA
BRANCH  31  37
HETATM   37  O4  UNL     1       3.607   4.270   1.723  1.00  0.00    -0.331 OA
ATOM     38  H4  UNL     1       3.430   5.201   1.789  1.00  0.00     0.221 HD
ENDBRANCH  31  37
ENDBRANCH  28  29
ENDBRANCH  26  28
ENDBRANCH  23  26
ENDBRANCH  20  22
ENDBRANCH  17  18
BRANCH   1  39
HETATM   39  N1  UNL     1      -1.113   0.810  -0.121  1.00  0.00    -0.326 N 
HETATM   40  C4  UNL     1       0.059   1.610  -0.234  1.00  0.00     0.225 C 
HETATM   41  C5  UNL     1      -0.009   2.636   0.852  1.00  0.00     0.074 C 
HETATM   42  C6  UNL     1      -1.481   2.838   1.072  1.00  0.00     0.025 C 
HETATM   43  C7  UNL     1      -2.146   1.617   0.494  1.00  0.00     0.128 C 
BRANCH  40  44
HETATM   44  C3  UNL     1       0.049   2.371  -1.553  1.00  0.00     0.315 C 
HETATM   45  O2  UNL     1      -0.949   3.055  -1.873  1.00  0.00    -0.260 OA
BRANCH  44  46
HETATM   46  O1  UNL     1       1.114   2.341  -2.433  1.00  0.00    -0.318 OA
BRANCH  46  47
HETATM   47  C2  UNL     1       1.105   3.048  -3.658  1.00  0.00     0.174 C 
HETATM   48  C1  UNL     1       0.007   2.642  -4.584  1.00  0.00     0.034 C 
ENDBRANCH  46  47
ENDBRANCH  44  46
ENDBRANCH  40  44
BRANCH  40  49
HETATM   49  O3  UNL     1       1.271   0.935  -0.127  1.00  0.00    -0.362 OA
ATOM     50  H3  UNL     1       1.277   0.460   0.696  1.00  0.00     0.213 HD
ENDBRANCH  40  49
ENDBRANCH   1  39
TORSDOF 11
