REMARK  13 active torsions:
REMARK  status: ('A' for Active; 'I' for Inactive)
REMARK    1  A    between atoms: C2_2  and  O1_3 
REMARK    2  A    between atoms: O1_3  and  C3_4 
REMARK    3  A    between atoms: C3_4  and  C4_6 
REMARK    4  A    between atoms: C4_6  and  N1_7 
REMARK    5  A    between atoms: C5_12  and  C6_13 
REMARK    6  A    between atoms: C6_13  and  N4_14 
REMARK    7  A    between atoms: C6_13  and  C7_18 
REMARK    8  A    between atoms: N4_14  and  N5_15 
REMARK    9  A    between atoms: C8_20  and  N6_21 
REMARK   10  A    between atoms: C9_26  and  N8_27 
REMARK   11  A    between atoms: C10_29  and  C11_30 
REMARK   12  A    between atoms: C14_33  and  C15_34 
REMARK       I    between atoms: N9_35  and  C16_37 
REMARK   13  A    between atoms: C18_41  and  N11_42 
ROOT
HETATM    1  C15 UNL     1      -6.718  -2.190  -0.100  1.00  0.00     0.107 C 
HETATM    2  N9  UNL     1      -7.188  -2.757  -1.096  1.00  0.00    -0.324 N 
ATOM      3  H9  UNL     1      -8.200  -2.841  -0.998  1.00  0.00     0.169 HD
HETATM    4  C16 UNL     1      -6.796  -3.304  -2.278  1.00  0.00     0.326 C 
HETATM    5  O3  UNL     1      -6.371  -4.490  -2.450  1.00  0.00    -0.256 OA
HETATM    6  C17 UNL     1      -6.837  -2.525  -3.509  1.00  0.00     0.162 C 
HETATM    7  N10 UNL     1      -6.875  -1.901  -4.489  1.00  0.00    -0.186 NA
ENDROOT
BRANCH   1   8
HETATM    8  C14 UNL     1      -5.337  -1.852   0.207  1.00  0.00     0.023 A 
HETATM    9  C13 UNL     1      -4.257  -2.105  -0.585  1.00  0.00     0.019 A 
HETATM   10  C12 UNL     1      -2.969  -1.758  -0.237  1.00  0.00     0.032 A 
HETATM   11  C11 UNL     1      -2.721  -1.131   0.944  1.00  0.00     0.049 A 
HETATM   12  N12 UNL     1      -3.782  -0.869   1.749  1.00  0.00    -0.341 N 
HETATM   13  C18 UNL     1      -5.040  -1.203   1.419  1.00  0.00     0.111 A 
ATOM     14  H12 UNL     1      -3.617  -0.400   2.640  1.00  0.00     0.167 HD
BRANCH  11  15
HETATM   15  C10 UNL     1      -1.408  -0.743   1.384  1.00  0.00     0.119 C 
HETATM   16  N8  UNL     1      -0.276  -0.849   0.913  1.00  0.00    -0.349 N 
ATOM     17  H8  UNL     1       0.433  -0.445   1.525  1.00  0.00     0.167 HD
BRANCH  16  18
HETATM   18  C9  UNL     1       0.288  -1.395  -0.273  1.00  0.00     0.122 A 
HETATM   19  C7  UNL     1       0.498  -0.570  -1.374  1.00  0.00     0.057 A 
HETATM   20  S1  UNL     1       1.182  -1.630  -2.502  1.00  0.00    -0.053 SA
HETATM   21  C8  UNL     1       1.179  -3.054  -1.560  1.00  0.00     0.144 A 
HETATM   22  N7  UNL     1       0.650  -2.646  -0.418  1.00  0.00    -0.322 N 
ATOM     23  H7  UNL     1       0.524  -3.305   0.350  1.00  0.00     0.169 HD
BRANCH  19  24
HETATM   24  C6  UNL     1       0.180   0.892  -1.513  1.00  0.00     0.195 C 
BRANCH  24  25
HETATM   25  C5  UNL     1       1.028   1.755  -0.673  1.00  0.00     0.077 A 
HETATM   26  N3  UNL     1       0.594   2.417   0.446  1.00  0.00    -0.286 N 
HETATM   27  N2  UNL     1       1.605   3.087   0.944  1.00  0.00    -0.240 N 
ATOM     28  H3  UNL     1      -0.352   2.393   0.826  1.00  0.00     0.188 HD
HETATM   29  N1  UNL     1       2.692   2.926   0.244  1.00  0.00    -0.271 N 
ATOM     30  H2  UNL     1       1.547   3.666   1.781  1.00  0.00     0.208 HD
HETATM   31  C19 UNL     1       2.353   2.088  -0.783  1.00  0.00     0.052 A 
HETATM   32  C20 UNL     1       3.271   1.629  -1.828  1.00  0.00     0.072 C 
BRANCH  29  33
HETATM   33  C4  UNL     1       4.017   3.474   0.428  1.00  0.00     0.261 C 
BRANCH  33  34
HETATM   34  C3  UNL     1       4.886   2.629   1.256  1.00  0.00     0.278 C 
HETATM   35  O2  UNL     1       6.063   3.022   1.459  1.00  0.00    -0.263 OA
BRANCH  34  36
HETATM   36  O1  UNL     1       4.500   1.428   1.829  1.00  0.00    -0.321 OA
BRANCH  36  37
HETATM   37  C2  UNL     1       5.431   0.700   2.607  1.00  0.00     0.174 C 
HETATM   38  C1  UNL     1       5.880   1.536   3.761  1.00  0.00     0.034 C 
ENDBRANCH  36  37
ENDBRANCH  34  36
ENDBRANCH  33  34
ENDBRANCH  29  33
ENDBRANCH  24  25
BRANCH  24  39
HETATM   39  N4  UNL     1       0.090   1.275  -2.888  1.00  0.00    -0.132 NA
BRANCH  39  40
HETATM   40  N5  UNL     1      -0.425   2.555  -2.981  1.00  0.00    -0.347 N 
ATOM     41  H52 UNL     1      -0.695   3.127  -2.181  1.00  0.00     0.172 HD
ATOM     42  H51 UNL     1      -0.489   2.828  -3.962  1.00  0.00     0.172 HD
ENDBRANCH  39  40
ENDBRANCH  24  39
ENDBRANCH  19  24
BRANCH  21  43
HETATM   43  N6  UNL     1       1.600  -4.254  -1.897  1.00  0.00    -0.380 N 
ATOM     44  H62 UNL     1       2.008  -4.569  -2.777  1.00  0.00     0.158 HD
ATOM     45  H61 UNL     1       1.598  -5.105  -1.334  1.00  0.00     0.158 HD
ENDBRANCH  21  43
ENDBRANCH  16  18
ENDBRANCH  11  15
BRANCH  13  46
HETATM   46  N11 UNL     1      -6.025  -0.940   2.211  1.00  0.00    -0.385 N 
ATOM     47 2H11 UNL     1      -6.981  -1.194   1.960  1.00  0.00     0.157 HD
ATOM     48 1H11 UNL     1      -5.810  -0.469   3.090  1.00  0.00     0.157 HD
ENDBRANCH  13  46
ENDBRANCH   1   8
TORSDOF 13
