REMARK  13 active torsions:
REMARK  status: ('A' for Active; 'I' for Inactive)
REMARK    1  A    between atoms: C3_4  and  C4_5 
REMARK    2  A    between atoms: C5_6  and  C6_7 
REMARK    3  A    between atoms: C6_7  and  C7_12 
REMARK    4  A    between atoms: N2_8  and  O1_10 
REMARK    5  A    between atoms: C8_15  and  C9_16 
REMARK    6  A    between atoms: C11_20  and  N5_21 
REMARK    7  A    between atoms: C16_33  and  N8_34 
REMARK    8  A    between atoms: C17_39  and  N10_40 
REMARK    9  A    between atoms: N10_40  and  C18_42 
REMARK   10  A    between atoms: C18_42  and  C19_43 
REMARK   11  A    between atoms: C19_43  and  O5_44 
REMARK   12  A    between atoms: C19_43  and  C20_46 
REMARK   13  A    between atoms: C20_46  and  O6_47 
ROOT
HETATM    1  C4  UNL     1      -2.625  -0.685   1.252  1.00  0.00     0.068 A 
HETATM    2  C5  UNL     1      -1.679  -0.680   2.221  1.00  0.00     0.098 A 
HETATM    3  N7  UNL     1      -2.127  -0.355   3.495  1.00  0.00    -0.189 N 
ATOM      4  H7  UNL     1      -1.448  -0.346   4.256  1.00  0.00     0.184 HD
HETATM    5  C16 UNL     1      -3.392  -0.054   3.780  1.00  0.00     0.678 A 
HETATM    6  N9  UNL     1      -4.325  -0.050   2.816  1.00  0.00    -0.176 N 
ATOM      7  H9  UNL     1      -5.294   0.184   3.032  1.00  0.00     0.186 HD
HETATM    8  C17 UNL     1      -3.962  -0.359   1.566  1.00  0.00     0.132 A 
ENDROOT
BRANCH   2   9
HETATM    9  C6  UNL     1      -0.257  -0.670   1.979  1.00  0.00     0.135 C 
HETATM   10  N2  UNL     1       0.589  -1.074   2.841  1.00  0.00    -0.263 N 
ATOM     11  H2  UNL     1       1.569  -1.020   2.565  1.00  0.00     0.194 HD
BRANCH  10  12
HETATM   12  O1  UNL     1       0.353  -1.556   4.053  1.00  0.00    -0.289 OA
ATOM     13  H1  UNL     1       0.984  -1.857   4.696  1.00  0.00     0.244 HD
ENDBRANCH  10  12
BRANCH   9  14
HETATM   14  C7  UNL     1       0.391  -0.020   0.820  1.00  0.00     0.203 A 
HETATM   15  N3  UNL     1       1.704  -0.043   0.482  1.00  0.00    -0.316 N 
HETATM   16  C8  UNL     1       1.905   0.680  -0.631  1.00  0.00     0.163 A 
ATOM     17  H3  UNL     1       2.432  -0.537   0.998  1.00  0.00     0.169 HD
HETATM   18  N6  UNL     1       0.688   1.144  -0.964  1.00  0.00    -0.240 N 
HETATM   19  O4  UNL     1      -0.187   0.706  -0.076  1.00  0.00    -0.215 OA
ATOM     20  H6  UNL     1       0.476   1.735  -1.768  1.00  0.00     0.196 HD
BRANCH  16  21
HETATM   21  C9  UNL     1       3.160   0.920  -1.338  1.00  0.00     0.140 A 
HETATM   22  C10 UNL     1       3.382   1.657  -2.476  1.00  0.00     0.133 A 
HETATM   23  N4  UNL     1       4.678   1.587  -2.743  1.00  0.00    -0.329 N 
HETATM   24  C11 UNL     1       5.265   0.826  -1.799  1.00  0.00     0.227 A 
ATOM     25  H4  UNL     1       5.151   2.033  -3.529  1.00  0.00     0.168 HD
HETATM   26  O3  UNL     1       4.324   0.437  -0.965  1.00  0.00    -0.274 OA
BRANCH  24  27
HETATM   27  N5  UNL     1       6.648   0.537  -1.773  1.00  0.00    -0.343 N 
HETATM   28  C12 UNL     1       7.514   1.066  -2.787  1.00  0.00     0.152 C 
HETATM   29  C13 UNL     1       8.926   1.126  -2.241  1.00  0.00     0.187 C 
HETATM   30  O2  UNL     1       9.269  -0.185  -1.918  1.00  0.00    -0.388 OA
HETATM   31  C14 UNL     1       8.617  -0.585  -0.780  1.00  0.00     0.187 C 
HETATM   32  C15 UNL     1       7.161  -0.288  -0.719  1.00  0.00     0.152 C 
ENDBRANCH  24  27
ENDBRANCH  16  21
ENDBRANCH   9  14
ENDBRANCH   2   9
BRANCH   1  33
HETATM   33  C3  UNL     1      -2.379  -1.309  -0.065  1.00  0.00     0.081 A 
HETATM   34  C2  UNL     1      -2.960  -1.259  -1.315  1.00  0.00     0.141 A 
HETATM   35  N1  UNL     1      -2.045  -2.126  -1.825  1.00  0.00    -0.305 N 
HETATM   36  C1  UNL     1      -1.862  -2.687  -3.148  1.00  0.00     0.177 C 
HETATM   37  N11 UNL     1      -1.504  -2.159  -0.621  1.00  0.00    -0.297 N 
ATOM     38  H11 UNL     1      -0.699  -2.659  -0.244  1.00  0.00     0.187 HD
ENDBRANCH   1  33
BRANCH   8  39
HETATM   39  N10 UNL     1      -4.759  -0.387   0.570  1.00  0.00    -0.372 N 
ATOM     40  H10 UNL     1      -4.386  -0.634  -0.346  1.00  0.00     0.161 HD
BRANCH  39  41
HETATM   41  C18 UNL     1      -6.147  -0.088   0.682  1.00  0.00     0.155 C 
BRANCH  41  42
HETATM   42  C19 UNL     1      -6.411   1.337   0.208  1.00  0.00     0.159 C 
BRANCH  42  43
HETATM   43  O5  UNL     1      -5.664   2.187   1.015  1.00  0.00    -0.392 OA
ATOM     44  H5  UNL     1      -5.828   3.075   0.720  1.00  0.00     0.210 HD
ENDBRANCH  42  43
BRANCH  42  45
HETATM   45  C20 UNL     1      -7.884   1.650   0.384  1.00  0.00     0.197 C 
BRANCH  45  46
HETATM   46  O6  UNL     1      -8.641   0.795  -0.428  1.00  0.00    -0.398 OA
ATOM     47  H6  UNL     1      -9.564   0.991  -0.318  1.00  0.00     0.209 HD
ENDBRANCH  45  46
ENDBRANCH  42  45
ENDBRANCH  41  42
ENDBRANCH  39  41
ENDBRANCH   8  39
BRANCH   5  48
HETATM   48  N8  UNL     1      -3.781   0.245   4.983  1.00  0.00    -0.234 N 
ATOM     49  H82 UNL     1      -3.072   0.242   5.716  1.00  0.00     0.174 HD
ATOM     50  H81 UNL     1      -4.750   0.476   5.201  1.00  0.00     0.174 HD
ENDBRANCH   5  48
TORSDOF 13
