REMARK  11 active torsions:
REMARK  status: ('A' for Active; 'I' for Inactive)
REMARK    1  A    between atoms: C2_2  and  O1_3 
REMARK    2  A    between atoms: O1_3  and  C3_4 
REMARK    3  A    between atoms: C3_4  and  C4_6 
REMARK    4  A    between atoms: C6_8  and  C7_9 
REMARK    5  A    between atoms: C7_9  and  O3_10 
REMARK    6  A    between atoms: C7_9  and  C8_12 
REMARK    7  A    between atoms: C8_12  and  C10_14 
REMARK    8  A    between atoms: C12_23  and  N5_24 
REMARK    9  A    between atoms: N7_30  and  N8_32 
REMARK   10  A    between atoms: N11_37  and  N12_38 
REMARK       I    between atoms: N12_38  and  C15_40 
REMARK   11  A    between atoms: C19_45  and  O5_46 
ROOT
HETATM    1  C10 UNL     1       1.504  -0.098   0.464  1.00  0.00     0.144 A 
HETATM    2  N1  UNL     1       2.219   0.768   1.085  1.00  0.00    -0.271 N 
ATOM      3  H1  UNL     1       1.747   1.547   1.544  1.00  0.00     0.190 HD
HETATM    4  N2  UNL     1       3.638   0.694   1.164  1.00  0.00    -0.205 N 
ATOM      5  H2  UNL     1       4.145   1.417   1.674  1.00  0.00     0.210 HD
HETATM    6  N3  UNL     1       4.352  -0.337   0.565  1.00  0.00     0.109 N 
HETATM    7  C11 UNL     1       3.635  -1.265  -0.095  1.00  0.00     0.757 A 
HETATM    8  N4  UNL     1       4.259  -2.300  -0.708  1.00  0.00    -0.018 N 
ATOM      9  H4  UNL     1       3.705  -2.997  -1.205  1.00  0.00     0.203 HD
HETATM   10  C12 UNL     1       5.597  -2.423  -0.671  1.00  0.00     0.705 A 
HETATM   11  N6  UNL     1       6.309  -1.511  -0.021  1.00  0.00    -0.018 N 
ATOM     12  H6  UNL     1       7.325  -1.598   0.011  1.00  0.00     0.203 HD
HETATM   13  C13 UNL     1       5.696  -0.440   0.616  1.00  0.00     0.749 A 
HETATM   14  N7  UNL     1       6.429   0.344   1.190  1.00  0.00    -0.127 N 
ATOM     15  H7  UNL     1       7.379   0.001   1.051  1.00  0.00     0.205 HD
HETATM   16  N11 UNL     1       2.203  -1.160  -0.156  1.00  0.00    -0.066 N 
ENDROOT
BRANCH   1  17
HETATM   17  C8  UNL     1       0.017  -0.064   0.357  1.00  0.00     0.086 C 
HETATM   18  C9  UNL     1      -0.537  -1.151   1.287  1.00  0.00     0.021 C 
BRANCH  17  19
HETATM   19  C7  UNL     1      -0.564   1.230   0.747  1.00  0.00     0.162 C 
BRANCH  19  20
HETATM   20  C6  UNL     1      -2.023   1.282   0.620  1.00  0.00    -0.028 A 
HETATM   21  C5  UNL     1      -2.735   0.307  -0.018  1.00  0.00     0.030 A 
HETATM   22  C4  UNL     1      -4.118   0.342  -0.124  1.00  0.00     0.073 A 
HETATM   23  C19 UNL     1      -4.812   1.375   0.417  1.00  0.00     0.084 A 
HETATM   24  C18 UNL     1      -4.105   2.367   1.063  1.00  0.00     0.038 A 
HETATM   25  C17 UNL     1      -2.742   2.357   1.184  1.00  0.00     0.012 A 
BRANCH  22  26
HETATM   26  C3  UNL     1      -4.833  -0.729  -0.799  1.00  0.00     0.296 C 
HETATM   27  O2  UNL     1      -4.207  -1.704  -1.315  1.00  0.00    -0.259 OA
BRANCH  26  28
HETATM   28  O1  UNL     1      -6.214  -0.746  -0.915  1.00  0.00    -0.318 OA
BRANCH  28  29
HETATM   29  C2  UNL     1      -6.910  -1.788  -1.567  1.00  0.00     0.174 C 
HETATM   30  C1  UNL     1      -8.399  -1.470  -1.500  1.00  0.00     0.034 C 
ENDBRANCH  28  29
ENDBRANCH  26  28
ENDBRANCH  22  26
BRANCH  23  31
HETATM   31  O5  UNL     1      -6.218   1.439   0.325  1.00  0.00    -0.355 OA
HETATM   32  C20 UNL     1      -6.964   2.498   0.875  1.00  0.00     0.210 C 
ENDBRANCH  23  31
ENDBRANCH  19  20
BRANCH  19  33
HETATM   33  O3  UNL     1      -0.048   2.354   0.094  1.00  0.00    -0.390 OA
ATOM     34  H3  UNL     1       0.898   2.320   0.176  1.00  0.00     0.210 HD
ENDBRANCH  19  33
ENDBRANCH  17  19
ENDBRANCH   1  17
BRANCH  16  35
HETATM   35  N12 UNL     1       1.529  -2.140  -0.868  1.00  0.00    -0.248 N 
HETATM   36  C15 UNL     1       1.620  -2.129  -2.281  1.00  0.00     0.233 C 
HETATM   37  C16 UNL     1       0.906  -3.163  -3.061  1.00  0.00     0.119 C 
HETATM   38  O4  UNL     1       2.298  -1.254  -2.894  1.00  0.00    -0.272 OA
ATOM     39  H12 UNL     1       0.981  -2.852  -0.386  1.00  0.00     0.191 HD
ENDBRANCH  16  35
BRANCH  10  40
HETATM   40  N5  UNL     1       6.139  -3.440  -1.282  1.00  0.00    -0.234 N 
ATOM     41  H52 UNL     1       5.592  -4.141  -1.782  1.00  0.00     0.174 HD
ATOM     42  H51 UNL     1       7.154  -3.533  -1.254  1.00  0.00     0.174 HD
ENDBRANCH  10  40
BRANCH  14  43
HETATM   43  N8  UNL     1       6.532   1.417   1.896  1.00  0.00    -0.262 N 
HETATM   44  C14 UNL     1       7.052   2.559   1.590  1.00  0.00     0.216 C 
HETATM   45  N9  UNL     1       7.607   2.705   0.286  1.00  0.00    -0.065 NA
HETATM   46  N10 UNL     1       7.066   3.607   2.536  1.00  0.00    -0.065 NA
ATOM     47  H8  UNL     1       6.145   1.355   2.838  1.00  0.00     0.190 HD
ENDBRANCH  14  43
TORSDOF 11
