REMARK  0 active torsions:
REMARK  status: ('A' for Active; 'I' for Inactive)
ROOT
HETATM    1  C1  UNL     1       1.417  -1.451   0.177  1.00  0.00     0.019 C 
HETATM    2  C2  UNL     1       0.653  -0.384   0.175  1.00  0.00    -0.062 C 
HETATM    3  C3  UNL     1       0.787   1.019   0.599  1.00  0.00     0.043 C 
HETATM    4  C4  UNL     1      -0.410   1.342  -0.255  1.00  0.00     0.043 C 
HETATM    5  C5  UNL     1      -0.703  -0.103  -0.258  1.00  0.00    -0.062 C 
HETATM    6  C6  UNL     1      -1.787  -0.802  -0.550  1.00  0.00     0.019 C 
ENDROOT
TORSDOF 0
