REMARK  0 active torsions:
REMARK  status: ('A' for Active; 'I' for Inactive)
ROOT
HETATM    1  C1  UNL     1       2.828   0.429   0.175  1.00  0.00     0.012 C 
HETATM    2  C2  UNL     1       1.721  -0.033   0.042  1.00  0.00    -0.113 C 
HETATM    3  C3  UNL     1       0.355  -0.587  -0.112  1.00  0.00     0.064 C 
HETATM    4  C4  UNL     1      -0.574  -0.165   1.022  1.00  0.00     0.017 C 
HETATM    5  C5  UNL     1      -1.629   0.089  -0.014  1.00  0.00     0.002 C 
HETATM    6  C6  UNL     1      -0.523   0.214  -1.044  1.00  0.00     0.017 C 
ENDROOT
TORSDOF 0
