REMARK  0 active torsions:
REMARK  status: ('A' for Active; 'I' for Inactive)
ROOT
HETATM    1  C1  UNL     1       2.381   0.301   0.012  1.00  0.00     0.036 C 
HETATM    2  C2  UNL     1       1.255  -0.500   0.534  1.00  0.00    -0.028 C 
HETATM    3  C3  UNL     1      -0.002  -0.337   0.140  1.00  0.00    -0.084 C 
HETATM    4  C4  UNL     1      -0.701   0.559  -0.824  1.00  0.00     0.034 C 
HETATM    5  C5  UNL     1      -1.939   0.422   0.051  1.00  0.00     0.009 C 
HETATM    6  C6  UNL     1      -1.334  -0.934   0.433  1.00  0.00     0.034 C 
ENDROOT
TORSDOF 0
