REMARK  0 active torsions:
REMARK  status: ('A' for Active; 'I' for Inactive)
ROOT
HETATM    1  C1  UNL     1       2.117   0.064   0.249  1.00  0.00     0.011 C 
HETATM    2  C2  UNL     1       0.688  -0.506   0.276  1.00  0.00    -0.009 A 
HETATM    3  C3  UNL     1       0.016  -0.877  -0.970  1.00  0.00     0.015 A 
HETATM    4  C4  UNL     1      -0.334   0.316  -0.093  1.00  0.00    -0.037 A 
HETATM    5  C5  UNL     1      -1.605   0.162   0.810  1.00  0.00     0.010 A 
HETATM    6  C6  UNL     1      -1.455   1.022  -0.378  1.00  0.00     0.010 A 
ENDROOT
TORSDOF 0
