REMARK  9 active torsions:
REMARK  status: ('A' for Active; 'I' for Inactive)
REMARK    1  A    between atoms: C5_7  and  C6_8 
REMARK    2  A    between atoms: C8_14  and  N2_15 
REMARK    3  A    between atoms: N2_15  and  C9_17 
REMARK    4  A    between atoms: C9_17  and  O3_18 
REMARK    5  A    between atoms: C9_17  and  C10_20 
REMARK    6  A    between atoms: C10_20  and  C11_21 
REMARK    7  A    between atoms: C10_20  and  N3_23 
REMARK       I    between atoms: N3_23  and  C12_25 
REMARK    8  A    between atoms: C12_25  and  C13_27 
REMARK    9  A    between atoms: C18_40  and  C19_41 
ROOT
HETATM    1  C1  UNL     1      -6.030   0.242   0.675  1.00  0.00     0.030 C 
HETATM    2  C2  UNL     1      -5.313  -0.182  -0.564  1.00  0.00     0.043 C 
HETATM    3  C3  UNL     1      -6.362  -0.901  -1.421  1.00  0.00     0.030 C 
HETATM    4  S1  UNL     1      -4.105  -1.450  -0.095  1.00  0.00    -0.086 SA
HETATM    5  S2  UNL     1      -3.522  -1.350   1.921  1.00  0.00    -0.094 SA
HETATM    6  C4  UNL     1      -2.133  -0.223   2.113  1.00  0.00     0.118 C 
HETATM    7  C5  UNL     1      -0.804  -0.866   1.813  1.00  0.00     0.156 C 
HETATM    8  N1  UNL     1       0.205   0.137   1.541  1.00  0.00    -0.347 N 
ATOM      9  H1  UNL     1       0.890   0.348   2.267  1.00  0.00     0.163 HD
HETATM   10  C7  UNL     1       0.285   0.840   0.311  1.00  0.00     0.250 C 
HETATM   11  O2  UNL     1       0.981   1.918   0.301  1.00  0.00    -0.271 OA
HETATM   12  C8  UNL     1      -0.355   0.450  -0.948  1.00  0.00     0.266 C 
HETATM   13  C17 UNL     1      -1.066   1.655  -1.556  1.00  0.00     0.267 C 
HETATM   14  O6  UNL     1      -0.394   2.712  -1.771  1.00  0.00    -0.269 OA
HETATM   15  N5  UNL     1      -2.453   1.608  -1.879  1.00  0.00    -0.271 N 
ATOM     16  H5  UNL     1      -2.836   2.317  -2.505  1.00  0.00     0.189 HD
HETATM   17  N6  UNL     1      -3.287   0.650  -1.382  1.00  0.00    -0.317 N 
ATOM     18  H6  UNL     1      -2.922  -0.243  -1.050  1.00  0.00     0.181 HD
HETATM   19  C18 UNL     1      -4.686   0.934  -1.341  1.00  0.00     0.218 C 
ENDROOT
BRANCH  12  20
HETATM   20  N2  UNL     1       0.517  -0.063  -1.907  1.00  0.00    -0.375 N 
ATOM     21  H2  UNL     1       0.646   0.485  -2.758  1.00  0.00     0.157 HD
BRANCH  20  22
HETATM   22  C9  UNL     1       1.224  -1.249  -1.809  1.00  0.00     0.244 C 
BRANCH  22  23
HETATM   23  O3  UNL     1       0.362  -2.389  -1.751  1.00  0.00    -0.375 OA
ATOM     24  H3  UNL     1       0.847  -3.203  -1.684  1.00  0.00     0.212 HD
ENDBRANCH  22  23
BRANCH  22  25
HETATM   25  C10 UNL     1       2.284  -1.483  -0.807  1.00  0.00     0.194 C 
BRANCH  25  26
HETATM   26  C11 UNL     1       3.074  -2.693  -1.358  1.00  0.00     0.260 C 
HETATM   27  O4  UNL     1       4.261  -2.529  -1.542  1.00  0.00    -0.304 OA
ENDBRANCH  25  26
BRANCH  25  28
HETATM   28  N3  UNL     1       3.286  -0.451  -0.678  1.00  0.00    -0.344 N 
HETATM   29  C12 UNL     1       4.012  -0.271   0.522  1.00  0.00     0.249 C 
HETATM   30  O5  UNL     1       3.746  -1.075   1.494  1.00  0.00    -0.271 OA
ATOM     31  H3  UNL     1       3.474   0.162  -1.471  1.00  0.00     0.163 HD
BRANCH  29  32
HETATM   32  C13 UNL     1       5.047   0.729   0.800  1.00  0.00     0.277 C 
HETATM   33  C14 UNL     1       5.854   1.095  -0.401  1.00  0.00     0.044 C 
HETATM   34  C15 UNL     1       7.240   0.534  -0.043  1.00  0.00     0.030 C 
HETATM   35  C16 UNL     1       7.236   0.786   1.448  1.00  0.00     0.233 C 
HETATM   36  N4  UNL     1       5.936   0.320   1.864  1.00  0.00    -0.062 N 
ATOM     37  H42 UNL     1       5.654   0.644   2.789  1.00  0.00     0.278 HD
ATOM     38  H41 UNL     1       5.900  -0.677   2.077  1.00  0.00     0.278 HD
ENDBRANCH  29  32
ENDBRANCH  25  28
ENDBRANCH  22  25
ENDBRANCH  20  22
ENDBRANCH  12  20
BRANCH   7  39
HETATM   39  C6  UNL     1      -0.422  -1.707   2.980  1.00  0.00     0.257 C 
HETATM   40  O1  UNL     1       0.639  -1.449   3.531  1.00  0.00    -0.305 OA
ENDBRANCH   7  39
BRANCH  19  41
HETATM   41  C19 UNL     1      -5.009   2.277  -0.843  1.00  0.00     0.199 C 
HETATM   42  O7  UNL     1      -4.037   3.000  -0.494  1.00  0.00    -0.646 OA
HETATM   43  O8  UNL     1      -6.248   2.828  -0.715  1.00  0.00    -0.646 OA
ENDBRANCH  19  41
TORSDOF 9
