REMARK  17 active torsions:
REMARK  status: ('A' for Active; 'I' for Inactive)
REMARK    1  A    between atoms: N1_1  and  N2_4 
REMARK    2  A    between atoms: N2_4  and  N3_5 
REMARK    3  A    between atoms: N3_5  and  C1_7 
REMARK    4  A    between atoms: C1_7  and  C2_8 
REMARK    5  A    between atoms: C5_11  and  N4_12 
REMARK    6  A    between atoms: C6_16  and  O1_17 
REMARK    7  A    between atoms: O1_17  and  C7_18 
REMARK    8  A    between atoms: C8_19  and  N5_20 
REMARK    9  A    between atoms: C10_25  and  N6_26 
REMARK   10  A    between atoms: C11_30  and  O2_31 
REMARK   11  A    between atoms: O2_31  and  C12_32 
REMARK   12  A    between atoms: C13_33  and  N7_34 
REMARK   13  A    between atoms: C15_39  and  N8_40 
REMARK   14  A    between atoms: C17_45  and  N9_46 
REMARK   15  A    between atoms: C18_50  and  O3_51 
REMARK   16  A    between atoms: O3_51  and  C19_52 
REMARK   17  A    between atoms: C23_59  and  N11_60 
ROOT
HETATM    1  C7  UNL     1       1.445  -0.131  -1.428  1.00  0.00     0.186 C 
HETATM    2  C8  UNL     1       1.668  -0.208  -2.945  1.00  0.00     0.217 C 
HETATM    3  C9  UNL     1       0.448  -0.674  -3.681  1.00  0.00     0.071 C 
HETATM    4  C10 UNL     1      -0.853  -0.139  -3.224  1.00  0.00     0.217 C 
HETATM    5  C11 UNL     1      -0.927  -0.125  -1.707  1.00  0.00     0.184 C 
HETATM    6  C18 UNL     1       0.233   0.746  -1.261  1.00  0.00     0.184 C 
ENDROOT
BRANCH   5   7
HETATM    7  O2  UNL     1      -2.151   0.244  -1.236  1.00  0.00    -0.372 OA
BRANCH   7   8
HETATM    8  C12 UNL     1      -2.725  -0.802  -0.553  1.00  0.00     0.182 C 
HETATM    9  C13 UNL     1      -3.972  -1.212  -1.344  1.00  0.00     0.216 C 
HETATM   10  C14 UNL     1      -4.556  -2.413  -0.680  1.00  0.00     0.068 C 
HETATM   11  C15 UNL     1      -3.815  -2.899   0.529  1.00  0.00     0.187 C 
HETATM   12  C16 UNL     1      -3.535  -1.820   1.532  1.00  0.00     0.068 C 
HETATM   13  C17 UNL     1      -3.069  -0.535   0.872  1.00  0.00     0.216 C 
BRANCH   9  14
HETATM   14  N7  UNL     1      -4.910  -0.132  -1.328  1.00  0.00    -0.072 N 
ATOM     15  H73 UNL     1      -5.134   0.174  -0.381  1.00  0.00     0.274 HD
ATOM     16  H72 UNL     1      -4.504   0.740  -1.668  1.00  0.00     0.274 HD
ATOM     17  H71 UNL     1      -5.740  -0.405  -1.854  1.00  0.00     0.274 HD
ENDBRANCH   9  14
BRANCH  11  18
HETATM   18  N8  UNL     1      -4.677  -3.894   1.186  1.00  0.00    -0.075 N 
ATOM     19  H83 UNL     1      -5.608  -3.539   1.402  1.00  0.00     0.274 HD
ATOM     20  H82 UNL     1      -4.967  -4.648   0.563  1.00  0.00     0.274 HD
ATOM     21  H81 UNL     1      -4.173  -4.225   2.009  1.00  0.00     0.274 HD
ENDBRANCH  11  18
BRANCH  13  22
HETATM   22  N9  UNL     1      -4.133   0.427   1.063  1.00  0.00    -0.072 N 
ATOM     23  H93 UNL     1      -3.914   1.299   0.581  1.00  0.00     0.274 HD
ATOM     24  H92 UNL     1      -4.964   0.144   0.544  1.00  0.00     0.274 HD
ATOM     25  H91 UNL     1      -4.368   0.610   2.038  1.00  0.00     0.274 HD
ENDBRANCH  13  22
ENDBRANCH   7   8
ENDBRANCH   5   7
BRANCH   4  26
HETATM   26  N6  UNL     1      -1.171   1.168  -3.762  1.00  0.00    -0.072 N 
ATOM     27  H63 UNL     1      -0.421   1.830  -3.563  1.00  0.00     0.274 HD
ATOM     28  H62 UNL     1      -1.125   1.158  -4.781  1.00  0.00     0.274 HD
ATOM     29  H61 UNL     1      -2.068   1.537  -3.447  1.00  0.00     0.274 HD
ENDBRANCH   4  26
BRANCH   6  30
HETATM   30  O3  UNL     1      -0.005   1.217   0.001  1.00  0.00    -0.373 OA
BRANCH  30  31
HETATM   31  C19 UNL     1      -0.152   2.593   0.076  1.00  0.00     0.155 C 
HETATM   32  C20 UNL     1      -1.429   3.065   0.682  1.00  0.00     0.061 C 
HETATM   33  C21 UNL     1      -1.379   2.798   2.166  1.00  0.00     0.235 C 
HETATM   34  N10 UNL     1      -0.524   3.810   2.757  1.00  0.00    -0.073 N 
HETATM   35  C22 UNL     1       0.495   4.243   1.846  1.00  0.00     0.267 C 
ATOM     36 2H10 UNL     1      -1.069   4.598   3.107  1.00  0.00     0.277 HD
ATOM     37 1H10 UNL     1      -0.123   3.489   3.638  1.00  0.00     0.277 HD
HETATM   38  C23 UNL     1       0.972   3.131   0.930  1.00  0.00     0.237 C 
BRANCH  38  39
HETATM   39  N11 UNL     1       2.013   3.723   0.099  1.00  0.00    -0.071 N 
ATOM     40 3H11 UNL     1       2.353   3.068  -0.605  1.00  0.00     0.274 HD
ATOM     41 2H11 UNL     1       1.638   4.437  -0.525  1.00  0.00     0.274 HD
ATOM     42 1H11 UNL     1       2.772   4.086   0.676  1.00  0.00     0.274 HD
ENDBRANCH  38  39
ENDBRANCH  30  31
ENDBRANCH   6  30
BRANCH   1  43
HETATM   43  O1  UNL     1       2.548   0.355  -0.790  1.00  0.00    -0.349 OA
BRANCH  43  44
HETATM   44  C6  UNL     1       3.145  -0.464   0.118  1.00  0.00     0.291 C 
HETATM   45  C5  UNL     1       4.605  -0.645  -0.178  1.00  0.00     0.238 C 
HETATM   46  C4  UNL     1       5.044  -1.854   0.640  1.00  0.00     0.040 C 
HETATM   47  C3  UNL     1       4.605  -1.752   2.046  1.00  0.00     0.036 C 
HETATM   48  C2  UNL     1       3.442  -0.893   2.344  1.00  0.00     0.145 C 
HETATM   49  O4  UNL     1       3.114   0.058   1.423  1.00  0.00    -0.352 OA
BRANCH  45  50
HETATM   50  N4  UNL     1       4.949  -0.775  -1.551  1.00  0.00    -0.070 N 
ATOM     51  H43 UNL     1       5.946  -0.957  -1.667  1.00  0.00     0.274 HD
ATOM     52  H42 UNL     1       4.580  -1.641  -1.944  1.00  0.00     0.274 HD
ATOM     53  H41 UNL     1       4.655   0.034  -2.098  1.00  0.00     0.274 HD
ENDBRANCH  45  50
BRANCH  48  54
HETATM   54  C1  UNL     1       2.187  -1.709   2.682  1.00  0.00     0.187 C 
BRANCH  54  55
HETATM   55  N3  UNL     1       2.483  -2.728   3.652  1.00  0.00    -0.250 N 
ATOM     56  H3  UNL     1       2.210  -3.696   3.483  1.00  0.00     0.197 HD
BRANCH  55  57
HETATM   57  N2  UNL     1       3.067  -2.420   4.684  1.00  0.00    -0.248 NA
BRANCH  57  58
HETATM   58  N1  UNL     1       3.844  -2.200   5.596  1.00  0.00    -0.261 N 
ATOM     59  H12 UNL     1       4.608  -2.582   5.039  1.00  0.00     0.193 HD
ATOM     60  H11 UNL     1       4.330  -1.944   6.455  1.00  0.00     0.193 HD
ENDBRANCH  57  58
ENDBRANCH  55  57
ENDBRANCH  54  55
ENDBRANCH  48  54
ENDBRANCH  43  44
ENDBRANCH   1  43
BRANCH   2  61
HETATM   61  N5  UNL     1       2.167   1.057  -3.420  1.00  0.00    -0.072 N 
ATOM     62  H53 UNL     1       1.561   1.834  -3.158  1.00  0.00     0.274 HD
ATOM     63  H52 UNL     1       3.006   1.353  -2.921  1.00  0.00     0.274 HD
ATOM     64  H51 UNL     1       2.315   1.006  -4.428  1.00  0.00     0.274 HD
ENDBRANCH   2  61
TORSDOF 17
