REMARK  10 active torsions:
REMARK  status: ('A' for Active; 'I' for Inactive)
REMARK    1  A    between atoms: N1_1  and  C1_4 
REMARK    2  A    between atoms: C2_7  and  N3_8 
REMARK    3  A    between atoms: C3_11  and  C4_12 
REMARK       I    between atoms: C4_12  and  N5_14 
REMARK    4  A    between atoms: N5_14  and  C5_16 
REMARK    5  A    between atoms: C5_16  and  C6_17 
REMARK    6  A    between atoms: C6_17  and  C7_18 
REMARK    7  A    between atoms: C8_23  and  C9_24 
REMARK    8  A    between atoms: C12_27  and  N8_28 
REMARK    9  A    between atoms: C15_39  and  N13_40 
REMARK   10  A    between atoms: C19_51  and  C20_52 
ROOT
HETATM    1  N3  UNL     1       1.596   1.174   0.191  1.00  0.00    -0.071 N 
HETATM    2  N4  UNL     1       2.748   0.506   0.097  1.00  0.00    -0.258 N 
ATOM      3  H4  UNL     1       3.676   0.926   0.041  1.00  0.00     0.190 HD
HETATM    4  C3  UNL     1       2.485  -0.807   0.089  1.00  0.00     0.191 A 
HETATM    5  N7  UNL     1       1.142  -0.915   0.180  1.00  0.00    -0.324 N 
ATOM      6  H7  UNL     1       0.629  -1.796   0.197  1.00  0.00     0.169 HD
HETATM    7  C8  UNL     1       0.580   0.295   0.244  1.00  0.00     0.129 A 
ENDROOT
BRANCH   7   8
HETATM    8  C9  UNL     1      -0.874   0.544   0.348  1.00  0.00     0.082 C 
HETATM    9  C10 UNL     1      -1.609   0.071  -0.853  1.00  0.00     0.018 C 
HETATM   10  C11 UNL     1      -3.035  -0.293  -0.677  1.00  0.00     0.057 C 
HETATM   11  C12 UNL     1      -3.500  -0.546   0.718  1.00  0.00     0.308 C 
HETATM   12  N14 UNL     1      -2.865   0.451   1.619  1.00  0.00    -0.052 N 
HETATM   13  C17 UNL     1      -1.452   0.039   1.652  1.00  0.00     0.247 C 
ATOM     14 2H14 UNL     1      -3.015   1.422   1.345  1.00  0.00     0.279 HD
ATOM     15 1H14 UNL     1      -3.303   0.529   2.537  1.00  0.00     0.279 HD
BRANCH  11  16
HETATM   16  N8  UNL     1      -4.909  -0.394   0.894  1.00  0.00    -0.239 N 
HETATM   17  N9  UNL     1      -5.546   0.742   1.192  1.00  0.00    -0.236 N 
HETATM   18  N10 UNL     1      -6.825   0.549   1.286  1.00  0.00    -0.269 N 
ATOM     19  H9  UNL     1      -5.087   1.643   1.328  1.00  0.00     0.208 HD
HETATM   20  C13 UNL     1      -7.094  -0.758   1.048  1.00  0.00     0.154 A 
ATOM     21  H10 UNL     1      -7.517   1.266   1.504  1.00  0.00     0.190 HD
HETATM   22  N11 UNL     1      -8.223  -1.481   1.020  1.00  0.00    -0.335 N 
HETATM   23  C16 UNL     1      -5.852  -1.337   0.800  1.00  0.00     0.143 A 
HETATM   24  C14 UNL     1      -8.123  -2.799   0.743  1.00  0.00     0.183 A 
ATOM     25  H11 UNL     1      -9.129  -1.049   1.202  1.00  0.00     0.168 HD
HETATM   26  N12 UNL     1      -6.936  -3.382   0.499  1.00  0.00    -0.337 N 
HETATM   27  C15 UNL     1      -5.777  -2.684   0.519  1.00  0.00     0.132 A 
ATOM     28  H12 UNL     1      -6.909  -4.381   0.293  1.00  0.00     0.168 HD
BRANCH  27  29
HETATM   29  N13 UNL     1      -4.653  -3.292   0.273  1.00  0.00    -0.383 N 
ATOM     30 2H13 UNL     1      -4.597  -4.289   0.065  1.00  0.00     0.157 HD
ATOM     31 1H13 UNL     1      -3.779  -2.766   0.288  1.00  0.00     0.157 HD
ENDBRANCH  27  29
ENDBRANCH  11  16
ENDBRANCH   7   8
BRANCH   1  32
HETATM   32  C2  UNL     1       1.472   2.596   0.229  1.00  0.00     0.706 A 
HETATM   33  N2  UNL     1       2.128   3.279   1.176  1.00  0.00    -0.174 N 
HETATM   34  C1  UNL     1       2.076   4.617   1.297  1.00  0.00     0.131 A 
ATOM     35  H2  UNL     1       2.698   2.756   1.841  1.00  0.00     0.186 HD
HETATM   36  C19 UNL     1       1.303   5.317   0.395  1.00  0.00     0.089 A 
HETATM   37  C18 UNL     1       0.635   4.602  -0.571  1.00  0.00     0.126 A 
HETATM   38  N15 UNL     1       0.721   3.267  -0.649  1.00  0.00    -0.199 N 
ATOM     39  H15 UNL     1       0.214   2.764  -1.377  1.00  0.00     0.183 HD
BRANCH  34  40
HETATM   40  N1  UNL     1       2.721   5.253   2.225  1.00  0.00    -0.384 N 
ATOM     41  H12 UNL     1       3.293   4.735   2.892  1.00  0.00     0.157 HD
ATOM     42  H11 UNL     1       2.682   6.268   2.317  1.00  0.00     0.157 HD
ENDBRANCH  34  40
BRANCH  36  43
HETATM   43  C20 UNL     1       1.207   6.777   0.478  1.00  0.00     0.270 C 
HETATM   44  N16 UNL     1       1.886   7.530   1.450  1.00  0.00    -0.057 NA
HETATM   45  O3  UNL     1       0.481   7.373  -0.367  1.00  0.00    -0.271 OA
ENDBRANCH  36  43
ENDBRANCH   1  32
BRANCH   4  46
HETATM   46  C4  UNL     1       3.454  -1.916  -0.002  1.00  0.00     0.287 C 
HETATM   47  O1  UNL     1       3.008  -3.087   0.017  1.00  0.00    -0.264 OA
HETATM   48  N5  UNL     1       4.821  -1.657  -0.107  1.00  0.00    -0.354 N 
ATOM     49  H5  UNL     1       5.125  -0.683  -0.117  1.00  0.00     0.162 HD
BRANCH  48  50
HETATM   50  C5  UNL     1       5.824  -2.678  -0.202  1.00  0.00     0.132 C 
BRANCH  50  51
HETATM   51  C6  UNL     1       5.687  -3.576  -1.409  1.00  0.00     0.119 C 
BRANCH  51  52
HETATM   52  C7  UNL     1       6.752  -4.599  -1.450  1.00  0.00     0.232 C 
HETATM   53  N6  UNL     1       6.778  -5.536  -2.503  1.00  0.00    -0.062 NA
HETATM   54  O2  UNL     1       7.615  -4.618  -0.552  1.00  0.00    -0.277 OA
ENDBRANCH  51  52
ENDBRANCH  50  51
ENDBRANCH  48  50
ENDBRANCH   4  46
TORSDOF 10
