REMARK  7 active torsions:
REMARK  status: ('A' for Active; 'I' for Inactive)
REMARK    1  A    between atoms: C9_10  and  O2_12 
REMARK    2  A    between atoms: C13_16  and  O3_17 
REMARK    3  A    between atoms: C14_19  and  C15_20 
REMARK    4  A    between atoms: C15_20  and  N1_21 
REMARK    5  A    between atoms: C17_23  and  C18_24 
REMARK    6  A    between atoms: C18_24  and  N2_25 
REMARK    7  A    between atoms: C26_37  and  O4_38 
ROOT
HETATM    1  C1  UNL     1      -4.700  -0.201   2.250  1.00  0.00     0.023 C 
HETATM    2  C2  UNL     1      -3.429  -0.478   2.192  1.00  0.00    -0.017 C 
HETATM    3  C3  UNL     1      -2.718  -1.533   2.837  1.00  0.00     0.156 C 
HETATM    4  O1  UNL     1      -3.056  -2.227   3.809  1.00  0.00    -0.293 OA
HETATM    5  C4  UNL     1      -1.393  -1.677   2.087  1.00  0.00     0.097 C 
HETATM    6  C5  UNL     1      -1.548  -0.887   0.825  1.00  0.00     0.016 C 
HETATM    7  C6  UNL     1      -2.377   0.271   1.408  1.00  0.00     0.034 C 
HETATM    8  C7  UNL     1      -3.045   1.084   0.374  1.00  0.00     0.021 C 
HETATM    9  C8  UNL     1      -2.056   1.316  -0.737  1.00  0.00     0.056 C 
HETATM   10  C9  UNL     1      -2.141   2.841  -0.937  1.00  0.00     0.061 C 
HETATM   11  C10 UNL     1      -3.608   3.261  -0.959  1.00  0.00     0.046 C 
HETATM   12  C11 UNL     1      -1.428   3.315   0.262  1.00  0.00     0.041 C 
HETATM   13  C12 UNL     1      -0.289   2.295   0.373  1.00  0.00     0.042 C 
HETATM   14  C13 UNL     1      -0.647   1.078  -0.404  1.00  0.00     0.078 C 
HETATM   15  C14 UNL     1      -0.284  -0.279   0.236  1.00  0.00     0.040 C 
HETATM   16  C21 UNL     1       0.222  -1.227  -0.839  1.00  0.00    -0.001 C 
HETATM   17  C22 UNL     1       0.762  -2.530  -0.413  1.00  0.00     0.011 C 
HETATM   18  C23 UNL     1      -0.833  -1.585  -1.874  1.00  0.00     0.012 C 
HETATM   19  C24 UNL     1      -1.878  -2.398  -1.226  1.00  0.00     0.011 C 
HETATM   20  C25 UNL     1      -3.054  -2.612  -2.223  1.00  0.00     0.012 C 
HETATM   21  C26 UNL     1      -2.440  -1.610  -0.086  1.00  0.00     0.132 C 
ENDROOT
BRANCH  15  22
HETATM   22  C15 UNL     1       0.722  -0.200   1.298  1.00  0.00     0.104 C 
BRANCH  22  23
HETATM   23  N1  UNL     1       2.038   0.273   1.202  1.00  0.00    -0.265 N 
HETATM   24  C16 UNL     1       3.114  -0.501   0.969  1.00  0.00     0.145 A 
HETATM   25  C17 UNL     1       4.287   0.270   0.938  1.00  0.00     0.072 A 
HETATM   26  N3  UNL     1       3.875   1.505   1.158  1.00  0.00    -0.287 N 
HETATM   27  N4  UNL     1       2.616   1.464   1.301  1.00  0.00    -0.237 N 
ATOM     28  H3  UNL     1       4.461   2.338   1.204  1.00  0.00     0.188 HD
ATOM     29  H4  UNL     1       2.072   2.307   1.484  1.00  0.00     0.209 HD
BRANCH  25  30
HETATM   30  C18 UNL     1       5.667  -0.191   0.711  1.00  0.00     0.331 C 
BRANCH  30  31
HETATM   31  N2  UNL     1       6.062  -0.194  -0.668  1.00  0.00     0.085 N 
HETATM   32  C19 UNL     1       5.990   1.129  -1.263  1.00  0.00     0.309 C 
HETATM   33  C20 UNL     1       7.454  -0.611  -0.725  1.00  0.00     0.309 C 
ENDBRANCH  30  31
ENDBRANCH  25  30
ENDBRANCH  22  23
ENDBRANCH  15  22
BRANCH  14  34
HETATM   34  O3  UNL     1       0.101   1.147  -1.581  1.00  0.00    -0.388 OA
ATOM     35  H3  UNL     1       1.013   0.993  -1.365  1.00  0.00     0.210 HD
ENDBRANCH  14  34
BRANCH  21  36
HETATM   36  O4  UNL     1      -3.174  -2.582   0.651  1.00  0.00    -0.394 OA
ATOM     37  H4  UNL     1      -3.752  -3.051   0.061  1.00  0.00     0.210 HD
ENDBRANCH  21  36
BRANCH  10  38
HETATM   38  O2  UNL     1      -1.564   3.315  -2.065  1.00  0.00    -0.390 OA
ATOM     39  H2  UNL     1      -1.616   4.255  -2.188  1.00  0.00     0.210 HD
ENDBRANCH  10  38
TORSDOF 7
