REMARK  8 active torsions:
REMARK  status: ('A' for Active; 'I' for Inactive)
REMARK    1  A    between atoms: C4_4  and  O1_5 
REMARK    2  A    between atoms: C12_15  and  O3_16 
REMARK    3  A    between atoms: O3_16  and  C13_17 
REMARK    4  A    between atoms: C15_20  and  O5_21 
REMARK    5  A    between atoms: O5_21  and  C16_22 
REMARK    6  A    between atoms: C16_22  and  O6_23 
REMARK    7  A    between atoms: C19_26  and  O7_27 
REMARK    8  A    between atoms: C21_30  and  O8_32 
ROOT
HETATM    1  C1  UNL     1      -0.793   3.906  -0.342  1.00  0.00     0.024 C 
HETATM    2  C2  UNL     1      -0.878   2.591  -0.634  1.00  0.00    -0.038 C 
HETATM    3  C3  UNL     1      -1.858   2.297  -1.702  1.00  0.00     0.074 C 
HETATM    4  C4  UNL     1      -2.695   1.120  -1.849  1.00  0.00     0.179 C 
HETATM    5  O2  UNL     1      -3.804   0.760  -1.185  1.00  0.00    -0.320 OA
HETATM    6  C5  UNL     1      -3.743   0.202   0.127  1.00  0.00     0.066 C 
HETATM    7  C6  UNL     1      -5.074   0.524   0.768  1.00  0.00     0.046 C 
HETATM    8  C7  UNL     1      -2.607   0.889   0.699  1.00  0.00     0.039 C 
HETATM    9  C8  UNL     1      -1.810   1.059   1.843  1.00  0.00     0.013 C 
HETATM   10  C9  UNL     1      -0.323   1.024   1.403  1.00  0.00     0.028 C 
HETATM   11  C10 UNL     1      -0.005   1.706   0.137  1.00  0.00    -0.063 C 
HETATM   12  C11 UNL     1       0.738   0.818  -0.882  1.00  0.00     0.070 C 
HETATM   13  C12 UNL     1       2.227   0.699  -0.546  1.00  0.00     0.165 C 
HETATM   14  C15 UNL     1       2.383  -0.555   0.295  1.00  0.00     0.162 C 
HETATM   15  C18 UNL     1       1.594  -0.354   1.538  1.00  0.00     0.066 A 
HETATM   16  C19 UNL     1       0.693  -1.382   1.997  1.00  0.00     0.081 A 
HETATM   17  C20 UNL     1      -0.831  -1.276   2.008  1.00  0.00     0.068 A 
HETATM   18  C21 UNL     1      -1.665  -2.297   1.352  1.00  0.00     0.061 C 
HETATM   19  C22 UNL     1      -1.264  -2.827   0.030  1.00  0.00     0.046 C 
HETATM   20  C23 UNL     1      -3.131  -1.926   1.318  1.00  0.00     0.041 C 
HETATM   21  C24 UNL     1      -3.618  -1.306   0.048  1.00  0.00     0.041 C 
HETATM   22  C25 UNL     1       0.047  -0.412   1.261  1.00  0.00     0.017 A 
ENDROOT
BRANCH  13  23
HETATM   23  O3  UNL     1       3.023   0.692  -1.694  1.00  0.00    -0.313 OA
BRANCH  23  24
HETATM   24  C13 UNL     1       3.961   1.698  -1.878  1.00  0.00     0.255 C 
HETATM   25  C14 UNL     1       4.848   1.767  -3.069  1.00  0.00     0.126 C 
HETATM   26  O4  UNL     1       4.091   2.607  -1.016  1.00  0.00    -0.266 OA
ENDBRANCH  23  24
ENDBRANCH  13  23
BRANCH  14  27
HETATM   27  O5  UNL     1       3.665  -0.940   0.475  1.00  0.00    -0.359 OA
BRANCH  27  28
HETATM   28  C16 UNL     1       4.078  -2.121  -0.066  1.00  0.00     0.337 C 
BRANCH  28  29
HETATM   29  O6  UNL     1       5.445  -2.269   0.275  1.00  0.00    -0.372 OA
HETATM   30  C17 UNL     1       6.161  -1.181  -0.265  1.00  0.00     0.204 C 
ENDBRANCH  28  29
ENDBRANCH  27  28
ENDBRANCH  14  27
BRANCH  16  31
HETATM   31  O7  UNL     1       1.080  -2.644   1.715  1.00  0.00    -0.388 OA
ATOM     32  H7  UNL     1       0.486  -3.321   2.017  1.00  0.00     0.210 HD
ENDBRANCH  16  31
BRANCH   4  33
HETATM   33  O1  UNL     1      -2.012   0.002  -2.422  1.00  0.00    -0.341 OA
ATOM     34  H1  UNL     1      -2.560  -0.768  -2.518  1.00  0.00     0.220 HD
ENDBRANCH   4  33
BRANCH  18  35
HETATM   35  O8  UNL     1      -1.576  -3.438   2.214  1.00  0.00    -0.390 OA
ATOM     36  H8  UNL     1      -2.114  -4.097   1.791  1.00  0.00     0.210 HD
ENDBRANCH  18  35
TORSDOF 8
