REMARK  4 active torsions:
REMARK  status: ('A' for Active; 'I' for Inactive)
REMARK    1  A    between atoms: C2_2  and  N1_3 
REMARK    2  A    between atoms: N1_3  and  C4_5 
REMARK    3  A    between atoms: N1_3  and  N3_9 
REMARK    4  A    between atoms: N3_9  and  N4_10 
ROOT
HETATM    1  N1  UNL     1      -0.361   0.278   0.054  1.00  0.00     0.059 N 
HETATM    2  C3  UNL     1      -0.449  -0.256  -1.267  1.00  0.00     0.307 C 
ENDROOT
BRANCH   1   3
HETATM    3  C2  UNL     1      -0.441  -0.697   1.111  1.00  0.00     0.265 C 
HETATM    4  C1  UNL     1      -1.083  -2.001   0.664  1.00  0.00     0.037 C 
ENDBRANCH   1   3
BRANCH   1   5
HETATM    5  C4  UNL     1       0.777   1.125   0.148  1.00  0.00     0.313 C 
HETATM    6  N2  UNL     1       1.984   0.774   0.071  1.00  0.00    -0.383 N 
HETATM    7  C5  UNL     1       2.517  -0.519  -0.126  1.00  0.00     0.146 C 
ATOM      8  H2  UNL     1       2.669   1.524   0.163  1.00  0.00     0.159 HD
ENDBRANCH   1   5
BRANCH   1   9
HETATM    9  N3  UNL     1      -1.525   1.084   0.218  1.00  0.00     0.071 NA
BRANCH   9  10
HETATM   10  N4  UNL     1      -1.674   1.993  -0.810  1.00  0.00    -0.322 N 
ATOM     11  H42 UNL     1      -1.019   2.067  -1.589  1.00  0.00     0.174 HD
ATOM     12  H41 UNL     1      -2.507   2.570  -0.693  1.00  0.00     0.174 HD
ENDBRANCH   9  10
ENDBRANCH   1   9
TORSDOF 4
