REMARK  4 active torsions:
REMARK  status: ('A' for Active; 'I' for Inactive)
REMARK    1  A    between atoms: C2_2  and  N1_3 
REMARK    2  A    between atoms: C3_5  and  C4_6 
REMARK    3  A    between atoms: C5_7  and  N2_8 
REMARK    4  A    between atoms: N3_10  and  N4_12 
ROOT
HETATM    1  C4  UNL     1       0.662   0.149   0.713  1.00  0.00     0.035 C 
HETATM    2  C5  UNL     1       1.957   0.071   0.920  1.00  0.00     0.110 C 
ENDROOT
BRANCH   2   3
HETATM    3  N2  UNL     1       2.800   1.090   0.399  1.00  0.00    -0.298 N 
HETATM    4  N3  UNL     1       3.294   1.003  -0.762  1.00  0.00    -0.250 N 
ATOM      5  H3  UNL     1       3.898   1.742  -1.122  1.00  0.00     0.207 HD
ATOM      6  H2  UNL     1       3.011   1.907   0.972  1.00  0.00     0.187 HD
BRANCH   4   7
HETATM    7  N4  UNL     1       3.008  -0.104  -1.539  1.00  0.00    -0.331 N 
ATOM      8  H42 UNL     1       2.403  -0.835  -1.165  1.00  0.00     0.178 HD
ATOM      9  H41 UNL     1       3.406  -0.174  -2.475  1.00  0.00     0.178 HD
ENDBRANCH   4   7
ENDBRANCH   2   3
BRANCH   1  10
HETATM   10  C3  UNL     1      -0.200  -0.887   1.243  1.00  0.00     0.084 C 
HETATM   11  N1  UNL     1      -1.461  -0.815   1.043  1.00  0.00    -0.399 N 
ATOM     12  H1  UNL     1      -2.073  -1.542   1.414  1.00  0.00     0.158 HD
BRANCH  11  13
HETATM   13  C2  UNL     1      -2.026   0.280   0.301  1.00  0.00     0.114 C 
HETATM   14  C1  UNL     1      -3.503   0.039   0.126  1.00  0.00     0.026 C 
ENDBRANCH  11  13
ENDBRANCH   1  10
TORSDOF 4
