REMARK  13 active torsions:
REMARK  status: ('A' for Active; 'I' for Inactive)
REMARK    1  A    between atoms: N2_4  and  N3_6 
REMARK    2  A    between atoms: C1_8  and  C2_9 
REMARK    3  A    between atoms: C3_10  and  O1_11 
REMARK    4  A    between atoms: C4_13  and  O2_14 
REMARK    5  A    between atoms: O2_14  and  C5_15 
REMARK    6  A    between atoms: C5_15  and  C6_16 
REMARK    7  A    between atoms: C6_16  and  C7_17 
REMARK    8  A    between atoms: C7_17  and  C8_18 
REMARK    9  A    between atoms: C8_18  and  C9_19 
REMARK   10  A    between atoms: C9_19  and  C10_20 
REMARK   11  A    between atoms: C10_20  and  O3_21 
REMARK   12  A    between atoms: C11_23  and  N4_24 
REMARK   13  A    between atoms: C12_28  and  C13_29 
ROOT
HETATM    1  C2  UNL     1      -3.017   0.699   0.424  1.00  0.00     0.070 C 
HETATM    2  C3  UNL     1      -2.026   1.060   1.543  1.00  0.00     0.159 C 
HETATM    3  C4  UNL     1      -0.731   0.493   0.956  1.00  0.00     0.181 C 
HETATM    4  C11 UNL     1      -1.146  -0.633   0.050  1.00  0.00     0.226 C 
HETATM    5  C12 UNL     1      -2.616  -0.752   0.264  1.00  0.00     0.094 C 
ENDROOT
BRANCH   3   6
HETATM    6  O2  UNL     1      -0.103   1.478   0.242  1.00  0.00    -0.381 OA
BRANCH   6   7
HETATM    7  C5  UNL     1       1.162   1.809   0.625  1.00  0.00     0.168 C 
BRANCH   7   8
HETATM    8  C6  UNL     1       2.208   0.760   0.542  1.00  0.00     0.026 C 
BRANCH   8   9
HETATM    9  C7  UNL     1       2.475   0.225  -0.839  1.00  0.00     0.002 C 
BRANCH   9  10
HETATM   10  C8  UNL     1       3.539  -0.829  -0.816  1.00  0.00     0.002 C 
BRANCH  10  11
HETATM   11  C9  UNL     1       4.868  -0.312  -0.279  1.00  0.00     0.026 C 
BRANCH  11  12
HETATM   12  C10 UNL     1       5.881  -1.458  -0.300  1.00  0.00     0.164 C 
BRANCH  12  13
HETATM   13  O3  UNL     1       7.108  -1.035   0.180  1.00  0.00    -0.401 OA
ATOM     14  H3  UNL     1       7.737  -1.747   0.167  1.00  0.00     0.209 HD
ENDBRANCH  12  13
ENDBRANCH  11  12
ENDBRANCH  10  11
ENDBRANCH   9  10
ENDBRANCH   8   9
ENDBRANCH   7   8
ENDBRANCH   6   7
ENDBRANCH   3   6
BRANCH   2  15
HETATM   15  O1  UNL     1      -2.444   0.334   2.657  1.00  0.00    -0.392 OA
ATOM     16  H1  UNL     1      -1.832   0.557   3.348  1.00  0.00     0.210 HD
ENDBRANCH   2  15
BRANCH   4  17
HETATM   17  N4  UNL     1      -0.436  -1.861   0.384  1.00  0.00    -0.072 N 
ATOM     18  H43 UNL     1       0.575  -1.725   0.376  1.00  0.00     0.274 HD
ATOM     19  H42 UNL     1      -0.552  -2.107   1.367  1.00  0.00     0.274 HD
ATOM     20  H41 UNL     1      -0.718  -2.625  -0.231  1.00  0.00     0.274 HD
ENDBRANCH   4  17
BRANCH   1  21
HETATM   21  C1  UNL     1      -4.395   0.874   0.877  1.00  0.00     0.089 C 
HETATM   22  N3  UNL     1      -4.950   2.021   0.775  1.00  0.00    -0.301 N 
ATOM     23  H3  UNL     1      -5.912   2.155   1.088  1.00  0.00     0.187 HD
BRANCH  22  24
HETATM   24  N2  UNL     1      -4.235   3.088   0.234  1.00  0.00    -0.250 N 
HETATM   25  N1  UNL     1      -4.346   3.285  -1.023  1.00  0.00    -0.331 N 
ATOM     26  H12 UNL     1      -4.936   2.679  -1.592  1.00  0.00     0.178 HD
ATOM     27  H11 UNL     1      -3.823   4.066  -1.419  1.00  0.00     0.178 HD
ATOM     28  H2  UNL     1      -3.649   3.686   0.817  1.00  0.00     0.207 HD
ENDBRANCH  22  24
ENDBRANCH   1  21
BRANCH   5  29
HETATM   29  C13 UNL     1      -3.334  -1.432  -0.820  1.00  0.00     0.093 C 
HETATM   30  N5  UNL     1      -2.769  -1.969  -1.840  1.00  0.00    -0.391 N 
ATOM     31  H52 UNL     1      -1.752  -1.919  -1.901  1.00  0.00     0.157 HD
ATOM     32  H51 UNL     1      -3.268  -2.442  -2.594  1.00  0.00     0.157 HD
HETATM   33  N6  UNL     1      -4.752  -1.502  -0.735  1.00  0.00    -0.088 NA
ENDBRANCH   5  29
TORSDOF 13
