REMARK  4 active torsions:
REMARK  status: ('A' for Active; 'I' for Inactive)
REMARK       I    between atoms: C1_4  and  N3_6 
REMARK    1  A    between atoms: N3_6  and  C2_8 
REMARK    2  A    between atoms: C2_8  and  C3_9 
REMARK    3  A    between atoms: C3_9  and  O1_10 
REMARK    4  A    between atoms: O1_10  and  C4_11 
ROOT
HETATM    1  C3  UNL     1       0.268   0.850  -0.539  1.00  0.00     0.197 C 
ENDROOT
BRANCH   1   2
HETATM    2  C2  UNL     1      -1.226   0.858  -0.769  1.00  0.00     0.149 C 
BRANCH   2   3
HETATM    3  N3  UNL     1      -1.946   0.225   0.302  1.00  0.00    -0.363 N 
HETATM    4  C1  UNL     1      -3.349   0.140   0.257  1.00  0.00     0.181 C 
HETATM    5  N1  UNL     1      -4.032  -0.773   0.873  1.00  0.00    -0.374 N 
HETATM    6  N2  UNL     1      -4.105   1.088  -0.494  1.00  0.00    -0.064 NA
ATOM      7  H12 UNL     1      -5.050  -0.835   0.840  1.00  0.00     0.158 HD
ATOM      8  H11 UNL     1      -3.491  -1.451   1.410  1.00  0.00     0.158 HD
ATOM      9  H3  UNL     1      -1.438  -0.164   1.097  1.00  0.00     0.162 HD
ENDBRANCH   2   3
ENDBRANCH   1   2
BRANCH   1  10
HETATM   10  O1  UNL     1       0.785  -0.453  -0.425  1.00  0.00    -0.333 OA
BRANCH  10  11
HETATM   11  C4  UNL     1       2.151  -0.578  -0.211  1.00  0.00     0.158 A 
HETATM   12  C5  UNL     1       2.840  -1.771  -0.075  1.00  0.00     0.145 A 
HETATM   13  N4  UNL     1       4.160  -1.486   0.122  1.00  0.00    -0.358 N 
HETATM   14  C6  UNL     1       4.290  -0.152   0.108  1.00  0.00     0.182 A 
ATOM     15  H4  UNL     1       4.910  -2.164   0.255  1.00  0.00     0.166 HD
HETATM   16  N5  UNL     1       3.091   0.387  -0.091  1.00  0.00    -0.332 N 
ATOM     17  H5  UNL     1       2.906   1.389  -0.146  1.00  0.00     0.168 HD
ENDBRANCH  10  11
ENDBRANCH   1  10
TORSDOF 4
