REMARK  2 active torsions:
REMARK  status: ('A' for Active; 'I' for Inactive)
REMARK       I    between atoms: C1_4  and  N2_5 
REMARK       I    between atoms: C1_4  and  N3_11 
REMARK    1  A    between atoms: N2_5  and  C2_7 
REMARK    2  A    between atoms: N3_11  and  N4_13 
ROOT
HETATM    1  N1  UNL     1       2.109  -1.247  -1.482  1.00  0.00    -0.233 N 
ATOM      2  H11 UNL     1       2.998  -1.007  -1.921  1.00  0.00     0.174 HD
ATOM      3  H12 UNL     1       1.661  -2.120  -1.761  1.00  0.00     0.174 HD
HETATM    4  C1  UNL     1       1.550  -0.492  -0.601  1.00  0.00     0.691 C 
HETATM    5  N2  UNL     1       0.312  -0.827   0.011  1.00  0.00    -0.221 N 
ATOM      6  H2  UNL     1       0.327  -1.297   0.916  1.00  0.00     0.178 HD
HETATM    7  N3  UNL     1       2.175   0.725  -0.212  1.00  0.00    -0.072 N 
ATOM      8  H3  UNL     1       2.133   1.556  -0.801  1.00  0.00     0.212 HD
ENDROOT
BRANCH   5   9
HETATM    9  C2  UNL     1      -0.968  -0.532  -0.592  1.00  0.00     0.099 C 
HETATM   10  C3  UNL     1      -2.123  -0.988   0.252  1.00  0.00     0.026 C 
HETATM   11  C4  UNL     1      -2.363   0.452   0.687  1.00  0.00     0.004 C 
HETATM   12  C5  UNL     1      -1.442   0.902  -0.398  1.00  0.00     0.026 C 
ENDBRANCH   5   9
BRANCH   7  13
HETATM   13  N4  UNL     1       2.846   0.733   1.006  1.00  0.00    -0.024 N 
HETATM   14  O1  UNL     1       3.634  -0.187   1.254  1.00  0.00    -0.516 OA
HETATM   15  O2  UNL     1       2.612   1.753   1.883  1.00  0.00    -0.516 OA
ENDBRANCH   7  13
TORSDOF 2
