REMARK  13 active torsions:
REMARK  status: ('A' for Active; 'I' for Inactive)
REMARK    1  A    between atoms: C5_5  and  S1_6 
REMARK    2  A    between atoms: S1_6  and  N1_9 
REMARK    3  A    between atoms: N1_9  and  C6_11 
REMARK    4  A    between atoms: C6_11  and  C7_12 
REMARK    5  A    between atoms: C7_12  and  C8_13 
REMARK    6  A    between atoms: C8_13  and  C9_14 
REMARK    7  A    between atoms: C9_14  and  C10_15 
REMARK    8  A    between atoms: C10_15  and  C11_16 
REMARK    9  A    between atoms: C11_16  and  C12_17 
REMARK   10  A    between atoms: C12_17  and  C13_18 
REMARK   11  A    between atoms: C13_18  and  C14_19 
REMARK   12  A    between atoms: C21_28  and  N2_29 
REMARK   13  A    between atoms: N2_29  and  C22_32 
ROOT
HETATM    1  C1  UNL     1      -0.743  -1.211  -0.034  1.00  0.00     0.016 C 
HETATM    2  C2  UNL     1      -1.554   0.043  -0.392  1.00  0.00    -0.036 C 
HETATM    3  C3  UNL     1      -1.236   0.394  -1.813  1.00  0.00     0.011 C 
HETATM    4  C4  UNL     1       0.280   0.517  -1.892  1.00  0.00     0.022 C 
HETATM    5  C5  UNL     1       0.769   1.658  -1.017  1.00  0.00     0.130 C 
HETATM    6  C15 UNL     1       0.201   1.686   0.345  1.00  0.00     0.027 C 
HETATM    7  C16 UNL     1      -1.204   1.212   0.469  1.00  0.00    -0.005 C 
HETATM    8  C17 UNL     1      -1.460   0.924   1.956  1.00  0.00     0.006 C 
HETATM    9  C18 UNL     1      -2.905   0.550   2.130  1.00  0.00     0.005 C 
HETATM   10  C19 UNL     1      -3.326  -0.551   1.223  1.00  0.00    -0.008 C 
HETATM   11  C20 UNL     1      -4.863  -0.548   1.176  1.00  0.00     0.038 C 
HETATM   12  C21 UNL     1      -5.134   0.601   0.243  1.00  0.00     0.187 C 
HETATM   13  C27 UNL     1      -3.976   0.655  -0.734  1.00  0.00     0.038 C 
HETATM   14  C28 UNL     1      -2.995  -0.337  -0.229  1.00  0.00     0.000 C 
ENDROOT
BRANCH   5  15
HETATM   15  S1  UNL     1       2.500   1.797  -1.135  1.00  0.00     0.234 S 
HETATM   16  O1  UNL     1       2.933   3.238  -0.822  1.00  0.00    -0.205 OA
HETATM   17  O2  UNL     1       2.895   1.622  -2.595  1.00  0.00    -0.205 OA
BRANCH  15  18
HETATM   18  N1  UNL     1       3.455   0.781  -0.215  1.00  0.00    -0.299 N 
ATOM     19  H1  UNL     1       4.089   1.182   0.476  1.00  0.00     0.177 HD
BRANCH  18  20
HETATM   20  C6  UNL     1       3.403  -0.606  -0.373  1.00  0.00     0.073 C 
BRANCH  20  21
HETATM   21  C7  UNL     1       4.379  -1.303   0.553  1.00  0.00     0.045 C 
BRANCH  21  22
HETATM   22  C8  UNL     1       5.816  -1.011   0.322  1.00  0.00     0.005 C 
BRANCH  22  23
HETATM   23  C9  UNL     1       6.271   0.384   0.499  1.00  0.00     0.000 C 
BRANCH  23  24
HETATM   24  C10 UNL     1       7.775   0.519   0.179  1.00  0.00     0.000 C 
BRANCH  24  25
HETATM   25  C11 UNL     1       8.636  -0.327   1.055  1.00  0.00     0.001 C 
BRANCH  25  26
HETATM   26  C12 UNL     1      10.077  -0.134   0.629  1.00  0.00     0.010 C 
BRANCH  26  27
HETATM   27  C13 UNL     1      10.335  -0.494  -0.809  1.00  0.00     0.113 C 
BRANCH  27  28
HETATM   28  C14 UNL     1      10.052  -1.924  -1.076  1.00  0.00     0.172 C 
HETATM   29  O3  UNL     1       9.841  -2.698  -0.077  1.00  0.00    -0.648 OA
HETATM   30  O4  UNL     1      10.001  -2.467  -2.328  1.00  0.00    -0.648 OA
ENDBRANCH  27  28
ENDBRANCH  26  27
ENDBRANCH  25  26
ENDBRANCH  24  25
ENDBRANCH  23  24
ENDBRANCH  22  23
ENDBRANCH  21  22
ENDBRANCH  20  21
ENDBRANCH  18  20
ENDBRANCH  15  18
ENDBRANCH   5  15
BRANCH  12  31
HETATM   31  N2  UNL     1      -6.388   0.394  -0.398  1.00  0.00    -0.065 N 
ATOM     32  H22 UNL     1      -6.527   1.075  -1.144  1.00  0.00     0.278 HD
ATOM     33  H21 UNL     1      -6.372  -0.463  -0.950  1.00  0.00     0.278 HD
BRANCH  31  34
HETATM   34  C22 UNL     1      -7.490   0.395   0.490  1.00  0.00     0.211 C 
HETATM   35  C23 UNL     1      -8.724   1.063  -0.103  1.00  0.00     0.036 C 
HETATM   36  C24 UNL     1      -9.388   0.044  -1.008  1.00  0.00     0.029 C 
HETATM   37  C25 UNL     1      -9.921  -1.135  -0.234  1.00  0.00     0.232 C 
HETATM   38  N3  UNL     1      -9.344  -1.076   1.115  1.00  0.00    -0.073 N 
HETATM   39  C26 UNL     1      -7.886  -0.946   1.042  1.00  0.00     0.265 C 
ATOM     40  H32 UNL     1      -9.764  -0.334   1.676  1.00  0.00     0.277 HD
ATOM     41  H31 UNL     1      -9.626  -1.874   1.684  1.00  0.00     0.277 HD
ENDBRANCH  31  34
ENDBRANCH  12  31
TORSDOF 13
