REMARK  14 active torsions:
REMARK  status: ('A' for Active; 'I' for Inactive)
REMARK    1  A    between atoms: C2_2  and  N1_3 
REMARK       I    between atoms: N1_3  and  C3_5 
REMARK    2  A    between atoms: C3_5  and  S1_7 
REMARK    3  A    between atoms: S1_7  and  N2_10 
REMARK    4  A    between atoms: N2_10  and  C4_12 
REMARK    5  A    between atoms: C4_12  and  C5_13 
REMARK    6  A    between atoms: C4_12  and  C9_21 
REMARK    7  A    between atoms: C5_13  and  C6_14 
REMARK    8  A    between atoms: C6_14  and  C7_15 
REMARK    9  A    between atoms: C7_15  and  C8_16 
REMARK   10  A    between atoms: C8_16  and  N3_17 
REMARK       I    between atoms: C9_21  and  N4_23 
REMARK   11  A    between atoms: N4_23  and  C10_25 
REMARK   12  A    between atoms: C10_25  and  C11_26 
REMARK   13  A    between atoms: C11_26  and  C12_27 
REMARK   14  A    between atoms: C12_27  and  C13_28 
ROOT
HETATM    1  C9  UNL     1      -3.093  -1.068  -2.808  1.00  0.00     0.241 C 
HETATM    2  O4  UNL     1      -3.146  -1.563  -3.965  1.00  0.00    -0.271 OA
HETATM    3  N4  UNL     1      -1.983  -1.321  -1.944  1.00  0.00    -0.359 N 
ATOM      4  H4  UNL     1      -1.943  -0.914  -1.010  1.00  0.00     0.162 HD
ENDROOT
BRANCH   1   5
HETATM    5  C4  UNL     1      -4.214  -0.206  -2.359  1.00  0.00     0.185 C 
BRANCH   5   6
HETATM    6  N2  UNL     1      -4.830   0.497  -3.471  1.00  0.00    -0.298 N 
ATOM      7  H2  UNL     1      -5.264   0.055  -4.281  1.00  0.00     0.173 HD
BRANCH   6   8
HETATM    8  S1  UNL     1      -4.710   2.216  -3.203  1.00  0.00     0.314 S 
HETATM    9  O2  UNL     1      -5.274   2.964  -4.381  1.00  0.00    -0.196 OA
HETATM   10  O3  UNL     1      -3.243   2.565  -3.140  1.00  0.00    -0.196 OA
BRANCH   8  11
HETATM   11  C3  UNL     1      -5.557   2.683  -1.771  1.00  0.00     0.356 C 
HETATM   12  N1  UNL     1      -4.961   2.733  -0.468  1.00  0.00    -0.347 N 
ATOM     13  H1  UNL     1      -3.978   2.482  -0.367  1.00  0.00     0.163 HD
HETATM   14  O1  UNL     1      -6.794   3.017  -1.807  1.00  0.00    -0.253 OA
BRANCH  12  15
HETATM   15  C2  UNL     1      -5.700   3.124   0.699  1.00  0.00     0.119 C 
HETATM   16  C1  UNL     1      -4.837   3.076   1.933  1.00  0.00     0.026 C 
ENDBRANCH  12  15
ENDBRANCH   8  11
ENDBRANCH   6   8
ENDBRANCH   5   6
BRANCH   5  17
HETATM   17  C5  UNL     1      -5.299  -1.102  -1.766  1.00  0.00     0.035 C 
BRANCH  17  18
HETATM   18  C6  UNL     1      -4.799  -1.888  -0.616  1.00  0.00     0.004 C 
BRANCH  18  19
HETATM   19  C7  UNL     1      -5.760  -2.799   0.043  1.00  0.00     0.027 C 
BRANCH  19  20
HETATM   20  C8  UNL     1      -6.980  -2.232   0.655  1.00  0.00     0.229 C 
BRANCH  20  21
HETATM   21  N3  UNL     1      -7.884  -1.557  -0.234  1.00  0.00    -0.079 N 
ATOM     22  H33 UNL     1      -7.385  -0.829  -0.745  1.00  0.00     0.274 HD
ATOM     23  H32 UNL     1      -8.141  -2.178  -1.001  1.00  0.00     0.274 HD
ATOM     24  H31 UNL     1      -8.726  -1.166   0.188  1.00  0.00     0.274 HD
ENDBRANCH  20  21
ENDBRANCH  19  20
ENDBRANCH  18  19
ENDBRANCH  17  18
ENDBRANCH   5  17
ENDBRANCH   1   5
BRANCH   3  25
HETATM   25  C10 UNL     1      -0.921  -2.167  -2.429  1.00  0.00     0.122 C 
BRANCH  25  26
HETATM   26  C11 UNL     1       0.174  -2.250  -1.346  1.00  0.00     0.020 C 
BRANCH  26  27
HETATM   27  C12 UNL     1       0.677  -0.863  -1.167  1.00  0.00     0.006 C 
BRANCH  27  28
HETATM   28  C13 UNL     1       1.756  -0.678  -0.139  1.00  0.00    -0.014 C 
HETATM   29  C14 UNL     1       2.098   0.811  -0.179  1.00  0.00     0.004 C 
HETATM   30  C15 UNL     1       2.728   1.166  -1.526  1.00  0.00     0.000 C 
HETATM   31  C16 UNL     1       3.965   2.023  -1.361  1.00  0.00     0.000 C 
HETATM   32  C17 UNL     1       5.137   1.300  -1.997  1.00  0.00     0.000 C 
HETATM   33  C18 UNL     1       5.891   0.460  -1.015  1.00  0.00     0.000 C 
HETATM   34  C19 UNL     1       6.800   1.264  -0.119  1.00  0.00     0.000 C 
HETATM   35  C20 UNL     1       7.407   0.313   0.887  1.00  0.00     0.000 C 
HETATM   36  C21 UNL     1       7.122   0.756   2.302  1.00  0.00     0.000 C 
HETATM   37  C22 UNL     1       5.665   0.965   2.569  1.00  0.00     0.000 C 
HETATM   38  C23 UNL     1       5.100  -0.039   3.546  1.00  0.00     0.000 C 
HETATM   39  C24 UNL     1       4.392  -1.160   2.819  1.00  0.00     0.000 C 
HETATM   40  C25 UNL     1       2.895  -1.005   3.033  1.00  0.00     0.000 C 
HETATM   41  C26 UNL     1       2.195  -1.891   2.026  1.00  0.00     0.000 C 
HETATM   42  C27 UNL     1       1.227  -1.068   1.209  1.00  0.00     0.004 C 
ENDBRANCH  27  28
ENDBRANCH  26  27
ENDBRANCH  25  26
ENDBRANCH   3  25
TORSDOF 14
