REMARK  15 active torsions:
REMARK  status: ('A' for Active; 'I' for Inactive)
REMARK    1  A    between atoms: C2_2  and  C3_3 
REMARK    2  A    between atoms: C3_3  and  C4_4 
REMARK    3  A    between atoms: C4_4  and  C5_5 
REMARK    4  A    between atoms: C5_5  and  C6_6 
REMARK    5  A    between atoms: C6_6  and  C7_7 
REMARK    6  A    between atoms: C7_7  and  C9_9 
REMARK    7  A    between atoms: C13_17  and  C14_18 
REMARK    8  A    between atoms: C14_18  and  C15_19 
REMARK    9  A    between atoms: C15_19  and  C16_20 
REMARK   10  A    between atoms: C19_26  and  C20_27 
REMARK   11  A    between atoms: C20_27  and  C22_29 
REMARK   12  A    between atoms: C24_31  and  O4_32 
REMARK   13  A    between atoms: C25_36  and  C26_37 
REMARK   14  A    between atoms: C26_37  and  C27_38 
REMARK   15  A    between atoms: C30_41  and  O5_42 
ROOT
HETATM    1  C9  UNL     1       1.537  -0.183  -0.209  1.00  0.00     0.157 C 
HETATM    2  O1  UNL     1       0.898   0.932  -0.260  1.00  0.00    -0.369 OA
HETATM    3  C10 UNL     1       0.583   1.955   0.467  1.00  0.00     0.209 C 
HETATM    4  C11 UNL     1       1.701   2.779   1.084  1.00  0.00     0.050 C 
HETATM    5  C12 UNL     1      -0.150   2.925  -0.442  1.00  0.00     0.247 C 
HETATM    6  O2  UNL     1       0.668   3.594  -1.172  1.00  0.00    -0.271 OA
HETATM    7  N1  UNL     1      -1.501   3.159  -0.571  1.00  0.00    -0.346 N 
ATOM      8  H1  UNL     1      -1.729   4.093  -0.911  1.00  0.00     0.163 HD
HETATM    9  C13 UNL     1      -2.659   2.327  -0.314  1.00  0.00     0.176 C 
HETATM   10  C18 UNL     1      -3.272   1.761  -1.538  1.00  0.00     0.241 C 
HETATM   11  O3  UNL     1      -3.144   2.530  -2.564  1.00  0.00    -0.271 OA
HETATM   12  N2  UNL     1      -3.942   0.569  -1.743  1.00  0.00    -0.347 N 
ATOM     13  H2  UNL     1      -4.826   0.620  -2.250  1.00  0.00     0.163 HD
HETATM   14  C19 UNL     1      -3.496  -0.800  -1.292  1.00  0.00     0.162 C 
HETATM   15  C24 UNL     1      -2.074  -0.745  -0.954  1.00  0.00     0.135 C 
HETATM   16  N3  UNL     1      -1.188  -1.114   0.006  1.00  0.00    -0.365 N 
ATOM     17  H3  UNL     1      -1.306  -0.496   0.809  1.00  0.00     0.161 HD
HETATM   18  C25 UNL     1      -0.151  -2.051   0.304  1.00  0.00     0.115 C 
HETATM   19  C30 UNL     1       1.137  -1.303   0.718  1.00  0.00     0.170 C 
ENDROOT
BRANCH   1  20
HETATM   20  C7  UNL     1       3.070  -0.083  -0.210  1.00  0.00     0.013 C 
HETATM   21  C8  UNL     1       3.752  -1.424  -0.201  1.00  0.00     0.012 C 
BRANCH  20  22
HETATM   22  C6  UNL     1       3.474   0.614  -1.489  1.00  0.00     0.007 C 
BRANCH  22  23
HETATM   23  C5  UNL     1       4.930   0.853  -1.657  1.00  0.00     0.000 C 
BRANCH  23  24
HETATM   24  C4  UNL     1       5.525   1.700  -0.567  1.00  0.00     0.000 C 
BRANCH  24  25
HETATM   25  C3  UNL     1       7.000   1.959  -0.721  1.00  0.00    -0.000 C 
BRANCH  25  26
HETATM   26  C2  UNL     1       7.758   0.675  -0.710  1.00  0.00    -0.005 C 
HETATM   27  C1  UNL     1       9.233   1.037  -0.861  1.00  0.00     0.005 C 
ENDBRANCH  25  26
ENDBRANCH  24  25
ENDBRANCH  23  24
ENDBRANCH  22  23
ENDBRANCH  20  22
ENDBRANCH   1  20
BRANCH  19  28
HETATM   28  O5  UNL     1       0.869  -0.813   2.001  1.00  0.00    -0.391 OA
ATOM     29  H5  UNL     1       0.617  -1.519   2.585  1.00  0.00     0.210 HD
ENDBRANCH  19  28
BRANCH  18  30
HETATM   30  C26 UNL     1      -0.499  -2.892   1.545  1.00  0.00     0.031 C 
BRANCH  30  31
HETATM   31  C27 UNL     1       0.585  -3.886   1.887  1.00  0.00    -0.021 C 
HETATM   32  C28 UNL     1       0.154  -4.686   3.107  1.00  0.00     0.009 C 
HETATM   33  C29 UNL     1       0.849  -4.868   0.771  1.00  0.00     0.009 C 
ENDBRANCH  30  31
ENDBRANCH  18  30
BRANCH  15  34
HETATM   34  O4  UNL     1      -1.557  -0.092  -1.992  1.00  0.00    -0.348 OA
ATOM     35  H4  UNL     1      -0.633  -0.056  -1.772  1.00  0.00     0.219 HD
ENDBRANCH  15  34
BRANCH   9  36
HETATM   36  C14 UNL     1      -3.679   3.234   0.411  1.00  0.00     0.035 C 
BRANCH  36  37
HETATM   37  C15 UNL     1      -4.938   2.520   0.747  1.00  0.00     0.002 C 
BRANCH  37  38
HETATM   38  C16 UNL     1      -5.850   3.502   1.447  1.00  0.00    -0.004 C 
HETATM   39  C17 UNL     1      -6.163   4.696   0.553  1.00  0.00     0.005 C 
ENDBRANCH  37  38
ENDBRANCH  36  37
ENDBRANCH   9  36
BRANCH  14  40
HETATM   40  C20 UNL     1      -4.499  -1.363  -0.388  1.00  0.00     0.012 C 
HETATM   41  C21 UNL     1      -5.838  -1.466  -1.134  1.00  0.00     0.012 C 
BRANCH  40  42
HETATM   42  C22 UNL     1      -4.189  -2.625   0.322  1.00  0.00     0.002 C 
HETATM   43  C23 UNL     1      -3.891  -3.780  -0.580  1.00  0.00     0.005 C 
ENDBRANCH  40  42
ENDBRANCH  14  40
TORSDOF 15
