REMARK  15 active torsions:
REMARK  status: ('A' for Active; 'I' for Inactive)
REMARK       I    between atoms: C2_2  and  N1_4 
REMARK    1  A    between atoms: N1_4  and  C3_6 
REMARK    2  A    between atoms: C3_6  and  C4_7 
REMARK    3  A    between atoms: C4_7  and  C5_8 
REMARK    4  A    between atoms: C5_8  and  C6_9 
REMARK    5  A    between atoms: C6_9  and  C7_10 
REMARK    6  A    between atoms: C7_10  and  C8_11 
REMARK    7  A    between atoms: C8_11  and  N2_12 
REMARK    8  A    between atoms: N2_12  and  C9_14 
REMARK    9  A    between atoms: C19_24  and  O2_25 
REMARK   10  A    between atoms: C19_24  and  C20_27 
REMARK   11  A    between atoms: C20_27  and  C21_28 
REMARK   12  A    between atoms: C21_28  and  C22_29 
REMARK   13  A    between atoms: C22_29  and  C23_30 
REMARK   14  A    between atoms: C23_30  and  C24_31 
REMARK   15  A    between atoms: C25_34  and  O5_35 
ROOT
HETATM    1  C9  UNL     1       0.570  -0.061  -0.433  1.00  0.00     0.078 C 
HETATM    2  C10 UNL     1       1.062  -1.163  -1.281  1.00  0.00     0.024 C 
HETATM    3  C11 UNL     1       0.337  -2.462  -1.201  1.00  0.00     0.002 C 
HETATM    4  C12 UNL     1       0.132  -3.205  -2.466  1.00  0.00     0.000 C 
HETATM    5  C13 UNL     1      -1.007  -2.788  -3.318  1.00  0.00     0.000 C 
HETATM    6  C14 UNL     1      -2.352  -2.739  -2.711  1.00  0.00     0.000 C 
HETATM    7  C15 UNL     1      -2.795  -3.928  -1.941  1.00  0.00     0.000 C 
HETATM    8  C16 UNL     1      -3.894  -3.626  -0.945  1.00  0.00     0.000 C 
HETATM    9  C17 UNL     1      -3.413  -2.780   0.181  1.00  0.00     0.004 C 
HETATM   10  C18 UNL     1      -4.359  -2.458   1.248  1.00  0.00     0.046 C 
HETATM   11  C19 UNL     1      -4.406  -0.927   1.549  1.00  0.00     0.122 C 
HETATM   12  C25 UNL     1      -3.221  -0.523   2.287  1.00  0.00     0.149 C 
HETATM   13  N3  UNL     1      -2.170   0.371   2.117  1.00  0.00    -0.358 N 
HETATM   14  C26 UNL     1      -1.685   1.342   3.124  1.00  0.00     0.125 C 
HETATM   15  C27 UNL     1      -1.511   2.588   2.244  1.00  0.00     0.022 C 
HETATM   16  C28 UNL     1      -0.594   1.915   1.231  1.00  0.00     0.027 C 
HETATM   17  C29 UNL     1      -1.294   0.590   1.007  1.00  0.00     0.088 C 
HETATM   18  C30 UNL     1      -0.161  -0.403   0.828  1.00  0.00     0.050 C 
ENDROOT
BRANCH   1  19
HETATM   19  N2  UNL     1       1.628   0.896  -0.199  1.00  0.00    -0.417 N 
ATOM     20  H2  UNL     1       1.554   1.869  -0.497  1.00  0.00     0.153 HD
BRANCH  19  21
HETATM   21  C8  UNL     1       2.783   0.397   0.475  1.00  0.00     0.114 C 
BRANCH  21  22
HETATM   22  C7  UNL     1       3.591   1.613   0.910  1.00  0.00     0.019 C 
BRANCH  22  23
HETATM   23  C6  UNL     1       4.849   1.238   1.641  1.00  0.00     0.002 C 
BRANCH  23  24
HETATM   24  C5  UNL     1       5.805   0.466   0.766  1.00  0.00     0.002 C 
BRANCH  24  25
HETATM   25  C4  UNL     1       7.004   0.126   1.628  1.00  0.00     0.020 C 
BRANCH  25  26
HETATM   26  C3  UNL     1       8.072  -0.588   0.850  1.00  0.00     0.122 C 
BRANCH  26  27
HETATM   27  N1  UNL     1       8.573   0.208  -0.243  1.00  0.00    -0.361 N 
HETATM   28  C2  UNL     1       9.199   1.472  -0.022  1.00  0.00     0.213 C 
HETATM   29  C1  UNL     1       9.705   2.289  -1.153  1.00  0.00     0.117 C 
HETATM   30  O1  UNL     1       9.349   1.943   1.127  1.00  0.00    -0.274 OA
ATOM     31  H1  UNL     1       8.478  -0.140  -1.197  1.00  0.00     0.162 HD
ENDBRANCH  26  27
ENDBRANCH  25  26
ENDBRANCH  24  25
ENDBRANCH  23  24
ENDBRANCH  22  23
ENDBRANCH  21  22
ENDBRANCH  19  21
ENDBRANCH   1  19
BRANCH  12  32
HETATM   32  O5  UNL     1      -3.161  -1.213   3.413  1.00  0.00    -0.347 OA
ATOM     33  H5  UNL     1      -2.386  -0.949   3.895  1.00  0.00     0.219 HD
ENDBRANCH  12  32
BRANCH  11  34
HETATM   34  O2  UNL     1      -5.495  -0.866   2.472  1.00  0.00    -0.381 OA
ATOM     35  H2  UNL     1      -5.524   0.066   2.655  1.00  0.00     0.211 HD
ENDBRANCH  11  34
BRANCH  11  36
HETATM   36  C20 UNL     1      -4.890  -0.224   0.374  1.00  0.00     0.046 C 
BRANCH  36  37
HETATM   37  C21 UNL     1      -5.047   1.266   0.483  1.00  0.00     0.004 C 
BRANCH  37  38
HETATM   38  C22 UNL     1      -5.573   1.859  -0.818  1.00  0.00     0.011 C 
BRANCH  38  39
HETATM   39  C23 UNL     1      -5.693   3.350  -0.585  1.00  0.00     0.113 C 
BRANCH  39  40
HETATM   40  C24 UNL     1      -6.194   4.076  -1.765  1.00  0.00     0.172 C 
HETATM   41  O3  UNL     1      -6.456   3.429  -2.803  1.00  0.00    -0.648 OA
HETATM   42  O4  UNL     1      -6.343   5.448  -1.643  1.00  0.00    -0.648 OA
ENDBRANCH  39  40
ENDBRANCH  38  39
ENDBRANCH  37  38
ENDBRANCH  36  37
ENDBRANCH  11  36
TORSDOF 15
