REMARK  16 active torsions:
REMARK  status: ('A' for Active; 'I' for Inactive)
REMARK    1  A    between atoms: C2_2  and  C3_3 
REMARK    2  A    between atoms: C3_3  and  C4_4 
REMARK    3  A    between atoms: C4_4  and  C5_5 
REMARK    4  A    between atoms: C5_5  and  C6_6 
REMARK    5  A    between atoms: C6_6  and  N1_7 
REMARK    6  A    between atoms: N1_7  and  C7_8 
REMARK       I    between atoms: N1_7  and  C12_13 
REMARK    7  A    between atoms: C7_8  and  C8_9 
REMARK    8  A    between atoms: C8_9  and  C9_10 
REMARK    9  A    between atoms: C9_10  and  C10_11 
REMARK   10  A    between atoms: C12_13  and  C13_15 
REMARK   11  A    between atoms: C13_15  and  C14_16 
REMARK   12  A    between atoms: C14_16  and  N2_17 
REMARK   13  A    between atoms: N2_17  and  C15_20 
REMARK   14  A    between atoms: C23_28  and  O2_29 
REMARK   15  A    between atoms: C25_32  and  O3_33 
REMARK   16  A    between atoms: C27_36  and  O4_37 
ROOT
HETATM    1  C15 UNL     1      -0.598   0.099   0.041  1.00  0.00     0.190 C 
HETATM    2  C16 UNL     1      -0.640  -1.374   0.313  1.00  0.00     0.034 C 
HETATM    3  C17 UNL     1      -2.066  -1.721   0.732  1.00  0.00     0.007 C 
HETATM    4  C18 UNL     1      -2.645  -0.386   1.093  1.00  0.00    -0.004 C 
HETATM    5  C19 UNL     1      -2.049   0.525   0.078  1.00  0.00     0.020 C 
HETATM    6  C20 UNL     1      -2.658   0.274  -1.262  1.00  0.00     0.007 C 
HETATM    7  C21 UNL     1      -4.151   0.427  -1.230  1.00  0.00     0.008 C 
HETATM    8  C22 UNL     1      -4.702   0.581   0.183  1.00  0.00     0.019 C 
HETATM    9  C23 UNL     1      -6.163   0.731   0.130  1.00  0.00     0.130 C 
HETATM   10  C24 UNL     1      -7.010  -0.250   0.819  1.00  0.00     0.054 C 
HETATM   11  C25 UNL     1      -8.469   0.096   0.467  1.00  0.00     0.128 C 
HETATM   12  C26 UNL     1      -8.798  -0.760  -0.740  1.00  0.00     0.064 C 
HETATM   13  C27 UNL     1      -7.809  -1.868  -0.800  1.00  0.00     0.129 C 
HETATM   14  C28 UNL     1      -6.955  -1.669   0.420  1.00  0.00    -0.010 C 
HETATM   15  C29 UNL     1      -7.671  -2.437   1.551  1.00  0.00     0.018 C 
HETATM   16  C30 UNL     1      -5.584  -2.260   0.300  1.00  0.00     0.012 C 
HETATM   17  C31 UNL     1      -4.750  -1.665   1.389  1.00  0.00     0.006 C 
HETATM   18  C32 UNL     1      -4.144  -0.347   1.199  1.00  0.00    -0.004 C 
ENDROOT
BRANCH   1  19
HETATM   19  N2  UNL     1       0.032   0.347  -1.228  1.00  0.00    -0.070 N 
ATOM     20  H22 UNL     1      -0.045   1.323  -1.515  1.00  0.00     0.277 HD
ATOM     21  H21 UNL     1      -0.481  -0.072  -2.004  1.00  0.00     0.277 HD
BRANCH  19  22
HETATM   22  C14 UNL     1       1.401  -0.101  -1.170  1.00  0.00     0.242 C 
BRANCH  22  23
HETATM   23  C13 UNL     1       2.280   0.771  -0.281  1.00  0.00     0.130 C 
BRANCH  23  24
HETATM   24  C12 UNL     1       3.662   0.285  -0.246  1.00  0.00     0.225 C 
HETATM   25  N1  UNL     1       4.787   1.038   0.263  1.00  0.00    -0.328 N 
HETATM   26  O1  UNL     1       3.904  -0.869  -0.683  1.00  0.00    -0.273 OA
BRANCH  25  27
HETATM   27  C6  UNL     1       6.047   0.392   0.287  1.00  0.00     0.131 C 
BRANCH  27  28
HETATM   28  C5  UNL     1       6.903   0.419  -0.919  1.00  0.00     0.020 C 
BRANCH  28  29
HETATM   29  C4  UNL     1       8.178  -0.359  -0.579  1.00  0.00     0.002 C 
BRANCH  29  30
HETATM   30  C3  UNL     1       7.944  -1.774  -0.202  1.00  0.00    -0.000 C 
BRANCH  30  31
HETATM   31  C2  UNL     1       7.292  -2.619  -1.258  1.00  0.00    -0.005 C 
HETATM   32  C1  UNL     1       7.096  -4.044  -0.787  1.00  0.00     0.005 C 
ENDBRANCH  30  31
ENDBRANCH  29  30
ENDBRANCH  28  29
ENDBRANCH  27  28
ENDBRANCH  25  27
BRANCH  25  33
HETATM   33  C7  UNL     1       4.559   2.346   0.790  1.00  0.00     0.090 C 
BRANCH  33  34
HETATM   34  C8  UNL     1       4.572   3.527  -0.052  1.00  0.00    -0.009 C 
BRANCH  34  35
HETATM   35  C9  UNL     1       5.746   4.074  -0.734  1.00  0.00     0.028 C 
BRANCH  35  36
HETATM   36  C10 UNL     1       6.827   4.660   0.093  1.00  0.00    -0.001 C 
HETATM   37  C11 UNL     1       7.547   3.857   1.092  1.00  0.00     0.005 C 
ENDBRANCH  35  36
ENDBRANCH  34  35
ENDBRANCH  33  34
ENDBRANCH  25  33
ENDBRANCH  23  24
ENDBRANCH  22  23
ENDBRANCH  19  22
ENDBRANCH   1  19
BRANCH   9  38
HETATM   38  O2  UNL     1      -6.598   0.794  -1.219  1.00  0.00    -0.395 OA
ATOM     39  H2  UNL     1      -7.542   0.891  -1.253  1.00  0.00     0.210 HD
ENDBRANCH   9  38
BRANCH  11  40
HETATM   40  O3  UNL     1      -9.317  -0.107   1.528  1.00  0.00    -0.395 OA
ATOM     41  H3  UNL     1     -10.217   0.106   1.311  1.00  0.00     0.210 HD
ENDBRANCH  11  40
BRANCH  13  42
HETATM   42  O4  UNL     1      -7.085  -1.949  -1.972  1.00  0.00    -0.395 OA
ATOM     43  H4  UNL     1      -6.453  -2.657  -2.010  1.00  0.00     0.210 HD
ENDBRANCH  13  42
TORSDOF 16
