REMARK  15 active torsions:
REMARK  status: ('A' for Active; 'I' for Inactive)
REMARK    1  A    between atoms: C2_2  and  C3_3 
REMARK       I    between atoms: N1_14  and  C14_15 
REMARK       I    between atoms: C14_15  and  N2_17 
REMARK    2  A    between atoms: N2_17  and  C15_19 
REMARK    3  A    between atoms: C15_19  and  C16_20 
REMARK    4  A    between atoms: C16_20  and  C17_21 
REMARK    5  A    between atoms: C17_21  and  N3_22 
REMARK    6  A    between atoms: N3_22  and  C18_24 
REMARK    7  A    between atoms: C18_24  and  C19_25 
REMARK    8  A    between atoms: C19_25  and  C20_26 
REMARK    9  A    between atoms: C20_26  and  C21_27 
REMARK   10  A    between atoms: C21_27  and  N4_29 
REMARK   11  A    between atoms: N4_29  and  C23_31 
REMARK   12  A    between atoms: C23_31  and  C24_32 
REMARK   13  A    between atoms: C24_32  and  O2_33 
REMARK   14  A    between atoms: C24_32  and  C25_35 
REMARK   15  A    between atoms: C25_35  and  O3_36 
ROOT
HETATM    1  C3  UNL     1      -6.956   0.467  -0.394  1.00  0.00    -0.032 C 
HETATM    2  C4  UNL     1      -7.369  -0.374   0.760  1.00  0.00     0.015 C 
HETATM    3  C5  UNL     1      -7.054  -1.833   0.664  1.00  0.00    -0.013 C 
HETATM    4  C6  UNL     1      -7.416  -2.454  -0.651  1.00  0.00     0.009 C 
HETATM    5  C7  UNL     1      -6.637  -1.675  -1.690  1.00  0.00    -0.013 C 
HETATM    6  C8  UNL     1      -5.189  -1.823  -1.388  1.00  0.00     0.010 C 
HETATM    7  C9  UNL     1      -4.737  -1.318  -0.059  1.00  0.00    -0.004 C 
HETATM    8  C10 UNL     1      -5.589  -1.938   1.017  1.00  0.00     0.010 C 
HETATM    9  C11 UNL     1      -4.482   0.133   0.055  1.00  0.00    -0.026 C 
HETATM   10  C12 UNL     1      -3.953   0.433   1.435  1.00  0.00     0.030 C 
HETATM   11  C13 UNL     1      -2.838  -0.456   1.898  1.00  0.00     0.128 C 
HETATM   12  N1  UNL     1      -1.710  -0.147   1.019  1.00  0.00    -0.334 N 
HETATM   13  C14 UNL     1      -0.494   0.289   1.518  1.00  0.00     0.318 C 
HETATM   14  O1  UNL     1      -0.390   0.440   2.782  1.00  0.00    -0.247 OA
HETATM   15  N2  UNL     1       0.664   0.588   0.766  1.00  0.00    -0.343 N 
ATOM     16  H2  UNL     1       0.635   0.475  -0.247  1.00  0.00     0.164 HD
HETATM   17  C26 UNL     1      -1.997  -0.321  -0.356  1.00  0.00     0.128 C 
HETATM   18  C27 UNL     1      -3.245   0.401  -0.828  1.00  0.00     0.030 C 
HETATM   19  C28 UNL     1      -5.585   1.057  -0.327  1.00  0.00    -0.032 C 
HETATM   20  C29 UNL     1      -5.259   1.790  -1.626  1.00  0.00     0.016 C 
HETATM   21  C30 UNL     1      -5.662   2.217   0.684  1.00  0.00     0.016 C 
HETATM   22  C31 UNL     1      -7.158  -0.278  -1.697  1.00  0.00     0.015 C 
ENDROOT
BRANCH  15  23
HETATM   23  C15 UNL     1       1.900   1.052   1.387  1.00  0.00     0.126 C 
BRANCH  23  24
HETATM   24  C16 UNL     1       2.920   1.256   0.297  1.00  0.00     0.039 C 
BRANCH  24  25
HETATM   25  C17 UNL     1       4.229   1.764   0.808  1.00  0.00     0.115 C 
BRANCH  25  26
HETATM   26  N3  UNL     1       4.895   0.961   1.761  1.00  0.00    -0.421 N 
ATOM     27  H3  UNL     1       4.990   1.275   2.727  1.00  0.00     0.153 HD
BRANCH  26  28
HETATM   28  C18 UNL     1       5.428  -0.285   1.354  1.00  0.00     0.113 C 
BRANCH  28  29
HETATM   29  C19 UNL     1       6.637  -0.146   0.389  1.00  0.00     0.021 C 
BRANCH  29  30
HETATM   30  C20 UNL     1       7.090  -1.534   0.068  1.00  0.00     0.026 C 
BRANCH  30  31
HETATM   31  C21 UNL     1       8.192  -1.715  -0.879  1.00  0.00     0.072 C 
HETATM   32  C22 UNL     1       8.337  -3.291  -0.983  1.00  0.00     0.031 C 
BRANCH  31  33
HETATM   33  N4  UNL     1       9.444  -1.185  -0.709  1.00  0.00    -0.415 N 
ATOM     34  H4  UNL     1      10.218  -1.835  -0.574  1.00  0.00     0.153 HD
BRANCH  33  35
HETATM   35  C23 UNL     1       9.735   0.167  -0.707  1.00  0.00     0.147 C 
BRANCH  35  36
HETATM   36  C24 UNL     1      11.260   0.420  -0.694  1.00  0.00     0.159 C 
BRANCH  36  37
HETATM   37  O2  UNL     1      11.806  -0.148   0.442  1.00  0.00    -0.392 OA
ATOM     38  H2  UNL     1      12.743   0.007   0.450  1.00  0.00     0.210 HD
ENDBRANCH  36  37
BRANCH  36  39
HETATM   39  C25 UNL     1      11.492   1.897  -0.787  1.00  0.00     0.197 C 
BRANCH  39  40
HETATM   40  O3  UNL     1      10.917   2.417  -1.939  1.00  0.00    -0.398 OA
ATOM     41  H3  UNL     1      11.064   3.354  -1.998  1.00  0.00     0.209 HD
ENDBRANCH  39  40
ENDBRANCH  36  39
ENDBRANCH  35  36
ENDBRANCH  33  35
ENDBRANCH  31  33
ENDBRANCH  30  31
ENDBRANCH  29  30
ENDBRANCH  28  29
ENDBRANCH  26  28
ENDBRANCH  25  26
ENDBRANCH  24  25
ENDBRANCH  23  24
ENDBRANCH  15  23
BRANCH   1  42
HETATM   42  C2  UNL     1      -8.039   1.558  -0.408  1.00  0.00     0.006 C 
HETATM   43  C1  UNL     1      -9.403   1.034  -0.616  1.00  0.00     0.006 C 
ENDBRANCH   1  42
TORSDOF 15
