REMARK  15 active torsions:
REMARK  status: ('A' for Active; 'I' for Inactive)
REMARK    1  A    between atoms: C2_2  and  O1_3 
REMARK    2  A    between atoms: O1_3  and  C3_4 
REMARK       I    between atoms: C3_4  and  N1_6 
REMARK    3  A    between atoms: N1_6  and  C4_8 
REMARK    4  A    between atoms: C4_8  and  C5_9 
REMARK    5  A    between atoms: C5_9  and  C6_10 
REMARK    6  A    between atoms: C6_10  and  C7_11 
REMARK       I    between atoms: C7_11  and  N2_13 
REMARK    7  A    between atoms: N2_13  and  C8_15 
REMARK    8  A    between atoms: C8_15  and  C9_16 
REMARK    9  A    between atoms: C8_15  and  C16_23 
REMARK   10  A    between atoms: C9_16  and  C10_17 
REMARK   11  A    between atoms: C18_28  and  C19_29 
REMARK   12  A    between atoms: C19_29  and  C21_31 
REMARK   13  A    between atoms: C23_33  and  O5_34 
REMARK   14  A    between atoms: C24_36  and  C25_37 
REMARK   15  A    between atoms: C25_37  and  C26_38 
ROOT
HETATM    1  C8  UNL     1      -0.420   1.632  -0.603  1.00  0.00     0.098 C 
ENDROOT
BRANCH   1   2
HETATM    2  N2  UNL     1       0.444   0.849  -1.466  1.00  0.00    -0.356 N 
HETATM    3  C7  UNL     1       1.730   0.439  -1.029  1.00  0.00     0.217 C 
HETATM    4  O3  UNL     1       2.096   0.776   0.122  1.00  0.00    -0.274 OA
ATOM      5  H2  UNL     1       0.123   0.590  -2.399  1.00  0.00     0.162 HD
BRANCH   3   6
HETATM    6  C6  UNL     1       2.640  -0.370  -1.892  1.00  0.00     0.104 C 
BRANCH   6   7
HETATM    7  C5  UNL     1       3.940  -0.618  -1.120  1.00  0.00     0.029 C 
BRANCH   7   8
HETATM    8  C4  UNL     1       4.841  -1.432  -2.005  1.00  0.00     0.125 C 
BRANCH   8   9
HETATM    9  N1  UNL     1       6.106  -1.728  -1.389  1.00  0.00    -0.337 N 
HETATM   10  C3  UNL     1       6.263  -2.461  -0.188  1.00  0.00     0.360 C 
HETATM   11  O2  UNL     1       5.251  -2.894   0.397  1.00  0.00    -0.239 OA
ATOM     12  H1  UNL     1       6.949  -1.386  -1.850  1.00  0.00     0.164 HD
BRANCH  10  13
HETATM   13  O1  UNL     1       7.507  -2.709   0.353  1.00  0.00    -0.304 OA
BRANCH  13  14
HETATM   14  C2  UNL     1       7.718  -3.432   1.545  1.00  0.00     0.176 C 
HETATM   15  C1  UNL     1       9.209  -3.488   1.805  1.00  0.00     0.034 C 
ENDBRANCH  13  14
ENDBRANCH  10  13
ENDBRANCH   8   9
ENDBRANCH   7   8
ENDBRANCH   6   7
ENDBRANCH   3   6
ENDBRANCH   1   2
BRANCH   1  16
HETATM   16  C9  UNL     1      -0.386   3.031  -1.150  1.00  0.00     0.030 C 
BRANCH  16  17
HETATM   17  C10 UNL     1      -1.216   4.021  -0.396  1.00  0.00    -0.013 C 
HETATM   18  C11 UNL     1      -0.756   4.135   1.063  1.00  0.00     0.005 C 
HETATM   19  C12 UNL     1      -0.996   5.556   1.551  1.00  0.00     0.000 C 
HETATM   20  C13 UNL     1       0.089   6.461   0.978  1.00  0.00     0.000 C 
HETATM   21  C14 UNL     1       0.323   6.010  -0.443  1.00  0.00     0.000 C 
HETATM   22  C15 UNL     1      -0.932   5.392  -1.015  1.00  0.00     0.005 C 
ENDBRANCH  16  17
ENDBRANCH   1  16
BRANCH   1  23
HETATM   23  C16 UNL     1      -1.786   1.078  -0.451  1.00  0.00     0.107 C 
HETATM   24  C17 UNL     1      -2.522   0.964  -1.736  1.00  0.00     0.224 C 
HETATM   25  O4  UNL     1      -2.735   1.933  -2.519  1.00  0.00    -0.273 OA
HETATM   26  N3  UNL     1      -3.071  -0.294  -2.209  1.00  0.00    -0.353 N 
HETATM   27  C18 UNL     1      -3.421  -1.342  -1.284  1.00  0.00     0.117 C 
ATOM     28  H3  UNL     1      -3.211  -0.438  -3.209  1.00  0.00     0.163 HD
HETATM   29  C23 UNL     1      -3.278  -0.700   0.079  1.00  0.00     0.146 C 
HETATM   30  C24 UNL     1      -1.813  -0.318   0.158  1.00  0.00     0.032 C 
BRANCH  27  31
HETATM   31  C19 UNL     1      -4.660  -2.057  -1.545  1.00  0.00     0.006 C 
HETATM   32  C20 UNL     1      -4.986  -3.155  -0.549  1.00  0.00     0.012 C 
BRANCH  31  33
HETATM   33  C21 UNL     1      -5.918  -1.272  -1.734  1.00  0.00     0.002 C 
HETATM   34  C22 UNL     1      -5.921  -0.315  -2.898  1.00  0.00     0.005 C 
ENDBRANCH  31  33
ENDBRANCH  27  31
BRANCH  29  35
HETATM   35  O5  UNL     1      -3.773  -1.410   1.106  1.00  0.00    -0.393 OA
ATOM     36  H5  UNL     1      -3.683  -1.007   1.962  1.00  0.00     0.210 HD
ENDBRANCH  29  35
BRANCH  30  37
HETATM   37  C25 UNL     1      -1.261  -0.374   1.514  1.00  0.00     0.012 C 
BRANCH  37  38
HETATM   38  C26 UNL     1      -1.199  -1.720   2.159  1.00  0.00    -0.014 C 
HETATM   39  C27 UNL     1      -0.337  -2.685   1.320  1.00  0.00     0.005 C 
HETATM   40  C28 UNL     1      -0.086  -3.792   2.329  1.00  0.00     0.000 C 
HETATM   41  C29 UNL     1      -0.130  -3.147   3.686  1.00  0.00     0.000 C 
HETATM   42  C30 UNL     1      -0.265  -1.668   3.394  1.00  0.00     0.005 C 
ENDBRANCH  37  38
ENDBRANCH  30  37
ENDBRANCH   1  23
TORSDOF 15
