REMARK  15 active torsions:
REMARK  status: ('A' for Active; 'I' for Inactive)
REMARK    1  A    between atoms: C2_2  and  N1_4 
REMARK       I    between atoms: N1_4  and  C4_6 
REMARK    2  A    between atoms: C4_6  and  C5_8 
REMARK    3  A    between atoms: C5_8  and  C6_9 
REMARK    4  A    between atoms: C5_8  and  N3_27 
REMARK    5  A    between atoms: C6_9  and  C7_10 
REMARK    6  A    between atoms: C10_13  and  C11_14 
REMARK    7  A    between atoms: C11_14  and  C12_15 
REMARK    8  A    between atoms: C12_15  and  C13_16 
REMARK    9  A    between atoms: C13_16  and  C14_17 
REMARK   10  A    between atoms: C14_17  and  C15_18 
REMARK       I    between atoms: N3_27  and  C22_29 
REMARK   11  A    between atoms: C22_29  and  C23_31 
REMARK   12  A    between atoms: C23_31  and  C24_32 
REMARK   13  A    between atoms: C23_31  and  N4_34 
REMARK       I    between atoms: N4_34  and  C25_36 
REMARK   14  A    between atoms: C25_36  and  O5_38 
REMARK   15  A    between atoms: O5_38  and  C26_39 
ROOT
HETATM    1  C5  UNL     1      -2.386  -1.960  -0.471  1.00  0.00     0.178 C 
ENDROOT
BRANCH   1   2
HETATM    2  C4  UNL     1      -3.115  -3.253  -0.234  1.00  0.00     0.240 C 
HETATM    3  N1  UNL     1      -2.958  -4.361  -1.081  1.00  0.00    -0.355 N 
ATOM      4  H1  UNL     1      -2.324  -4.256  -1.873  1.00  0.00     0.162 HD
HETATM    5  O1  UNL     1      -3.879  -3.342   0.743  1.00  0.00    -0.271 OA
BRANCH   3   6
HETATM    6  C2  UNL     1      -3.610  -5.623  -0.928  1.00  0.00     0.076 C 
HETATM    7  C1  UNL     1      -4.396  -6.044  -2.147  1.00  0.00     0.032 C 
HETATM    8  C3  UNL     1      -2.534  -6.681  -0.699  1.00  0.00     0.032 C 
ENDBRANCH   3   6
ENDBRANCH   1   2
BRANCH   1   9
HETATM    9  C6  UNL     1      -0.933  -2.179  -0.636  1.00  0.00     0.059 C 
BRANCH   9  10
HETATM   10  C7  UNL     1      -0.089  -0.983  -0.905  1.00  0.00     0.079 C 
HETATM   11  C8  UNL     1      -0.045   0.090   0.118  1.00  0.00     0.025 C 
HETATM   12  C9  UNL     1       1.458   0.512   0.333  1.00  0.00     0.008 C 
HETATM   13  C10 UNL     1       2.129  -0.727   0.772  1.00  0.00     0.003 C 
HETATM   14  C21 UNL     1       2.204  -1.657  -0.439  1.00  0.00     0.118 C 
HETATM   15  N2  UNL     1       1.222  -1.359  -1.420  1.00  0.00    -0.417 N 
ATOM     16  H2  UNL     1       1.421  -1.405  -2.419  1.00  0.00     0.153 HD
BRANCH  13  17
HETATM   17  C11 UNL     1       3.394  -0.700   1.496  1.00  0.00     0.006 C 
BRANCH  17  18
HETATM   18  C12 UNL     1       4.629  -0.119   0.922  1.00  0.00     0.000 C 
BRANCH  18  19
HETATM   19  C13 UNL     1       4.595   1.321   0.641  1.00  0.00     0.000 C 
BRANCH  19  20
HETATM   20  C14 UNL     1       5.808   1.938   0.026  1.00  0.00     0.004 C 
BRANCH  20  21
HETATM   21  C15 UNL     1       7.104   1.911   0.753  1.00  0.00    -0.014 C 
HETATM   22  C16 UNL     1       8.093   2.682  -0.161  1.00  0.00     0.004 C 
HETATM   23  C17 UNL     1       9.243   3.100   0.704  1.00  0.00     0.000 C 
HETATM   24  C18 UNL     1       9.903   1.839   1.240  1.00  0.00     0.000 C 
HETATM   25  C19 UNL     1       9.244   0.606   0.681  1.00  0.00     0.000 C 
HETATM   26  C20 UNL     1       7.740   0.580   0.970  1.00  0.00     0.004 C 
ENDBRANCH  20  21
ENDBRANCH  19  20
ENDBRANCH  18  19
ENDBRANCH  17  18
ENDBRANCH  13  17
ENDBRANCH   9  10
ENDBRANCH   1   9
BRANCH   1  27
HETATM   27  N3  UNL     1      -2.738  -1.013   0.541  1.00  0.00    -0.346 N 
HETATM   28  C22 UNL     1      -3.427   0.195   0.268  1.00  0.00     0.248 C 
HETATM   29  O2  UNL     1      -3.762   0.506  -0.892  1.00  0.00    -0.271 OA
ATOM     30  H3  UNL     1      -2.481  -1.217   1.507  1.00  0.00     0.163 HD
BRANCH  28  31
HETATM   31  C23 UNL     1      -3.750   1.099   1.394  1.00  0.00     0.240 C 
BRANCH  31  32
HETATM   32  C24 UNL     1      -4.589   0.382   2.425  1.00  0.00     0.266 C 
HETATM   33  O3  UNL     1      -5.652   0.793   2.833  1.00  0.00    -0.304 OA
ENDBRANCH  31  32
BRANCH  31  34
HETATM   34  N4  UNL     1      -4.442   2.285   0.983  1.00  0.00    -0.317 N 
HETATM   35  C25 UNL     1      -5.705   2.229   0.359  1.00  0.00     0.362 C 
HETATM   36  O4  UNL     1      -6.329   1.184   0.109  1.00  0.00    -0.238 OA
ATOM     37  H4  UNL     1      -4.009   3.194   1.146  1.00  0.00     0.166 HD
BRANCH  35  38
HETATM   38  O5  UNL     1      -6.299   3.429  -0.005  1.00  0.00    -0.294 OA
BRANCH  38  39
HETATM   39  C26 UNL     1      -7.541   3.555  -0.638  1.00  0.00     0.061 C 
HETATM   40  C27 UNL     1      -7.772   5.065  -0.821  1.00  0.00     0.046 C 
HETATM   41  C28 UNL     1      -8.696   2.988   0.144  1.00  0.00     0.046 C 
HETATM   42  C29 UNL     1      -7.466   2.949  -2.043  1.00  0.00     0.046 C 
ENDBRANCH  38  39
ENDBRANCH  35  38
ENDBRANCH  31  34
ENDBRANCH  28  31
ENDBRANCH   1  27
TORSDOF 15
