REMARK  15 active torsions:
REMARK  status: ('A' for Active; 'I' for Inactive)
REMARK    1  A    between atoms: C10_10  and  C11_11 
REMARK    2  A    between atoms: C11_11  and  C13_13 
REMARK    3  A    between atoms: C13_13  and  C14_14 
REMARK    4  A    between atoms: C14_14  and  C15_15 
REMARK    5  A    between atoms: C15_15  and  N1_16 
REMARK    6  A    between atoms: N1_16  and  C16_18 
REMARK    7  A    between atoms: C16_18  and  C17_19 
REMARK    8  A    between atoms: C17_19  and  C18_20 
REMARK    9  A    between atoms: C18_20  and  C19_21 
REMARK   10  A    between atoms: C19_21  and  N2_22 
REMARK   11  A    between atoms: N2_22  and  O1_24 
REMARK   12  A    between atoms: C25_30  and  O2_31 
REMARK   13  A    between atoms: C29_36  and  C30_37 
REMARK   14  A    between atoms: C30_37  and  C31_38 
REMARK   15  A    between atoms: C31_38  and  C32_39 
ROOT
HETATM    1  C1  UNL     1      -7.294  -0.517   2.264  1.00  0.00     0.010 C 
HETATM    2  C2  UNL     1      -5.899  -0.402   1.626  1.00  0.00    -0.014 C 
HETATM    3  C3  UNL     1      -5.089   0.445   2.527  1.00  0.00     0.005 C 
HETATM    4  C4  UNL     1      -3.762   0.864   1.934  1.00  0.00     0.006 C 
HETATM    5  C5  UNL     1      -3.624   0.058   0.663  1.00  0.00    -0.001 C 
HETATM    6  C6  UNL     1      -2.293   0.106   0.057  1.00  0.00    -0.002 C 
HETATM    7  C7  UNL     1      -1.167  -0.397   0.984  1.00  0.00     0.015 C 
HETATM    8  C8  UNL     1      -0.304  -1.253   0.175  1.00  0.00    -0.032 C 
HETATM    9  C9  UNL     1      -0.388  -2.680   0.543  1.00  0.00     0.016 C 
HETATM   10  C10 UNL     1       1.063  -0.796  -0.175  1.00  0.00     0.022 C 
HETATM   11  C21 UNL     1       1.325  -1.707  -1.363  1.00  0.00     0.010 C 
HETATM   12  C22 UNL     1      -0.073  -1.975  -1.972  1.00  0.00     0.006 C 
HETATM   13  C23 UNL     1      -0.870  -1.007  -1.256  1.00  0.00     0.001 C 
HETATM   14  C24 UNL     1      -2.264  -1.021  -0.997  1.00  0.00     0.024 C 
HETATM   15  C25 UNL     1      -3.230  -0.705  -2.100  1.00  0.00     0.123 C 
HETATM   16  C26 UNL     1      -4.594  -0.555  -1.535  1.00  0.00     0.042 C 
HETATM   17  C27 UNL     1      -4.690   0.434  -0.348  1.00  0.00    -0.034 C 
HETATM   18  C28 UNL     1      -4.458   1.768  -0.955  1.00  0.00     0.016 C 
HETATM   19  C29 UNL     1      -6.038   0.262   0.225  1.00  0.00    -0.002 C 
ENDROOT
BRANCH  10  20
HETATM   20  C11 UNL     1       2.099  -0.793   0.870  1.00  0.00    -0.083 C 
HETATM   21  C12 UNL     1       2.461  -2.103   1.492  1.00  0.00     0.043 C 
BRANCH  20  22
HETATM   22  C13 UNL     1       3.296   0.050   0.676  1.00  0.00    -0.022 C 
BRANCH  22  23
HETATM   23  C14 UNL     1       4.196  -0.136  -0.453  1.00  0.00     0.046 C 
BRANCH  23  24
HETATM   24  C15 UNL     1       4.948  -1.412  -0.602  1.00  0.00     0.117 C 
BRANCH  24  25
HETATM   25  N1  UNL     1       5.861  -1.754   0.420  1.00  0.00    -0.421 N 
ATOM     26  H1  UNL     1       5.697  -2.547   1.040  1.00  0.00     0.153 HD
BRANCH  25  27
HETATM   27  C16 UNL     1       7.027  -0.935   0.544  1.00  0.00     0.113 C 
BRANCH  27  28
HETATM   28  C17 UNL     1       7.978  -1.057  -0.599  1.00  0.00     0.020 C 
BRANCH  28  29
HETATM   29  C18 UNL     1       9.195  -0.191  -0.411  1.00  0.00     0.018 C 
BRANCH  29  30
HETATM   30  C19 UNL     1       8.871   1.256  -0.296  1.00  0.00     0.120 C 
BRANCH  30  31
HETATM   31  N2  UNL     1      10.050   2.085  -0.124  1.00  0.00    -0.204 NA
HETATM   32  C20 UNL     1      10.686   1.868   1.158  1.00  0.00     0.143 C 
BRANCH  31  33
HETATM   33  O1  UNL     1       9.710   3.392  -0.180  1.00  0.00    -0.314 OA
ATOM     34  H1  UNL     1      10.482   3.935  -0.067  1.00  0.00     0.237 HD
ENDBRANCH  31  33
ENDBRANCH  30  31
ENDBRANCH  29  30
ENDBRANCH  28  29
ENDBRANCH  27  28
ENDBRANCH  25  27
ENDBRANCH  24  25
ENDBRANCH  23  24
ENDBRANCH  22  23
ENDBRANCH  20  22
ENDBRANCH  10  20
BRANCH  15  35
HETATM   35  O2  UNL     1      -2.823   0.282  -2.962  1.00  0.00    -0.395 OA
ATOM     36  H2  UNL     1      -3.435   0.482  -3.661  1.00  0.00     0.210 HD
ENDBRANCH  15  35
BRANCH  19  37
HETATM   37  C30 UNL     1      -7.021   1.317   0.388  1.00  0.00     0.014 C 
BRANCH  37  38
HETATM   38  C31 UNL     1      -7.479   2.168  -0.752  1.00  0.00     0.100 C 
BRANCH  38  39
HETATM   39  C32 UNL     1      -8.552   3.131  -0.274  1.00  0.00     0.231 C 
HETATM   40  N3  UNL     1      -9.110   4.018  -1.195  1.00  0.00    -0.062 NA
HETATM   41  O3  UNL     1      -8.899   3.102   0.917  1.00  0.00    -0.277 OA
ENDBRANCH  38  39
ENDBRANCH  37  38
ENDBRANCH  19  37
TORSDOF 15
