REMARK  15 active torsions:
REMARK  status: ('A' for Active; 'I' for Inactive)
REMARK    1  A    between atoms: C2_2  and  C3_3 
REMARK    2  A    between atoms: C3_3  and  C4_4 
REMARK    3  A    between atoms: C4_4  and  O1_5 
REMARK    4  A    between atoms: C8_13  and  C9_14 
REMARK    5  A    between atoms: C9_14  and  S1_15 
REMARK    6  A    between atoms: S1_15  and  C10_16 
REMARK    7  A    between atoms: C10_16  and  C11_17 
REMARK    8  A    between atoms: C11_17  and  N2_18 
REMARK       I    between atoms: N2_18  and  C12_20 
REMARK    9  A    between atoms: C12_20  and  C13_22 
REMARK   10  A    between atoms: C13_22  and  C14_23 
REMARK   11  A    between atoms: C13_22  and  N3_30 
REMARK   12  A    between atoms: C14_23  and  C15_24 
REMARK       I    between atoms: N3_30  and  C21_32 
REMARK   13  A    between atoms: C21_32  and  C22_34 
REMARK   14  A    between atoms: C22_34  and  C24_36 
REMARK   15  A    between atoms: C24_36  and  C25_37 
ROOT
HETATM    1  N2  UNL     1       0.790   1.408   0.579  1.00  0.00    -0.359 N 
ATOM      2  H2  UNL     1       0.844   2.421   0.687  1.00  0.00     0.162 HD
HETATM    3  C12 UNL     1      -0.452   0.759   0.323  1.00  0.00     0.240 C 
HETATM    4  O2  UNL     1      -0.498  -0.478   0.207  1.00  0.00    -0.271 OA
ENDROOT
BRANCH   3   5
HETATM    5  C13 UNL     1      -1.700   1.614   0.198  1.00  0.00     0.177 C 
BRANCH   5   6
HETATM    6  C14 UNL     1      -1.832   2.388   1.455  1.00  0.00     0.039 C 
BRANCH   6   7
HETATM    7  C15 UNL     1      -3.024   3.298   1.504  1.00  0.00    -0.012 C 
HETATM    8  C16 UNL     1      -3.003   4.000   2.847  1.00  0.00     0.005 C 
HETATM    9  C17 UNL     1      -4.178   4.930   3.047  1.00  0.00     0.000 C 
HETATM   10  C18 UNL     1      -4.144   5.962   1.940  1.00  0.00     0.000 C 
HETATM   11  C19 UNL     1      -4.258   5.211   0.627  1.00  0.00     0.000 C 
HETATM   12  C20 UNL     1      -3.062   4.311   0.401  1.00  0.00     0.005 C 
ENDBRANCH   6   7
ENDBRANCH   5   6
BRANCH   5  13
HETATM   13  N3  UNL     1      -2.786   0.682   0.006  1.00  0.00    -0.347 N 
HETATM   14  C21 UNL     1      -3.342   0.339  -1.239  1.00  0.00     0.222 C 
HETATM   15  O3  UNL     1      -2.887   0.854  -2.279  1.00  0.00    -0.273 OA
ATOM     16  H3  UNL     1      -3.180   0.239   0.836  1.00  0.00     0.163 HD
BRANCH  14  17
HETATM   17  C22 UNL     1      -4.483  -0.644  -1.338  1.00  0.00     0.074 C 
HETATM   18  C23 UNL     1      -4.811  -0.824  -2.793  1.00  0.00     0.020 C 
BRANCH  17  19
HETATM   19  C24 UNL     1      -4.188  -1.877  -0.573  1.00  0.00     0.018 C 
BRANCH  19  20
HETATM   20  C25 UNL     1      -5.209  -2.950  -0.544  1.00  0.00    -0.014 C 
HETATM   21  C26 UNL     1      -5.593  -3.583  -1.825  1.00  0.00     0.005 C 
HETATM   22  C27 UNL     1      -6.199  -4.948  -1.488  1.00  0.00     0.000 C 
HETATM   23  C28 UNL     1      -6.867  -4.963  -0.139  1.00  0.00     0.000 C 
HETATM   24  C29 UNL     1      -7.465  -3.615   0.194  1.00  0.00     0.000 C 
HETATM   25  C30 UNL     1      -6.479  -2.502   0.171  1.00  0.00     0.005 C 
ENDBRANCH  19  20
ENDBRANCH  17  19
ENDBRANCH  14  17
ENDBRANCH   5  13
ENDBRANCH   3   5
BRANCH   1  26
HETATM   26  C11 UNL     1       1.982   0.573   0.682  1.00  0.00     0.132 C 
BRANCH  26  27
HETATM   27  C10 UNL     1       3.146   1.493   0.996  1.00  0.00     0.093 C 
BRANCH  27  28
HETATM   28  S1  UNL     1       4.635   0.420   1.082  1.00  0.00    -0.167 SA
BRANCH  28  29
HETATM   29  C9  UNL     1       4.957  -0.143  -0.583  1.00  0.00     0.081 C 
BRANCH  29  30
HETATM   30  C8  UNL     1       6.111  -1.067  -0.757  1.00  0.00     0.031 C 
HETATM   31  C3  UNL     1       7.430  -0.529  -0.343  1.00  0.00    -0.012 C 
HETATM   32  C5  UNL     1       7.659  -0.733   1.142  1.00  0.00     0.039 C 
HETATM   33  C6  UNL     1       7.396  -2.142   1.544  1.00  0.00     0.233 C 
HETATM   34  N1  UNL     1       6.030  -2.485   1.195  1.00  0.00    -0.075 N 
HETATM   35  C7  UNL     1       5.801  -2.419  -0.211  1.00  0.00     0.238 C 
ATOM     36  H12 UNL     1       5.772  -3.398   1.569  1.00  0.00     0.277 HD
ATOM     37  H11 UNL     1       5.362  -1.907   1.705  1.00  0.00     0.277 HD
BRANCH  31  38
HETATM   38  C2  UNL     1       8.520  -1.317  -1.063  1.00  0.00     0.007 C 
HETATM   39  C1  UNL     1       9.887  -0.877  -0.642  1.00  0.00     0.006 C 
ENDBRANCH  31  38
BRANCH  31  40
HETATM   40  C4  UNL     1       7.573   0.928  -0.672  1.00  0.00     0.174 C 
BRANCH  40  41
HETATM   41  O1  UNL     1       7.471   1.172  -2.030  1.00  0.00    -0.400 OA
ATOM     42  H1  UNL     1       7.562   2.094  -2.238  1.00  0.00     0.209 HD
ENDBRANCH  40  41
ENDBRANCH  31  40
ENDBRANCH  29  30
ENDBRANCH  28  29
ENDBRANCH  27  28
ENDBRANCH  26  27
ENDBRANCH   1  26
TORSDOF 15
