REMARK  2 active torsions:
REMARK  status: ('A' for Active; 'I' for Inactive)
REMARK    1  A    between atoms: N1_2  and  C2_4 
REMARK    2  A    between atoms: C5_11  and  C6_12 
ROOT
HETATM    1  C2  UNL     1       2.701  -0.549   0.050  1.00  0.00     0.069 A 
HETATM    2  C3  UNL     1       2.257   0.753  -0.115  1.00  0.00     0.064 A 
HETATM    3  C4  UNL     1       0.930   1.103  -0.154  1.00  0.00     0.062 A 
HETATM    4  N2  UNL     1       0.235   2.257  -0.299  1.00  0.00    -0.300 N 
ATOM      5  H2  UNL     1       0.654   3.179  -0.419  1.00  0.00     0.187 HD
HETATM    6  N3  UNL     1      -1.063   2.016  -0.262  1.00  0.00    -0.303 N 
ATOM      7  H3  UNL     1      -1.795   2.721  -0.350  1.00  0.00     0.186 HD
HETATM    8  C5  UNL     1      -1.270   0.699  -0.091  1.00  0.00     0.046 A 
HETATM    9  C10 UNL     1      -0.026   0.127  -0.024  1.00  0.00     0.020 A 
HETATM   10  C11 UNL     1       0.360  -1.169   0.141  1.00  0.00     0.060 A 
HETATM   11  C12 UNL     1       1.715  -1.513   0.179  1.00  0.00     0.143 A 
HETATM   12  F1  UNL     1       2.069  -2.813   0.344  1.00  0.00    -0.204 F 
ENDROOT
BRANCH   8  13
HETATM   13  C6  UNL     1      -2.553   0.066  -0.002  1.00  0.00    -0.006 C 
HETATM   14  C7  UNL     1      -3.636   1.121  -0.136  1.00  0.00     0.021 C 
HETATM   15  C8  UNL     1      -2.867  -0.732   1.203  1.00  0.00     0.021 C 
HETATM   16  C9  UNL     1      -2.762  -0.865  -1.210  1.00  0.00     0.021 C 
ENDBRANCH   8  13
BRANCH   1  17
HETATM   17  N1  UNL     1       4.077  -0.868   0.084  1.00  0.00    -0.392 N 
HETATM   18  C1  UNL     1       5.102   0.114  -0.046  1.00  0.00     0.146 C 
ATOM     19  H1  UNL     1       4.349  -1.843   0.207  1.00  0.00     0.159 HD
ENDBRANCH   1  17
TORSDOF 2
