REMARK  2 active torsions:
REMARK  status: ('A' for Active; 'I' for Inactive)
REMARK    1  A    between atoms: C2_2  and  C6_11 
REMARK    2  A    between atoms: C4_6  and  O1_7 
ROOT
HETATM    1  C1  UNL     1      -0.696   0.916   1.818  1.00  0.00     0.046 C 
HETATM    2  C2  UNL     1       0.222   0.337   0.823  1.00  0.00    -0.046 C 
HETATM    3  C3  UNL     1       1.518   0.396   1.031  1.00  0.00     0.078 A 
HETATM    4  N1  UNL     1       2.239   0.958   2.119  1.00  0.00    -0.331 N 
ATOM      5  H1  UNL     1       1.763   1.405   2.902  1.00  0.00     0.168 HD
HETATM    6  C4  UNL     1       3.613   0.870   2.064  1.00  0.00     0.147 A 
HETATM    7  C5  UNL     1       4.167   0.288   1.034  1.00  0.00     0.107 A 
HETATM    8  S1  UNL     1       2.833  -0.235  -0.031  1.00  0.00    -0.080 SA
ENDROOT
BRANCH   2   9
HETATM    9  C6  UNL     1      -0.282  -0.308  -0.403  1.00  0.00     0.017 C 
HETATM   10  C7  UNL     1      -1.193  -1.475  -0.110  1.00  0.00     0.009 C 
HETATM   11  C8  UNL     1      -2.516  -1.371  -0.835  1.00  0.00     0.001 C 
HETATM   12  C9  UNL     1      -2.262  -1.222  -2.302  1.00  0.00     0.000 C 
HETATM   13  C10 UNL     1      -1.472   0.042  -2.523  1.00  0.00     0.001 C 
HETATM   14  C11 UNL     1      -1.090   0.707  -1.222  1.00  0.00     0.009 C 
ENDBRANCH   2   9
BRANCH   6  15
HETATM   15  O1  UNL     1       4.455   1.389   3.084  1.00  0.00    -0.346 OA
ATOM     16  H1  UNL     1       5.402   1.328   3.046  1.00  0.00     0.219 HD
ENDBRANCH   6  15
TORSDOF 2
