REMARK  3 active torsions:
REMARK  status: ('A' for Active; 'I' for Inactive)
REMARK    1  A    between atoms: C2_2  and  O1_4 
REMARK    2  A    between atoms: C2_2  and  C4_6 
REMARK    3  A    between atoms: C6_10  and  C7_11 
ROOT
HETATM    1  C4  UNL     1       2.136  -0.363  -0.197  1.00  0.00     0.116 A 
HETATM    2  N1  UNL     1       1.809  -1.253  -1.156  1.00  0.00    -0.351 N 
ATOM      3  H1  UNL     1       2.474  -1.729  -1.765  1.00  0.00     0.166 HD
HETATM    4  C5  UNL     1       0.480  -1.419  -1.189  1.00  0.00     0.115 A 
HETATM    5  C6  UNL     1      -0.081  -0.623  -0.228  1.00  0.00     0.030 A 
HETATM    6  N2  UNL     1       0.973   0.014   0.361  1.00  0.00    -0.345 N 
ATOM      7  H2  UNL     1       0.889   0.687   1.123  1.00  0.00     0.167 HD
ENDROOT
BRANCH   5   8
HETATM    8  C7  UNL     1      -1.501  -0.496   0.089  1.00  0.00     0.037 C 
HETATM    9  C8  UNL     1      -1.917   0.820   0.671  1.00  0.00     0.011 C 
HETATM   10  C9  UNL     1      -3.045   1.505  -0.038  1.00  0.00     0.001 C 
HETATM   11  C10 UNL     1      -4.213   0.614  -0.353  1.00  0.00     0.000 C 
HETATM   12  C11 UNL     1      -3.826  -0.779  -0.713  1.00  0.00     0.001 C 
HETATM   13  C12 UNL     1      -2.362  -0.885  -1.111  1.00  0.00     0.011 C 
ENDBRANCH   5   8
BRANCH   1  14
HETATM   14  C2  UNL     1       3.500   0.104   0.188  1.00  0.00     0.108 C 
HETATM   15  C1  UNL     1       4.409  -1.124   0.153  1.00  0.00     0.054 C 
HETATM   16  C3  UNL     1       4.018   1.211  -0.665  1.00  0.00     0.054 C 
BRANCH  14  17
HETATM   17  O1  UNL     1       3.499   0.518   1.545  1.00  0.00    -0.383 OA
ATOM     18  H1  UNL     1       2.934   1.281   1.567  1.00  0.00     0.211 HD
ENDBRANCH  14  17
ENDBRANCH   1  14
TORSDOF 3
