REMARK  1 active torsions:
REMARK  status: ('A' for Active; 'I' for Inactive)
REMARK    1  A    between atoms: O1_2  and  C2_3 
ROOT
HETATM    1  C2  UNL     1       0.227   0.716   0.760  1.00  0.00     0.149 C 
HETATM    2 CL1  UNL     1       0.282   1.897   2.050  1.00  0.00    -0.056 Cl
HETATM    3  C3  UNL     1       1.134  -0.234   0.726  1.00  0.00     0.134 C 
HETATM    4 CL2  UNL     1       2.407  -0.382   1.917  1.00  0.00    -0.093 Cl
ENDROOT
BRANCH   1   5
HETATM    5  O1  UNL     1      -0.747   0.794  -0.187  1.00  0.00    -0.344 OA
HETATM    6  C1  UNL     1      -1.071  -0.251  -1.092  1.00  0.00     0.211 C 
ENDBRANCH   1   5
TORSDOF 1
