REMARK  0 active torsions:
REMARK  status: ('A' for Active; 'I' for Inactive)
ROOT
HETATM    1  C1  UNL     1      -1.623   0.633   0.501  1.00  0.00     0.002 C 
HETATM    2  C2  UNL     1      -0.258   1.296   0.511  1.00  0.00     0.008 C 
HETATM    3  C3  UNL     1       0.539   0.437  -0.420  1.00  0.00     0.042 C 
HETATM    4  C4  UNL     1       1.853   0.041   0.223  1.00  0.00     0.239 C 
HETATM    5  N1  UNL     1       1.184  -1.117   0.759  1.00  0.00    -0.070 N 
ATOM      6  H11 UNL     1       0.997  -1.159   1.761  1.00  0.00     0.277 HD
ATOM      7  H12 UNL     1       1.685  -2.005   0.793  1.00  0.00     0.277 HD
HETATM    8  C5  UNL     1       0.060  -0.974  -0.164  1.00  0.00     0.191 C 
HETATM    9  C6  UNL     1      -1.284  -0.833   0.495  1.00  0.00     0.033 C 
ENDROOT
TORSDOF 0
