REMARK  0 active torsions:
REMARK  status: ('A' for Active; 'I' for Inactive)
ROOT
HETATM    1  C1  UNL     1      -0.864  -1.768   0.381  1.00  0.00     0.012 C 
HETATM    2  C2  UNL     1      -0.462  -0.355   0.569  1.00  0.00     0.013 C 
HETATM    3  C3  UNL     1      -1.467   0.636  -0.035  1.00  0.00     0.034 C 
HETATM    4  C4  UNL     1      -0.623   1.895  -0.003  1.00  0.00     0.233 C 
HETATM    5  N1  UNL     1       0.756   1.481  -0.073  1.00  0.00    -0.071 N 
ATOM      6  H11 UNL     1       1.307   1.790   0.728  1.00  0.00     0.277 HD
ATOM      7  H12 UNL     1       1.284   1.973  -0.794  1.00  0.00     0.277 HD
HETATM    8  C5  UNL     1       0.764   0.041  -0.246  1.00  0.00     0.185 C 
HETATM    9  C6  UNL     1       2.015  -0.612   0.234  1.00  0.00     0.040 C 
ENDROOT
TORSDOF 0
