REMARK  1 active torsions:
REMARK  status: ('A' for Active; 'I' for Inactive)
REMARK    1  A    between atoms: C1_2  and  C2_4 
ROOT
HETATM    1  O1  UNL     1      -0.136   1.868   0.464  1.00  0.00    -0.283 OA
HETATM    2  C1  UNL     1       0.173   0.776   0.015  1.00  0.00     0.210 C 
HETATM    3  S1  UNL     1       1.804   0.437  -0.635  1.00  0.00    -0.011 SA
ENDROOT
BRANCH   2   4
HETATM    4  C2  UNL     1      -0.886  -0.263   0.035  1.00  0.00     0.206 C 
HETATM    5 CL1  UNL     1      -0.346  -1.801  -0.634  1.00  0.00    -0.122 Cl
ENDBRANCH   2   4
TORSDOF 1
