REMARK  2 active torsions:
REMARK  status: ('A' for Active; 'I' for Inactive)
REMARK    1  A    between atoms: C2_2  and  C4_5 
REMARK    2  A    between atoms: C4_5  and  O1_6 
ROOT
HETATM    1  C1  UNL     1       1.581   0.208  -0.292  1.00  0.00     0.034 C 
HETATM    2  C2  UNL     1       0.242   0.182   0.394  1.00  0.00     0.051 C 
HETATM    3  C3  UNL     1      -0.246  -1.258   0.518  1.00  0.00     0.034 C 
HETATM    4 CL1  UNL     1       0.353   0.860   2.001  1.00  0.00    -0.118 Cl
ENDROOT
BRANCH   2   5
HETATM    5  C4  UNL     1      -0.751   0.898  -0.490  1.00  0.00     0.189 C 
BRANCH   5   6
HETATM    6  O1  UNL     1      -2.015   0.910   0.088  1.00  0.00    -0.399 OA
ATOM      7  H1  UNL     1      -2.640   1.360  -0.468  1.00  0.00     0.209 HD
ENDBRANCH   5   6
ENDBRANCH   2   5
TORSDOF 2
