REMARK  0 active torsions:
REMARK  status: ('A' for Active; 'I' for Inactive)
ROOT
HETATM    1  C1  UNL     1      -0.681  -1.150   0.287  1.00  0.00     0.035 C 
HETATM    2  C2  UNL     1      -1.450   0.180   0.336  1.00  0.00     0.035 C 
HETATM    3  C3  UNL     1      -0.408   1.108  -0.259  1.00  0.00     0.186 C 
HETATM    4  C4  UNL     1       0.848   1.054   0.554  1.00  0.00     0.035 C 
HETATM    5  C5  UNL     1       1.560  -0.235   0.109  1.00  0.00     0.035 C 
HETATM    6  C6  UNL     1       0.425  -0.881  -0.677  1.00  0.00     0.186 C 
HETATM    7  N1  UNL     1      -0.023   0.303  -1.434  1.00  0.00    -0.067 N 
ATOM      8  H11 UNL     1       0.638   0.718  -2.090  1.00  0.00     0.278 HD
ATOM      9  H12 UNL     1      -0.729   0.159  -2.155  1.00  0.00     0.278 HD
ENDROOT
TORSDOF 0
