REMARK  5 active torsions:
REMARK  status: ('A' for Active; 'I' for Inactive)
REMARK    1  A    between atoms: C2_2  and  N1_5 
REMARK    2  A    between atoms: N1_5  and  C5_7 
REMARK    3  A    between atoms: C5_7  and  O1_8 
REMARK    4  A    between atoms: N2_10  and  C6_12 
REMARK    5  A    between atoms: C8_16  and  C9_17 
ROOT
HETATM    1  C5  UNL     1       2.071  -1.116   0.713  1.00  0.00     0.219 C 
HETATM    2  N2  UNL     1       0.753  -1.392   0.871  1.00  0.00    -0.303 N 
ATOM      3  H2  UNL     1       0.591  -2.320   1.263  1.00  0.00     0.171 HD
ENDROOT
BRANCH   2   4
HETATM    4  C6  UNL     1      -0.329  -0.762   0.644  1.00  0.00     0.151 A 
HETATM    5  N3  UNL     1      -0.574   0.442   0.147  1.00  0.00    -0.345 N 
HETATM    6  C7  UNL     1      -1.802   0.852  -0.004  1.00  0.00     0.105 A 
ATOM      7  H3  UNL     1       0.201   1.050  -0.118  1.00  0.00     0.167 HD
HETATM    8  C8  UNL     1      -2.807  -0.012   0.371  1.00  0.00     0.009 A 
HETATM    9  S1  UNL     1      -1.956  -1.364   0.920  1.00  0.00    -0.056 SA
BRANCH   8  10
HETATM   10  C9  UNL     1      -4.296   0.247   0.289  1.00  0.00    -0.016 C 
HETATM   11  C10 UNL     1      -4.699   0.748  -1.064  1.00  0.00     0.020 C 
HETATM   12  C11 UNL     1      -4.952  -1.100   0.574  1.00  0.00     0.020 C 
HETATM   13  C12 UNL     1      -4.767   1.181   1.377  1.00  0.00     0.020 C 
ENDBRANCH   8  10
ENDBRANCH   2   4
BRANCH   1  14
HETATM   14  N1  UNL     1       2.761  -0.275  -0.199  1.00  0.00    -0.348 N 
ATOM     15  H1  UNL     1       2.239   0.260  -0.893  1.00  0.00     0.163 HD
BRANCH  14  16
HETATM   16  C2  UNL     1       4.189  -0.177  -0.145  1.00  0.00     0.022 C 
HETATM   17  C1  UNL     1       4.642   0.796  -1.216  1.00  0.00     0.037 C 
HETATM   18  C3  UNL     1       4.815  -1.525  -0.437  1.00  0.00     0.037 C 
HETATM   19  C4  UNL     1       4.571   0.331   1.232  1.00  0.00     0.037 C 
ENDBRANCH  14  16
ENDBRANCH   1  14
BRANCH   1  20
HETATM   20  O1  UNL     1       2.857  -1.753   1.571  1.00  0.00    -0.332 OA
ATOM     21  H1  UNL     1       2.395  -2.316   2.181  1.00  0.00     0.220 HD
ENDBRANCH   1  20
TORSDOF 5
