REMARK  1 active torsions:
REMARK  status: ('A' for Active; 'I' for Inactive)
REMARK    1  A    between atoms: N1_1  and  C1_4 
ROOT
HETATM    1  C1  UNL     1      -3.860  -0.442  -0.198  1.00  0.00     0.037 A 
HETATM    2  C2  UNL     1      -3.537  -1.582   0.492  1.00  0.00     0.032 A 
HETATM    3  C3  UNL     1      -2.222  -1.845   0.784  1.00  0.00     0.033 A 
HETATM    4  C4  UNL     1      -1.194  -1.003   0.410  1.00  0.00     0.044 A 
HETATM    5  N2  UNL     1       0.088  -1.279   0.706  1.00  0.00    -0.353 N 
ATOM      6  H2  UNL     1       0.320  -2.129   1.220  1.00  0.00     0.166 HD
HETATM    7  C5  UNL     1       1.067  -0.437   0.326  1.00  0.00     0.073 A 
HETATM    8  C6  UNL     1       2.441  -0.430   0.469  1.00  0.00     0.020 A 
HETATM    9  C7  UNL     1       3.282  -1.336   1.080  1.00  0.00     0.016 A 
HETATM   10  C8  UNL     1       4.647  -1.128   1.106  1.00  0.00     0.001 A 
HETATM   11  C9  UNL     1       5.141   0.010   0.505  1.00  0.00     0.002 A 
HETATM   12  C10 UNL     1       4.343   0.945  -0.118  1.00  0.00     0.030 A 
HETATM   13  C11 UNL     1       2.978   0.699  -0.123  1.00  0.00     0.045 A 
HETATM   14  N3  UNL     1       1.919   1.392  -0.635  1.00  0.00    -0.353 N 
ATOM     15  H3  UNL     1       1.981   2.277  -1.138  1.00  0.00     0.166 HD
HETATM   16  C12 UNL     1       0.775   0.722  -0.372  1.00  0.00     0.072 A 
HETATM   17  C13 UNL     1      -0.527   1.015  -0.679  1.00  0.00     0.006 A 
HETATM   18  C14 UNL     1      -0.905   2.151  -1.373  1.00  0.00     0.015 A 
HETATM   19  C15 UNL     1      -2.206   2.453  -1.686  1.00  0.00     0.002 A 
HETATM   20  C16 UNL     1      -3.179   1.572  -1.284  1.00  0.00     0.014 A 
HETATM   21  C17 UNL     1      -2.837   0.417  -0.583  1.00  0.00     0.004 A 
HETATM   22  C18 UNL     1      -1.534   0.147  -0.288  1.00  0.00     0.016 A 
ENDROOT
BRANCH   1  23
HETATM   23  N1  UNL     1      -5.075  -0.117  -0.515  1.00  0.00    -0.398 N 
ATOM     24  H12 UNL     1      -5.826  -0.747  -0.233  1.00  0.00     0.156 HD
ATOM     25  H11 UNL     1      -5.315   0.731  -1.028  1.00  0.00     0.156 HD
ENDBRANCH   1  23
TORSDOF 1
