REMARK  0 active torsions:
REMARK  status: ('A' for Active; 'I' for Inactive)
ROOT
HETATM    1  C1  UNL     1       1.203  -0.222  -0.197  1.00  0.00     0.035 C 
HETATM    2  C2  UNL     1       0.435   1.104  -0.351  1.00  0.00     0.035 C 
HETATM    3  C3  UNL     1      -0.958   0.569  -0.123  1.00  0.00     0.188 C 
HETATM    4  C4  UNL     1      -0.778  -0.255   1.113  1.00  0.00     0.066 C 
HETATM    5  C5  UNL     1       0.028  -1.103   0.150  1.00  0.00     0.188 C 
HETATM    6  N1  UNL     1      -0.936  -0.698  -0.868  1.00  0.00    -0.067 N 
ATOM      7  H11 UNL     1      -0.735  -0.746  -1.867  1.00  0.00     0.278 HD
ATOM      8  H12 UNL     1      -1.781  -1.233  -1.070  1.00  0.00     0.278 HD
ENDROOT
TORSDOF 0
