REMARK  2 active torsions:
REMARK  status: ('A' for Active; 'I' for Inactive)
REMARK    1  A    between atoms: N2_4  and  C1_6 
REMARK    2  A    between atoms: C1_6  and  C2_10 
ROOT
HETATM    1  C1  UNL     1       1.061   0.412   0.041  1.00  0.00     0.093 C 
HETATM    2  N3  UNL     1       0.950   1.694   0.156  1.00  0.00    -0.388 N 
ATOM      3  H31 UNL     1       0.039   2.139   0.047  1.00  0.00     0.157 HD
ATOM      4  H32 UNL     1       1.741   2.307   0.354  1.00  0.00     0.157 HD
ENDROOT
BRANCH   1   5
HETATM    5  N2  UNL     1       2.340  -0.212   0.194  1.00  0.00    -0.296 N 
HETATM    6  N1  UNL     1       2.632  -1.072  -0.704  1.00  0.00    -0.344 N 
ATOM      7  H12 UNL     1       1.990  -1.287  -1.467  1.00  0.00     0.176 HD
ATOM      8  H11 UNL     1       3.543  -1.517  -0.595  1.00  0.00     0.176 HD
ATOM      9  H2  UNL     1       2.971   0.013   0.963  1.00  0.00     0.187 HD
ENDBRANCH   1   5
BRANCH   1  10
HETATM   10  C2  UNL     1      -0.084  -0.476  -0.246  1.00  0.00     0.054 A 
HETATM   11  C3  UNL     1      -1.451   0.069  -0.422  1.00  0.00     0.013 A 
HETATM   12  C4  UNL     1      -1.106  -0.537   0.897  1.00  0.00     0.013 A 
ENDBRANCH   1  10
TORSDOF 2
