REMARK  1 active torsions:
REMARK  status: ('A' for Active; 'I' for Inactive)
REMARK    1  A    between atoms: N1_2  and  C2_4 
ROOT
HETATM    1  C2  UNL     1      -0.340  -0.028   0.276  1.00  0.00     0.014 C 
HETATM    2  C3  UNL     1      -1.440  -0.123   1.329  1.00  0.00     0.037 C 
HETATM    3  C4  UNL     1      -0.572  -1.147  -0.700  1.00  0.00     0.037 C 
HETATM    4  C5  UNL     1      -0.402   1.328  -0.375  1.00  0.00     0.037 C 
ENDROOT
BRANCH   1   5
HETATM    5  N1  UNL     1       0.907  -0.114   0.979  1.00  0.00    -0.418 N 
HETATM    6  C1  UNL     1       2.068   0.115   0.178  1.00  0.00     0.140 C 
ATOM      7  H1  UNL     1       0.961  -0.323   1.976  1.00  0.00     0.153 HD
ENDBRANCH   1   5
TORSDOF 1
