REMARK  0 active torsions:
REMARK  status: ('A' for Active; 'I' for Inactive)
ROOT
HETATM    1  F1  UNL     1      -1.063   1.111   1.688  1.00  0.00    -0.249 F 
HETATM    2  C1  UNL     1      -0.494   1.288   0.438  1.00  0.00     0.171 C 
HETATM    3  C2  UNL     1       0.982   1.082   0.502  1.00  0.00     0.037 C 
HETATM    4  C3  UNL     1       1.487   0.014  -0.418  1.00  0.00     0.004 C 
HETATM    5  C4  UNL     1       0.756  -1.288  -0.280  1.00  0.00     0.016 C 
HETATM    6  C5  UNL     1      -0.731  -1.070  -0.381  1.00  0.00     0.061 C 
HETATM    7  S1  UNL     1      -1.508  -1.809   1.063  1.00  0.00    -0.092 SA
HETATM    8  C6  UNL     1      -1.090   0.367  -0.584  1.00  0.00     0.053 C 
ENDROOT
TORSDOF 0
