REMARK  0 active torsions:
REMARK  status: ('A' for Active; 'I' for Inactive)
ROOT
HETATM    1  C1  UNL     1      -2.585  -0.730  -0.075  1.00  0.00     0.040 C 
HETATM    2  C2  UNL     1      -1.236  -0.151   0.148  1.00  0.00     0.182 C 
HETATM    3  C3  UNL     1      -0.982   1.126  -0.625  1.00  0.00     0.032 C 
HETATM    4  C4  UNL     1       0.191   1.808   0.079  1.00  0.00     0.004 C 
HETATM    5  C5  UNL     1       1.378   0.885  -0.078  1.00  0.00     0.032 C 
HETATM    6  C6  UNL     1       1.052  -0.483   0.435  1.00  0.00     0.182 C 
HETATM    7  C7  UNL     1       2.210  -1.418   0.277  1.00  0.00     0.040 C 
HETATM    8  N1  UNL     1      -0.144  -1.049  -0.133  1.00  0.00    -0.067 N 
ATOM      9  H11 UNL     1      -0.049  -1.257  -1.127  1.00  0.00     0.278 HD
ATOM     10  H12 UNL     1      -0.322  -2.000   0.189  1.00  0.00     0.278 HD
ENDROOT
TORSDOF 0
