REMARK  1 active torsions:
REMARK  status: ('A' for Active; 'I' for Inactive)
REMARK    1  A    between atoms: N1_2  and  C2_5 
ROOT
HETATM    1  C2  UNL     1      -0.614   0.241   0.069  1.00  0.00     0.185 C 
HETATM    2  C3  UNL     1      -0.021  -1.004  -0.559  1.00  0.00     0.033 C 
HETATM    3  C4  UNL     1       1.252  -1.287   0.238  1.00  0.00     0.002 C 
HETATM    4  C5  UNL     1       2.240  -0.217  -0.055  1.00  0.00     0.000 C 
HETATM    5  C6  UNL     1       1.730   1.175  -0.014  1.00  0.00     0.002 C 
HETATM    6  C7  UNL     1       0.302   1.382  -0.293  1.00  0.00     0.033 C 
ENDROOT
BRANCH   1   7
HETATM    7  N1  UNL     1      -1.900   0.531  -0.501  1.00  0.00    -0.075 N 
HETATM    8  C1  UNL     1      -2.887  -0.481  -0.275  1.00  0.00     0.267 C 
ATOM      9  H12 UNL     1      -1.812   0.726  -1.498  1.00  0.00     0.277 HD
ATOM     10  H11 UNL     1      -2.238   1.437  -0.176  1.00  0.00     0.277 HD
ENDBRANCH   1   7
TORSDOF 1
