REMARK  1 active torsions:
REMARK  status: ('A' for Active; 'I' for Inactive)
REMARK    1  A    between atoms: C7_8  and  N1_9 
ROOT
HETATM    1  C1  UNL     1       2.219   0.527  -0.254  1.00  0.00     0.054 C 
HETATM    2  C2  UNL     1       0.992   0.014   0.514  1.00  0.00     0.128 C 
HETATM    3  F1  UNL     1       1.419  -0.060   1.848  1.00  0.00    -0.241 F 
HETATM    4  C3  UNL     1       0.664  -1.325  -0.000  1.00  0.00     0.045 C 
HETATM    5  C4  UNL     1      -0.759  -1.703  -0.095  1.00  0.00     0.003 C 
HETATM    6  C5  UNL     1      -1.730  -0.591  -0.225  1.00  0.00     0.002 C 
HETATM    7  C6  UNL     1      -1.453   0.569   0.684  1.00  0.00     0.036 C 
HETATM    8  C7  UNL     1      -0.057   1.055   0.414  1.00  0.00     0.222 C 
ENDROOT
BRANCH   8   9
HETATM    9  N1  UNL     1       0.003   1.807  -0.847  1.00  0.00    -0.072 N 
ATOM     10  H13 UNL     1       0.930   2.208  -0.989  1.00  0.00     0.274 HD
ATOM     11  H12 UNL     1      -0.030   1.178  -1.649  1.00  0.00     0.274 HD
ATOM     12  H11 UNL     1      -0.719   2.524  -0.916  1.00  0.00     0.274 HD
ENDBRANCH   8   9
TORSDOF 1
