REMARK  0 active torsions:
REMARK  status: ('A' for Active; 'I' for Inactive)
ROOT
HETATM    1  C1  UNL     1      -1.169   1.812   0.265  1.00  0.00     0.011 C 
HETATM    2  C2  UNL     1      -0.464   0.587  -0.200  1.00  0.00    -0.004 C 
HETATM    3  C3  UNL     1      -1.229  -0.695   0.111  1.00  0.00     0.005 C 
HETATM    4  C4  UNL     1      -0.157  -1.771   0.186  1.00  0.00     0.002 C 
HETATM    5  C5  UNL     1       1.167  -1.052  -0.015  1.00  0.00     0.016 C 
HETATM    6  C6  UNL     1       0.817   0.311   0.597  1.00  0.00     0.062 C 
HETATM    7  S1  UNL     1       2.114   1.475   0.247  1.00  0.00    -0.092 SA
ENDROOT
TORSDOF 0
