REMARK  1 active torsions:
REMARK  status: ('A' for Active; 'I' for Inactive)
REMARK    1  A    between atoms: N1_1  and  C1_5 
ROOT
HETATM    1  C1  UNL     1       0.587  -0.240  -0.095  1.00  0.00     0.128 A 
HETATM    2  C2  UNL     1      -0.548  -1.204  -0.120  1.00  0.00     0.039 C 
HETATM    3  C3  UNL     1      -1.579  -0.093  -0.178  1.00  0.00     0.010 C 
HETATM    4  C4  UNL     1      -0.470   0.857   0.234  1.00  0.00     0.024 A 
HETATM    5  C5  UNL     1       0.576   1.052  -0.790  1.00  0.00     0.046 A 
ENDROOT
BRANCH   1   6
HETATM    6  N1  UNL     1       1.614  -0.470   0.887  1.00  0.00    -0.070 N 
ATOM      7  H13 UNL     1       1.193  -0.525   1.814  1.00  0.00     0.275 HD
ATOM      8  H12 UNL     1       1.975  -1.419   0.788  1.00  0.00     0.275 HD
ATOM      9  H11 UNL     1       2.391   0.190   0.904  1.00  0.00     0.275 HD
ENDBRANCH   1   6
TORSDOF 1
