REMARK  2 active torsions:
REMARK  status: ('A' for Active; 'I' for Inactive)
REMARK    1  A    between atoms: C3_3  and  C4_4 
REMARK    2  A    between atoms: C5_5  and  C6_6 
ROOT
HETATM    1  C1  UNL     1       3.208   0.930   0.191  1.00  0.00     0.098 C 
HETATM    2  C2  UNL     1       2.470  -0.019  -0.028  1.00  0.00    -0.176 C 
HETATM    3  C3  UNL     1       1.592  -1.167  -0.269  1.00  0.00     0.173 C 
ENDROOT
BRANCH   3   4
HETATM    4  C4  UNL     1       0.189  -0.740  -0.232  1.00  0.00    -0.091 C 
HETATM    5  C5  UNL     1      -0.971  -0.408  -0.203  1.00  0.00    -0.079 C 
BRANCH   5   6
HETATM    6  C6  UNL     1      -2.349  -0.015  -0.166  1.00  0.00     0.054 C 
HETATM    7  C7  UNL     1      -2.720   0.939   0.669  1.00  0.00     0.020 C 
ENDBRANCH   5   6
ENDBRANCH   3   4
TORSDOF 2
