REMARK  1 active torsions:
REMARK  status: ('A' for Active; 'I' for Inactive)
REMARK    1  A    between atoms: O1_1  and  C1_3 
ROOT
HETATM    1  C1  UNL     1       1.098   0.134  -0.317  1.00  0.00     0.118 C 
HETATM    2  C2  UNL     1       0.144   1.192   0.148  1.00  0.00     0.032 C 
HETATM    3  C3  UNL     1      -1.192   0.675  -0.395  1.00  0.00     0.002 C 
HETATM    4  C4  UNL     1      -1.123  -0.749   0.102  1.00  0.00     0.002 C 
HETATM    5  C5  UNL     1       0.326  -1.144  -0.140  1.00  0.00     0.032 C 
ENDROOT
BRANCH   1   6
HETATM    6  O1  UNL     1       2.214   0.168   0.539  1.00  0.00    -0.396 OA
ATOM      7  H1  UNL     1       2.819  -0.503   0.244  1.00  0.00     0.210 HD
ENDBRANCH   1   6
TORSDOF 1
