REMARK  1 active torsions:
REMARK  status: ('A' for Active; 'I' for Inactive)
REMARK    1  A    between atoms: N1_1  and  C1_5 
ROOT
HETATM    1  C1  UNL     1       0.455  -0.633  -0.740  1.00  0.00     0.191 C 
HETATM    2  C2  UNL     1      -0.249   0.699  -0.699  1.00  0.00     0.017 C 
HETATM    3  C3  UNL     1      -1.583   0.360  -0.105  1.00  0.00     0.007 C 
HETATM    4  C4  UNL     1      -1.130  -0.643   0.979  1.00  0.00     0.007 C 
HETATM    5  C5  UNL     1       0.347  -0.535   0.788  1.00  0.00     0.017 C 
HETATM    6  C6  UNL     1       0.589   0.959   0.561  1.00  0.00     0.013 C 
ENDROOT
BRANCH   1   7
HETATM    7  N1  UNL     1       1.837  -0.593  -1.161  1.00  0.00    -0.074 N 
ATOM      8  H13 UNL     1       1.913  -0.130  -2.067  1.00  0.00     0.274 HD
ATOM      9  H12 UNL     1       2.361   0.061  -0.579  1.00  0.00     0.274 HD
ATOM     10  H11 UNL     1       2.313  -1.494  -1.189  1.00  0.00     0.274 HD
ENDBRANCH   1   7
TORSDOF 1
