REMARK  0 active torsions:
REMARK  status: ('A' for Active; 'I' for Inactive)
ROOT
HETATM    1  C1  UNL     1      -1.481   0.034   0.123  1.00  0.00     0.001 C 
HETATM    2  C2  UNL     1      -0.511   1.192   0.320  1.00  0.00     0.005 C 
HETATM    3  C3  UNL     1       0.750   0.431   0.711  1.00  0.00    -0.010 A 
HETATM    4  C4  UNL     1       1.745   0.045  -0.308  1.00  0.00     0.010 A 
HETATM    5  C5  UNL     1       0.651  -0.919   0.033  1.00  0.00    -0.010 A 
HETATM    6  C6  UNL     1      -0.647  -0.894  -0.745  1.00  0.00     0.005 C 
ENDROOT
TORSDOF 0
