REMARK  1 active torsions:
REMARK  status: ('A' for Active; 'I' for Inactive)
REMARK    1  A    between atoms: C5_8  and  C6_9 
ROOT
HETATM    1  N1  UNL     1      -1.587  -3.184  -1.391  1.00  0.00    -0.398 N 
ATOM      2  H11 UNL     1      -2.494  -3.651  -1.372  1.00  0.00     0.156 HD
ATOM      3  H12 UNL     1      -0.748  -3.662  -1.718  1.00  0.00     0.156 HD
HETATM    4  C1  UNL     1      -1.543  -1.970  -0.988  1.00  0.00     0.048 A 
HETATM    5  C2  UNL     1      -0.231  -1.294  -1.016  1.00  0.00     0.005 A 
HETATM    6  C3  UNL     1       0.913  -1.947  -1.462  1.00  0.00     0.015 A 
HETATM    7  C4  UNL     1       2.136  -1.272  -1.473  1.00  0.00     0.012 A 
HETATM    8  C5  UNL     1       2.214   0.033  -1.043  1.00  0.00    -0.034 A 
HETATM    9  C11 UNL     1       1.037   0.669  -0.596  1.00  0.00     0.028 A 
HETATM   10  C12 UNL     1      -0.159  -0.005  -0.591  1.00  0.00     0.028 A 
HETATM   11  C13 UNL     1      -1.377   0.698  -0.113  1.00  0.00     0.195 A 
HETATM   12  O4  UNL     1      -1.207   1.873   0.253  1.00  0.00    -0.287 OA
HETATM   13  C14 UNL     1      -2.672   0.055  -0.077  1.00  0.00     0.038 A 
HETATM   14  C15 UNL     1      -2.745  -1.285  -0.519  1.00  0.00     0.006 A 
HETATM   15  C16 UNL     1      -3.963  -1.906  -0.490  1.00  0.00     0.015 A 
HETATM   16  C17 UNL     1      -5.080  -1.244  -0.046  1.00  0.00     0.013 A 
HETATM   17  C18 UNL     1      -5.002   0.057   0.382  1.00  0.00    -0.025 A 
HETATM   18  C19 UNL     1      -6.146   0.715   0.831  1.00  0.00     0.012 A 
HETATM   19  C20 UNL     1      -6.093   2.020   1.264  1.00  0.00     0.001 A 
HETATM   20  C21 UNL     1      -4.869   2.671   1.245  1.00  0.00     0.001 A 
HETATM   21  C22 UNL     1      -3.725   2.041   0.805  1.00  0.00     0.013 A 
HETATM   22  C23 UNL     1      -3.790   0.740   0.376  1.00  0.00    -0.011 A 
ENDROOT
BRANCH   8  23
HETATM   23  C6  UNL     1       3.477   0.728  -1.042  1.00  0.00     0.034 C 
HETATM   24  C7  UNL     1       4.551   0.506  -0.366  1.00  0.00     0.101 A 
HETATM   25  C8  UNL     1       4.714  -0.550   0.597  1.00  0.00     0.265 A 
HETATM   26  C10 UNL     1       5.728   1.381  -0.631  1.00  0.00     0.265 A 
HETATM   27  O1  UNL     1       3.751  -1.321   0.870  1.00  0.00    -0.267 OA
HETATM   28  N2  UNL     1       5.954  -0.789   1.302  1.00  0.00    -0.275 N 
HETATM   29  C9  UNL     1       7.038   0.064   1.017  1.00  0.00     0.329 A 
ATOM     30  H2  UNL     1       6.040  -1.546   1.980  1.00  0.00     0.173 HD
HETATM   31  O2  UNL     1       8.123  -0.097   1.592  1.00  0.00    -0.246 OA
HETATM   32  N3  UNL     1       6.915   1.131   0.062  1.00  0.00    -0.275 N 
ATOM     33  H3  UNL     1       7.723   1.727  -0.116  1.00  0.00     0.173 HD
HETATM   34  O3  UNL     1       5.634   2.321  -1.467  1.00  0.00    -0.267 OA
ENDBRANCH   8  23
TORSDOF 1
