REMARK  2 active torsions:
REMARK  status: ('A' for Active; 'I' for Inactive)
REMARK       I    between atoms: C1_2  and  N1_3 
REMARK    1  A    between atoms: C1_2  and  C12_21 
REMARK    2  A    between atoms: N1_3  and  C2_5 
ROOT
HETATM    1  O1  UNL     1      -0.231   0.084  -2.693  1.00  0.00    -0.267 OA
HETATM    2  C1  UNL     1      -0.325   0.171  -1.402  1.00  0.00     0.262 C 
HETATM    3  N1  UNL     1       0.842   0.318  -0.721  1.00  0.00    -0.308 N 
ATOM      4  H1  UNL     1       1.519  -0.333  -1.119  1.00  0.00     0.170 HD
ENDROOT
BRANCH   3   5
HETATM    5  C2  UNL     1       1.397   0.928   0.184  1.00  0.00     0.124 A 
HETATM    6  N2  UNL     1       0.848   1.877   0.961  1.00  0.00    -0.338 N 
HETATM    7  C3  UNL     1       1.532   2.508   1.946  1.00  0.00     0.183 A 
ATOM      8  H2  UNL     1      -0.126   2.134   0.802  1.00  0.00     0.168 HD
HETATM    9  N3  UNL     1       2.812   2.207   2.195  1.00  0.00    -0.338 N 
HETATM   10  C4  UNL     1       3.450   1.262   1.462  1.00  0.00     0.121 A 
ATOM     11  H3  UNL     1       3.311   2.692   2.941  1.00  0.00     0.168 HD
HETATM   12  N4  UNL     1       4.707   0.772   1.497  1.00  0.00    -0.341 N 
HETATM   13  C11 UNL     1       2.746   0.633   0.470  1.00  0.00     0.065 A 
HETATM   14  C5  UNL     1       4.798  -0.172   0.521  1.00  0.00     0.045 A 
ATOM     15  H4  UNL     1       5.450   1.056   2.136  1.00  0.00     0.167 HD
HETATM   16  C6  UNL     1       5.846  -0.972   0.129  1.00  0.00     0.030 A 
HETATM   17  C10 UNL     1       3.588  -0.288  -0.146  1.00  0.00     0.008 A 
HETATM   18  C7  UNL     1       5.677  -1.856  -0.900  1.00  0.00     0.002 A 
HETATM   19  C8  UNL     1       4.467  -1.962  -1.556  1.00  0.00     0.001 A 
HETATM   20  C9  UNL     1       3.399  -1.167  -1.177  1.00  0.00     0.015 A 
ENDBRANCH   3   5
BRANCH   2  21
HETATM   21  C12 UNL     1      -1.690   0.088  -0.923  1.00  0.00     0.089 A 
HETATM   22  C13 UNL     1      -2.389  -1.058  -0.530  1.00  0.00     0.011 A 
HETATM   23  C14 UNL     1      -1.940  -2.354  -0.480  1.00  0.00     0.015 A 
HETATM   24  C18 UNL     1      -3.664  -0.699  -0.178  1.00  0.00     0.051 A 
HETATM   25  C15 UNL     1      -2.846  -3.317  -0.048  1.00  0.00     0.001 A 
HETATM   26  C16 UNL     1      -4.127  -2.955   0.305  1.00  0.00     0.002 A 
HETATM   27  C17 UNL     1      -4.566  -1.641   0.250  1.00  0.00     0.031 A 
HETATM   28  N5  UNL     1      -3.769   0.628  -0.342  1.00  0.00    -0.307 N 
HETATM   29  C19 UNL     1      -4.847   1.434  -0.123  1.00  0.00     0.100 A 
HETATM   30  C22 UNL     1      -2.588   1.116  -0.790  1.00  0.00     0.128 A 
HETATM   31  C20 UNL     1      -4.747   2.778  -0.359  1.00  0.00     0.035 A 
HETATM   32  C21 UNL     1      -3.562   3.272  -0.809  1.00  0.00     0.091 A 
HETATM   33  N6  UNL     1      -2.539   2.454  -1.009  1.00  0.00    -0.351 N 
ATOM     34  H6  UNL     1      -1.664   2.854  -1.347  1.00  0.00     0.166 HD
ENDBRANCH   2  21
TORSDOF 2
