REMARK  4 active torsions:
REMARK  status: ('A' for Active; 'I' for Inactive)
REMARK       I    between atoms: C1_2  and  N1_3 
REMARK       I    between atoms: C1_2  and  N4_24 
REMARK    1  A    between atoms: N1_3  and  C2_5 
REMARK    2  A    between atoms: C5_12  and  C6_13 
REMARK    3  A    between atoms: C7_14  and  C8_15 
REMARK    4  A    between atoms: N4_24  and  C16_26 
ROOT
HETATM    1  C2  UNL     1      -1.319  -0.565   0.589  1.00  0.00     0.129 A 
HETATM    2  N2  UNL     1      -1.543  -0.363  -0.730  1.00  0.00    -0.337 N 
ATOM      3  H2  UNL     1      -2.476  -0.390  -1.142  1.00  0.00     0.168 HD
HETATM    4  C3  UNL     1      -0.416  -0.120  -1.464  1.00  0.00     0.182 A 
HETATM    5  N3  UNL     1       0.805  -0.076  -0.977  1.00  0.00    -0.350 N 
ATOM      6  H3  UNL     1       1.581   0.113  -1.611  1.00  0.00     0.166 HD
HETATM    7  C4  UNL     1       1.073  -0.276   0.361  1.00  0.00     0.073 A 
HETATM    8  C5  UNL     1       2.269  -0.260   0.995  1.00  0.00     0.052 A 
HETATM    9  C14 UNL     1       2.259  -0.491   2.343  1.00  0.00     0.073 A 
HETATM   10  S1  UNL     1       0.608  -0.722   2.686  1.00  0.00    -0.094 SA
HETATM   11  C15 UNL     1      -0.035  -0.521   1.120  1.00  0.00     0.077 A 
ENDROOT
BRANCH   1  12
HETATM   12  N1  UNL     1      -2.298  -0.803   1.389  1.00  0.00    -0.293 N 
HETATM   13  C1  UNL     1      -3.651  -0.867   0.938  1.00  0.00     0.326 C 
HETATM   14  O1  UNL     1      -3.968  -1.830   0.235  1.00  0.00    -0.247 OA
HETATM   15  N4  UNL     1      -4.543   0.145   1.305  1.00  0.00    -0.307 N 
ATOM     16  H4  UNL     1      -4.190   0.898   1.895  1.00  0.00     0.170 HD
ATOM     17  H1  UNL     1      -2.101  -0.951   2.379  1.00  0.00     0.172 HD
BRANCH  15  18
HETATM   18  C16 UNL     1      -5.888   0.195   0.918  1.00  0.00     0.051 A 
HETATM   19  C17 UNL     1      -6.735   0.984   1.714  1.00  0.00     0.032 A 
HETATM   20  C18 UNL     1      -8.050   1.079   1.361  1.00  0.00     0.019 A 
HETATM   21  C19 UNL     1      -8.564   0.438   0.269  1.00  0.00     0.088 A 
HETATM   22  N5  UNL     1      -7.746  -0.302  -0.470  1.00  0.00    -0.373 N 
HETATM   23  C20 UNL     1      -6.417  -0.436  -0.167  1.00  0.00     0.117 A 
ATOM     24  H5  UNL     1      -8.118  -0.785  -1.288  1.00  0.00     0.164 HD
ENDBRANCH  15  18
ENDBRANCH   1  12
BRANCH   8  25
HETATM   25  C6  UNL     1       3.549  -0.009   0.307  1.00  0.00    -0.059 C 
HETATM   26  C7  UNL     1       4.608   0.192  -0.237  1.00  0.00    -0.061 C 
BRANCH  26  27
HETATM   27  C8  UNL     1       5.877   0.413  -0.870  1.00  0.00     0.018 A 
HETATM   28  C9  UNL     1       6.591  -0.653  -1.421  1.00  0.00     0.020 A 
HETATM   29  C10 UNL     1       7.807  -0.447  -2.028  1.00  0.00     0.001 A 
HETATM   30  C11 UNL     1       8.370   0.807  -2.119  1.00  0.00     0.000 A 
HETATM   31  C12 UNL     1       7.676   1.865  -1.579  1.00  0.00     0.001 A 
HETATM   32  C13 UNL     1       6.457   1.655  -0.971  1.00  0.00     0.020 A 
ENDBRANCH  26  27
ENDBRANCH   8  25
TORSDOF 4
