REMARK  5 active torsions:
REMARK  status: ('A' for Active; 'I' for Inactive)
REMARK    1  A    between atoms: C1_2  and  N1_3 
REMARK    2  A    between atoms: C1_2  and  N3_15 
REMARK    3  A    between atoms: N1_3  and  C2_5 
REMARK    4  A    between atoms: N3_15  and  C9_17 
REMARK    5  A    between atoms: C10_20  and  C11_21 
ROOT
HETATM    1  N3  UNL     1      -0.066  -0.302  -1.608  1.00  0.00    -0.313 N 
ATOM      2  H3  UNL     1      -0.006   0.508  -2.225  1.00  0.00     0.170 HD
ENDROOT
BRANCH   1   3
HETATM    3  C1  UNL     1       1.026  -1.209  -1.485  1.00  0.00     0.179 C 
HETATM    4  S1  UNL     1       1.583  -1.910  -2.847  1.00  0.00    -0.040 SA
BRANCH   3   5
HETATM    5  N1  UNL     1       1.651  -1.534  -0.252  1.00  0.00    -0.319 N 
ATOM      6  H1  UNL     1       1.145  -2.130   0.403  1.00  0.00     0.169 HD
BRANCH   5   7
HETATM    7  C2  UNL     1       2.813  -1.120   0.080  1.00  0.00     0.108 A 
HETATM    8  C3  UNL     1       3.530  -0.308  -0.784  1.00  0.00     0.068 A 
HETATM    9  C4  UNL     1       4.813   0.158  -0.433  1.00  0.00     0.020 A 
HETATM   10  S2  UNL     1       5.984   1.144  -1.190  1.00  0.00    -0.101 SA
HETATM   11  C7  UNL     1       5.407  -0.162   0.759  1.00  0.00    -0.003 A 
HETATM   12  C5  UNL     1       7.186   1.122   0.020  1.00  0.00     0.051 A 
HETATM   13  C6  UNL     1       6.629   0.334   0.992  1.00  0.00     0.021 A 
HETATM   14  C8  UNL     1       4.630  -0.992   1.598  1.00  0.00     0.102 A 
HETATM   15  N2  UNL     1       3.430  -1.406   1.229  1.00  0.00    -0.351 N 
ATOM     16  H2  UNL     1       2.926  -2.002   1.886  1.00  0.00     0.166 HD
ENDBRANCH   5   7
ENDBRANCH   3   5
ENDBRANCH   1   3
BRANCH   1  17
HETATM   17  C9  UNL     1      -1.158  -0.537  -0.903  1.00  0.00     0.151 A 
HETATM   18  N4  UNL     1      -2.270   0.186  -0.883  1.00  0.00    -0.335 N 
HETATM   19  C10 UNL     1      -3.259  -0.201  -0.117  1.00  0.00     0.051 A 
ATOM     20  H4  UNL     1      -2.353   1.027  -1.453  1.00  0.00     0.168 HD
HETATM   21  C16 UNL     1      -3.076  -1.342   0.621  1.00  0.00     0.083 A 
HETATM   22  S3  UNL     1      -1.492  -1.805   0.182  1.00  0.00    -0.063 SA
BRANCH  19  23
HETATM   23  C11 UNL     1      -4.548   0.550  -0.031  1.00  0.00    -0.006 A 
HETATM   24  C12 UNL     1      -5.559   0.111   0.783  1.00  0.00     0.030 A 
HETATM   25  C13 UNL     1      -6.764   0.764   0.899  1.00  0.00     0.088 A 
HETATM   26  N5  UNL     1      -6.962   1.879   0.187  1.00  0.00    -0.375 N 
HETATM   27  C14 UNL     1      -5.994   2.334  -0.618  1.00  0.00     0.088 A 
ATOM     28  H5  UNL     1      -7.847   2.381   0.257  1.00  0.00     0.164 HD
HETATM   29  C15 UNL     1      -4.774   1.699  -0.755  1.00  0.00     0.030 A 
ENDBRANCH  19  23
ENDBRANCH   1  17
TORSDOF 5
