REMARK  3 active torsions:
REMARK  status: ('A' for Active; 'I' for Inactive)
REMARK    1  A    between atoms: C3_3  and  C4_4 
REMARK    2  A    between atoms: C10_10  and  C11_11 
REMARK    3  A    between atoms: C20_21  and  N2_22 
ROOT
HETATM    1  C1  UNL     1       7.779   2.059  -0.711  1.00  0.00     0.112 C 
HETATM    2  C2  UNL     1       6.660   1.343  -0.058  1.00  0.00    -0.105 C 
HETATM    3  C3  UNL     1       5.768   0.747   0.476  1.00  0.00    -0.067 C 
ENDROOT
BRANCH   3   4
HETATM    4  C4  UNL     1       4.702   0.003   1.125  1.00  0.00     0.028 A 
HETATM    5  C5  UNL     1       4.952  -0.707   2.280  1.00  0.00     0.021 A 
HETATM    6  C6  UNL     1       3.924  -1.406   2.878  1.00  0.00     0.002 A 
HETATM    7  C7  UNL     1       2.642  -1.406   2.336  1.00  0.00     0.012 A 
HETATM    8  C8  UNL     1       2.394  -0.695   1.181  1.00  0.00    -0.024 A 
HETATM    9  C9  UNL     1       1.120  -0.678   0.619  1.00  0.00     0.024 A 
HETATM   10  C25 UNL     1       3.422  -0.005   0.596  1.00  0.00    -0.007 A 
HETATM   11  C10 UNL     1       0.856   0.032  -0.542  1.00  0.00    -0.025 A 
HETATM   12  C23 UNL     1       1.897   0.710  -1.105  1.00  0.00     0.013 A 
HETATM   13  C24 UNL     1       3.161   0.705  -0.564  1.00  0.00     0.014 A 
BRANCH  11  14
HETATM   14  C11 UNL     1      -0.490   0.012  -1.082  1.00  0.00    -0.024 A 
HETATM   15  C12 UNL     1      -0.623   0.116  -2.465  1.00  0.00     0.013 A 
HETATM   16  C13 UNL     1      -1.874   0.103  -3.044  1.00  0.00     0.014 A 
HETATM   17  C14 UNL     1      -3.001  -0.014  -2.228  1.00  0.00    -0.007 A 
HETATM   18  C15 UNL     1      -4.253  -0.028  -2.789  1.00  0.00     0.016 A 
HETATM   19  C21 UNL     1      -2.893  -0.117  -0.860  1.00  0.00     0.068 A 
HETATM   20  C16 UNL     1      -5.343  -0.145  -1.955  1.00  0.00     0.034 A 
HETATM   21  C17 UNL     1      -5.205  -0.247  -0.577  1.00  0.00     0.081 A 
HETATM   22  C18 UNL     1      -6.143  -0.371   0.436  1.00  0.00     0.118 A 
HETATM   23  N4  UNL     1      -3.975  -0.232  -0.045  1.00  0.00    -0.253 N 
HETATM   24  C19 UNL     1      -7.571  -0.428   0.318  1.00  0.00     0.105 C 
HETATM   25  C20 UNL     1      -5.417  -0.430   1.605  1.00  0.00     0.137 A 
HETATM   26  N1  UNL     1      -8.740  -0.460   0.209  1.00  0.00    -0.191 NA
HETATM   27  N3  UNL     1      -4.122  -0.343   1.265  1.00  0.00    -0.277 N 
ATOM     28  H3  UNL     1      -3.350  -0.360   1.931  1.00  0.00     0.189 HD
HETATM   29  C22 UNL     1      -1.623  -0.102  -0.308  1.00  0.00     0.044 A 
BRANCH  25  30
HETATM   30  N2  UNL     1      -5.892  -0.549   2.822  1.00  0.00    -0.383 N 
ATOM     31  H22 UNL     1      -6.876  -0.615   3.080  1.00  0.00     0.157 HD
ATOM     32  H21 UNL     1      -5.354  -0.593   3.688  1.00  0.00     0.157 HD
ENDBRANCH  25  30
ENDBRANCH  11  14
ENDBRANCH   3   4
TORSDOF 3
