REMARK  9 active torsions:
REMARK  status: ('A' for Active; 'I' for Inactive)
REMARK    1  A    between atoms: C3_3  and  O1_5 
REMARK    2  A    between atoms: C3_3  and  C5_7 
REMARK    3  A    between atoms: C5_7  and  N1_8 
REMARK    4  A    between atoms: C5_7  and  C7_11 
REMARK    5  A    between atoms: N1_8  and  O2_9 
REMARK       I    between atoms: C7_11  and  N2_13 
REMARK    6  A    between atoms: N2_13  and  C8_15 
REMARK    7  A    between atoms: C8_15  and  O4_16 
REMARK    8  A    between atoms: C10_19  and  N3_20 
REMARK    9  A    between atoms: C13_27  and  O5_29 
ROOT
HETATM    1  C1  UNL     1       3.505  -2.722  -0.624  1.00  0.00     0.015 C 
HETATM    2  C2  UNL     1       3.332  -1.968   0.298  1.00  0.00    -0.077 C 
HETATM    3  C3  UNL     1       3.149  -1.045   1.441  1.00  0.00     0.144 C 
HETATM    4  C4  UNL     1       4.509  -0.646   1.908  1.00  0.00     0.062 C 
ENDROOT
BRANCH   3   5
HETATM    5  O1  UNL     1       2.465  -1.716   2.418  1.00  0.00    -0.376 OA
ATOM      6  H1  UNL     1       2.348  -1.124   3.151  1.00  0.00     0.211 HD
ENDBRANCH   3   5
BRANCH   3   7
HETATM    7  C5  UNL     1       2.431   0.225   0.951  1.00  0.00     0.244 C 
BRANCH   7   8
HETATM    8  N1  UNL     1       3.379   0.748  -0.078  1.00  0.00    -0.083 NA
BRANCH   8   9
HETATM    9  O2  UNL     1       2.871   1.923  -0.544  1.00  0.00    -0.290 OA
HETATM   10  C6  UNL     1       3.389   2.329  -1.752  1.00  0.00     0.231 C 
ENDBRANCH   8   9
ENDBRANCH   7   8
BRANCH   7  11
HETATM   11  C7  UNL     1       1.224  -0.203   0.208  1.00  0.00     0.247 C 
HETATM   12  O3  UNL     1       1.386  -0.365  -1.050  1.00  0.00    -0.271 OA
HETATM   13  N2  UNL     1      -0.055  -0.426   0.803  1.00  0.00    -0.304 N 
ATOM     14  H2  UNL     1      -0.164  -0.287   1.807  1.00  0.00     0.167 HD
BRANCH  13  15
HETATM   15  C8  UNL     1      -1.195  -0.842   0.027  1.00  0.00     0.253 C 
HETATM   16  C9  UNL     1      -1.486   0.123  -1.104  1.00  0.00     0.128 C 
HETATM   17  C10 UNL     1      -2.901  -0.024  -1.581  1.00  0.00     0.213 C 
HETATM   18  C11 UNL     1      -3.914   0.143  -0.499  1.00  0.00     0.185 C 
HETATM   19  C12 UNL     1      -4.582   1.439  -0.655  1.00  0.00     0.071 C 
HETATM   20  C13 UNL     1      -3.186   0.084   0.830  1.00  0.00     0.181 C 
HETATM   21  N4  UNL     1      -5.114   2.447  -0.798  1.00  0.00    -0.197 NA
HETATM   22  C14 UNL     1      -4.234  -0.166   1.895  1.00  0.00     0.080 C 
HETATM   23  O6  UNL     1      -2.303  -0.983   0.866  1.00  0.00    -0.300 OA
BRANCH  15  24
HETATM   24  O4  UNL     1      -0.934  -2.088  -0.520  1.00  0.00    -0.348 OA
ATOM     25  H4  UNL     1      -1.686  -2.362  -1.032  1.00  0.00     0.215 HD
ENDBRANCH  15  24
BRANCH  17  26
HETATM   26  N3  UNL     1      -3.069   0.985  -2.640  1.00  0.00    -0.073 N 
ATOM     27  H33 UNL     1      -2.833   1.932  -2.344  1.00  0.00     0.274 HD
ATOM     28  H32 UNL     1      -2.376   0.915  -3.386  1.00  0.00     0.274 HD
ATOM     29  H31 UNL     1      -4.031   0.885  -2.964  1.00  0.00     0.274 HD
ENDBRANCH  17  26
BRANCH  20  30
HETATM   30  O5  UNL     1      -2.607   1.309   1.166  1.00  0.00    -0.364 OA
ATOM     31  H5  UNL     1      -2.151   1.272   1.999  1.00  0.00     0.213 HD
ENDBRANCH  20  30
ENDBRANCH  13  15
ENDBRANCH   7  11
ENDBRANCH   3   7
TORSDOF 9
