REMARK  8 active torsions:
REMARK  status: ('A' for Active; 'I' for Inactive)
REMARK    1  A    between atoms: C2_2  and  C3_3 
REMARK    2  A    between atoms: C3_3  and  C4_4 
REMARK       I    between atoms: C4_4  and  N1_6 
REMARK    3  A    between atoms: N1_6  and  C5_8 
REMARK    4  A    between atoms: C6_11  and  C7_12 
REMARK    5  A    between atoms: C7_12  and  O2_15 
REMARK       I    between atoms: N5_22  and  C12_23 
REMARK       I    between atoms: C12_23  and  N6_25 
REMARK    6  A    between atoms: N6_25  and  N7_27 
REMARK    7  A    between atoms: N7_27  and  N8_28 
REMARK    8  A    between atoms: N8_28  and  N9_29 
ROOT
HETATM    1  C5  UNL     1      -0.462  -0.230  -0.017  1.00  0.00     0.724 A 
HETATM    2  N2  UNL     1      -1.682  -0.708   0.258  1.00  0.00    -0.174 N 
ATOM      3  H2  UNL     1      -2.464  -0.066   0.386  1.00  0.00     0.185 HD
HETATM    4  C6  UNL     1      -1.878  -2.041   0.366  1.00  0.00     0.147 A 
HETATM    5  N3  UNL     1      -0.861  -2.897   0.199  1.00  0.00    -0.173 N 
ATOM      6  H3  UNL     1      -1.010  -3.903   0.279  1.00  0.00     0.185 HD
HETATM    7  C10 UNL     1       0.387  -2.393  -0.082  1.00  0.00     0.740 A 
HETATM    8  N4  UNL     1       1.666  -2.619  -0.336  1.00  0.00    -0.099 N 
HETATM    9  C11 UNL     1       2.482  -3.793  -0.456  1.00  0.00     0.200 C 
HETATM   10  N5  UNL     1       1.884  -1.302  -0.443  1.00  0.00    -0.088 N 
HETATM   11  C12 UNL     1       3.064  -0.568  -0.732  1.00  0.00     0.375 C 
HETATM   12  O3  UNL     1       4.142  -1.218  -1.010  1.00  0.00    -0.242 OA
HETATM   13  N6  UNL     1       3.211   0.828  -0.749  1.00  0.00    -0.234 N 
ATOM     14  H6  UNL     1       2.420   1.439  -0.546  1.00  0.00     0.189 HD
HETATM   15  N10 UNL     1       0.617  -1.083  -0.194  1.00  0.00     0.118 N 
ENDROOT
BRANCH  13  16
HETATM   16  N7  UNL     1       4.495   1.373  -1.058  1.00  0.00    -0.005 NA
BRANCH  16  17
HETATM   17  N8  UNL     1       5.209   1.487   0.152  1.00  0.00    -0.016 NA
BRANCH  17  18
HETATM   18  N9  UNL     1       6.326   0.653   0.189  1.00  0.00    -0.330 N 
ATOM     19  H92 UNL     1       6.584   0.036  -0.581  1.00  0.00     0.173 HD
ATOM     20  H91 UNL     1       6.843   0.735   1.065  1.00  0.00     0.173 HD
ENDBRANCH  17  18
ENDBRANCH  16  17
ENDBRANCH  13  16
BRANCH   1  21
HETATM   21  N1  UNL     1      -0.274   1.003  -0.194  1.00  0.00    -0.157 N 
HETATM   22  C4  UNL     1      -1.140   2.091  -0.167  1.00  0.00     0.235 C 
HETATM   23  O1  UNL     1      -2.290   1.985  -0.671  1.00  0.00    -0.273 OA
ATOM     24  H1  UNL     1       0.695   1.250  -0.395  1.00  0.00     0.187 HD
BRANCH  22  25
HETATM   25  C3  UNL     1      -0.695   3.389   0.464  1.00  0.00     0.103 C 
BRANCH  25  26
HETATM   26  C2  UNL     1      -1.751   4.413   0.040  1.00  0.00     0.005 C 
HETATM   27  C1  UNL     1      -1.480   5.790   0.552  1.00  0.00     0.005 C 
ENDBRANCH  25  26
ENDBRANCH  22  25
ENDBRANCH   1  21
BRANCH   4  28
HETATM   28  C7  UNL     1      -3.242  -2.538   0.673  1.00  0.00     0.110 C 
HETATM   29  C8  UNL     1      -4.256  -1.406   0.627  1.00  0.00     0.054 C 
HETATM   30  C9  UNL     1      -3.652  -3.566  -0.344  1.00  0.00     0.054 C 
BRANCH  28  31
HETATM   31  O2  UNL     1      -3.325  -3.048   1.986  1.00  0.00    -0.383 OA
ATOM     32  H2  UNL     1      -4.198  -3.366   2.183  1.00  0.00     0.211 HD
ENDBRANCH  28  31
ENDBRANCH   4  28
TORSDOF 8
