REMARK  5 active torsions:
REMARK  status: ('A' for Active; 'I' for Inactive)
REMARK    1  A    between atoms: C2_2  and  C3_3 
REMARK       I    between atoms: C3_3  and  N1_5 
REMARK    2  A    between atoms: C5_10  and  N4_11 
REMARK    3  A    between atoms: C5_10  and  C7_16 
REMARK       I    between atoms: N4_11  and  C6_13 
REMARK    4  A    between atoms: C12_26  and  N8_27 
REMARK    5  A    between atoms: N8_27  and  N9_29 
ROOT
HETATM    1  C3  UNL     1      -2.207   0.968  -0.906  1.00  0.00     0.255 C 
HETATM    2  O1  UNL     1      -2.865   0.012  -1.441  1.00  0.00    -0.268 OA
HETATM    3  N1  UNL     1      -1.266   0.657   0.076  1.00  0.00    -0.234 N 
HETATM    4  C4  UNL     1      -0.515   1.719   0.648  1.00  0.00     0.202 C 
HETATM    5  N2  UNL     1      -1.213   2.880   1.022  1.00  0.00    -0.063 NA
HETATM    6  N3  UNL     1       0.763   1.665   0.836  1.00  0.00    -0.323 N 
ATOM      7  H3  UNL     1       1.122   2.521   1.259  1.00  0.00     0.165 HD
HETATM    8  C5  UNL     1       1.812   0.701   0.599  1.00  0.00     0.246 C 
HETATM    9  C8  UNL     1       1.420  -0.703   0.739  1.00  0.00     0.102 A 
HETATM   10  N6  UNL     1       2.324  -1.674   0.989  1.00  0.00    -0.350 N 
ATOM     11  H6  UNL     1       3.326  -1.522   1.104  1.00  0.00     0.166 HD
HETATM   12  C9  UNL     1       1.715  -2.867   1.065  1.00  0.00     0.183 A 
HETATM   13  N7  UNL     1       0.390  -2.692   0.865  1.00  0.00    -0.343 N 
HETATM   14  C10 UNL     1      -0.641  -3.715   0.862  1.00  0.00     0.157 C 
HETATM   15  C11 UNL     1       0.214  -1.376   0.668  1.00  0.00     0.109 A 
HETATM   16  C12 UNL     1      -1.118  -0.730   0.444  1.00  0.00     0.161 C 
ENDROOT
BRANCH   8  17
HETATM   17  N4  UNL     1       2.228   0.904  -0.781  1.00  0.00    -0.304 N 
HETATM   18  C6  UNL     1       3.315   0.295  -1.428  1.00  0.00     0.331 C 
HETATM   19  N5  UNL     1       3.534   0.649  -2.813  1.00  0.00    -0.040 NA
HETATM   20  O2  UNL     1       4.126  -0.519  -0.962  1.00  0.00    -0.251 OA
ATOM     21  H4  UNL     1       1.673   1.556  -1.335  1.00  0.00     0.167 HD
ENDBRANCH   8  17
BRANCH   8  22
HETATM   22  C7  UNL     1       2.901   1.027   1.550  1.00  0.00     0.231 C 
HETATM   23  O3  UNL     1       3.990   1.437   1.111  1.00  0.00    -0.644 OA
HETATM   24  O4  UNL     1       2.728   0.885   2.907  1.00  0.00    -0.644 OA
ENDBRANCH   8  22
BRANCH  16  25
HETATM   25  N8  UNL     1      -2.071  -1.450   0.655  1.00  0.00    -0.290 N 
ATOM     26  H8  UNL     1      -1.709  -2.374   0.890  1.00  0.00     0.188 HD
BRANCH  25  27
HETATM   27  N9  UNL     1      -3.391  -1.518   0.703  1.00  0.00    -0.344 N 
ATOM     28  H92 UNL     1      -3.723  -0.583   0.465  1.00  0.00     0.176 HD
ATOM     29  H91 UNL     1      -4.192  -2.123   0.880  1.00  0.00     0.176 HD
ENDBRANCH  25  27
ENDBRANCH  16  25
BRANCH   1  30
HETATM   30  C2  UNL     1      -2.552   2.277  -1.423  1.00  0.00     0.065 C 
HETATM   31  C1  UNL     1      -3.500   2.375  -2.365  1.00  0.00     0.017 C 
ENDBRANCH   1  30
TORSDOF 5
