REMARK  8 active torsions:
REMARK  status: ('A' for Active; 'I' for Inactive)
REMARK    1  A    between atoms: C2_2  and  C3_3 
REMARK    2  A    between atoms: C3_3  and  N1_4 
REMARK    3  A    between atoms: C4_5  and  N2_6 
REMARK    4  A    between atoms: N2_6  and  N3_8 
REMARK    5  A    between atoms: N4_11  and  C5_12 
REMARK    6  A    between atoms: C5_12  and  C6_13 
REMARK       I    between atoms: C6_13  and  N5_15 
REMARK    7  A    between atoms: N5_15  and  N6_17 
REMARK    8  A    between atoms: C13_28  and  N8_29 
ROOT
HETATM    1  N1  UNL     1      -0.372   1.052   0.009  1.00  0.00    -0.166 N 
HETATM    2  C4  UNL     1       0.910   0.594   0.233  1.00  0.00     0.705 A 
HETATM    3  N4  UNL     1       1.140  -0.716   0.407  1.00  0.00    -0.136 N 
HETATM    4  C7  UNL     1       0.100  -1.611   0.360  1.00  0.00     0.277 A 
HETATM    5  O2  UNL     1       0.378  -2.812   0.527  1.00  0.00    -0.266 OA
HETATM    6  C8  UNL     1      -1.162  -1.194   0.142  1.00  0.00     0.085 A 
HETATM    7  C9  UNL     1      -2.181  -2.135   0.108  1.00  0.00    -0.018 A 
HETATM    8  C10 UNL     1      -1.975  -3.584   0.291  1.00  0.00     0.051 C 
HETATM    9  C11 UNL     1      -3.461  -1.623  -0.118  1.00  0.00     0.095 A 
HETATM   10  C12 UNL     1      -4.555  -2.552  -0.165  1.00  0.00     0.104 C 
HETATM   11  N7  UNL     1      -5.441  -3.323  -0.213  1.00  0.00    -0.191 NA
HETATM   12  C13 UNL     1      -3.678  -0.281  -0.292  1.00  0.00     0.122 A 
HETATM   13  N9  UNL     1      -2.624   0.567  -0.242  1.00  0.00    -0.326 N 
ATOM     14  H9  UNL     1      -2.798   1.564  -0.372  1.00  0.00     0.169 HD
HETATM   15  C14 UNL     1      -1.364   0.164  -0.031  1.00  0.00     0.141 A 
ENDROOT
BRANCH  12  16
HETATM   16  N8  UNL     1      -4.868   0.193  -0.501  1.00  0.00    -0.384 N 
ATOM     17  H82 UNL     1      -5.662  -0.446  -0.539  1.00  0.00     0.157 HD
ATOM     18  H81 UNL     1      -5.030   1.192  -0.630  1.00  0.00     0.157 HD
ENDBRANCH  12  16
BRANCH   3  19
HETATM   19  C5  UNL     1       2.475  -1.233   0.673  1.00  0.00     0.255 C 
BRANCH  19  20
HETATM   20  C6  UNL     1       3.186  -1.497  -0.600  1.00  0.00     0.254 C 
HETATM   21  O1  UNL     1       2.629  -1.273  -1.700  1.00  0.00    -0.270 OA
HETATM   22  N5  UNL     1       4.508  -2.007  -0.618  1.00  0.00    -0.275 N 
ATOM     23  H5  UNL     1       4.975  -2.194   0.269  1.00  0.00     0.189 HD
BRANCH  22  24
HETATM   24  N6  UNL     1       5.194  -2.262  -1.807  1.00  0.00    -0.343 N 
ATOM     25  H62 UNL     1       4.712  -2.069  -2.685  1.00  0.00     0.176 HD
ATOM     26  H61 UNL     1       6.146  -2.629  -1.820  1.00  0.00     0.176 HD
ENDBRANCH  22  24
ENDBRANCH  19  20
ENDBRANCH   3  19
BRANCH   1  27
HETATM   27  C3  UNL     1      -0.547   2.468  -0.166  1.00  0.00     0.149 C 
BRANCH  27  28
HETATM   28  C2  UNL     1      -0.838   3.187   1.128  1.00  0.00     0.016 C 
HETATM   29  C1  UNL     1      -1.013   4.671   0.892  1.00  0.00     0.006 C 
ENDBRANCH  27  28
ENDBRANCH   1  27
BRANCH   2  30
HETATM   30  N2  UNL     1       1.791   1.467   0.241  1.00  0.00    -0.138 N 
ATOM     31  H2  UNL     1       1.353   2.372   0.072  1.00  0.00     0.205 HD
BRANCH  30  32
HETATM   32  N3  UNL     1       3.094   1.650   0.389  1.00  0.00    -0.331 N 
ATOM     33  H32 UNL     1       3.505   0.732   0.556  1.00  0.00     0.177 HD
ATOM     34  H31 UNL     1       3.819   2.368   0.396  1.00  0.00     0.177 HD
ENDBRANCH  30  32
ENDBRANCH   2  30
TORSDOF 8
