REMARK  7 active torsions:
REMARK  status: ('A' for Active; 'I' for Inactive)
REMARK    1  A    between atoms: C2_2  and  C3_3 
REMARK    2  A    between atoms: C3_3  and  N1_4 
REMARK    3  A    between atoms: C3_3  and  C4_8 
REMARK    4  A    between atoms: C3_3  and  C6_12 
REMARK    5  A    between atoms: C4_8  and  O2_10 
REMARK    6  A    between atoms: C6_12  and  O3_13 
REMARK    7  A    between atoms: C6_12  and  N2_15 
ROOT
HETATM    1  N2  UNL     1      -0.603   0.894   0.935  1.00  0.00    -0.278 N 
HETATM    2  C7  UNL     1       0.193   0.281   2.028  1.00  0.00     0.163 C 
HETATM    3  C8  UNL     1       0.384  -1.202   1.791  1.00  0.00     0.252 C 
HETATM    4  N3  UNL     1       1.790  -1.563   1.921  1.00  0.00    -0.074 N 
ATOM      5  H31 UNL     1       1.952  -2.161   2.731  1.00  0.00     0.277 HD
ATOM      6  H32 UNL     1       2.359  -0.765   2.202  1.00  0.00     0.277 HD
HETATM    7  C9  UNL     1       2.277  -2.162   0.717  1.00  0.00     0.234 C 
HETATM    8  C10 UNL     1       3.767  -2.240   0.632  1.00  0.00     0.055 C 
HETATM    9  C11 UNL     1       4.323  -1.003  -0.043  1.00  0.00     0.234 C 
HETATM   10  N4  UNL     1       3.603   0.188   0.356  1.00  0.00    -0.074 N 
ATOM     11  H41 UNL     1       3.776   0.404   1.338  1.00  0.00     0.277 HD
ATOM     12  H42 UNL     1       2.600   0.008   0.398  1.00  0.00     0.277 HD
HETATM   13  C12 UNL     1       3.881   1.319  -0.469  1.00  0.00     0.250 C 
HETATM   14  C13 UNL     1       2.971   1.478  -1.640  1.00  0.00     0.162 C 
HETATM   15  N5  UNL     1       1.594   1.216  -1.380  1.00  0.00    -0.136 NA
HETATM   16  N6  UNL     1       1.049   2.145  -0.521  1.00  0.00    -0.255 N 
ATOM     17  H6  UNL     1       1.562   3.021  -0.424  1.00  0.00     0.187 HD
HETATM   18  C14 UNL     1      -0.139   2.031   0.244  1.00  0.00     0.340 C 
HETATM   19  O4  UNL     1      -0.846   3.115   0.289  1.00  0.00    -0.245 OA
ENDROOT
BRANCH   1  20
HETATM   20  C6  UNL     1      -1.839   0.305   0.659  1.00  0.00     0.169 C 
BRANCH  20  21
HETATM   21  C3  UNL     1      -2.845   0.586  -0.365  1.00  0.00     0.273 C 
BRANCH  21  22
HETATM   22  C2  UNL     1      -4.204   0.873   0.306  1.00  0.00     0.054 C 
HETATM   23  C1  UNL     1      -4.243   2.174   1.022  1.00  0.00     0.009 C 
ENDBRANCH  21  22
BRANCH  21  24
HETATM   24  N1  UNL     1      -2.601   1.616  -1.294  1.00  0.00    -0.053 N 
ATOM     25  H13 UNL     1      -3.359   1.731  -1.967  1.00  0.00     0.276 HD
ATOM     26  H12 UNL     1      -2.649   2.546  -0.877  1.00  0.00     0.276 HD
ATOM     27  H11 UNL     1      -1.702   1.426  -1.738  1.00  0.00     0.276 HD
ENDBRANCH  21  24
BRANCH  21  28
HETATM   28  C4  UNL     1      -3.132  -0.661  -1.171  1.00  0.00     0.303 C 
HETATM   29  O1  UNL     1      -3.113  -0.601  -2.398  1.00  0.00    -0.262 OA
BRANCH  28  30
HETATM   30  O2  UNL     1      -3.406  -1.821  -0.501  1.00  0.00    -0.324 OA
HETATM   31  C5  UNL     1      -3.686  -3.038  -1.177  1.00  0.00     0.213 C 
ENDBRANCH  28  30
ENDBRANCH  21  28
ENDBRANCH  20  21
BRANCH  20  32
HETATM   32  O3  UNL     1      -2.153  -0.681   1.458  1.00  0.00    -0.347 OA
ATOM     33  H3  UNL     1      -1.500  -0.864   2.123  1.00  0.00     0.219 HD
ENDBRANCH  20  32
ENDBRANCH   1  20
TORSDOF 7
