REMARK  6 active torsions:
REMARK  status: ('A' for Active; 'I' for Inactive)
REMARK       I    between atoms: N1_1  and  C1_5 
REMARK       I    between atoms: C1_5  and  N2_6 
REMARK       I    between atoms: C1_5  and  N3_10 
REMARK       I    between atoms: N3_10  and  C2_12 
REMARK    1  A    between atoms: C2_12  and  C3_14 
REMARK    2  A    between atoms: C3_14  and  N4_15 
REMARK    3  A    between atoms: C3_14  and  C4_19 
REMARK       I    between atoms: C4_19  and  N5_21 
REMARK    4  A    between atoms: N5_21  and  C5_23 
REMARK    5  A    between atoms: C6_28  and  C7_29 
REMARK    6  A    between atoms: C10_32  and  O3_33 
ROOT
HETATM    1  C4  UNL     1      -2.002  -2.094  -0.393  1.00  0.00     0.263 C 
HETATM    2  O2  UNL     1      -2.893  -1.678  -1.167  1.00  0.00    -0.270 OA
HETATM    3  N5  UNL     1      -0.703  -2.314  -0.825  1.00  0.00    -0.304 N 
ATOM      4  H5  UNL     1      -0.481  -3.260  -1.136  1.00  0.00     0.171 HD
ENDROOT
BRANCH   1   5
HETATM    5  C3  UNL     1      -2.362  -2.354   1.018  1.00  0.00     0.365 C 
BRANCH   5   6
HETATM    6  C2  UNL     1      -2.780  -1.051   1.598  1.00  0.00     0.260 C 
HETATM    7  N3  UNL     1      -3.951  -0.370   1.172  1.00  0.00    -0.309 N 
HETATM    8  C1  UNL     1      -4.379   0.897   1.717  1.00  0.00     0.482 C 
ATOM      9  H3  UNL     1      -4.520  -0.799   0.442  1.00  0.00     0.166 HD
HETATM   10  N1  UNL     1      -5.647   0.790   2.393  1.00  0.00    -0.033 N 
HETATM   11  N2  UNL     1      -4.433   1.928   0.694  1.00  0.00    -0.033 N 
ATOM     12  H13 UNL     1      -5.951   1.686   2.774  1.00  0.00     0.278 HD
ATOM     13  H12 UNL     1      -6.414   0.635   1.738  1.00  0.00     0.278 HD
ATOM     14  H11 UNL     1      -5.609   0.066   3.111  1.00  0.00     0.278 HD
ATOM     15  H23 UNL     1      -5.200   1.773   0.039  1.00  0.00     0.278 HD
ATOM     16  H22 UNL     1      -4.737   2.824   1.075  1.00  0.00     0.278 HD
ATOM     17  H21 UNL     1      -3.535   2.004   0.215  1.00  0.00     0.278 HD
HETATM   18  O1  UNL     1      -2.070  -0.536   2.495  1.00  0.00    -0.271 OA
ENDBRANCH   5   6
BRANCH   5  19
HETATM   19  N4  UNL     1      -1.170  -2.803   1.707  1.00  0.00    -0.058 N 
ATOM     20  H43 UNL     1      -0.423  -2.109   1.689  1.00  0.00     0.275 HD
ATOM     21  H42 UNL     1      -1.296  -2.847   2.718  1.00  0.00     0.275 HD
ATOM     22  H41 UNL     1      -0.883  -3.697   1.309  1.00  0.00     0.275 HD
ENDBRANCH   5  19
ENDBRANCH   1   5
BRANCH   3  23
HETATM   23  C5  UNL     1       0.260  -1.448  -0.877  1.00  0.00     0.168 A 
HETATM   24  N6  UNL     1       0.305  -0.153  -0.553  1.00  0.00    -0.279 N 
HETATM   25  N7  UNL     1       1.396   0.478  -0.703  1.00  0.00    -0.290 N 
ATOM     26  H6  UNL     1      -0.523   0.321  -0.191  1.00  0.00     0.189 HD
HETATM   27  C6  UNL     1       2.464  -0.128  -1.166  1.00  0.00     0.119 A 
ATOM     28  H7  UNL     1       1.443   1.468  -0.461  1.00  0.00     0.188 HD
HETATM   29  S1  UNL     1       1.861  -1.725  -1.408  1.00  0.00    -0.031 SA
BRANCH  27  30
HETATM   30  C7  UNL     1       3.821   0.393  -1.419  1.00  0.00     0.067 A 
HETATM   31  C8  UNL     1       4.116   1.709  -1.161  1.00  0.00     0.035 A 
HETATM   32  C9  UNL     1       5.394   2.221  -1.393  1.00  0.00     0.040 A 
HETATM   33  C10 UNL     1       6.379   1.394  -1.890  1.00  0.00     0.081 A 
HETATM   34  C11 UNL     1       6.040   0.080  -2.135  1.00  0.00     0.124 A 
HETATM   35  N8  UNL     1       4.786  -0.392  -1.900  1.00  0.00    -0.361 N 
ATOM     36  H8  UNL     1       4.578  -1.371  -2.097  1.00  0.00     0.165 HD
BRANCH  33  37
HETATM   37  O3  UNL     1       7.677   1.804  -2.154  1.00  0.00    -0.359 OA
ATOM     38  H3  UNL     1       8.356   1.234  -2.496  1.00  0.00     0.217 HD
ENDBRANCH  33  37
ENDBRANCH  27  30
ENDBRANCH   3  23
TORSDOF 6
