REMARK  6 active torsions:
REMARK  status: ('A' for Active; 'I' for Inactive)
REMARK    1  A    between atoms: C2_2  and  C4_4 
REMARK    2  A    between atoms: C4_4  and  C5_5 
REMARK    3  A    between atoms: C5_5  and  C6_6 
REMARK    4  A    between atoms: C6_6  and  C7_7 
REMARK    5  A    between atoms: C6_6  and  C14_17 
REMARK       I    between atoms: C7_7  and  N1_9 
REMARK    6  A    between atoms: N1_9  and  C8_11 
ROOT
HETATM    1  C7  UNL     1      -0.240  -0.308  -0.914  1.00  0.00     0.222 C 
HETATM    2  O1  UNL     1      -0.240   0.218  -2.055  1.00  0.00    -0.273 OA
HETATM    3  N1  UNL     1       1.001  -0.277  -0.200  1.00  0.00    -0.356 N 
ATOM      4  H1  UNL     1       1.040  -0.694   0.730  1.00  0.00     0.162 HD
ENDROOT
BRANCH   1   5
HETATM    5  C6  UNL     1      -1.464  -0.901  -0.399  1.00  0.00     0.081 C 
BRANCH   5   6
HETATM    6  C5  UNL     1      -1.937  -0.298   0.900  1.00  0.00     0.015 C 
BRANCH   6   7
HETATM    7  C4  UNL     1      -2.227   1.174   0.786  1.00  0.00     0.005 C 
BRANCH   7   8
HETATM    8  C2  UNL     1      -3.296   1.487  -0.226  1.00  0.00    -0.023 C 
HETATM    9  C1  UNL     1      -3.465   3.012  -0.215  1.00  0.00     0.009 C 
HETATM   10  C3  UNL     1      -4.627   0.896   0.093  1.00  0.00     0.009 C 
ENDBRANCH   7   8
ENDBRANCH   6   7
ENDBRANCH   5   6
BRANCH   5  11
HETATM   11  C14 UNL     1      -1.439  -2.395  -0.252  1.00  0.00    -0.010 C 
HETATM   12  C15 UNL     1      -0.974  -3.085  -1.518  1.00  0.00     0.010 C 
HETATM   13  C16 UNL     1      -0.612  -2.907   0.877  1.00  0.00     0.010 C 
ENDBRANCH   5  11
ENDBRANCH   1   5
BRANCH   3  14
HETATM   14  C8  UNL     1       2.196   0.318  -0.740  1.00  0.00     0.084 C 
HETATM   15  C9  UNL     1       2.592   1.487   0.150  1.00  0.00     0.025 C 
HETATM   16  C10 UNL     1       4.000   1.959  -0.152  1.00  0.00     0.002 C 
HETATM   17  C11 UNL     1       5.008   0.925   0.242  1.00  0.00     0.000 C 
HETATM   18  C12 UNL     1       4.312  -0.416   0.382  1.00  0.00     0.002 C 
HETATM   19  C13 UNL     1       3.355  -0.627  -0.799  1.00  0.00     0.025 C 
ENDBRANCH   3  14
TORSDOF 6
