REMARK  6 active torsions:
REMARK  status: ('A' for Active; 'I' for Inactive)
REMARK    1  A    between atoms: C2_2  and  C4_4 
REMARK    2  A    between atoms: C4_4  and  C5_5 
REMARK    3  A    between atoms: C5_5  and  N1_6 
REMARK    4  A    between atoms: C5_5  and  C14_17 
REMARK       I    between atoms: N1_6  and  C6_8 
REMARK    5  A    between atoms: C6_8  and  C7_10 
REMARK    6  A    between atoms: C7_10  and  C8_11 
ROOT
HETATM    1  N1  UNL     1      -0.805  -0.697  -0.038  1.00  0.00    -0.356 N 
ATOM      2  H1  UNL     1      -0.615  -1.548   0.491  1.00  0.00     0.162 HD
HETATM    3  C6  UNL     1       0.286   0.145  -0.341  1.00  0.00     0.218 C 
HETATM    4  O1  UNL     1       0.091   1.197  -0.988  1.00  0.00    -0.274 OA
ENDROOT
BRANCH   1   5
HETATM    5  C5  UNL     1      -2.167  -0.438  -0.424  1.00  0.00     0.088 C 
BRANCH   5   6
HETATM    6  C4  UNL     1      -3.099  -0.444   0.734  1.00  0.00     0.029 C 
BRANCH   6   7
HETATM    7  C2  UNL     1      -2.869   0.559   1.809  1.00  0.00    -0.021 C 
HETATM    8  C1  UNL     1      -1.561   0.498   2.528  1.00  0.00     0.009 C 
HETATM    9  C3  UNL     1      -3.974   0.352   2.865  1.00  0.00     0.009 C 
ENDBRANCH   6   7
ENDBRANCH   5   6
BRANCH   5  10
HETATM   10  C14 UNL     1      -2.580  -1.472  -1.469  1.00  0.00     0.000 C 
HETATM   11  C15 UNL     1      -3.957  -1.180  -1.981  1.00  0.00     0.011 C 
HETATM   12  C16 UNL     1      -2.474  -2.864  -0.938  1.00  0.00     0.011 C 
ENDBRANCH   5  10
ENDBRANCH   1   5
BRANCH   3  13
HETATM   13  C7  UNL     1       1.629  -0.210   0.098  1.00  0.00     0.107 C 
BRANCH  13  14
HETATM   14  C8  UNL     1       2.679   0.799  -0.309  1.00  0.00    -0.006 C 
HETATM   15  C9  UNL     1       2.779   0.977  -1.775  1.00  0.00     0.005 C 
HETATM   16  C10 UNL     1       4.170   1.089  -2.314  1.00  0.00     0.000 C 
HETATM   17  C11 UNL     1       5.135   1.775  -1.399  1.00  0.00     0.000 C 
HETATM   18  C12 UNL     1       5.123   1.283   0.004  1.00  0.00     0.000 C 
HETATM   19  C13 UNL     1       3.963   0.425   0.367  1.00  0.00     0.005 C 
ENDBRANCH  13  14
ENDBRANCH   3  13
TORSDOF 6
