REMARK  6 active torsions:
REMARK  status: ('A' for Active; 'I' for Inactive)
REMARK    1  A    between atoms: C2_2  and  C4_4 
REMARK    2  A    between atoms: C4_4  and  C5_5 
REMARK    3  A    between atoms: C5_5  and  N1_6 
REMARK       I    between atoms: N1_6  and  C6_8 
REMARK    4  A    between atoms: C6_8  and  C7_10 
REMARK    5  A    between atoms: C7_10  and  C10_13 
REMARK    6  A    between atoms: C10_13  and  C11_14 
ROOT
HETATM    1  C7  UNL     1      -0.656   0.164  -0.480  1.00  0.00     0.034 C 
HETATM    2  C8  UNL     1      -0.493   0.099  -1.963  1.00  0.00     0.025 C 
HETATM    3  C9  UNL     1      -0.741   1.623  -0.084  1.00  0.00     0.025 C 
ENDROOT
BRANCH   1   4
HETATM    4  C6  UNL     1       0.631  -0.307   0.130  1.00  0.00     0.225 C 
HETATM    5  N1  UNL     1       1.833   0.315  -0.230  1.00  0.00    -0.360 N 
ATOM      6  H1  UNL     1       1.838   1.081  -0.903  1.00  0.00     0.162 HD
HETATM    7  O1  UNL     1       0.600  -1.235   0.941  1.00  0.00    -0.273 OA
BRANCH   5   8
HETATM    8  C5  UNL     1       3.087  -0.153   0.377  1.00  0.00     0.123 C 
BRANCH   8   9
HETATM    9  C4  UNL     1       4.256   0.640  -0.140  1.00  0.00     0.023 C 
BRANCH   9  10
HETATM   10  C2  UNL     1       5.503   0.089   0.539  1.00  0.00    -0.021 C 
HETATM   11  C1  UNL     1       6.701   0.867   0.041  1.00  0.00     0.009 C 
HETATM   12  C3  UNL     1       5.609  -1.383   0.161  1.00  0.00     0.009 C 
ENDBRANCH   9  10
ENDBRANCH   8   9
ENDBRANCH   5   8
ENDBRANCH   1   4
BRANCH   1  13
HETATM   13  C10 UNL     1      -1.763  -0.616   0.091  1.00  0.00     0.023 C 
BRANCH  13  14
HETATM   14  C11 UNL     1      -3.155  -0.421  -0.314  1.00  0.00    -0.013 C 
HETATM   15  C12 UNL     1      -3.753   0.895  -0.097  1.00  0.00     0.005 C 
HETATM   16  C13 UNL     1      -5.208   0.920   0.285  1.00  0.00     0.000 C 
HETATM   17  C14 UNL     1      -5.675  -0.169   1.170  1.00  0.00     0.000 C 
HETATM   18  C15 UNL     1      -4.676  -1.218   1.514  1.00  0.00     0.000 C 
HETATM   19  C16 UNL     1      -3.963  -1.584   0.244  1.00  0.00     0.005 C 
ENDBRANCH  13  14
ENDBRANCH   1  13
TORSDOF 6
