REMARK  11 active torsions:
REMARK  status: ('A' for Active; 'I' for Inactive)
REMARK    1  A    between atoms: C4_4  and  C5_5 
REMARK    2  A    between atoms: C9_13  and  C10_14 
REMARK    3  A    between atoms: C10_14  and  C11_15 
REMARK    4  A    between atoms: C11_15  and  N3_16 
REMARK       I    between atoms: N3_16  and  C12_18 
REMARK    5  A    between atoms: C12_18  and  C13_20 
REMARK    6  A    between atoms: C13_20  and  C14_21 
REMARK    7  A    between atoms: C14_21  and  C15_22 
REMARK    8  A    between atoms: C15_22  and  C16_23 
REMARK    9  A    between atoms: C16_23  and  C17_24 
REMARK       I    between atoms: N4_27  and  C20_28 
REMARK   10  A    between atoms: C20_28  and  C21_30 
REMARK       I    between atoms: N5_34  and  C25_35 
REMARK   11  A    between atoms: C25_35  and  C26_37 
ROOT
HETATM    1  C1  UNL     1      10.862  -0.517   4.095  1.00  0.00     0.027 C 
HETATM    2  C2  UNL     1      10.519  -0.171   2.992  1.00  0.00    -0.026 C 
HETATM    3  C3  UNL     1      10.123   0.258   1.705  1.00  0.00    -0.009 C 
HETATM    4  C4  UNL     1       9.786   0.648   0.606  1.00  0.00    -0.034 C 
ENDROOT
BRANCH   4   5
HETATM    5  C5  UNL     1       9.387   1.132  -0.676  1.00  0.00     0.101 A 
HETATM    6  N1  UNL     1       9.675   2.319  -1.226  1.00  0.00    -0.356 N 
HETATM    7  C6  UNL     1       9.146   2.434  -2.438  1.00  0.00     0.119 A 
ATOM      8  H1  UNL     1      10.231   3.043  -0.771  1.00  0.00     0.166 HD
HETATM    9  C7  UNL     1       8.471   1.252  -2.702  1.00  0.00     0.061 A 
HETATM   10  N2  UNL     1       7.735   0.633  -3.645  1.00  0.00    -0.363 N 
HETATM   11  C32 UNL     1       8.627   0.448  -1.598  1.00  0.00     0.039 A 
HETATM   12  C8  UNL     1       7.401  -0.574  -3.177  1.00  0.00     0.101 A 
ATOM     13  H2  UNL     1       7.478   1.017  -4.554  1.00  0.00     0.165 HD
HETATM   14  C9  UNL     1       7.943  -0.732  -1.887  1.00  0.00    -0.004 A 
BRANCH  14  15
HETATM   15  C10 UNL     1       7.828  -1.920  -1.069  1.00  0.00     0.031 C 
BRANCH  15  16
HETATM   16  C11 UNL     1       6.926  -1.993   0.085  1.00  0.00     0.092 C 
BRANCH  16  17
HETATM   17  N3  UNL     1       5.544  -1.842  -0.027  1.00  0.00    -0.337 N 
HETATM   18  C12 UNL     1       4.788  -0.724  -0.375  1.00  0.00     0.221 C 
HETATM   19  O1  UNL     1       5.229   0.428  -0.650  1.00  0.00    -0.273 OA
ATOM     20  H3  UNL     1       5.002  -2.681   0.178  1.00  0.00     0.168 HD
BRANCH  18  21
HETATM   21  C13 UNL     1       3.269  -0.872  -0.438  1.00  0.00     0.103 C 
BRANCH  21  22
HETATM   22  C14 UNL     1       2.681   0.458  -0.776  1.00  0.00     0.009 C 
BRANCH  22  23
HETATM   23  C15 UNL     1       1.171   0.420  -0.865  1.00  0.00     0.001 C 
BRANCH  23  24
HETATM   24  C16 UNL     1       0.612  -0.030   0.470  1.00  0.00     0.005 C 
BRANCH  24  25
HETATM   25  C17 UNL     1      -0.883  -0.090   0.470  1.00  0.00    -0.012 C 
HETATM   26  C18 UNL     1      -1.456  -1.020  -0.535  1.00  0.00     0.024 C 
HETATM   27  C19 UNL     1      -2.926  -0.972  -0.615  1.00  0.00     0.126 C 
HETATM   28  N4  UNL     1      -3.600  -0.068   0.290  1.00  0.00    -0.350 N 
HETATM   29  C20 UNL     1      -4.969  -0.301   0.557  1.00  0.00     0.242 C 
HETATM   30  C30 UNL     1      -2.948   1.063   0.907  1.00  0.00     0.126 C 
HETATM   31  O2  UNL     1      -5.548  -1.283  -0.035  1.00  0.00    -0.271 OA
HETATM   32  C31 UNL     1      -1.550   1.259   0.324  1.00  0.00     0.024 C 
BRANCH  29  33
HETATM   33  C21 UNL     1      -5.711   0.563   1.489  1.00  0.00     0.179 C 
HETATM   34  C22 UNL     1      -5.557   0.152   2.946  1.00  0.00     0.037 C 
HETATM   35  C23 UNL     1      -6.419  -1.084   3.033  1.00  0.00     0.022 C 
HETATM   36  C24 UNL     1      -7.492  -0.893   2.018  1.00  0.00     0.127 C 
HETATM   37  N5  UNL     1      -7.147   0.269   1.261  1.00  0.00    -0.338 N 
HETATM   38  C25 UNL     1      -7.954   1.060   0.429  1.00  0.00     0.224 C 
HETATM   39  O3  UNL     1      -7.505   2.081  -0.179  1.00  0.00    -0.273 OA
BRANCH  38  40
HETATM   40  C26 UNL     1      -9.379   0.721   0.229  1.00  0.00     0.078 C 
HETATM   41  C27 UNL     1      -9.654  -0.606  -0.424  1.00  0.00     0.014 C 
HETATM   42  C28 UNL     1     -10.020   0.111  -1.706  1.00  0.00     0.002 C 
HETATM   43  C29 UNL     1     -10.003   1.416  -0.938  1.00  0.00     0.014 C 
ENDBRANCH  38  40
ENDBRANCH  29  33
ENDBRANCH  24  25
ENDBRANCH  23  24
ENDBRANCH  22  23
ENDBRANCH  21  22
ENDBRANCH  18  21
ENDBRANCH  16  17
ENDBRANCH  15  16
ENDBRANCH  14  15
ENDBRANCH   4   5
TORSDOF 11
