REMARK  11 active torsions:
REMARK  status: ('A' for Active; 'I' for Inactive)
REMARK    1  A    between atoms: C3_3  and  N1_4 
REMARK    2  A    between atoms: C3_3  and  C13_17 
REMARK       I    between atoms: N1_4  and  C4_6 
REMARK       I    between atoms: C4_6  and  N2_8 
REMARK    3  A    between atoms: N2_8  and  C5_9 
REMARK    4  A    between atoms: N2_8  and  C8_12 
REMARK    5  A    between atoms: C5_9  and  C6_10 
REMARK    6  A    between atoms: C8_12  and  C9_13 
REMARK    7  A    between atoms: C9_13  and  C10_14 
REMARK    8  A    between atoms: C10_14  and  C11_15 
REMARK       I    between atoms: C13_17  and  N3_19 
REMARK    9  A    between atoms: N3_19  and  C14_21 
REMARK   10  A    between atoms: C15_22  and  C16_23 
REMARK   11  A    between atoms: C16_23  and  N4_24 
ROOT
HETATM    1  C1  UNL     1       0.642  -0.124   3.836  1.00  0.00     0.015 C 
HETATM    2  C2  UNL     1       0.972  -0.380   2.706  1.00  0.00    -0.082 C 
HETATM    3  C3  UNL     1       1.358  -0.669   1.334  1.00  0.00     0.257 C 
ENDROOT
BRANCH   3   4
HETATM    4  N1  UNL     1       2.437   0.250   0.994  1.00  0.00    -0.319 N 
HETATM    5  C4  UNL     1       3.654  -0.256   0.491  1.00  0.00     0.319 C 
HETATM    6  O1  UNL     1       3.785  -1.517   0.341  1.00  0.00    -0.247 OA
HETATM    7  N2  UNL     1       4.708   0.624   0.161  1.00  0.00    -0.334 N 
ATOM      8  H1  UNL     1       2.313   1.255   1.119  1.00  0.00     0.166 HD
BRANCH   7   9
HETATM    9  C5  UNL     1       4.567   2.032   0.346  1.00  0.00     0.127 C 
BRANCH   9  10
HETATM   10  C6  UNL     1       3.961   2.761  -0.815  1.00  0.00     0.015 C 
HETATM   11  C7  UNL     1       4.791   2.598  -2.052  1.00  0.00     0.006 C 
ENDBRANCH   9  10
ENDBRANCH   7   9
BRANCH   7  12
HETATM   12  C8  UNL     1       5.959   0.081  -0.359  1.00  0.00     0.127 C 
BRANCH  12  13
HETATM   13  C9  UNL     1       6.867  -0.217   0.807  1.00  0.00     0.020 C 
BRANCH  13  14
HETATM   14  C10 UNL     1       8.166  -0.798   0.327  1.00  0.00     0.001 C 
BRANCH  14  15
HETATM   15  C11 UNL     1       8.874   0.154  -0.570  1.00  0.00    -0.004 C 
HETATM   16  C12 UNL     1       9.133   1.438   0.211  1.00  0.00     0.005 C 
ENDBRANCH  14  15
ENDBRANCH  13  14
ENDBRANCH  12  13
ENDBRANCH   7  12
ENDBRANCH   3   4
BRANCH   3  17
HETATM   17  C13 UNL     1       0.244  -0.425   0.376  1.00  0.00     0.253 C 
HETATM   18  O2  UNL     1       0.327   0.444  -0.528  1.00  0.00    -0.270 OA
HETATM   19  N3  UNL     1      -0.974  -1.172   0.440  1.00  0.00    -0.353 N 
ATOM     20  H3  UNL     1      -1.071  -1.884   1.164  1.00  0.00     0.163 HD
BRANCH  19  21
HETATM   21  C14 UNL     1      -2.065  -0.965  -0.467  1.00  0.00     0.094 C 
HETATM   22  C15 UNL     1      -3.340  -0.631   0.274  1.00  0.00     0.027 C 
HETATM   23  C24 UNL     1      -4.578  -0.998  -0.462  1.00  0.00     0.013 C 
HETATM   24  C25 UNL     1      -4.504  -1.645  -1.772  1.00  0.00    -0.013 C 
HETATM   25  C26 UNL     1      -3.150  -1.776  -2.412  1.00  0.00     0.011 C 
HETATM   26  C32 UNL     1      -5.013  -3.098  -1.723  1.00  0.00     0.013 C 
HETATM   27  C27 UNL     1      -2.256  -2.227  -1.274  1.00  0.00     0.010 C 
HETATM   28  C28 UNL     1      -2.834  -3.339  -0.471  1.00  0.00     0.015 C 
HETATM   29  C29 UNL     1      -4.056  -3.981  -0.984  1.00  0.00    -0.047 C 
HETATM   30  C30 UNL     1      -3.721  -5.158  -1.878  1.00  0.00     0.015 C 
HETATM   31  C31 UNL     1      -4.830  -4.566   0.201  1.00  0.00     0.015 C 
BRANCH  22  32
HETATM   32  C16 UNL     1      -3.290   0.864   0.481  1.00  0.00     0.136 C 
BRANCH  32  33
HETATM   33  N4  UNL     1      -4.407   1.385   1.219  1.00  0.00    -0.339 N 
HETATM   34  C17 UNL     1      -5.339   0.775   1.882  1.00  0.00     0.185 A 
HETATM   35  N5  UNL     1      -6.231   1.719   2.452  1.00  0.00    -0.337 N 
HETATM   36  C18 UNL     1      -5.862   2.909   2.150  1.00  0.00     0.134 A 
ATOM     37  H5  UNL     1      -7.046   1.485   3.019  1.00  0.00     0.168 HD
HETATM   38  N6  UNL     1      -6.125   4.225   2.275  1.00  0.00    -0.340 N 
HETATM   39  C21 UNL     1      -4.735   2.777   1.386  1.00  0.00     0.088 A 
HETATM   40  C19 UNL     1      -5.173   4.934   1.595  1.00  0.00     0.039 A 
ATOM     41  H6  UNL     1      -6.907   4.627   2.792  1.00  0.00     0.167 HD
HETATM   42  C20 UNL     1      -4.320   4.053   1.049  1.00  0.00     0.003 A 
HETATM   43  C23 UNL     1      -4.507   5.946   1.098  1.00  0.00     0.008 A 
HETATM   44  C22 UNL     1      -3.504   5.103   0.447  1.00  0.00     0.073 A 
ENDBRANCH  32  33
ENDBRANCH  22  32
ENDBRANCH  19  21
ENDBRANCH   3  17
TORSDOF 11
