REMARK  11 active torsions:
REMARK  status: ('A' for Active; 'I' for Inactive)
REMARK    1  A    between atoms: C2_2  and  C3_3 
REMARK    2  A    between atoms: C3_3  and  C4_4 
REMARK    3  A    between atoms: C4_4  and  C5_5 
REMARK    4  A    between atoms: C5_5  and  C6_6 
REMARK    5  A    between atoms: C6_6  and  C7_7 
REMARK    6  A    between atoms: C7_7  and  C9_9 
REMARK    7  A    between atoms: C9_9  and  C10_10 
REMARK    8  A    between atoms: C10_10  and  C11_11 
REMARK    9  A    between atoms: C11_11  and  N1_12 
REMARK   10  A    between atoms: C17_18  and  C18_19 
REMARK       I    between atoms: N3_26  and  C23_27 
REMARK   11  A    between atoms: C23_27  and  C24_29 
ROOT
HETATM    1  N1  UNL     1       0.528   1.496  -0.531  1.00  0.00    -0.061 N 
HETATM    2  C12 UNL     1       0.229   2.929  -0.417  1.00  0.00     0.243 C 
HETATM    3  C13 UNL     1      -0.097   3.237  -1.853  1.00  0.00     0.021 C 
HETATM    4  C14 UNL     1       1.146   2.612  -2.514  1.00  0.00     0.040 C 
HETATM    5  C15 UNL     1       0.506   1.329  -1.950  1.00  0.00     0.196 C 
HETATM    6  C16 UNL     1      -0.788   2.002  -2.329  1.00  0.00     0.036 C 
HETATM    7  C17 UNL     1      -2.001   1.531  -1.625  1.00  0.00     0.093 C 
HETATM    8  C19 UNL     1      -1.834   0.779  -0.365  1.00  0.00     0.012 C 
HETATM    9  C20 UNL     1      -2.311  -0.671  -0.487  1.00  0.00     0.015 C 
HETATM   10  C21 UNL     1      -2.389  -1.322   0.877  1.00  0.00     0.021 C 
HETATM   11  C22 UNL     1      -3.349  -0.630   1.794  1.00  0.00     0.126 C 
HETATM   12  N3  UNL     1      -3.767   0.587   1.130  1.00  0.00    -0.347 N 
HETATM   13  C23 UNL     1      -5.153   0.892   0.911  1.00  0.00     0.256 C 
HETATM   14  O2  UNL     1      -5.502   1.956   0.332  1.00  0.00    -0.267 OA
HETATM   15  C31 UNL     1      -2.706   1.474   0.700  1.00  0.00     0.138 C 
HETATM   16  C32 UNL     1      -0.435   0.713   0.180  1.00  0.00     0.249 C 
ENDROOT
BRANCH   7  17
HETATM   17  C18 UNL     1      -2.808   0.761  -2.642  1.00  0.00     0.236 C 
HETATM   18  N2  UNL     1      -2.229  -0.317  -3.360  1.00  0.00    -0.062 NA
HETATM   19  O1  UNL     1      -4.005   1.026  -2.900  1.00  0.00    -0.276 OA
ENDBRANCH   7  17
BRANCH   1  20
HETATM   20  C11 UNL     1       1.851   1.156  -0.060  1.00  0.00     0.238 C 
BRANCH  20  21
HETATM   21  C10 UNL     1       1.959   1.064   1.421  1.00  0.00     0.028 C 
BRANCH  21  22
HETATM   22  C9  UNL     1       3.367   0.731   1.841  1.00  0.00     0.006 C 
BRANCH  22  23
HETATM   23  C7  UNL     1       3.773  -0.579   1.265  1.00  0.00    -0.019 C 
HETATM   24  C8  UNL     1       2.853  -1.655   1.792  1.00  0.00     0.010 C 
BRANCH  23  25
HETATM   25  C6  UNL     1       5.186  -0.975   1.660  1.00  0.00     0.004 C 
BRANCH  25  26
HETATM   26  C5  UNL     1       6.217   0.031   1.188  1.00  0.00     0.000 C 
BRANCH  26  27
HETATM   27  C4  UNL     1       6.286   0.231  -0.266  1.00  0.00     0.000 C 
BRANCH  27  28
HETATM   28  C3  UNL     1       6.664  -0.847  -1.179  1.00  0.00    -0.000 C 
BRANCH  28  29
HETATM   29  C2  UNL     1       8.016  -1.425  -1.167  1.00  0.00    -0.005 C 
HETATM   30  C1  UNL     1       8.412  -2.072   0.115  1.00  0.00     0.005 C 
ENDBRANCH  28  29
ENDBRANCH  27  28
ENDBRANCH  26  27
ENDBRANCH  25  26
ENDBRANCH  23  25
ENDBRANCH  22  23
ENDBRANCH  21  22
ENDBRANCH  20  21
ENDBRANCH   1  20
BRANCH  13  31
HETATM   31  C24 UNL     1      -6.216   0.007   1.338  1.00  0.00     0.060 A 
HETATM   32  C25 UNL     1      -6.766   0.139   2.586  1.00  0.00     0.109 A 
HETATM   33  N4  UNL     1      -7.768  -0.677   3.021  1.00  0.00    -0.331 N 
HETATM   34  C26 UNL     1      -8.237  -1.653   2.190  1.00  0.00     0.273 A 
ATOM     35  H4  UNL     1      -8.162  -0.560   3.955  1.00  0.00     0.168 HD
HETATM   36  O3  UNL     1      -9.166  -2.399   2.611  1.00  0.00    -0.266 OA
HETATM   37  C27 UNL     1      -7.724  -1.833   0.929  1.00  0.00     0.112 A 
HETATM   38  N5  UNL     1      -8.017  -2.703  -0.043  1.00  0.00    -0.361 N 
HETATM   39  C30 UNL     1      -6.697  -0.982   0.509  1.00  0.00     0.015 A 
HETATM   40  C28 UNL     1      -7.213  -2.466  -1.118  1.00  0.00     0.089 A 
ATOM     41  H5  UNL     1      -8.730  -3.430   0.011  1.00  0.00     0.165 HD
HETATM   42  C29 UNL     1      -6.403  -1.404  -0.769  1.00  0.00     0.032 A 
ENDBRANCH  13  31
TORSDOF 11
