REMARK  10 active torsions:
REMARK  status: ('A' for Active; 'I' for Inactive)
REMARK    1  A    between atoms: C2_2  and  N1_3 
REMARK    2  A    between atoms: N1_3  and  C3_4 
REMARK    3  A    between atoms: C3_4  and  C4_5 
REMARK    4  A    between atoms: C4_5  and  C5_6 
REMARK    5  A    between atoms: C5_6  and  N2_7 
REMARK    6  A    between atoms: N2_7  and  C6_9 
REMARK    7  A    between atoms: C6_9  and  N3_11 
REMARK    8  A    between atoms: N4_14  and  C10_16 
REMARK    9  A    between atoms: C10_16  and  C11_17 
REMARK   10  A    between atoms: C18_27  and  N6_28 
ROOT
HETATM    1  N1  UNL     1      -3.768  -0.436   0.169  1.00  0.00     0.057 N 
HETATM    2  N5  UNL     1      -5.015  -1.093   0.462  1.00  0.00    -0.179 N 
ATOM      3  H5  UNL     1      -4.977  -1.930   1.043  1.00  0.00     0.197 HD
HETATM    4  C16 UNL     1      -6.289  -0.674   0.011  1.00  0.00     0.244 C 
HETATM    5  O1  UNL     1      -7.227  -1.093   0.773  1.00  0.00    -0.272 OA
HETATM    6  C17 UNL     1      -6.709   0.142  -1.156  1.00  0.00     0.137 C 
HETATM    7  C18 UNL     1      -5.847   1.338  -1.306  1.00  0.00     0.199 C 
HETATM    8  C19 UNL     1      -5.120   1.798  -0.095  1.00  0.00     0.119 C 
HETATM    9  C20 UNL     1      -3.981   0.962   0.332  1.00  0.00     0.205 C 
HETATM   10  N7  UNL     1      -3.062   1.576   0.943  1.00  0.00    -0.381 N 
ATOM     11  H71 UNL     1      -3.215   2.578   1.060  1.00  0.00     0.157 HD
ATOM     12  H72 UNL     1      -2.275   0.998   1.238  1.00  0.00     0.157 HD
ENDROOT
BRANCH   1  13
HETATM   13  C2  UNL     1      -2.914  -0.867   1.253  1.00  0.00     0.269 C 
HETATM   14  C1  UNL     1      -2.914  -2.333   1.505  1.00  0.00     0.037 C 
ENDBRANCH   1  13
BRANCH   1  15
HETATM   15  C3  UNL     1      -3.434  -0.862  -1.126  1.00  0.00     0.275 C 
BRANCH  15  16
HETATM   16  C4  UNL     1      -2.435  -0.203  -1.957  1.00  0.00     0.050 C 
BRANCH  16  17
HETATM   17  C5  UNL     1      -0.998  -0.184  -1.467  1.00  0.00     0.123 C 
BRANCH  17  18
HETATM   18  N2  UNL     1      -0.494  -1.526  -1.285  1.00  0.00    -0.367 N 
ATOM     19  H2  UNL     1      -1.133  -2.274  -1.555  1.00  0.00     0.161 HD
BRANCH  18  20
HETATM   20  C6  UNL     1       0.739  -1.942  -0.794  1.00  0.00     0.169 C 
HETATM   21  S1  UNL     1       0.956  -3.615  -0.747  1.00  0.00    -0.041 SA
BRANCH  20  22
HETATM   22  N3  UNL     1       1.830  -1.207  -0.336  1.00  0.00    -0.355 N 
HETATM   23  C7  UNL     1       1.918   0.208  -0.274  1.00  0.00     0.153 C 
HETATM   24  C8  UNL     1       3.391   0.615  -0.316  1.00  0.00     0.257 C 
HETATM   25  N4  UNL     1       4.170   0.108   0.793  1.00  0.00    -0.068 N 
HETATM   26  C9  UNL     1       4.098   1.099   1.846  1.00  0.00     0.272 C 
HETATM   27  C14 UNL     1       3.549  -1.109   1.325  1.00  0.00     0.257 C 
HETATM   28  C15 UNL     1       3.014  -1.944   0.156  1.00  0.00     0.153 C 
BRANCH  25  29
HETATM   29  C10 UNL     1       5.495  -0.160   0.315  1.00  0.00     0.241 C 
BRANCH  29  30
HETATM   30  C11 UNL     1       6.590   0.669   0.911  1.00  0.00     0.003 C 
HETATM   31  C12 UNL     1       7.915   0.212   0.259  1.00  0.00     0.011 C 
HETATM   32  C13 UNL     1       6.474   2.140   0.607  1.00  0.00     0.011 C 
ENDBRANCH  29  30
ENDBRANCH  25  29
ENDBRANCH  20  22
ENDBRANCH  18  20
ENDBRANCH  17  18
ENDBRANCH  16  17
ENDBRANCH  15  16
ENDBRANCH   1  15
BRANCH   7  33
HETATM   33  N6  UNL     1      -6.723   2.466  -1.689  1.00  0.00    -0.074 N 
ATOM     34  H63 UNL     1      -7.284   2.272  -2.519  1.00  0.00     0.274 HD
ATOM     35  H62 UNL     1      -7.495   2.610  -1.038  1.00  0.00     0.274 HD
ATOM     36  H61 UNL     1      -6.130   3.289  -1.792  1.00  0.00     0.274 HD
ENDBRANCH   7  33
TORSDOF 10
