REMARK  9 active torsions:
REMARK  status: ('A' for Active; 'I' for Inactive)
REMARK    1  A    between atoms: C2_2  and  C3_3 
REMARK    2  A    between atoms: C3_3  and  C4_4 
REMARK    3  A    between atoms: C4_4  and  C13_19 
REMARK    4  A    between atoms: N1_5  and  N2_7 
REMARK    5  A    between atoms: N2_7  and  C5_8 
REMARK       I    between atoms: N2_7  and  C7_10 
REMARK       I    between atoms: C7_10  and  N3_12 
REMARK    6  A    between atoms: N3_12  and  C8_14 
REMARK       I    between atoms: C13_19  and  N4_21 
REMARK    7  A    between atoms: N4_21  and  C14_23 
REMARK    8  A    between atoms: C20_29  and  C21_30 
REMARK    9  A    between atoms: C21_30  and  O3_31 
ROOT
HETATM    1  C4  UNL     1       1.052  -1.904  -0.446  1.00  0.00     0.097 C 
HETATM    2  N1  UNL     1       2.312  -1.728  -0.294  1.00  0.00    -0.293 N 
ATOM      3  H1  UNL     1       2.918  -2.499  -0.573  1.00  0.00     0.187 HD
ENDROOT
BRANCH   1   4
HETATM    4  C3  UNL     1       0.526  -3.197  -1.012  1.00  0.00     0.090 C 
BRANCH   4   5
HETATM    5  C2  UNL     1       1.630  -4.143  -1.335  1.00  0.00    -0.031 C 
HETATM    6  C1  UNL     1       1.681  -5.321  -0.748  1.00  0.00     0.007 C 
ENDBRANCH   4   5
ENDBRANCH   1   4
BRANCH   1   7
HETATM    7  C13 UNL     1       0.078  -0.885  -0.086  1.00  0.00     0.266 C 
HETATM    8  O2  UNL     1       0.465   0.199   0.385  1.00  0.00    -0.266 OA
HETATM    9  N4  UNL     1      -1.319  -1.110  -0.266  1.00  0.00    -0.347 N 
ATOM     10  H4  UNL     1      -1.600  -2.011  -0.652  1.00  0.00     0.163 HD
BRANCH   9  11
HETATM   11  C14 UNL     1      -2.360  -0.182   0.048  1.00  0.00     0.035 C 
HETATM   12  C15 UNL     1      -2.192   1.060  -0.779  1.00  0.00     0.035 C 
HETATM   13  C16 UNL     1      -3.378   1.983  -0.552  1.00  0.00    -0.011 C 
HETATM   14  C17 UNL     1      -3.319   2.392   0.910  1.00  0.00     0.009 C 
HETATM   15  C22 UNL     1      -4.661   1.312  -0.915  1.00  0.00     0.016 C 
HETATM   16  C18 UNL     1      -3.471   1.158   1.767  1.00  0.00    -0.011 C 
HETATM   17  C19 UNL     1      -4.829   0.561   1.420  1.00  0.00     0.016 C 
HETATM   18  C24 UNL     1      -2.413   0.130   1.533  1.00  0.00     0.035 C 
HETATM   19  C20 UNL     1      -4.844   0.112  -0.010  1.00  0.00    -0.016 C 
HETATM   20  C23 UNL     1      -3.700  -0.834  -0.284  1.00  0.00     0.042 C 
BRANCH  19  21
HETATM   21  C21 UNL     1      -6.130  -0.620  -0.303  1.00  0.00     0.173 C 
BRANCH  21  22
HETATM   22  O3  UNL     1      -7.219   0.214  -0.081  1.00  0.00    -0.400 OA
ATOM     23  H3  UNL     1      -8.029  -0.247  -0.266  1.00  0.00     0.209 HD
ENDBRANCH  21  22
ENDBRANCH  19  21
ENDBRANCH   9  11
ENDBRANCH   1   7
BRANCH   2  24
HETATM   24  N2  UNL     1       2.937  -0.599   0.210  1.00  0.00    -0.243 N 
HETATM   25  C7  UNL     1       3.342   0.447  -0.656  1.00  0.00     0.337 C 
HETATM   26  O1  UNL     1       3.130   0.349  -1.887  1.00  0.00    -0.245 OA
HETATM   27  N3  UNL     1       3.986   1.617  -0.186  1.00  0.00    -0.334 N 
ATOM     28  H3  UNL     1       4.165   1.710   0.814  1.00  0.00     0.165 HD
BRANCH  24  29
HETATM   29  C5  UNL     1       3.171  -0.526   1.644  1.00  0.00     0.149 C 
HETATM   30  C6  UNL     1       4.517  -1.128   2.009  1.00  0.00     0.028 C 
ENDBRANCH  24  29
BRANCH  27  31
HETATM   31  C8  UNL     1       4.402   2.691  -1.073  1.00  0.00     0.109 A 
HETATM   32  C9  UNL     1       4.953   3.691  -0.622  1.00  0.00    -0.006 A 
HETATM   33  C10 UNL     1       5.636   3.963  -0.471  1.00  0.00    -0.029 A 
HETATM   34  C11 UNL     1       6.824   3.654  -0.539  1.00  0.00     0.029 A 
HETATM   35  C12 UNL     1       6.129   2.100  -1.225  1.00  0.00     0.033 A 
ENDBRANCH  27  31
ENDBRANCH   2  24
TORSDOF 9
