REMARK  6 active torsions:
REMARK  status: ('A' for Active; 'I' for Inactive)
REMARK    1  A    between atoms: C2_2  and  N1_3 
REMARK       I    between atoms: N1_3  and  C3_5 
REMARK       I    between atoms: C3_5  and  N2_7 
REMARK    2  A    between atoms: N2_7  and  C4_8 
REMARK       I    between atoms: N2_7  and  C13_20 
REMARK    3  A    between atoms: C4_8  and  C5_9 
REMARK       I    between atoms: C5_9  and  N3_11 
REMARK    4  A    between atoms: N3_11  and  C6_13 
REMARK    5  A    between atoms: C6_13  and  C7_14 
REMARK    6  A    between atoms: C13_20  and  C14_22 
ROOT
HETATM    1  N1  UNL     1      -3.596  -3.027  -0.869  1.00  0.00    -0.343 N 
ATOM      2  H1  UNL     1      -4.400  -2.403  -0.939  1.00  0.00     0.164 HD
HETATM    3  C3  UNL     1      -2.426  -2.618  -0.277  1.00  0.00     0.325 C 
HETATM    4  O1  UNL     1      -1.471  -3.498  -0.245  1.00  0.00    -0.247 OA
HETATM    5  N2  UNL     1      -2.112  -1.378   0.303  1.00  0.00    -0.256 N 
HETATM    6  C13 UNL     1      -2.986  -0.311   0.357  1.00  0.00     0.279 C 
HETATM    7  O3  UNL     1      -4.164  -0.549  -0.131  1.00  0.00    -0.265 OA
ENDROOT
BRANCH   5   8
HETATM    8  C4  UNL     1      -0.737  -1.299   0.846  1.00  0.00     0.239 C 
BRANCH   8   9
HETATM    9  C5  UNL     1       0.222  -0.806  -0.159  1.00  0.00     0.236 C 
HETATM   10  O2  UNL     1      -0.256  -0.528  -1.307  1.00  0.00    -0.272 OA
HETATM   11  N3  UNL     1       1.607  -0.639   0.112  1.00  0.00    -0.359 N 
ATOM     12  H3  UNL     1       1.987  -0.861   1.032  1.00  0.00     0.162 HD
BRANCH  11  13
HETATM   13  C6  UNL     1       2.457  -0.153  -0.930  1.00  0.00     0.127 C 
BRANCH  13  14
HETATM   14  C7  UNL     1       3.888  -0.016  -0.537  1.00  0.00     0.003 C 
HETATM   15  C8  UNL     1       4.061   0.945   0.617  1.00  0.00     0.006 C 
HETATM   16  C9  UNL     1       5.515   1.034   0.977  1.00  0.00     0.000 C 
HETATM   17  C10 UNL     1       6.402   1.313  -0.195  1.00  0.00     0.000 C 
HETATM   18  C11 UNL     1       6.116   0.459  -1.393  1.00  0.00     0.000 C 
HETATM   19  C12 UNL     1       4.646   0.572  -1.715  1.00  0.00     0.006 C 
ENDBRANCH  13  14
ENDBRANCH  11  13
ENDBRANCH   8   9
ENDBRANCH   5   8
BRANCH   6  20
HETATM   20  C14 UNL     1      -2.825   1.043   0.866  1.00  0.00     0.109 A 
HETATM   21  N4  UNL     1      -1.806   1.700   1.415  1.00  0.00    -0.354 N 
HETATM   22  C15 UNL     1      -2.146   2.986   1.753  1.00  0.00     0.024 A 
ATOM     23  H4  UNL     1      -0.882   1.296   1.567  1.00  0.00     0.166 HD
HETATM   24  C16 UNL     1      -1.279   4.016   2.384  1.00  0.00     0.069 C 
HETATM   25  C17 UNL     1      -3.447   3.175   1.408  1.00  0.00     0.041 A 
HETATM   26 BR1  UNL     1      -4.475   4.774   1.638  1.00  0.00    -0.048 Br
HETATM   27  C18 UNL     1      -3.870   1.984   0.862  1.00  0.00    -0.010 A 
HETATM   28  C19 UNL     1      -5.243   1.779   0.357  1.00  0.00     0.052 C 
ENDBRANCH   6  20
BRANCH   1  29
HETATM   29  C2  UNL     1      -3.647  -4.404  -1.401  1.00  0.00     0.120 C 
HETATM   30  C1  UNL     1      -4.994  -4.656  -2.002  1.00  0.00     0.026 C 
ENDBRANCH   1  29
TORSDOF 6
