REMARK  7 active torsions:
REMARK  status: ('A' for Active; 'I' for Inactive)
REMARK    1  A    between atoms: C2_2  and  C3_3 
REMARK    2  A    between atoms: C3_3  and  N1_4 
REMARK    3  A    between atoms: N1_4  and  C4_6 
REMARK    4  A    between atoms: C7_13  and  C8_14 
REMARK    5  A    between atoms: C8_14  and  C9_15 
REMARK    6  A    between atoms: N5_25  and  C15_26 
REMARK    7  A    between atoms: C15_26  and  C16_27 
ROOT
HETATM    1  C4  UNL     1       1.175  -1.135  -0.230  1.00  0.00     0.126 A 
HETATM    2  N2  UNL     1       1.244  -2.412   0.175  1.00  0.00    -0.284 N 
ATOM      3  H2  UNL     1       2.099  -2.964   0.250  1.00  0.00     0.188 HD
HETATM    4  N3  UNL     1       0.027  -2.840   0.461  1.00  0.00    -0.283 N 
ATOM      5  H3  UNL     1      -0.208  -3.776   0.792  1.00  0.00     0.188 HD
HETATM    6  C5  UNL     1      -0.861  -1.834   0.243  1.00  0.00     0.135 A 
HETATM    7  C6  UNL     1      -0.145  -0.754  -0.193  1.00  0.00     0.037 A 
HETATM    8  C7  UNL     1      -0.720   0.575  -0.557  1.00  0.00     0.039 C 
HETATM    9  C13 UNL     1      -2.201   0.557  -0.711  1.00  0.00     0.113 C 
HETATM   10  C14 UNL     1      -2.867  -0.507   0.070  1.00  0.00     0.226 C 
HETATM   11  O1  UNL     1      -4.037  -0.292   0.478  1.00  0.00    -0.273 OA
HETATM   12  N5  UNL     1      -2.287  -1.757   0.398  1.00  0.00    -0.301 N 
ENDROOT
BRANCH   8  13
HETATM   13  C8  UNL     1      -0.330   1.603   0.471  1.00  0.00     0.051 C 
BRANCH  13  14
HETATM   14  C9  UNL     1      -0.840   2.953   0.208  1.00  0.00    -0.023 A 
HETATM   15  C10 UNL     1      -1.847   3.649   0.839  1.00  0.00     0.096 A 
HETATM   16  N4  UNL     1      -1.982   4.868   0.295  1.00  0.00    -0.373 N 
HETATM   17  C11 UNL     1      -1.092   5.020  -0.690  1.00  0.00     0.107 A 
ATOM     18  H4  UNL     1      -2.660   5.571   0.588  1.00  0.00     0.164 HD
HETATM   19  C12 UNL     1      -0.367   3.827  -0.758  1.00  0.00     0.034 A 
HETATM   20 BR1  UNL     1       1.022   3.549  -2.010  1.00  0.00    -0.049 Br
ENDBRANCH  13  14
ENDBRANCH   8  13
BRANCH   1  21
HETATM   21  N1  UNL     1       2.173  -0.414  -0.583  1.00  0.00    -0.375 N 
ATOM     22  H1  UNL     1       1.956   0.541  -0.866  1.00  0.00     0.161 HD
BRANCH  21  23
HETATM   23  C3  UNL     1       3.546  -0.780  -0.629  1.00  0.00     0.121 C 
BRANCH  23  24
HETATM   24  C2  UNL     1       4.268   0.095   0.405  1.00  0.00     0.015 C 
HETATM   25  C1  UNL     1       5.733  -0.275   0.376  1.00  0.00     0.006 C 
ENDBRANCH  23  24
ENDBRANCH  21  23
ENDBRANCH   1  21
BRANCH  12  26
HETATM   26  C15 UNL     1      -2.988  -2.909   0.852  1.00  0.00     0.144 C 
BRANCH  26  27
HETATM   27  C16 UNL     1      -3.451  -3.832  -0.246  1.00  0.00     0.105 C 
HETATM   28 BR2  UNL     1      -4.639  -2.835  -1.401  1.00  0.00    -0.095 Br
ENDBRANCH  26  27
ENDBRANCH  12  26
TORSDOF 7
