REMARK  8 active torsions:
REMARK  status: ('A' for Active; 'I' for Inactive)
REMARK    1  A    between atoms: C2_2  and  N1_4 
REMARK    2  A    between atoms: N1_4  and  C4_6 
REMARK    3  A    between atoms: C4_6  and  N2_8 
REMARK    4  A    between atoms: C6_10  and  C7_11 
REMARK    5  A    between atoms: C7_11  and  C8_12 
REMARK       I    between atoms: N3_15  and  C11_16 
REMARK       I    between atoms: C11_16  and  N4_18 
REMARK    6  A    between atoms: N4_18  and  C12_20 
REMARK    7  A    between atoms: C15_23  and  C16_24 
REMARK    8  A    between atoms: C20_30  and  C21_31 
ROOT
HETATM    1  C8  UNL     1      -0.165  -0.414   0.116  1.00  0.00     0.006 C 
HETATM    2  C9  UNL     1       0.450   0.910   0.293  1.00  0.00     0.026 C 
HETATM    3  C10 UNL     1       1.850   0.662   0.898  1.00  0.00     0.128 C 
HETATM    4  N3  UNL     1       1.938  -0.774   0.888  1.00  0.00    -0.334 N 
HETATM    5  C11 UNL     1       3.115  -1.521   0.668  1.00  0.00     0.318 C 
HETATM    6  O1  UNL     1       3.042  -2.770   0.688  1.00  0.00    -0.247 OA
HETATM    7  N4  UNL     1       4.351  -0.891   0.429  1.00  0.00    -0.338 N 
ATOM      8  H4  UNL     1       4.380   0.129   0.418  1.00  0.00     0.164 HD
HETATM    9  C19 UNL     1       0.599  -1.267   1.146  1.00  0.00     0.132 C 
ENDROOT
BRANCH   1  10
HETATM   10  C7  UNL     1      -1.617  -0.604   0.202  1.00  0.00     0.013 C 
BRANCH  10  11
HETATM   11  C6  UNL     1      -2.451   0.098  -0.760  1.00  0.00     0.018 C 
HETATM   12  C5  UNL     1      -3.945  -0.241  -0.609  1.00  0.00     0.130 C 
HETATM   13  N2  UNL     1      -4.659   0.875  -1.154  1.00  0.00    -0.357 N 
HETATM   14  C22 UNL     1      -3.643   1.692  -1.907  1.00  0.00     0.139 C 
HETATM   15  C20 UNL     1      -2.497   1.558  -0.868  1.00  0.00     0.098 C 
BRANCH  13  16
HETATM   16  C4  UNL     1      -5.991   1.333  -1.123  1.00  0.00     0.170 C 
HETATM   17  S1  UNL     1      -6.363   2.753  -1.960  1.00  0.00    -0.041 SA
BRANCH  16  18
HETATM   18  N1  UNL     1      -7.077   0.759  -0.480  1.00  0.00    -0.363 N 
ATOM     19  H1  UNL     1      -7.963   1.255  -0.573  1.00  0.00     0.162 HD
BRANCH  18  20
HETATM   20  C2  UNL     1      -7.111  -0.439   0.296  1.00  0.00     0.075 C 
HETATM   21  C1  UNL     1      -6.985  -1.634  -0.592  1.00  0.00     0.032 C 
HETATM   22  C3  UNL     1      -8.483  -0.474   1.015  1.00  0.00     0.032 C 
ENDBRANCH  18  20
ENDBRANCH  16  18
ENDBRANCH  13  16
BRANCH  15  23
HETATM   23  C21 UNL     1      -2.887   2.357   0.275  1.00  0.00     0.237 C 
HETATM   24  N5  UNL     1      -3.949   2.181   1.173  1.00  0.00    -0.062 NA
HETATM   25  O2  UNL     1      -2.169   3.401   0.533  1.00  0.00    -0.276 OA
ENDBRANCH  15  23
ENDBRANCH  10  11
ENDBRANCH   1  10
BRANCH   7  26
HETATM   26  C12 UNL     1       5.586  -1.618   0.197  1.00  0.00     0.086 C 
HETATM   27  C13 UNL     1       6.650  -1.239   1.222  1.00  0.00     0.026 C 
HETATM   28  C14 UNL     1       6.739   0.266   1.258  1.00  0.00     0.012 C 
HETATM   29  C15 UNL     1       6.985   0.879  -0.074  1.00  0.00     0.051 C 
HETATM   30  C17 UNL     1       6.238   0.263  -1.206  1.00  0.00     0.012 C 
HETATM   31  C18 UNL     1       6.147  -1.229  -1.155  1.00  0.00     0.026 C 
BRANCH  29  32
HETATM   32  C16 UNL     1       8.488   0.954  -0.376  1.00  0.00     0.357 C 
HETATM   33  F1  UNL     1       9.134   1.718   0.574  1.00  0.00    -0.214 F 
HETATM   34  F2  UNL     1       8.711   1.491  -1.614  1.00  0.00    -0.214 F 
ENDBRANCH  29  32
ENDBRANCH   7  26
TORSDOF 8
