REMARK  9 active torsions:
REMARK  status: ('A' for Active; 'I' for Inactive)
REMARK    1  A    between atoms: C2_2  and  C4_4 
REMARK    2  A    between atoms: C4_4  and  C5_5 
REMARK    3  A    between atoms: N2_9  and  C7_11 
REMARK    4  A    between atoms: C13_17  and  C14_18 
REMARK    5  A    between atoms: C14_18  and  C15_19 
REMARK    6  A    between atoms: C15_19  and  C16_20 
REMARK    7  A    between atoms: C17_21  and  C18_22 
REMARK    8  A    between atoms: C18_22  and  N3_23 
REMARK    9  A    between atoms: C22_27  and  O1_28 
ROOT
HETATM    1  C5  UNL     1      -3.247   1.844   1.151  1.00  0.00     0.175 C 
HETATM    2  N1  UNL     1      -3.312   0.842   0.101  1.00  0.00    -0.365 N 
ATOM      3  H1  UNL     1      -3.631   1.131  -0.824  1.00  0.00     0.161 HD
HETATM    4  C6  UNL     1      -2.952  -0.530   0.296  1.00  0.00     0.097 C 
HETATM    5  N2  UNL     1      -3.512  -1.416  -0.371  1.00  0.00    -0.369 N 
ATOM      6  H2  UNL     1      -4.204  -1.042  -1.020  1.00  0.00     0.161 HD
HETATM    7  C13 UNL     1      -1.905  -0.758   1.326  1.00  0.00     0.152 C 
HETATM    8  N4  UNL     1      -2.174   0.034   2.511  1.00  0.00    -0.348 N 
ATOM      9  H4  UNL     1      -2.088  -0.379   3.440  1.00  0.00     0.163 HD
HETATM   10  C25 UNL     1      -2.557   1.385   2.360  1.00  0.00     0.241 C 
HETATM   11  O2  UNL     1      -2.290   2.183   3.294  1.00  0.00    -0.271 OA
ENDROOT
BRANCH   7  12
HETATM   12  C14 UNL     1      -0.524  -0.293   0.843  1.00  0.00     0.045 C 
BRANCH  12  13
HETATM   13  C15 UNL     1       0.432  -0.584   1.981  1.00  0.00     0.096 C 
BRANCH  13  14
HETATM   14  C16 UNL     1       1.766  -0.137   1.523  1.00  0.00    -0.105 C 
HETATM   15  C17 UNL     1       2.844   0.221   1.132  1.00  0.00    -0.079 C 
BRANCH  15  16
HETATM   16  C18 UNL     1       4.163   0.665   0.625  1.00  0.00     0.330 C 
BRANCH  16  17
HETATM   17  N3  UNL     1       4.209   0.273  -0.769  1.00  0.00    -0.061 N 
HETATM   18  C19 UNL     1       2.961   0.699  -1.408  1.00  0.00     0.273 C 
HETATM   19  C20 UNL     1       5.282   0.978  -1.404  1.00  0.00     0.240 C 
HETATM   20  C21 UNL     1       6.416   0.107  -1.847  1.00  0.00     0.059 C 
HETATM   21  C22 UNL     1       6.752  -0.986  -0.885  1.00  0.00     0.121 C 
HETATM   22  C23 UNL     1       5.564  -1.733  -0.368  1.00  0.00     0.059 C 
HETATM   23  C24 UNL     1       4.295  -1.154  -0.934  1.00  0.00     0.240 C 
BRANCH  21  24
HETATM   24  O1  UNL     1       7.590  -0.538   0.154  1.00  0.00    -0.395 OA
ATOM     25  H1  UNL     1       7.804  -1.233   0.766  1.00  0.00     0.210 HD
ENDBRANCH  21  24
ENDBRANCH  16  17
ENDBRANCH  15  16
ENDBRANCH  13  14
ENDBRANCH  12  13
ENDBRANCH   7  12
BRANCH   5  26
HETATM   26  C7  UNL     1      -3.409  -2.824  -0.435  1.00  0.00     0.028 C 
HETATM   27  C8  UNL     1      -3.689  -3.508   0.894  1.00  0.00     0.038 C 
HETATM   28  C9  UNL     1      -4.430  -3.403  -1.447  1.00  0.00     0.030 C 
HETATM   29  C10 UNL     1      -3.738  -3.278  -2.785  1.00  0.00     0.002 C 
HETATM   30  C11 UNL     1      -2.277  -3.025  -2.502  1.00  0.00     0.002 C 
HETATM   31  C12 UNL     1      -2.133  -3.351  -1.019  1.00  0.00     0.030 C 
ENDBRANCH   5  26
BRANCH   1  32
HETATM   32  C4  UNL     1      -2.719   3.086   0.521  1.00  0.00     0.038 C 
BRANCH  32  33
HETATM   33  C2  UNL     1      -2.563   4.277   1.391  1.00  0.00    -0.020 C 
HETATM   34  C1  UNL     1      -3.870   4.727   2.022  1.00  0.00     0.009 C 
HETATM   35  C3  UNL     1      -2.163   5.440   0.454  1.00  0.00     0.009 C 
ENDBRANCH  32  33
ENDBRANCH   1  32
TORSDOF 9
