REMARK  6 active torsions:
REMARK  status: ('A' for Active; 'I' for Inactive)
REMARK       I    between atoms: N1_3  and  C3_5 
REMARK       I    between atoms: C3_5  and  N3_10 
REMARK    1  A    between atoms: N2_6  and  C4_8 
REMARK    2  A    between atoms: N3_10  and  C6_12 
REMARK    3  A    between atoms: C6_12  and  C7_13 
REMARK       I    between atoms: C7_13  and  N4_15 
REMARK    4  A    between atoms: N4_15  and  C8_17 
REMARK    5  A    between atoms: C8_17  and  C9_18 
REMARK    6  A    between atoms: C8_17  and  C19_28 
ROOT
HETATM    1  C1  UNL     1       3.300   3.326  -0.449  1.00  0.00     0.037 C 
HETATM    2  C2  UNL     1       3.868   2.334  -0.831  1.00  0.00     0.015 C 
HETATM    3  N1  UNL     1       4.523   1.190  -1.298  1.00  0.00    -0.150 N 
ATOM      4  H1  UNL     1       5.171   1.291  -2.079  1.00  0.00     0.195 HD
HETATM    5  C3  UNL     1       4.337  -0.106  -0.745  1.00  0.00     0.681 C 
HETATM    6  N2  UNL     1       4.802  -0.365   0.413  1.00  0.00    -0.226 N 
ATOM      7  H2  UNL     1       4.644  -1.308   0.768  1.00  0.00     0.177 HD
HETATM    8  N3  UNL     1       3.637  -1.065  -1.514  1.00  0.00    -0.217 N 
ATOM      9  H3  UNL     1       4.111  -1.929  -1.777  1.00  0.00     0.178 HD
ENDROOT
BRANCH   6  10
HETATM   10  C4  UNL     1       5.522   0.529   1.266  1.00  0.00     0.133 C 
HETATM   11  C5  UNL     1       6.899   0.882   0.748  1.00  0.00     0.027 C 
ENDBRANCH   6  10
BRANCH   8  12
HETATM   12  C6  UNL     1       2.268  -0.858  -1.940  1.00  0.00     0.240 C 
BRANCH  12  13
HETATM   13  C7  UNL     1       1.353  -0.883  -0.764  1.00  0.00     0.236 C 
HETATM   14  O1  UNL     1       1.845  -1.066   0.354  1.00  0.00    -0.272 OA
HETATM   15  N4  UNL     1      -0.015  -0.697  -0.986  1.00  0.00    -0.353 N 
ATOM     16  H4  UNL     1      -0.313  -0.552  -1.951  1.00  0.00     0.163 HD
BRANCH  15  17
HETATM   17  C8  UNL     1      -1.057  -0.692   0.039  1.00  0.00     0.102 C 
BRANCH  17  18
HETATM   18  C9  UNL     1      -1.557   0.684   0.194  1.00  0.00    -0.018 C 
HETATM   19  C10 UNL     1      -2.159   1.320  -1.019  1.00  0.00     0.016 C 
HETATM   20  C11 UNL     1      -2.297   2.824  -0.856  1.00  0.00    -0.013 C 
HETATM   21  C12 UNL     1      -1.051   3.521  -0.445  1.00  0.00     0.009 C 
HETATM   22  C16 UNL     1      -3.336   3.014   0.253  1.00  0.00     0.009 C 
HETATM   23  C13 UNL     1      -0.613   2.932   0.880  1.00  0.00    -0.013 C 
HETATM   24  C14 UNL     1      -1.620   3.076   1.966  1.00  0.00     0.009 C 
HETATM   25  C18 UNL     1      -0.312   1.491   0.617  1.00  0.00     0.016 C 
HETATM   26  C15 UNL     1      -2.856   2.342   1.504  1.00  0.00    -0.013 C 
HETATM   27  C17 UNL     1      -2.546   0.873   1.324  1.00  0.00     0.016 C 
ENDBRANCH  17  18
BRANCH  17  28
HETATM   28  C19 UNL     1      -1.924  -1.810  -0.213  1.00  0.00    -0.011 C 
HETATM   29  C20 UNL     1      -2.667  -1.962  -1.504  1.00  0.00     0.013 C 
HETATM   30  C21 UNL     1      -3.355  -3.320  -1.245  1.00  0.00     0.006 C 
HETATM   31  C22 UNL     1      -2.840  -3.588   0.118  1.00  0.00    -0.005 C 
HETATM   32  C23 UNL     1      -3.009  -2.209   0.776  1.00  0.00     0.017 C 
HETATM   33  C24 UNL     1      -1.365  -3.191   0.039  1.00  0.00    -0.034 C 
HETATM   34  C25 UNL     1      -0.697  -3.913  -1.058  1.00  0.00     0.016 C 
HETATM   35  C26 UNL     1      -0.698  -3.413   1.374  1.00  0.00     0.016 C 
ENDBRANCH  17  28
ENDBRANCH  15  17
ENDBRANCH  12  13
ENDBRANCH   8  12
TORSDOF 6
