REMARK  7 active torsions:
REMARK  status: ('A' for Active; 'I' for Inactive)
REMARK    1  A    between atoms: C2_2  and  C3_3 
REMARK    2  A    between atoms: C3_3  and  N1_4 
REMARK    3  A    between atoms: C3_3  and  C8_13 
REMARK       I    between atoms: N1_4  and  C4_6 
REMARK       I    between atoms: C4_6  and  N2_8 
REMARK    4  A    between atoms: N2_8  and  C5_10 
REMARK       I    between atoms: C8_13  and  N3_15 
REMARK    5  A    between atoms: C12_19  and  C13_20 
REMARK       I    between atoms: C13_20  and  N4_22 
REMARK    6  A    between atoms: N4_22  and  C14_24 
REMARK    7  A    between atoms: C14_24  and  C15_25 
ROOT
HETATM    1  C8  UNL     1      -2.425   0.041  -0.922  1.00  0.00     0.247 C 
HETATM    2  O2  UNL     1      -2.404   0.894  -0.019  1.00  0.00    -0.271 OA
HETATM    3  N3  UNL     1      -1.296  -0.604  -1.381  1.00  0.00    -0.337 N 
HETATM    4  C9  UNL     1      -1.403  -1.633  -2.458  1.00  0.00     0.127 C 
HETATM    5  C10 UNL     1      -0.537  -2.735  -1.832  1.00  0.00     0.022 C 
HETATM    6  C11 UNL     1       0.315  -2.086  -0.795  1.00  0.00     0.037 C 
HETATM    7  C12 UNL     1       0.073  -0.574  -1.119  1.00  0.00     0.179 C 
ENDROOT
BRANCH   7   8
HETATM    8  C13 UNL     1       0.668   0.241  -0.080  1.00  0.00     0.240 C 
HETATM    9  O3  UNL     1       0.125   1.020   0.732  1.00  0.00    -0.271 OA
HETATM   10  N4  UNL     1       2.112   0.135   0.036  1.00  0.00    -0.359 N 
ATOM     11  H4  UNL     1       2.636  -0.480  -0.586  1.00  0.00     0.162 HD
BRANCH  10  12
HETATM   12  C14 UNL     1       2.798   0.913   1.045  1.00  0.00     0.132 C 
BRANCH  12  13
HETATM   13  C15 UNL     1       4.271   0.698   1.046  1.00  0.00    -0.023 C 
HETATM   14  C16 UNL     1       4.943   1.053  -0.240  1.00  0.00     0.015 C 
HETATM   15  C17 UNL     1       6.430   0.800  -0.078  1.00  0.00    -0.013 C 
HETATM   16  C18 UNL     1       6.727  -0.645   0.266  1.00  0.00     0.009 C 
HETATM   17  C22 UNL     1       6.997   1.669   1.022  1.00  0.00     0.009 C 
HETATM   18  C19 UNL     1       6.052  -0.985   1.573  1.00  0.00    -0.013 C 
HETATM   19  C20 UNL     1       6.590  -0.137   2.688  1.00  0.00     0.009 C 
HETATM   20  C24 UNL     1       4.579  -0.734   1.399  1.00  0.00     0.015 C 
HETATM   21  C21 UNL     1       6.318   1.314   2.339  1.00  0.00    -0.013 C 
HETATM   22  C23 UNL     1       4.850   1.555   2.178  1.00  0.00     0.015 C 
ENDBRANCH  12  13
ENDBRANCH  10  12
ENDBRANCH   7   8
BRANCH   1  23
HETATM   23  C3  UNL     1      -3.802  -0.237  -1.484  1.00  0.00     0.201 C 
BRANCH  23  24
HETATM   24  C2  UNL     1      -3.773   0.277  -2.898  1.00  0.00    -0.003 C 
HETATM   25  C1  UNL     1      -4.644  -0.124  -3.802  1.00  0.00     0.009 C 
ENDBRANCH  23  24
BRANCH  23  26
HETATM   26  N1  UNL     1      -4.788   0.547  -0.771  1.00  0.00    -0.327 N 
HETATM   27  C4  UNL     1      -5.926  -0.038  -0.149  1.00  0.00     0.317 C 
HETATM   28  O1  UNL     1      -6.089  -1.298  -0.219  1.00  0.00    -0.247 OA
HETATM   29  N2  UNL     1      -6.891   0.710   0.547  1.00  0.00    -0.339 N 
ATOM     30  H2  UNL     1      -6.782   1.722   0.617  1.00  0.00     0.164 HD
ATOM     31  H1  UNL     1      -4.662   1.557  -0.712  1.00  0.00     0.165 HD
BRANCH  29  32
HETATM   32  C5  UNL     1      -8.030   0.081   1.163  1.00  0.00     0.078 C 
HETATM   33  C6  UNL     1      -9.289   0.639   0.575  1.00  0.00     0.032 C 
HETATM   34  C7  UNL     1      -7.958   0.388   2.652  1.00  0.00     0.032 C 
ENDBRANCH  29  32
ENDBRANCH  23  26
ENDBRANCH   1  23
TORSDOF 7
