REMARK  8 active torsions:
REMARK  status: ('A' for Active; 'I' for Inactive)
REMARK    1  A    between atoms: N1_6  and  C6_7 
REMARK    2  A    between atoms: C6_7  and  C7_8 
REMARK    3  A    between atoms: C7_8  and  C8_9 
REMARK    4  A    between atoms: C8_9  and  C9_10 
REMARK    5  A    between atoms: C9_10  and  N4_16 
REMARK    6  A    between atoms: N2_11  and  N3_13 
REMARK    7  A    between atoms: N4_16  and  C10_18 
REMARK       I    between atoms: N5_21  and  C13_22 
REMARK       I    between atoms: C13_22  and  N6_24 
REMARK    8  A    between atoms: N6_24  and  C14_26 
ROOT
HETATM    1  C9  UNL     1      -0.662  -1.617   1.676  1.00  0.00     0.091 C 
HETATM    2  N2  UNL     1      -1.426  -2.613   1.959  1.00  0.00    -0.296 N 
ATOM      3  H2  UNL     1      -2.397  -2.590   1.648  1.00  0.00     0.187 HD
ENDROOT
BRANCH   1   4
HETATM    4  C8  UNL     1      -1.183  -0.464   0.917  1.00  0.00     0.079 C 
BRANCH   4   5
HETATM    5  C7  UNL     1      -2.666  -0.717   0.611  1.00  0.00     0.035 C 
BRANCH   5   6
HETATM    6  C6  UNL     1      -3.195   0.443  -0.157  1.00  0.00     0.238 C 
BRANCH   6   7
HETATM    7  N1  UNL     1      -4.573   0.358  -0.517  1.00  0.00    -0.067 N 
HETATM    8  C5  UNL     1      -4.921   1.498  -1.361  1.00  0.00     0.238 C 
HETATM    9  C4  UNL     1      -6.302   2.000  -1.122  1.00  0.00     0.037 C 
HETATM   10  C2  UNL     1      -7.304   0.948  -0.745  1.00  0.00    -0.041 C 
HETATM   11  C1  UNL     1      -8.363   1.659   0.112  1.00  0.00     0.015 C 
HETATM   12  C3  UNL     1      -7.996   0.448  -1.966  1.00  0.00     0.015 C 
HETATM   13  C23 UNL     1      -6.726  -0.132   0.122  1.00  0.00     0.021 C 
HETATM   14  C22 UNL     1      -6.238  -1.330  -0.616  1.00  0.00     0.035 C 
HETATM   15  C24 UNL     1      -5.409   0.424   0.686  1.00  0.00     0.242 C 
HETATM   16  C21 UNL     1      -4.960  -0.815  -1.244  1.00  0.00     0.238 C 
ENDBRANCH   6   7
ENDBRANCH   5   6
ENDBRANCH   4   5
ENDBRANCH   1   4
BRANCH   1  17
HETATM   17  N4  UNL     1       0.700  -1.666   2.120  1.00  0.00    -0.372 N 
ATOM     18  H4  UNL     1       0.960  -2.304   2.872  1.00  0.00     0.161 HD
BRANCH  17  19
HETATM   19  C10 UNL     1       1.704  -0.832   1.524  1.00  0.00     0.102 C 
HETATM   20  C11 UNL     1       1.902  -1.055   0.060  1.00  0.00     0.046 C 
HETATM   21  C12 UNL     1       3.344  -1.507  -0.066  1.00  0.00     0.129 C 
HETATM   22  N5  UNL     1       3.954  -0.909   1.088  1.00  0.00    -0.332 N 
HETATM   23  C13 UNL     1       5.197  -0.263   1.143  1.00  0.00     0.318 C 
HETATM   24  C20 UNL     1       3.042  -1.101   2.189  1.00  0.00     0.152 C 
HETATM   25  O1  UNL     1       5.582   0.214   2.257  1.00  0.00    -0.247 OA
HETATM   26  N6  UNL     1       5.989  -0.156  -0.026  1.00  0.00    -0.338 N 
ATOM     27  H6  UNL     1       5.679  -0.541  -0.918  1.00  0.00     0.164 HD
BRANCH  26  28
HETATM   28  C14 UNL     1       7.280   0.536   0.106  1.00  0.00     0.086 C 
HETATM   29  C15 UNL     1       7.165   1.777  -0.760  1.00  0.00     0.025 C 
HETATM   30  C16 UNL     1       8.422   2.587  -0.556  1.00  0.00     0.002 C 
HETATM   31  C17 UNL     1       9.659   1.752  -0.586  1.00  0.00     0.000 C 
HETATM   32  C18 UNL     1       9.385   0.397  -1.222  1.00  0.00     0.002 C 
HETATM   33  C19 UNL     1       8.363  -0.379  -0.395  1.00  0.00     0.025 C 
ENDBRANCH  26  28
ENDBRANCH  17  19
ENDBRANCH   1  17
BRANCH   2  34
HETATM   34  N3  UNL     1      -0.978  -3.722   2.673  1.00  0.00    -0.344 N 
ATOM     35  H32 UNL     1      -0.004  -3.729   2.976  1.00  0.00     0.176 HD
ATOM     36  H31 UNL     1      -1.584  -4.512   2.897  1.00  0.00     0.176 HD
ENDBRANCH   2  34
TORSDOF 8
