REMARK  1 active torsions:
REMARK  status: ('A' for Active; 'I' for Inactive)
REMARK    1  A    between atoms: N1_2  and  C2_4 
ROOT
HETATM    1  C2  UNL     1       1.112  -0.018  -0.168  1.00  0.00     0.026 C 
HETATM    2  C3  UNL     1       0.828   0.959  -1.314  1.00  0.00     0.035 C 
HETATM    3  C4  UNL     1      -0.593   1.434  -1.225  1.00  0.00    -0.011 C 
HETATM    4  C5  UNL     1      -0.706   2.185   0.104  1.00  0.00     0.009 C 
HETATM    5  C6  UNL     1      -0.520   1.203   1.239  1.00  0.00    -0.011 C 
HETATM    6  C7  UNL     1      -1.456   0.036   1.163  1.00  0.00     0.014 C 
HETATM    7  C8  UNL     1      -1.266  -0.657  -0.167  1.00  0.00    -0.041 C 
HETATM    8  C9  UNL     1      -2.195  -1.860  -0.165  1.00  0.00     0.015 C 
HETATM    9  C10 UNL     1      -1.605   0.329  -1.248  1.00  0.00     0.014 C 
HETATM   10  C11 UNL     1       0.135  -1.157  -0.370  1.00  0.00     0.039 C 
HETATM   11  C12 UNL     1       0.896   0.641   1.157  1.00  0.00     0.035 C 
ENDROOT
BRANCH   1  12
HETATM   12  N1  UNL     1       2.482  -0.402  -0.303  1.00  0.00    -0.417 N 
HETATM   13  C1  UNL     1       2.995  -1.202   0.765  1.00  0.00     0.140 C 
ATOM     14  H1  UNL     1       3.052  -0.126  -1.103  1.00  0.00     0.153 HD
ENDBRANCH   1  12
TORSDOF 1
