REMARK  3 active torsions:
REMARK  status: ('A' for Active; 'I' for Inactive)
REMARK    1  A    between atoms: C2_2  and  N1_3 
REMARK    2  A    between atoms: C2_2  and  C3_7 
REMARK    3  A    between atoms: C3_7  and  C5_9 
ROOT
HETATM    1  C5  UNL     1      -0.090  -0.362   0.110  1.00  0.00     0.005 C 
HETATM    2  C6  UNL     1      -0.540   0.793   0.935  1.00  0.00    -0.000 C 
HETATM    3  C7  UNL     1      -0.746   1.540  -0.344  1.00  0.00     0.016 C 
HETATM    4  C8  UNL     1      -1.273   0.173  -0.642  1.00  0.00    -0.032 C 
HETATM    5  C9  UNL     1      -1.841  -0.284  -1.802  1.00  0.00     0.016 C 
HETATM    6  C10 UNL     1      -1.947   0.274   0.706  1.00  0.00    -0.036 C 
HETATM    7  C11 UNL     1      -3.054   1.263   0.838  1.00  0.00     0.016 C 
HETATM    8  C12 UNL     1      -2.287  -1.017   1.377  1.00  0.00     0.016 C 
ENDROOT
BRANCH   1   9
HETATM    9  C3  UNL     1       1.239  -0.323  -0.531  1.00  0.00     0.017 C 
HETATM   10  C4  UNL     1       1.462  -1.685  -1.210  1.00  0.00     0.012 C 
BRANCH   9  11
HETATM   11  C2  UNL     1       2.380  -0.180   0.478  1.00  0.00     0.183 C 
HETATM   12  C1  UNL     1       3.720  -0.223  -0.233  1.00  0.00     0.040 C 
BRANCH  11  13
HETATM   13  N1  UNL     1       2.316   1.132   1.123  1.00  0.00    -0.075 N 
ATOM     14  H13 UNL     1       3.109   1.326   1.734  1.00  0.00     0.274 HD
ATOM     15  H12 UNL     1       2.463   1.911   0.481  1.00  0.00     0.274 HD
ATOM     16  H11 UNL     1       1.415   1.161   1.601  1.00  0.00     0.274 HD
ENDBRANCH  11  13
ENDBRANCH   9  11
ENDBRANCH   1   9
TORSDOF 3
