REMARK  1 active torsions:
REMARK  status: ('A' for Active; 'I' for Inactive)
REMARK    1  A    between atoms: N1_2  and  C2_4 
ROOT
HETATM    1  C2  UNL     1       1.101  -0.369  -0.459  1.00  0.00     0.084 C 
HETATM    2  C3  UNL     1       0.322  -1.220   0.519  1.00  0.00     0.009 C 
HETATM    3  C4  UNL     1      -0.753  -2.033  -0.120  1.00  0.00     0.007 C 
HETATM    4  C5  UNL     1      -1.690  -1.346  -1.017  1.00  0.00     0.005 C 
HETATM    5  C6  UNL     1      -1.795   0.140  -0.907  1.00  0.00    -0.014 C 
HETATM    6  C7  UNL     1      -2.112   0.617   0.490  1.00  0.00     0.009 C 
HETATM    7  C8  UNL     1      -0.899   0.819   1.343  1.00  0.00    -0.013 C 
HETATM    8  C9  UNL     1      -0.209  -0.464   1.696  1.00  0.00     0.011 C 
HETATM    9  C10 UNL     1       0.081   1.681   0.605  1.00  0.00     0.011 C 
HETATM   10  C11 UNL     1       0.554   1.002  -0.636  1.00  0.00     0.009 C 
HETATM   11  C12 UNL     1      -0.667   0.891  -1.549  1.00  0.00     0.011 C 
ENDROOT
BRANCH   1  12
HETATM   12  N1  UNL     1       2.487  -0.494  -0.214  1.00  0.00    -0.420 N 
HETATM   13  C1  UNL     1       3.277   0.620   0.051  1.00  0.00     0.140 C 
ATOM     14  H1  UNL     1       2.917  -1.419  -0.232  1.00  0.00     0.153 HD
ENDBRANCH   1  12
TORSDOF 1
