REMARK  1 active torsions:
REMARK  status: ('A' for Active; 'I' for Inactive)
REMARK    1  A    between atoms: C10_10  and  C11_11 
ROOT
HETATM    1  C1  UNL     1      -2.618  -0.546   0.264  1.00  0.00     0.009 C 
HETATM    2  C2  UNL     1      -1.609  -0.122   1.316  1.00  0.00    -0.013 C 
HETATM    3  C3  UNL     1      -1.071   1.231   1.060  1.00  0.00     0.009 C 
HETATM    4  C4  UNL     1      -0.632   1.532  -0.324  1.00  0.00    -0.013 C 
HETATM    5  C5  UNL     1      -1.660   1.031  -1.309  1.00  0.00     0.009 C 
HETATM    6  C6  UNL     1      -1.864  -0.432  -1.066  1.00  0.00    -0.013 C 
HETATM    7  C7  UNL     1      -0.629  -1.251  -1.089  1.00  0.00     0.010 C 
HETATM    8  C8  UNL     1       0.219  -1.198   0.133  1.00  0.00    -0.008 C 
HETATM    9  C9  UNL     1      -0.580  -1.215   1.394  1.00  0.00     0.010 C 
HETATM   10  C10 UNL     1       1.214  -0.064   0.146  1.00  0.00     0.022 C 
HETATM   11  C13 UNL     1       0.728   1.082  -0.698  1.00  0.00     0.011 C 
ENDROOT
BRANCH  10  12
HETATM   12  C11 UNL     1       2.588  -0.510  -0.217  1.00  0.00     0.215 A 
HETATM   13  C12 UNL     1       3.745   0.339  -0.291  1.00  0.00     0.266 A 
HETATM   14  N1  UNL     1       3.612  -0.566   0.899  1.00  0.00    -0.067 N 
ATOM     15  H12 UNL     1       3.612  -0.465   1.914  1.00  0.00     0.277 HD
ATOM     16  H11 UNL     1       4.177  -1.283   1.355  1.00  0.00     0.277 HD
ENDBRANCH  10  12
TORSDOF 1
