REMARK  3 active torsions:
REMARK  status: ('A' for Active; 'I' for Inactive)
REMARK    1  A    between atoms: C2_2  and  C4_4 
REMARK    2  A    between atoms: C4_4  and  N1_5 
REMARK    3  A    between atoms: C4_4  and  C5_9 
ROOT
HETATM    1  C5  UNL     1      -0.044   0.530   0.358  1.00  0.00     0.021 C 
HETATM    2  C6  UNL     1      -0.913   1.562  -0.415  1.00  0.00     0.012 C 
HETATM    3  C7  UNL     1      -1.840   0.638  -1.107  1.00  0.00    -0.006 C 
HETATM    4  C8  UNL     1      -0.905  -0.480  -1.589  1.00  0.00     0.011 C 
HETATM    5  C9  UNL     1      -0.711  -0.702  -0.098  1.00  0.00     0.000 C 
HETATM    6  C10 UNL     1      -2.210  -0.327  -0.009  1.00  0.00    -0.040 C 
HETATM    7  C11 UNL     1      -2.627   0.258   1.291  1.00  0.00     0.015 C 
HETATM    8  C12 UNL     1      -3.117  -1.401  -0.539  1.00  0.00     0.015 C 
ENDROOT
BRANCH   1   9
HETATM    9  C4  UNL     1       1.393   0.713  -0.042  1.00  0.00     0.191 C 
BRANCH   9  10
HETATM   10  C2  UNL     1       2.330  -0.207   0.645  1.00  0.00     0.008 C 
HETATM   11  C1  UNL     1       3.747   0.130   0.131  1.00  0.00     0.011 C 
HETATM   12  C3  UNL     1       2.149  -1.671   0.361  1.00  0.00     0.011 C 
ENDBRANCH   9  10
BRANCH   9  13
HETATM   13  N1  UNL     1       1.763   2.096   0.274  1.00  0.00    -0.074 N 
ATOM     14  H13 UNL     1       1.807   2.266   1.279  1.00  0.00     0.274 HD
ATOM     15  H12 UNL     1       2.738   2.298   0.052  1.00  0.00     0.274 HD
ATOM     16  H11 UNL     1       1.118   2.729  -0.199  1.00  0.00     0.274 HD
ENDBRANCH   9  13
ENDBRANCH   1   9
TORSDOF 3
