REMARK  7 active torsions:
REMARK  status: ('A' for Active; 'I' for Inactive)
REMARK    1  A    between atoms: C4_5  and  N2_6 
REMARK    2  A    between atoms: N3_8  and  N4_10 
REMARK    3  A    between atoms: C5_12  and  C6_13 
REMARK    4  A    between atoms: C5_12  and  C7_22 
REMARK    5  A    between atoms: C6_13  and  N6_17 
REMARK    6  A    between atoms: N6_17  and  N7_19 
REMARK    7  A    between atoms: C8_27  and  N9_28 
ROOT
HETATM    1  N1  UNL     1      -5.312   2.946   0.535  1.00  0.00    -0.190 NA
HETATM    2  C1  UNL     1      -4.695   2.125  -0.014  1.00  0.00     0.118 C 
HETATM    3  C2  UNL     1      -3.918   1.114  -0.673  1.00  0.00     0.133 A 
HETATM    4  C3  UNL     1      -2.525   1.133  -0.674  1.00  0.00     0.092 A 
HETATM    5  C4  UNL     1      -1.788   0.160  -1.308  1.00  0.00     0.139 A 
HETATM    6  N8  UNL     1      -2.433  -0.834  -1.942  1.00  0.00    -0.175 N 
ATOM      7  H8  UNL     1      -1.907  -1.567  -2.419  1.00  0.00     0.186 HD
HETATM    8  C8  UNL     1      -3.787  -0.854  -1.942  1.00  0.00     0.678 A 
HETATM    9  N10 UNL     1      -4.521   0.098  -1.321  1.00  0.00    -0.182 N 
ATOM     10  H10 UNL     1      -5.539   0.046  -1.344  1.00  0.00     0.185 HD
ENDROOT
BRANCH   5  11
HETATM   11  N2  UNL     1      -0.371   0.267  -1.253  1.00  0.00    -0.270 N 
HETATM   12  N3  UNL     1       0.384  -0.750  -1.075  1.00  0.00    -0.240 N 
ATOM     13  H3  UNL     1      -0.017  -1.682  -0.966  1.00  0.00     0.208 HD
ATOM     14  H2  UNL     1       0.058   1.186  -1.359  1.00  0.00     0.190 HD
BRANCH  12  15
HETATM   15  N4  UNL     1       1.745  -0.565  -1.033  1.00  0.00    -0.277 N 
HETATM   16  C5  UNL     1       2.425  -0.572   0.071  1.00  0.00     0.171 C 
ATOM     17  H4  UNL     1       2.243  -0.415  -1.910  1.00  0.00     0.189 HD
BRANCH  16  18
HETATM   18  C6  UNL     1       3.875  -0.370   0.067  1.00  0.00     0.154 C 
HETATM   19  N5  UNL     1       4.453  -0.187  -1.062  1.00  0.00    -0.382 N 
ATOM     20  H52 UNL     1       3.916  -0.182  -1.929  1.00  0.00     0.157 HD
ATOM     21  H51 UNL     1       5.463  -0.046  -1.065  1.00  0.00     0.157 HD
BRANCH  18  22
HETATM   22  N6  UNL     1       4.621  -0.377   1.273  1.00  0.00    -0.224 N 
ATOM     23  H6  UNL     1       4.757  -1.263   1.759  1.00  0.00     0.195 HD
BRANCH  22  24
HETATM   24  N7  UNL     1       5.175   0.775   1.820  1.00  0.00    -0.037 N 
HETATM   25  O1  UNL     1       6.059   0.651   2.688  1.00  0.00    -0.516 OA
HETATM   26  O2  UNL     1       4.731   2.000   1.388  1.00  0.00    -0.516 OA
ENDBRANCH  22  24
ENDBRANCH  18  22
ENDBRANCH  16  18
BRANCH  16  27
HETATM   27  C7  UNL     1       1.767  -0.780   1.347  1.00  0.00     0.232 C 
HETATM   28  O3  UNL     1       2.425  -0.786   2.406  1.00  0.00    -0.643 OA
HETATM   29  O4  UNL     1       0.403  -0.973   1.385  1.00  0.00    -0.643 OA
ENDBRANCH  16  27
ENDBRANCH  12  15
ENDBRANCH   5  11
BRANCH   8  30
HETATM   30  N9  UNL     1      -4.339  -1.847  -2.576  1.00  0.00    -0.234 N 
ATOM     31  H92 UNL     1      -3.786  -2.565  -3.044  1.00  0.00     0.174 HD
ATOM     32  H91 UNL     1      -5.359  -1.862  -2.576  1.00  0.00     0.174 HD
ENDBRANCH   8  30
TORSDOF 7
