REMARK  5 active torsions:
REMARK  status: ('A' for Active; 'I' for Inactive)
REMARK    1  A    between atoms: N1_1  and  C1_4 
REMARK    2  A    between atoms: C2_10  and  C3_11 
REMARK    3  A    between atoms: C3_11  and  N4_12 
REMARK    4  A    between atoms: C3_11  and  N5_16 
REMARK    5  A    between atoms: N5_16  and  C4_18 
ROOT
HETATM    1  C1  UNL     1      -1.838   0.330  -0.233  1.00  0.00     0.149 A 
HETATM    2  N2  UNL     1      -2.538   1.404   0.173  1.00  0.00    -0.224 N 
ATOM      3  H2  UNL     1      -3.544   1.545   0.081  1.00  0.00     0.198 HD
HETATM    4  O1  UNL     1      -1.672   2.239   0.713  1.00  0.00    -0.155 OA
HETATM    5  N3  UNL     1      -0.479   1.749   0.667  1.00  0.00    -0.238 N 
ATOM      6  H3  UNL     1       0.360   2.207   1.022  1.00  0.00     0.196 HD
HETATM    7  C2  UNL     1      -0.515   0.520   0.069  1.00  0.00     0.129 A 
ENDROOT
BRANCH   7   8
HETATM    8  C3  UNL     1       0.594  -0.396  -0.193  1.00  0.00     0.340 C 
BRANCH   8   9
HETATM    9  N4  UNL     1       0.334  -1.775   0.148  1.00  0.00    -0.052 N 
ATOM     10  H43 UNL     1       0.037  -1.848   1.121  1.00  0.00     0.277 HD
ATOM     11  H42 UNL     1      -0.512  -2.101  -0.320  1.00  0.00     0.277 HD
ATOM     12  H41 UNL     1       1.108  -2.414  -0.035  1.00  0.00     0.277 HD
ENDBRANCH   8   9
BRANCH   8  13
HETATM   13  N5  UNL     1       1.723   0.019   0.622  1.00  0.00    -0.336 N 
ATOM     14  H5  UNL     1       1.643   0.076   1.637  1.00  0.00     0.164 HD
BRANCH  13  15
HETATM   15  C4  UNL     1       2.934   0.341  -0.030  1.00  0.00     0.350 C 
HETATM   16  O2  UNL     1       3.010   0.262  -1.282  1.00  0.00    -0.284 OA
ENDBRANCH  13  15
ENDBRANCH   8  13
ENDBRANCH   7   8
BRANCH   1  17
HETATM   17  N1  UNL     1      -2.352  -0.694  -0.810  1.00  0.00    -0.382 N 
ATOM     18  H12 UNL     1      -3.337  -0.835  -1.035  1.00  0.00     0.157 HD
ATOM     19  H11 UNL     1      -1.821  -1.509  -1.118  1.00  0.00     0.157 HD
ENDBRANCH   1  17
TORSDOF 5
