REMARK  5 active torsions:
REMARK  status: ('A' for Active; 'I' for Inactive)
REMARK    1  A    between atoms: N1_1  and  C1_5 
REMARK    2  A    between atoms: C1_5  and  O1_6 
REMARK    3  A    between atoms: C1_5  and  C2_8 
REMARK    4  A    between atoms: C2_8  and  N2_9 
REMARK    5  A    between atoms: C2_8  and  C3_13 
ROOT
HETATM    1  C2  UNL     1      -0.426  -0.461  -0.418  1.00  0.00     0.291 C 
ENDROOT
BRANCH   1   2
HETATM    2  C1  UNL     1      -1.249   0.509   0.360  1.00  0.00     0.353 C 
BRANCH   2   3
HETATM    3  N1  UNL     1      -2.642   0.044   0.274  1.00  0.00    -0.051 N 
ATOM      4  H13 UNL     1      -3.285   0.665   0.765  1.00  0.00     0.277 HD
ATOM      5  H12 UNL     1      -3.025   0.149  -0.666  1.00  0.00     0.277 HD
ATOM      6  H11 UNL     1      -2.705  -0.917   0.609  1.00  0.00     0.277 HD
ENDBRANCH   2   3
BRANCH   2   7
HETATM    7  O1  UNL     1      -1.164   1.812  -0.094  1.00  0.00    -0.368 OA
ATOM      8  H1  UNL     1      -0.264   2.112  -0.038  1.00  0.00     0.212 HD
ENDBRANCH   2   7
ENDBRANCH   1   2
BRANCH   1   9
HETATM    9  N2  UNL     1      -0.631  -1.781   0.190  1.00  0.00    -0.065 N 
ATOM     10  H23 UNL     1      -0.431  -1.797   1.190  1.00  0.00     0.275 HD
ATOM     11  H22 UNL     1      -1.614  -2.047   0.250  1.00  0.00     0.275 HD
ATOM     12  H21 UNL     1      -0.068  -2.445  -0.342  1.00  0.00     0.275 HD
ENDBRANCH   1   9
BRANCH   1  13
HETATM   13  C3  UNL     1       1.015  -0.192  -0.378  1.00  0.00     0.078 A 
HETATM   14  C4  UNL     1       1.722   0.937  -0.019  1.00  0.00     0.137 A 
HETATM   15  N3  UNL     1       3.026   0.661  -0.160  1.00  0.00    -0.296 N 
HETATM   16  N4  UNL     1       3.155  -0.595  -0.592  1.00  0.00    -0.243 N 
ATOM     17  H3  UNL     1       3.793   1.305   0.031  1.00  0.00     0.187 HD
HETATM   18  N5  UNL     1       1.946  -1.100  -0.721  1.00  0.00    -0.287 N 
ATOM     19  H4  UNL     1       4.032  -1.077  -0.787  1.00  0.00     0.208 HD
ATOM     20  H5  UNL     1       1.743  -2.048  -1.037  1.00  0.00     0.188 HD
ENDBRANCH   1  13
TORSDOF 5
