REMARK  2 active torsions:
REMARK  status: ('A' for Active; 'I' for Inactive)
REMARK    1  A    between atoms: N1_1  and  N2_4 
REMARK       I    between atoms: N2_4  and  C1_5 
REMARK       I    between atoms: C1_5  and  N3_6 
REMARK       I    between atoms: C1_5  and  N4_10 
REMARK    2  A    between atoms: N4_10  and  C2_12 
ROOT
HETATM    1  N2  UNL     1       0.570   1.855   2.130  1.00  0.00    -0.093 NA
HETATM    2  C1  UNL     1      -0.308   0.932   1.452  1.00  0.00     0.410 C 
HETATM    3  N3  UNL     1      -1.277   0.484   2.435  1.00  0.00    -0.042 N 
ATOM      4  H31 UNL     1      -1.898  -0.168   1.956  1.00  0.00     0.278 HD
ATOM      5  H32 UNL     1      -1.772   1.250   2.892  1.00  0.00     0.278 HD
ATOM      6  H33 UNL     1      -0.849   0.091   3.273  1.00  0.00     0.278 HD
HETATM    7  N4  UNL     1       0.361  -0.140   0.814  1.00  0.00    -0.181 N 
ATOM      8  H4  UNL     1       1.116  -0.549   1.365  1.00  0.00     0.181 HD
ENDROOT
BRANCH   7   9
HETATM    9  C2  UNL     1       0.193  -0.678  -0.307  1.00  0.00     0.680 A 
HETATM   10  N5  UNL     1       0.963  -1.708  -0.718  1.00  0.00    -0.202 N 
HETATM   11  C3  UNL     1       0.824  -2.309  -1.890  1.00  0.00     0.107 A 
ATOM     12  H5  UNL     1       1.694  -2.043  -0.090  1.00  0.00     0.183 HD
HETATM   13  C4  UNL     1      -0.143  -1.896  -2.765  1.00  0.00     0.035 A 
HETATM   14  C5  UNL     1      -0.948  -0.841  -2.369  1.00  0.00     0.107 A 
HETATM   15  N6  UNL     1      -0.753  -0.267  -1.153  1.00  0.00    -0.202 N 
ATOM     16  H6  UNL     1      -1.354   0.509  -0.876  1.00  0.00     0.183 HD
ENDBRANCH   7   9
BRANCH   1  17
HETATM   17  N1  UNL     1       1.548   2.402   1.337  1.00  0.00    -0.345 N 
ATOM     18  H12 UNL     1       1.634   2.165   0.349  1.00  0.00     0.172 HD
ATOM     19  H11 UNL     1       2.169   3.054   1.816  1.00  0.00     0.172 HD
ENDBRANCH   1  17
TORSDOF 2
