REMARK  8 active torsions:
REMARK  status: ('A' for Active; 'I' for Inactive)
REMARK    1  A    between atoms: C1_4  and  N2_5 
REMARK    2  A    between atoms: C1_4  and  C3_17 
REMARK    3  A    between atoms: N2_5  and  N3_7 
REMARK       I    between atoms: N3_7  and  C2_8 
REMARK       I    between atoms: C2_8  and  N4_9 
REMARK       I    between atoms: C2_8  and  N5_13 
REMARK    4  A    between atoms: C4_22  and  S1_23 
REMARK    5  A    between atoms: S1_23  and  C5_24 
REMARK    6  A    between atoms: C5_24  and  C6_25 
REMARK    7  A    between atoms: C8_28  and  C9_29 
REMARK    8  A    between atoms: C12_32  and  O2_33 
ROOT
HETATM    1  C3  UNL     1      -2.871   1.082   0.041  1.00  0.00     0.161 A 
HETATM    2  N6  UNL     1      -2.568   2.132  -0.777  1.00  0.00    -0.290 N 
ATOM      3  H6  UNL     1      -3.090   3.001  -0.661  1.00  0.00     0.187 HD
HETATM    4  N7  UNL     1      -1.638   2.084  -1.708  1.00  0.00    -0.279 N 
ATOM      5  H7  UNL     1      -1.467   2.909  -2.283  1.00  0.00     0.189 HD
HETATM    6  C4  UNL     1      -0.902   0.966  -1.922  1.00  0.00     0.162 A 
HETATM    7  N9  UNL     1      -1.172  -0.080  -1.139  1.00  0.00    -0.301 N 
ATOM      8  H9  UNL     1      -0.637  -0.938  -1.272  1.00  0.00     0.171 HD
HETATM    9  C15 UNL     1      -2.133  -0.055  -0.166  1.00  0.00     0.279 A 
HETATM   10  O3  UNL     1      -2.351  -1.062   0.546  1.00  0.00    -0.265 OA
ENDROOT
BRANCH   1  11
HETATM   11  C1  UNL     1      -3.907   1.200   1.047  1.00  0.00     0.145 C 
HETATM   12  N1  UNL     1      -4.540   2.348   1.143  1.00  0.00    -0.383 N 
ATOM     13  H12 UNL     1      -5.269   2.431   1.851  1.00  0.00     0.157 HD
ATOM     14  H11 UNL     1      -4.248   3.079   0.494  1.00  0.00     0.157 HD
BRANCH  11  15
HETATM   15  N2  UNL     1      -4.310   0.193   1.941  1.00  0.00    -0.284 N 
ATOM     16  H2  UNL     1      -3.635  -0.411   2.410  1.00  0.00     0.184 HD
BRANCH  15  17
HETATM   17  N3  UNL     1      -5.708   0.063   2.156  1.00  0.00    -0.079 NA
HETATM   18  C2  UNL     1      -6.338  -0.508   0.986  1.00  0.00     0.490 C 
HETATM   19  N4  UNL     1      -7.775  -0.585   1.194  1.00  0.00    -0.035 N 
HETATM   20  N5  UNL     1      -5.784  -1.838   0.764  1.00  0.00    -0.035 N 
ATOM     21  H43 UNL     1      -8.014  -1.093   2.046  1.00  0.00     0.278 HD
ATOM     22  H42 UNL     1      -8.176   0.319   1.445  1.00  0.00     0.278 HD
ATOM     23  H41 UNL     1      -8.219  -0.988   0.369  1.00  0.00     0.278 HD
ATOM     24  H53 UNL     1      -4.766  -1.832   0.697  1.00  0.00     0.278 HD
ATOM     25  H52 UNL     1      -5.866  -2.438   1.585  1.00  0.00     0.278 HD
ATOM     26  H51 UNL     1      -6.228  -2.241  -0.061  1.00  0.00     0.278 HD
ENDBRANCH  15  17
ENDBRANCH  11  15
ENDBRANCH   1  11
BRANCH   6  27
HETATM   27  S1  UNL     1       0.317   0.995  -3.203  1.00  0.00    -0.086 SA
BRANCH  27  28
HETATM   28  C5  UNL     1       1.254  -0.509  -3.395  1.00  0.00     0.141 C 
BRANCH  28  29
HETATM   29  C6  UNL     1       2.138  -0.763  -2.237  1.00  0.00     0.043 A 
HETATM   30  C7  UNL     1       1.885  -1.534  -1.131  1.00  0.00     0.170 A 
HETATM   31  O1  UNL     1       2.942  -1.478  -0.337  1.00  0.00    -0.303 OA
HETATM   32  C8  UNL     1       3.876  -0.722  -0.845  1.00  0.00     0.157 A 
HETATM   33  N8  UNL     1       3.392  -0.274  -2.019  1.00  0.00    -0.337 N 
ATOM     34  H8  UNL     1       3.893   0.345  -2.656  1.00  0.00     0.168 HD
BRANCH  32  35
HETATM   35  C9  UNL     1       5.194  -0.415  -0.260  1.00  0.00     0.015 A 
HETATM   36  C10 UNL     1       6.096   0.398  -0.907  1.00  0.00     0.018 A 
HETATM   37  C11 UNL     1       7.339   0.689  -0.363  1.00  0.00     0.037 A 
HETATM   38  C12 UNL     1       7.667   0.144   0.856  1.00  0.00     0.065 A 
HETATM   39  C13 UNL     1       6.773  -0.670   1.510  1.00  0.00     0.037 A 
HETATM   40  C14 UNL     1       5.521  -0.957   0.952  1.00  0.00     0.018 A 
BRANCH  38  41
HETATM   41  O2  UNL     1       8.931   0.448   1.394  1.00  0.00    -0.361 OA
ATOM     42  H2  UNL     1       9.158   0.071   2.236  1.00  0.00     0.217 HD
ENDBRANCH  38  41
ENDBRANCH  32  35
ENDBRANCH  28  29
ENDBRANCH  27  28
ENDBRANCH   6  27
TORSDOF 8
