REMARK  9 active torsions:
REMARK  status: ('A' for Active; 'I' for Inactive)
REMARK    1  A    between atoms: C1_4  and  C2_6 
REMARK    2  A    between atoms: C4_8  and  C5_9 
REMARK    3  A    between atoms: C9_13  and  N3_14 
REMARK    4  A    between atoms: N5_19  and  C10_20 
REMARK    5  A    between atoms: C10_20  and  S1_21 
REMARK    6  A    between atoms: S1_21  and  C11_22 
REMARK    7  A    between atoms: C11_22  and  C12_23 
REMARK    8  A    between atoms: C12_23  and  O1_24 
REMARK    9  A    between atoms: N6_28  and  O3_29 
ROOT
HETATM    1  C5  UNL     1      -1.756  -0.291  -0.600  1.00  0.00     0.048 A 
HETATM    2  C6  UNL     1      -1.250  -1.502  -0.938  1.00  0.00     0.065 A 
HETATM    3  C7  UNL     1       0.149  -1.686  -1.054  1.00  0.00     0.100 A 
HETATM    4  C8  UNL     1       1.017  -0.648  -0.828  1.00  0.00     0.113 A 
HETATM    5  C9  UNL     1       0.474   0.551  -0.491  1.00  0.00     0.129 A 
HETATM    6  N4  UNL     1      -0.875   0.698  -0.387  1.00  0.00    -0.340 N 
ATOM      7  H4  UNL     1      -1.238   1.616  -0.132  1.00  0.00     0.167 HD
HETATM    8  N5  UNL     1       2.282  -1.097  -1.006  1.00  0.00    -0.283 N 
HETATM    9  C13 UNL     1       2.178  -2.406  -1.339  1.00  0.00     0.354 A 
HETATM   10  O2  UNL     1       3.183  -3.143  -1.579  1.00  0.00    -0.244 OA
HETATM   11  N6  UNL     1       0.871  -2.770  -1.370  1.00  0.00    -0.170 N 
ENDROOT
BRANCH   1  12
HETATM   12  C4  UNL     1      -3.221  -0.057  -0.427  1.00  0.00     0.023 A 
HETATM   13  C3  UNL     1      -3.671   1.106   0.130  1.00  0.00     0.038 A 
HETATM   14  C2  UNL     1      -5.020   1.273   0.236  1.00  0.00     0.048 A 
HETATM   15  S2  UNL     1      -5.655  -0.151  -0.421  1.00  0.00    -0.071 SA
HETATM   16  C14 UNL     1      -4.177  -0.941  -0.824  1.00  0.00     0.100 A 
HETATM   17  N7  UNL     1      -4.079  -2.242  -1.456  1.00  0.00    -0.093 NA
BRANCH  14  18
HETATM   18  C1  UNL     1      -5.733   2.443   0.802  1.00  0.00     0.127 C 
HETATM   19  N1  UNL     1      -6.999   2.411   0.814  1.00  0.00    -0.387 N 
ATOM     20  H12 UNL     1      -7.490   3.216   1.203  1.00  0.00     0.157 HD
ATOM     21  H11 UNL     1      -7.534   1.621   0.453  1.00  0.00     0.157 HD
HETATM   22  N2  UNL     1      -5.002   3.523   1.296  1.00  0.00    -0.082 NA
ENDBRANCH  14  18
ENDBRANCH   1  12
BRANCH   5  23
HETATM   23  N3  UNL     1       1.259   1.563  -0.265  1.00  0.00    -0.384 N 
ATOM     24  H32 UNL     1       2.270   1.453  -0.343  1.00  0.00     0.157 HD
ATOM     25  H31 UNL     1       0.851   2.463  -0.012  1.00  0.00     0.157 HD
ENDBRANCH   5  23
BRANCH  11  26
HETATM   26  O3  UNL     1       0.368  -4.002  -1.664  1.00  0.00    -0.278 OA
ATOM     27  H3  UNL     1       0.880  -4.770  -1.888  1.00  0.00     0.245 HD
ENDBRANCH  11  26
BRANCH   8  28
HETATM   28  C10 UNL     1       3.506  -0.342  -0.872  1.00  0.00     0.208 C 
BRANCH  28  29
HETATM   29  S1  UNL     1       4.162  -0.394   0.821  1.00  0.00    -0.147 SA
BRANCH  29  30
HETATM   30  C11 UNL     1       5.679   0.580   0.853  1.00  0.00     0.101 C 
BRANCH  30  31
HETATM   31  C12 UNL     1       6.301   0.590   2.248  1.00  0.00     0.174 C 
BRANCH  31  32
HETATM   32  O1  UNL     1       6.602  -0.699   2.632  1.00  0.00    -0.400 OA
ATOM     33  H1  UNL     1       6.989  -0.693   3.500  1.00  0.00     0.209 HD
ENDBRANCH  31  32
ENDBRANCH  30  31
ENDBRANCH  29  30
ENDBRANCH  28  29
ENDBRANCH   8  28
TORSDOF 9
