REMARK  9 active torsions:
REMARK  status: ('A' for Active; 'I' for Inactive)
REMARK    1  A    between atoms: C2_3  and  C3_4 
REMARK    2  A    between atoms: C3_4  and  O1_5 
REMARK    3  A    between atoms: C3_4  and  N2_7 
REMARK    4  A    between atoms: N2_7  and  C4_9 
REMARK    5  A    between atoms: N3_13  and  C8_14 
REMARK    6  A    between atoms: C12_18  and  C13_19 
REMARK    7  A    between atoms: C13_19  and  N4_20 
REMARK    8  A    between atoms: C13_19  and  C14_24 
REMARK    9  A    between atoms: C14_24  and  C15_25 
ROOT
HETATM    1  N1  UNL     1       3.972  -1.791   1.035  1.00  0.00    -0.100 NA
HETATM    2  C1  UNL     1       2.647  -1.371   0.704  1.00  0.00     0.085 A 
HETATM    3  C2  UNL     1       2.401  -0.193   0.037  1.00  0.00     0.031 A 
HETATM    4  C7  UNL     1       1.109   0.205  -0.279  1.00  0.00     0.108 A 
HETATM    5  N3  UNL     1       0.045  -0.563   0.064  1.00  0.00    -0.318 N 
HETATM    6  C16 UNL     1       0.253  -1.715   0.714  1.00  0.00     0.131 A 
HETATM    7  S1  UNL     1      -1.045  -2.615   1.116  1.00  0.00    -0.058 SA
HETATM    8  C17 UNL     1       1.546  -2.137   1.043  1.00  0.00     0.109 A 
HETATM    9  N5  UNL     1       1.702  -3.365   1.730  1.00  0.00    -0.097 NA
ENDROOT
BRANCH   5  10
HETATM   10  C8  UNL     1      -1.269  -0.138  -0.275  1.00  0.00     0.228 C 
HETATM   11  C9  UNL     1      -1.500  -0.216  -1.774  1.00  0.00     0.054 C 
HETATM   12  C10 UNL     1      -2.429  -1.337  -2.164  1.00  0.00     0.007 C 
HETATM   13  C11 UNL     1      -3.750  -1.285  -1.408  1.00  0.00     0.034 C 
HETATM   14  C12 UNL     1      -3.496  -0.364  -0.208  1.00  0.00     0.155 C 
HETATM   15  O4  UNL     1      -2.298  -0.715   0.428  1.00  0.00    -0.359 OA
BRANCH  14  16
HETATM   16  C13 UNL     1      -4.656  -0.343   0.722  1.00  0.00     0.222 C 
BRANCH  16  17
HETATM   17  N4  UNL     1      -4.892  -1.631   1.356  1.00  0.00    -0.072 N 
ATOM     18  H43 UNL     1      -4.996  -2.368   0.659  1.00  0.00     0.274 HD
ATOM     19  H42 UNL     1      -4.052  -1.966   1.827  1.00  0.00     0.274 HD
ATOM     20  H41 UNL     1      -5.688  -1.617   1.994  1.00  0.00     0.274 HD
ENDBRANCH  16  17
BRANCH  16  21
HETATM   21  C14 UNL     1      -4.586   0.786   1.700  1.00  0.00     0.148 C 
BRANCH  21  22
HETATM   22  C15 UNL     1      -4.598   2.097   1.034  1.00  0.00     0.174 C 
HETATM   23  O2  UNL     1      -4.253   3.095   1.756  1.00  0.00    -0.648 OA
HETATM   24  O3  UNL     1      -4.948   2.333  -0.288  1.00  0.00    -0.648 OA
ENDBRANCH  21  22
ENDBRANCH  16  21
ENDBRANCH  14  16
ENDBRANCH   5  10
BRANCH   3  25
HETATM   25  C3  UNL     1       3.593   0.646  -0.341  1.00  0.00     0.251 C 
BRANCH  25  26
HETATM   26  O1  UNL     1       3.394   1.064  -1.653  1.00  0.00    -0.373 OA
ATOM     27  H1  UNL     1       4.146   1.593  -1.891  1.00  0.00     0.212 HD
ENDBRANCH  25  26
BRANCH  25  28
HETATM   28  N2  UNL     1       3.673   1.783   0.514  1.00  0.00    -0.389 N 
ATOM     29  H2  UNL     1       2.981   1.964   1.242  1.00  0.00     0.156 HD
BRANCH  28  30
HETATM   30  C4  UNL     1       4.779   2.651   0.289  1.00  0.00     0.079 A 
HETATM   31  C5  UNL     1       6.127   1.967   0.526  1.00  0.00     0.027 A 
HETATM   32  C6  UNL     1       5.746   2.550  -0.800  1.00  0.00     0.027 A 
ENDBRANCH  28  30
ENDBRANCH  25  28
ENDBRANCH   3  25
TORSDOF 9
