REMARK  13 active torsions:
REMARK  status: ('A' for Active; 'I' for Inactive)
REMARK    1  A    between atoms: C4_9  and  C5_10 
REMARK    2  A    between atoms: C5_10  and  O2_12 
REMARK    3  A    between atoms: O2_12  and  C6_13 
REMARK    4  A    between atoms: C6_13  and  C7_14 
REMARK    5  A    between atoms: C7_14  and  C8_15 
REMARK    6  A    between atoms: C8_15  and  C9_16 
REMARK    7  A    between atoms: C9_16  and  C10_17 
REMARK    8  A    between atoms: C10_17  and  S1_18 
REMARK    9  A    between atoms: S1_18  and  C11_19 
REMARK   10  A    between atoms: C11_19  and  O3_20 
REMARK   11  A    between atoms: N3_22  and  O4_24 
REMARK   12  A    between atoms: C12_26  and  O5_27 
REMARK   13  A    between atoms: C13_32  and  N5_33 
ROOT
HETATM    1  N1  UNL     1      -7.066   1.440  -0.762  1.00  0.00    -0.380 N 
ATOM      2  H11 UNL     1      -7.691   2.221  -0.562  1.00  0.00     0.158 HD
ATOM      3  H12 UNL     1      -7.470   0.968  -1.571  1.00  0.00     0.158 HD
HETATM    4  C1  UNL     1      -6.009   1.097  -0.163  1.00  0.00     0.137 C 
HETATM    5  N2  UNL     1      -5.146   0.018  -0.439  1.00  0.00    -0.336 N 
ATOM      6  H2  UNL     1      -5.442  -0.825  -0.931  1.00  0.00     0.164 HD
HETATM    7  C2  UNL     1      -3.820   0.221   0.036  1.00  0.00     0.240 C 
HETATM    8  C3  UNL     1      -3.036  -1.046  -0.022  1.00  0.00     0.084 C 
HETATM    9  C4  UNL     1      -2.051  -0.892  -1.181  1.00  0.00     0.146 C 
HETATM   10  C12 UNL     1      -1.884   0.602  -1.215  1.00  0.00     0.335 C 
HETATM   11  N4  UNL     1      -3.086   1.209  -0.736  1.00  0.00    -0.019 N 
ATOM     12  H41 UNL     1      -2.911   2.066  -0.212  1.00  0.00     0.283 HD
ATOM     13  H42 UNL     1      -3.645   1.617  -1.485  1.00  0.00     0.283 HD
HETATM   14  C13 UNL     1      -3.889   0.753   1.469  1.00  0.00     0.308 C 
HETATM   15  S2  UNL     1      -5.303   1.922   1.250  1.00  0.00    -0.057 SA
ENDROOT
BRANCH   9  16
HETATM   16  C5  UNL     1      -0.812  -1.598  -0.809  1.00  0.00     0.267 C 
HETATM   17  O1  UNL     1      -0.419  -2.549  -1.529  1.00  0.00    -0.265 OA
BRANCH  16  18
HETATM   18  O2  UNL     1      -0.051  -1.268   0.298  1.00  0.00    -0.321 OA
BRANCH  18  19
HETATM   19  C6  UNL     1       1.128  -1.885   0.714  1.00  0.00     0.178 C 
BRANCH  19  20
HETATM   20  C7  UNL     1       2.265  -1.831  -0.251  1.00  0.00     0.027 C 
BRANCH  20  21
HETATM   21  C8  UNL     1       2.693  -0.442  -0.602  1.00  0.00     0.003 C 
BRANCH  21  22
HETATM   22  C9  UNL     1       3.143   0.336   0.632  1.00  0.00     0.011 C 
BRANCH  22  23
HETATM   23  C10 UNL     1       3.565   1.735   0.229  1.00  0.00     0.083 C 
BRANCH  23  24
HETATM   24  S1  UNL     1       4.946   1.680  -0.958  1.00  0.00    -0.085 SA
BRANCH  24  25
HETATM   25  C11 UNL     1       6.409   1.034  -0.198  1.00  0.00     0.199 C 
HETATM   26  N3  UNL     1       7.483   0.915  -0.888  1.00  0.00    -0.242 N 
ATOM     27  H3  UNL     1       8.310   0.539  -0.423  1.00  0.00     0.197 HD
BRANCH  25  28
HETATM   28  O3  UNL     1       6.379   0.663   1.132  1.00  0.00    -0.340 OA
ATOM     29  H3  UNL     1       7.164   0.316   1.540  1.00  0.00     0.220 HD
ENDBRANCH  25  28
BRANCH  26  30
HETATM   30  O4  UNL     1       7.591   1.257  -2.199  1.00  0.00    -0.287 OA
ATOM     31  H4  UNL     1       8.387   1.169  -2.710  1.00  0.00     0.244 HD
ENDBRANCH  26  30
ENDBRANCH  24  25
ENDBRANCH  23  24
ENDBRANCH  22  23
ENDBRANCH  21  22
ENDBRANCH  20  21
ENDBRANCH  19  20
ENDBRANCH  18  19
ENDBRANCH  16  18
ENDBRANCH   9  16
BRANCH  10  32
HETATM   32  O5  UNL     1      -0.742   1.053  -0.574  1.00  0.00    -0.369 OA
ATOM     33  H5  UNL     1      -0.636   1.997  -0.595  1.00  0.00     0.212 HD
ENDBRANCH  10  32
BRANCH  14  34
HETATM   34  N5  UNL     1      -4.305  -0.251   2.396  1.00  0.00    -0.062 N 
ATOM     35  H53 UNL     1      -5.192  -0.669   2.114  1.00  0.00     0.275 HD
ATOM     36  H52 UNL     1      -3.710  -1.078   2.337  1.00  0.00     0.275 HD
ATOM     37  H51 UNL     1      -4.351   0.104   3.351  1.00  0.00     0.275 HD
ENDBRANCH  14  34
TORSDOF 13
