REMARK  10 active torsions:
REMARK  status: ('A' for Active; 'I' for Inactive)
REMARK    1  A    between atoms: N1_1  and  C1_4 
REMARK    2  A    between atoms: C1_4  and  N2_5 
REMARK    3  A    between atoms: C1_4  and  C8_24 
REMARK    4  A    between atoms: N2_5  and  C2_7 
REMARK    5  A    between atoms: C2_7  and  C3_8 
REMARK    6  A    between atoms: C3_8  and  N3_9 
REMARK    7  A    between atoms: N3_9  and  C4_11 
REMARK    8  A    between atoms: C5_12  and  O1_13 
REMARK    9  A    between atoms: C10_26  and  N6_27 
REMARK   10  A    between atoms: C13_33  and  N8_34 
ROOT
HETATM    1  N2  UNL     1      -0.063   0.810   0.678  1.00  0.00    -0.374 N 
ATOM      2  H2  UNL     1      -0.184   1.805   0.490  1.00  0.00     0.161 HD
ENDROOT
BRANCH   1   3
HETATM    3  C1  UNL     1      -1.077   0.089   1.458  1.00  0.00     0.107 C 
BRANCH   3   4
HETATM    4  N1  UNL     1      -0.704  -0.295   2.550  1.00  0.00    -0.385 N 
ATOM      5  H12 UNL     1       0.202  -0.145   2.994  1.00  0.00     0.157 HD
ATOM      6  H11 UNL     1      -1.408  -0.796   3.092  1.00  0.00     0.157 HD
ENDBRANCH   3   4
BRANCH   3   7
HETATM    7  C8  UNL     1      -2.371  -0.126   0.823  1.00  0.00     0.043 A 
HETATM    8  C9  UNL     1      -2.703   0.793  -0.210  1.00  0.00     0.056 A 
HETATM    9  C10 UNL     1      -3.955   0.860  -0.763  1.00  0.00     0.128 A 
HETATM   10  C11 UNL     1      -4.979   0.029  -0.344  1.00  0.00     0.081 A 
HETATM   11  N7  UNL     1      -6.267   0.139  -0.938  1.00  0.00    -0.100 NA
HETATM   12  C12 UNL     1      -4.676  -0.858   0.638  1.00  0.00     0.066 A 
HETATM   13  C13 UNL     1      -3.378  -0.936   1.213  1.00  0.00     0.118 A 
BRANCH   9  14
HETATM   14  N6  UNL     1      -4.268   1.789  -1.797  1.00  0.00    -0.114 N 
HETATM   15  O4  UNL     1      -5.108   1.478  -2.641  1.00  0.00    -0.532 OA
HETATM   16  O5  UNL     1      -3.650   3.002  -1.858  1.00  0.00    -0.532 OA
ENDBRANCH   9  14
BRANCH  13  17
HETATM   17  N8  UNL     1      -3.188  -1.972   2.166  1.00  0.00    -0.115 N 
HETATM   18  O6  UNL     1      -2.183  -2.690   2.140  1.00  0.00    -0.532 OA
HETATM   19  O7  UNL     1      -4.162  -2.347   3.079  1.00  0.00    -0.532 OA
ENDBRANCH  13  17
ENDBRANCH   3   7
ENDBRANCH   1   3
BRANCH   1  20
HETATM   20  C2  UNL     1       1.084   0.137   0.183  1.00  0.00     0.141 C 
BRANCH  20  21
HETATM   21  C3  UNL     1       2.052  -0.271   1.237  1.00  0.00     0.139 C 
BRANCH  21  22
HETATM   22  N3  UNL     1       3.220  -0.928   0.675  1.00  0.00    -0.381 N 
ATOM     23  H3  UNL     1       3.423  -1.883   0.971  1.00  0.00     0.160 HD
BRANCH  22  24
HETATM   24  C4  UNL     1       4.095  -0.319  -0.262  1.00  0.00     0.131 A 
HETATM   25  C5  UNL     1       3.922  -0.543  -1.601  1.00  0.00     0.218 A 
HETATM   26  O2  UNL     1       4.705   0.021  -2.525  1.00  0.00    -0.235 OA
HETATM   27  C6  UNL     1       5.666   0.812  -2.151  1.00  0.00     0.373 A 
HETATM   28  O3  UNL     1       6.372   1.317  -3.063  1.00  0.00    -0.238 OA
HETATM   29  N4  UNL     1       5.871   1.059  -0.861  1.00  0.00    -0.286 N 
HETATM   30  C7  UNL     1       5.120   0.524   0.125  1.00  0.00     0.135 A 
ATOM     31  H4  UNL     1       6.634   1.684  -0.603  1.00  0.00     0.172 HD
HETATM   32  N5  UNL     1       5.345   0.780   1.334  1.00  0.00    -0.383 N 
ATOM     33  H52 UNL     1       4.778   0.376   2.079  1.00  0.00     0.157 HD
ATOM     34  H51 UNL     1       6.101   1.402   1.620  1.00  0.00     0.157 HD
BRANCH  25  35
HETATM   35  O1  UNL     1       2.928  -1.371  -2.085  1.00  0.00    -0.339 OA
ATOM     36  H1  UNL     1       2.808  -1.526  -3.014  1.00  0.00     0.220 HD
ENDBRANCH  25  35
ENDBRANCH  22  24
ENDBRANCH  21  22
ENDBRANCH  20  21
ENDBRANCH   1  20
TORSDOF 10
