REMARK  7 active torsions:
REMARK  status: ('A' for Active; 'I' for Inactive)
REMARK    1  A    between atoms: N1_2  and  C2_4 
REMARK    2  A    between atoms: C5_8  and  N3_9 
REMARK    3  A    between atoms: N3_9  and  N4_11 
REMARK    4  A    between atoms: N4_11  and  C6_13 
REMARK    5  A    between atoms: C8_15  and  C9_16 
REMARK    6  A    between atoms: C10_19  and  N5_20 
REMARK    7  A    between atoms: C12_27  and  N8_28 
ROOT
HETATM    1  N3  UNL     1      -0.183  -0.945  -0.800  1.00  0.00    -0.283 N 
ATOM      2  H3  UNL     1      -0.059  -1.568  -1.598  1.00  0.00     0.188 HD
ENDROOT
BRANCH   1   3
HETATM    3  C5  UNL     1      -1.467  -0.411  -0.444  1.00  0.00     0.159 A 
HETATM    4  N2  UNL     1      -2.128  -0.999   0.572  1.00  0.00    -0.342 N 
HETATM    5  C3  UNL     1      -3.347  -0.560   0.989  1.00  0.00     0.125 A 
HETATM    6  C4  UNL     1      -1.511  -2.135   1.238  1.00  0.00     0.157 C 
HETATM    7  C2  UNL     1      -3.981   0.516   0.398  1.00  0.00     0.097 A 
HETATM    8  C13 UNL     1      -3.318   1.125  -0.639  1.00  0.00     0.236 A 
HETATM    9  C12 UNL     1      -2.077   0.653  -1.042  1.00  0.00     0.200 A 
HETATM   10  O5  UNL     1      -3.869   2.105  -1.198  1.00  0.00    -0.283 OA
BRANCH   7  11
HETATM   11  N1  UNL     1      -5.246   0.948   0.856  1.00  0.00    -0.390 N 
HETATM   12  C1  UNL     1      -5.965   0.327   1.931  1.00  0.00     0.146 C 
ATOM     13  H1  UNL     1      -5.674   1.750   0.394  1.00  0.00     0.159 HD
ENDBRANCH   7  11
BRANCH   9  14
HETATM   14  N8  UNL     1      -1.442   1.304  -2.124  1.00  0.00    -0.107 N 
HETATM   15  O3  UNL     1      -1.447   0.785  -3.281  1.00  0.00    -0.531 OA
HETATM   16  O4  UNL     1      -0.818   2.513  -1.986  1.00  0.00    -0.531 OA
ENDBRANCH   9  14
ENDBRANCH   1   3
BRANCH   1  17
HETATM   17  N4  UNL     1       0.875  -0.563   0.004  1.00  0.00    -0.296 N 
ATOM     18  H4  UNL     1       0.659  -0.520   1.000  1.00  0.00     0.187 HD
BRANCH  17  19
HETATM   19  C6  UNL     1       2.194  -0.225  -0.322  1.00  0.00     0.090 A 
HETATM   20  C7  UNL     1       3.123   0.106   0.671  1.00  0.00     0.056 A 
HETATM   21  C8  UNL     1       4.444   0.446   0.385  1.00  0.00     0.086 A 
HETATM   22  C10 UNL     1       4.888   0.467  -0.915  1.00  0.00     0.117 A 
HETATM   23  N6  UNL     1       3.968   0.140  -1.873  1.00  0.00    -0.329 N 
HETATM   24  C11 UNL     1       2.692  -0.188  -1.595  1.00  0.00     0.146 A 
ATOM     25  H6  UNL     1       4.264   0.145  -2.849  1.00  0.00     0.168 HD
HETATM   26  N7  UNL     1       1.852  -0.500  -2.713  1.00  0.00    -0.080 NA
BRANCH  21  27
HETATM   27  C9  UNL     1       5.322   0.770   1.499  1.00  0.00     0.213 C 
HETATM   28  O1  UNL     1       6.509   1.079   1.414  1.00  0.00    -0.644 OA
HETATM   29  O2  UNL     1       4.793   0.737   2.800  1.00  0.00    -0.644 OA
ENDBRANCH  21  27
BRANCH  22  30
HETATM   30  N5  UNL     1       6.073   0.761  -1.294  1.00  0.00    -0.385 N 
ATOM     31  H52 UNL     1       6.759   1.005  -0.580  1.00  0.00     0.157 HD
ATOM     32  H51 UNL     1       6.403   0.777  -2.259  1.00  0.00     0.157 HD
ENDBRANCH  22  30
ENDBRANCH  17  19
ENDBRANCH   1  17
TORSDOF 7
