REMARK  2 active torsions:
REMARK  status: ('A' for Active; 'I' for Inactive)
REMARK    1  A    between atoms: O1_2  and  C2_3 
REMARK    2  A    between atoms: C4_5  and  N1_6 
REMARK       I    between atoms: N1_6  and  C5_8 
REMARK       I    between atoms: C5_8  and  N2_9 
REMARK       I    between atoms: C5_8  and  N3_13 
ROOT
HETATM    1  N1  UNL     1       1.358   0.894   0.250  1.00  0.00    -0.326 N 
ATOM      2  H1  UNL     1       1.527   1.888   0.096  1.00  0.00     0.164 HD
HETATM    3  C5  UNL     1       2.462   0.038   0.618  1.00  0.00     0.481 C 
HETATM    4  N2  UNL     1       2.602  -0.967  -0.417  1.00  0.00    -0.033 N 
ATOM      5  H21 UNL     1       3.381  -1.571  -0.157  1.00  0.00     0.278 HD
ATOM      6  H22 UNL     1       2.705  -0.565  -1.349  1.00  0.00     0.278 HD
ATOM      7  H23 UNL     1       1.739  -1.483  -0.588  1.00  0.00     0.278 HD
HETATM    8  N3  UNL     1       3.682   0.760   0.827  1.00  0.00    -0.033 N 
ATOM      9  H31 UNL     1       4.461   0.156   1.087  1.00  0.00     0.278 HD
ATOM     10  H32 UNL     1       3.553   1.504   1.513  1.00  0.00     0.278 HD
ATOM     11  H33 UNL     1       3.915   1.326   0.011  1.00  0.00     0.278 HD
ENDROOT
BRANCH   1  12
HETATM   12  C4  UNL     1       0.049   0.384   0.099  1.00  0.00     0.122 A 
HETATM   13  C3  UNL     1      -1.068   1.126  -0.250  1.00  0.00     0.106 A 
HETATM   14  C2  UNL     1      -2.124   0.240  -0.280  1.00  0.00     0.160 A 
HETATM   15  N5  UNL     1      -1.617  -0.964   0.041  1.00  0.00    -0.278 N 
HETATM   16  N4  UNL     1      -0.313  -0.897   0.273  1.00  0.00    -0.284 N 
ATOM     17  H5  UNL     1      -2.167  -1.821   0.099  1.00  0.00     0.189 HD
ATOM     18  H4  UNL     1       0.298  -1.671   0.534  1.00  0.00     0.188 HD
BRANCH  14  19
HETATM   19  O1  UNL     1      -3.467   0.538  -0.588  1.00  0.00    -0.340 OA
HETATM   20  C1  UNL     1      -4.406  -0.516  -0.565  1.00  0.00     0.211 C 
ENDBRANCH  14  19
ENDBRANCH   1  12
TORSDOF 2
