REMARK  1 active torsions:
REMARK  status: ('A' for Active; 'I' for Inactive)
REMARK       I    between atoms: C7_10  and  N3_11 
REMARK    1  A    between atoms: N3_11  and  C8_13 
ROOT
HETATM    1  C1  UNL     1      -3.364  -0.558  -0.878  1.00  0.00    -0.009 C 
HETATM    2  C2  UNL     1      -2.684  -1.523  -0.315  1.00  0.00    -0.002 C 
HETATM    3  C3  UNL     1      -1.756  -1.274   0.822  1.00  0.00     0.139 C 
HETATM    4  C4  UNL     1      -2.106   0.038   1.487  1.00  0.00     0.148 C 
HETATM    5  N1  UNL     1      -2.359   1.102   0.594  1.00  0.00    -0.391 N 
HETATM    6  C5  UNL     1      -3.283   0.861  -0.449  1.00  0.00     0.145 C 
HETATM    7  C6  UNL     1      -1.229   1.911   0.249  1.00  0.00     0.259 C 
HETATM    8  N2  UNL     1      -0.161   1.182  -0.381  1.00  0.00    -0.211 N 
ATOM      9  H2  UNL     1       0.452   1.779  -0.937  1.00  0.00     0.179 HD
HETATM   10  C7  UNL     1       0.192  -0.046  -0.400  1.00  0.00     0.672 C 
HETATM   11  N3  UNL     1       1.350  -0.309  -1.184  1.00  0.00    -0.220 N 
ATOM     12  H3  UNL     1       1.225  -0.614  -2.149  1.00  0.00     0.178 HD
HETATM   13  N4  UNL     1      -0.429  -1.122   0.253  1.00  0.00    -0.217 N 
ATOM     14  H4  UNL     1       0.160  -1.949   0.345  1.00  0.00     0.178 HD
ENDROOT
BRANCH  11  15
HETATM   15  C8  UNL     1       2.699  -0.163  -0.674  1.00  0.00     0.119 C 
HETATM   16  C9  UNL     1       2.993   1.249  -0.220  1.00  0.00     0.113 C 
HETATM   17  S1  UNL     1       4.704   1.619  -0.763  1.00  0.00    -0.084 SA
HETATM   18  S2  UNL     1       5.819  -0.153  -0.342  1.00  0.00    -0.025 SA
HETATM   19  S3  UNL     1       4.584  -1.306   0.987  1.00  0.00    -0.084 SA
HETATM   20  C10 UNL     1       2.861  -1.164   0.449  1.00  0.00     0.113 C 
ENDBRANCH  11  15
TORSDOF 1
