REMARK  2 active torsions:
REMARK  status: ('A' for Active; 'I' for Inactive)
REMARK    1  A    between atoms: N1_1  and  N2_4 
REMARK       I    between atoms: N2_4  and  C1_6 
REMARK    2  A    between atoms: C1_6  and  C2_8 
ROOT
HETATM    1  C2  UNL     1       3.201   0.320   0.493  1.00  0.00     0.133 A 
HETATM    2  N3  UNL     1       2.928   1.166   1.514  1.00  0.00    -0.255 N 
ATOM      3  H3  UNL     1       3.596   1.813   1.934  1.00  0.00     0.195 HD
HETATM    4  O2  UNL     1       1.692   1.031   1.878  1.00  0.00    -0.241 OA
HETATM    5  C3  UNL     1       1.082   0.118   1.147  1.00  0.00     0.087 A 
HETATM    6  C4  UNL     1       2.012  -0.345   0.267  1.00  0.00     0.017 A 
HETATM    7  C5  UNL     1       1.707  -1.402  -0.742  1.00  0.00     0.118 C 
HETATM    8  S1  UNL     1       0.047  -1.053  -1.366  1.00  0.00    -0.154 SA
HETATM    9  C6  UNL     1      -1.038  -0.455  -0.031  1.00  0.00     0.014 C 
HETATM   10  C7  UNL     1      -2.134  -1.494   0.056  1.00  0.00     0.021 C 
HETATM   11  C8  UNL     1      -3.223  -1.147   1.003  1.00  0.00     0.002 C 
HETATM   12  C9  UNL     1      -4.379  -0.457   0.306  1.00  0.00     0.000 C 
HETATM   13  C10 UNL     1      -4.002   0.841  -0.321  1.00  0.00     0.000 C 
HETATM   14  C11 UNL     1      -2.708   1.412   0.225  1.00  0.00     0.002 C 
HETATM   15  C12 UNL     1      -1.544   0.876  -0.547  1.00  0.00     0.021 C 
HETATM   16  C13 UNL     1      -0.326  -0.310   1.267  1.00  0.00     0.088 C 
ENDROOT
BRANCH   1  17
HETATM   17  C1  UNL     1       4.475   0.161  -0.199  1.00  0.00     0.288 C 
HETATM   18  N2  UNL     1       5.567   0.973   0.211  1.00  0.00    -0.271 N 
ATOM     19  H2  UNL     1       5.438   1.641   0.971  1.00  0.00     0.189 HD
HETATM   20  O1  UNL     1       4.665  -0.641  -1.125  1.00  0.00    -0.264 OA
BRANCH  18  21
HETATM   21  N1  UNL     1       6.811   0.871  -0.409  1.00  0.00    -0.342 N 
ATOM     22  H12 UNL     1       6.923   0.198  -1.167  1.00  0.00     0.176 HD
ATOM     23  H11 UNL     1       7.595   1.454  -0.115  1.00  0.00     0.176 HD
ENDBRANCH  18  21
ENDBRANCH   1  17
TORSDOF 2
