REMARK  1 active torsions:
REMARK  status: ('A' for Active; 'I' for Inactive)
REMARK       I    between atoms: C3_7  and  N2_8 
REMARK    1  A    between atoms: N2_8  and  C4_10 
ROOT
HETATM    1  C1  UNL     1      -2.794  -2.332  -0.904  1.00  0.00     0.082 C 
HETATM    2  C2  UNL     1      -2.275  -1.271  -0.002  1.00  0.00     0.202 C 
HETATM    3  O1  UNL     1      -1.616  -1.717   1.115  1.00  0.00    -0.176 OA
HETATM    4  O2  UNL     1      -0.451  -2.244   0.932  1.00  0.00    -0.095 OA
HETATM    5  N1  UNL     1       0.565  -1.433   1.344  1.00  0.00    -0.065 N 
ATOM      6  H1  UNL     1       1.329  -1.890   1.842  1.00  0.00     0.216 HD
HETATM    7  C3  UNL     1       0.690  -0.010   1.161  1.00  0.00     0.698 C 
HETATM    8  N2  UNL     1       1.896   0.506   1.624  1.00  0.00    -0.220 N 
ATOM      9  H2  UNL     1       1.892   0.984   2.525  1.00  0.00     0.178 HD
HETATM   10  N3  UNL     1      -0.069   0.933   0.657  1.00  0.00    -0.192 N 
ATOM     11  H3  UNL     1       0.319   1.876   0.674  1.00  0.00     0.181 HD
HETATM   12  C9  UNL     1      -1.390   0.800   0.079  1.00  0.00     0.154 C 
HETATM   13  C10 UNL     1      -1.802   1.918  -0.801  1.00  0.00     0.061 C 
HETATM   14  C11 UNL     1      -3.290   1.805  -1.013  1.00  0.00     0.005 C 
HETATM   15  C12 UNL     1      -3.838   0.430  -0.806  1.00  0.00     0.010 C 
HETATM   16  C13 UNL     1      -3.379  -0.281   0.415  1.00  0.00     0.055 C 
HETATM   17  C14 UNL     1      -2.454   0.686   1.172  1.00  0.00     0.071 C 
HETATM   18  O3  UNL     1      -1.446  -0.376  -0.672  1.00  0.00    -0.321 OA
ENDROOT
BRANCH   8  19
HETATM   19  C4  UNL     1       3.141   0.414   0.928  1.00  0.00     0.099 C 
HETATM   20  C5  UNL     1       3.115   1.076  -0.436  1.00  0.00     0.026 C 
HETATM   21  C6  UNL     1       4.439   0.595  -1.018  1.00  0.00     0.002 C 
HETATM   22  C7  UNL     1       4.735  -0.728  -0.343  1.00  0.00     0.002 C 
HETATM   23  C8  UNL     1       3.535  -0.999   0.572  1.00  0.00     0.026 C 
ENDBRANCH   8  19
TORSDOF 1
