REMARK  3 active torsions:
REMARK  status: ('A' for Active; 'I' for Inactive)
REMARK    1  A    between atoms: N1_1  and  C1_4 
REMARK    2  A    between atoms: C2_7  and  N3_8 
REMARK    3  A    between atoms: N3_8  and  C3_10 
ROOT
HETATM    1  N3  UNL     1       2.191   1.045  -0.511  1.00  0.00    -0.316 N 
ATOM      2  H3  UNL     1       2.415   1.964  -0.893  1.00  0.00     0.170 HD
ENDROOT
BRANCH   1   3
HETATM    3  C2  UNL     1       3.153   0.234  -0.074  1.00  0.00     0.159 A 
HETATM    4  N2  UNL     1       4.421   0.624  -0.136  1.00  0.00    -0.316 N 
HETATM    5  C1  UNL     1       5.379  -0.174   0.295  1.00  0.00     0.151 A 
ATOM      6  H2  UNL     1       4.654   1.541  -0.517  1.00  0.00     0.170 HD
HETATM    7  S3  UNL     1       4.902  -1.689   0.918  1.00  0.00    -0.013 SA
HETATM    8  S2  UNL     1       2.872  -1.318   0.582  1.00  0.00    -0.013 SA
BRANCH   5   9
HETATM    9  N1  UNL     1       6.674   0.129   0.273  1.00  0.00    -0.379 N 
ATOM     10  H12 UNL     1       6.959   1.035  -0.099  1.00  0.00     0.158 HD
ATOM     11  H11 UNL     1       7.415  -0.488   0.606  1.00  0.00     0.158 HD
ENDBRANCH   5   9
ENDBRANCH   1   3
BRANCH   1  12
HETATM   12  C3  UNL     1       0.838   0.594  -0.430  1.00  0.00     0.151 A 
HETATM   13  N4  UNL     1       0.126   0.417   0.673  1.00  0.00    -0.339 N 
HETATM   14  C4  UNL     1      -1.099   0.000   0.594  1.00  0.00     0.024 A 
ATOM     15  H4  UNL     1       0.542   0.609   1.585  1.00  0.00     0.168 HD
HETATM   16  C5  UNL     1      -1.606  -0.241  -0.657  1.00  0.00     0.009 A 
HETATM   17  C9  UNL     1      -2.093  -0.272   1.709  1.00  0.00     0.058 C 
HETATM   18  S1  UNL     1      -0.274   0.151  -1.650  1.00  0.00    -0.057 SA
HETATM   19  C6  UNL     1      -3.013  -0.728  -0.892  1.00  0.00     0.048 C 
HETATM   20  C7  UNL     1      -3.966  -0.078   0.044  1.00  0.00     0.006 C 
HETATM   21  C8  UNL     1      -3.377   0.420   1.311  1.00  0.00     0.006 C 
ENDBRANCH   1  12
TORSDOF 3
