REMARK  4 active torsions:
REMARK  status: ('A' for Active; 'I' for Inactive)
REMARK    1  A    between atoms: C6_6  and  O1_7 
REMARK    2  A    between atoms: N1_11  and  O3_13 
REMARK    3  A    between atoms: C8_15  and  O4_16 
REMARK    4  A    between atoms: C9_18  and  O5_20 
ROOT
HETATM    1  C1  UNL     1       3.105   0.732   1.798  1.00  0.00     0.045 C 
HETATM    2  C2  UNL     1       2.345   0.527   0.507  1.00  0.00     0.058 C 
HETATM    3  C3  UNL     1       3.362   0.442  -0.606  1.00  0.00     0.045 C 
HETATM    4  C4  UNL     1       1.533  -0.748   0.522  1.00  0.00     0.048 C 
HETATM    5  C5  UNL     1       0.447  -0.383  -0.501  1.00  0.00     0.068 C 
HETATM    6  C6  UNL     1       0.350   1.072  -0.359  1.00  0.00     0.212 C 
HETATM    7  O2  UNL     1       1.450   1.543   0.355  1.00  0.00    -0.339 OA
HETATM    8  C7  UNL     1      -0.844   1.564   0.369  1.00  0.00     0.103 C 
HETATM    9  N1  UNL     1      -1.170   2.789   0.322  1.00  0.00    -0.269 N 
ATOM     10  H1  UNL     1      -1.995   3.111   0.827  1.00  0.00     0.193 HD
HETATM   11  C8  UNL     1      -1.627   0.564   1.141  1.00  0.00     0.206 C 
HETATM   12  C9  UNL     1      -1.993  -0.514   0.113  1.00  0.00     0.093 C 
HETATM   13  C10 UNL     1      -2.818   0.110  -0.973  1.00  0.00     0.050 C 
HETATM   14  C11 UNL     1      -0.763  -1.196  -0.353  1.00  0.00    -0.005 C 
HETATM   15  C12 UNL     1      -0.492  -2.323   0.657  1.00  0.00     0.018 C 
HETATM   16  C13 UNL     1      -1.092  -1.923  -1.665  1.00  0.00     0.018 C 
ENDROOT
BRANCH   6  17
HETATM   17  O1  UNL     1       0.421   1.718  -1.616  1.00  0.00    -0.360 OA
ATOM     18  H1  UNL     1       0.358   2.661  -1.524  1.00  0.00     0.213 HD
ENDBRANCH   6  17
BRANCH   9  19
HETATM   19  O3  UNL     1      -0.427   3.681  -0.398  1.00  0.00    -0.290 OA
ATOM     20  H3  UNL     1      -0.671   4.598  -0.433  1.00  0.00     0.244 HD
ENDBRANCH   9  19
BRANCH  11  21
HETATM   21  O4  UNL     1      -2.762   1.155   1.643  1.00  0.00    -0.386 OA
ATOM     22  H4  UNL     1      -3.262   0.516   2.136  1.00  0.00     0.210 HD
ENDBRANCH  11  21
BRANCH  12  23
HETATM   23  O5  UNL     1      -2.831  -1.410   0.803  1.00  0.00    -0.386 OA
ATOM     24  H5  UNL     1      -3.058  -2.078   0.166  1.00  0.00     0.210 HD
ENDBRANCH  12  23
TORSDOF 4
