REMARK  4 active torsions:
REMARK  status: ('A' for Active; 'I' for Inactive)
REMARK    1  A    between atoms: N1_1  and  O1_4 
REMARK    2  A    between atoms: O1_4  and  C1_5 
REMARK       I    between atoms: C1_5  and  N2_7 
REMARK    3  A    between atoms: N2_7  and  C2_8 
REMARK    4  A    between atoms: C2_8  and  O3_9 
ROOT
HETATM    1  C2  UNL     1       1.523  -0.043  -1.185  1.00  0.00     0.367 C 
HETATM    2  C3  UNL     1       0.980  -1.358  -1.698  1.00  0.00     0.109 C 
HETATM    3  C4  UNL     1      -0.490  -1.491  -1.584  1.00  0.00     0.008 C 
HETATM    4  C5  UNL     1      -0.953  -2.392  -0.483  1.00  0.00     0.000 C 
HETATM    5  C6  UNL     1      -2.458  -2.247  -0.318  1.00  0.00     0.002 C 
HETATM    6  C7  UNL     1      -2.792  -1.263   0.786  1.00  0.00     0.026 C 
HETATM    7  C8  UNL     1      -3.517  -0.044   0.292  1.00  0.00     0.167 C 
HETATM    8  O4  UNL     1      -2.709   1.083   0.157  1.00  0.00    -0.391 OA
HETATM    9  C9  UNL     1      -2.585   1.774   1.359  1.00  0.00     0.167 C 
HETATM   10  C10 UNL     1      -1.531   2.860   1.133  1.00  0.00     0.028 C 
HETATM   11  C11 UNL     1      -0.143   2.279   1.180  1.00  0.00     0.030 C 
HETATM   12  C12 UNL     1       0.304   1.810  -0.201  1.00  0.00     0.240 C 
HETATM   13  N3  UNL     1       0.690   0.442  -0.073  1.00  0.00    -0.011 N 
ATOM     14  H31 UNL     1       1.153   0.281   0.821  1.00  0.00     0.284 HD
ATOM     15  H32 UNL     1      -0.129  -0.153   0.050  1.00  0.00     0.284 HD
ENDROOT
BRANCH   1  16
HETATM   16  N2  UNL     1       2.817  -0.192  -0.698  1.00  0.00    -0.321 NA
HETATM   17  C1  UNL     1       4.067  -0.337  -0.227  1.00  0.00     0.460 C 
HETATM   18  O2  UNL     1       5.110  -0.739  -0.826  1.00  0.00    -0.219 OA
BRANCH  17  19
HETATM   19  O1  UNL     1       4.324  -0.003   1.146  1.00  0.00    -0.177 OA
BRANCH  19  20
HETATM   20  N1  UNL     1       5.604  -0.140   1.666  1.00  0.00    -0.300 N 
ATOM     21  H12 UNL     1       6.351  -0.479   1.060  1.00  0.00     0.184 HD
ATOM     22  H11 UNL     1       5.787   0.097   2.641  1.00  0.00     0.184 HD
ENDBRANCH  19  20
ENDBRANCH  17  19
ENDBRANCH   1  16
BRANCH   1  23
HETATM   23  O3  UNL     1       1.477   0.960  -2.188  1.00  0.00    -0.338 OA
ATOM     24  H3  UNL     1       0.593   1.062  -2.521  1.00  0.00     0.215 HD
ENDBRANCH   1  23
TORSDOF 4
