REMARK  3 active torsions:
REMARK  status: ('A' for Active; 'I' for Inactive)
REMARK    1  A    between atoms: S1_2  and  C2_3 
REMARK    2  A    between atoms: C2_3  and  N1_5 
REMARK    3  A    between atoms: N1_5  and  C3_7 
ROOT
HETATM    1  C3  UNL     1       0.076  -0.250   0.128  1.00  0.00     0.138 A 
HETATM    2  N2  UNL     1       0.951  -1.228  -0.019  1.00  0.00    -0.321 N 
ATOM      3  H2  UNL     1       1.933  -0.974   0.094  1.00  0.00     0.169 HD
HETATM    4  C4  UNL     1       0.701  -2.516  -0.299  1.00  0.00     0.145 A 
HETATM    5  N3  UNL     1       1.614  -3.412  -0.427  1.00  0.00    -0.380 N 
ATOM      6  H31 UNL     1       1.424  -4.391  -0.640  1.00  0.00     0.158 HD
ATOM      7  H32 UNL     1       2.604  -3.193  -0.320  1.00  0.00     0.158 HD
HETATM    8  S3  UNL     1      -0.963  -2.884  -0.478  1.00  0.00    -0.034 SA
HETATM    9  C5  UNL     1      -1.960  -1.507  -0.257  1.00  0.00     0.109 A 
HETATM   10  N4  UNL     1      -3.276  -1.227  -0.281  1.00  0.00    -0.339 N 
ATOM     11  H4  UNL     1      -4.013  -1.907  -0.467  1.00  0.00     0.168 HD
HETATM   12  C6  UNL     1      -3.481   0.077  -0.025  1.00  0.00     0.078 A 
HETATM   13  C7  UNL     1      -4.807   0.723   0.026  1.00  0.00     0.089 C 
HETATM   14  N5  UNL     1      -2.267   0.611   0.160  1.00  0.00    -0.341 N 
ATOM     15  H5  UNL     1      -2.094   1.593   0.373  1.00  0.00     0.167 HD
HETATM   16  C8  UNL     1      -1.292  -0.335   0.026  1.00  0.00     0.112 A 
ENDROOT
BRANCH   1  17
HETATM   17  N1  UNL     1       0.555   0.941   0.403  1.00  0.00    -0.326 N 
ATOM     18  H1  UNL     1      -0.097   1.716   0.522  1.00  0.00     0.169 HD
BRANCH  17  19
HETATM   19  C2  UNL     1       1.941   1.191   0.541  1.00  0.00     0.139 C 
HETATM   20  S2  UNL     1       2.559   1.288   2.040  1.00  0.00    -0.053 SA
BRANCH  19  21
HETATM   21  S1  UNL     1       2.928   1.385  -0.928  1.00  0.00    -0.105 SA
HETATM   22  C1  UNL     1       4.662   1.695  -0.515  1.00  0.00     0.098 C 
ENDBRANCH  19  21
ENDBRANCH  17  19
ENDBRANCH   1  17
TORSDOF 3
