REMARK  4 active torsions:
REMARK  status: ('A' for Active; 'I' for Inactive)
REMARK    1  A    between atoms: C3_3  and  C4_4 
REMARK    2  A    between atoms: C4_4  and  C5_5 
REMARK    3  A    between atoms: C5_5  and  N1_6 
REMARK    4  A    between atoms: N1_6  and  C6_8 
ROOT
HETATM    1  C6  UNL     1       1.204   0.121  -0.997  1.00  0.00     0.118 A 
HETATM    2  C7  UNL     1       2.265   0.256  -1.864  1.00  0.00     0.138 A 
HETATM    3  N2  UNL     1       3.490  -0.169  -1.542  1.00  0.00    -0.346 N 
ATOM      4  H2  UNL     1       4.263  -0.060  -2.198  1.00  0.00     0.167 HD
HETATM    5  C8  UNL     1       3.691  -0.740  -0.346  1.00  0.00     0.151 A 
HETATM    6  N3  UNL     1       4.815  -1.234   0.187  1.00  0.00    -0.335 N 
ATOM      7  H3  UNL     1       5.735  -1.254  -0.253  1.00  0.00     0.168 HD
HETATM    8  C9  UNL     1       4.508  -1.696   1.403  1.00  0.00     0.183 A 
HETATM    9  N4  UNL     1       3.185  -1.493   1.640  1.00  0.00    -0.335 N 
ATOM     10  H4  UNL     1       2.687  -1.750   2.492  1.00  0.00     0.168 HD
HETATM   11  C10 UNL     1       2.643  -0.896   0.563  1.00  0.00     0.152 A 
HETATM   12  N5  UNL     1       1.429  -0.454   0.196  1.00  0.00    -0.325 N 
ATOM     13  H5  UNL     1       0.650  -0.559   0.846  1.00  0.00     0.169 HD
ENDROOT
BRANCH   1  14
HETATM   14  N1  UNL     1       0.007   0.543  -1.328  1.00  0.00    -0.375 N 
ATOM     15  H1  UNL     1      -0.153   0.978  -2.236  1.00  0.00     0.161 HD
BRANCH  14  16
HETATM   16  C5  UNL     1      -1.081   0.385  -0.393  1.00  0.00     0.126 C 
BRANCH  16  17
HETATM   17  C4  UNL     1      -2.332   1.043  -0.874  1.00  0.00     0.058 C 
BRANCH  17  18
HETATM   18  C3  UNL     1      -3.404   0.825   0.162  1.00  0.00    -0.057 A 
HETATM   19  C2  UNL     1      -4.808   1.192   0.312  1.00  0.00     0.007 A 
HETATM   20  C1  UNL     1      -4.888   0.585   1.484  1.00  0.00     0.001 A 
HETATM   21  C11 UNL     1      -3.485   0.218   1.335  1.00  0.00     0.007 A 
ENDBRANCH  17  18
ENDBRANCH  16  17
ENDBRANCH  14  16
ENDBRANCH   1  14
TORSDOF 4
