REMARK  5 active torsions:
REMARK  status: ('A' for Active; 'I' for Inactive)
REMARK    1  A    between atoms: C3_3  and  N1_4 
REMARK    2  A    between atoms: N1_4  and  C4_6 
REMARK    3  A    between atoms: C4_6  and  N2_8 
REMARK    4  A    between atoms: N2_8  and  N3_10 
REMARK    5  A    between atoms: C5_12  and  C6_13 
ROOT
HETATM    1  C1  UNL     1       4.724   1.921   0.496  1.00  0.00     0.014 C 
HETATM    2  C2  UNL     1       4.161   1.105  -0.191  1.00  0.00    -0.098 C 
HETATM    3  C3  UNL     1       3.470   0.130  -1.032  1.00  0.00     0.215 C 
ENDROOT
BRANCH   3   4
HETATM    4  N1  UNL     1       2.359  -0.423  -0.313  1.00  0.00    -0.356 N 
ATOM      5  H1  UNL     1       2.161  -0.118   0.640  1.00  0.00     0.162 HD
BRANCH   4   6
HETATM    6  C4  UNL     1       1.541  -1.392  -0.932  1.00  0.00     0.187 C 
HETATM    7  S1  UNL     1       1.870  -1.879  -2.475  1.00  0.00    -0.040 SA
BRANCH   6   8
HETATM    8  N2  UNL     1       0.414  -1.969  -0.232  1.00  0.00    -0.277 N 
ATOM      9  H2  UNL     1      -0.177  -2.670  -0.679  1.00  0.00     0.189 HD
BRANCH   8  10
HETATM   10  N3  UNL     1       0.167  -1.560   1.015  1.00  0.00    -0.308 N 
HETATM   11  C5  UNL     1      -0.693  -0.864   1.538  1.00  0.00     0.136 C 
ATOM     12  H3  UNL     1       0.853  -1.908   1.686  1.00  0.00     0.186 HD
BRANCH  11  13
HETATM   13  C6  UNL     1      -1.819  -0.205   0.897  1.00  0.00     0.049 A 
HETATM   14  C7  UNL     1      -2.139  -0.235  -0.417  1.00  0.00     0.031 A 
HETATM   15  C8  UNL     1      -3.257   0.445  -0.917  1.00  0.00     0.004 A 
HETATM   16  C9  UNL     1      -4.076   1.171  -0.088  1.00  0.00     0.017 A 
HETATM   17  C10 UNL     1      -3.719   1.178   1.243  1.00  0.00     0.088 A 
HETATM   18  N4  UNL     1      -2.659   0.530   1.699  1.00  0.00    -0.365 N 
ATOM     19  H4  UNL     1      -2.455   0.579   2.697  1.00  0.00     0.165 HD
ENDBRANCH  11  13
ENDBRANCH   8  10
ENDBRANCH   6   8
ENDBRANCH   4   6
ENDBRANCH   3   4
TORSDOF 5
