REMARK  10 active torsions:
REMARK  status: ('A' for Active; 'I' for Inactive)
REMARK       I    between atoms: C1_4  and  N2_5 
REMARK       I    between atoms: C1_4  and  N4_19 
REMARK    1  A    between atoms: N2_5  and  C2_7 
REMARK    2  A    between atoms: C2_7  and  C3_8 
REMARK    3  A    between atoms: C4_9  and  C5_10 
REMARK    4  A    between atoms: C5_10  and  C6_11 
REMARK    5  A    between atoms: C6_11  and  C7_12 
REMARK    6  A    between atoms: C8_13  and  C9_14 
REMARK    7  A    between atoms: C9_14  and  N3_15 
REMARK    8  A    between atoms: N3_15  and  C10_17 
REMARK       I    between atoms: N5_27  and  C18_28 
REMARK    9  A    between atoms: C18_28  and  C19_30 
REMARK   10  A    between atoms: C19_30  and  N6_31 
ROOT
HETATM    1  N1  UNL     1       2.596   1.859  -1.385  1.00  0.00    -0.235 N 
ATOM      2  H11 UNL     1       2.023   2.277  -2.118  1.00  0.00     0.174 HD
ATOM      3  H12 UNL     1       3.609   1.887  -1.501  1.00  0.00     0.174 HD
HETATM    4  C1  UNL     1       2.078   1.312  -0.351  1.00  0.00     0.670 C 
HETATM    5  N2  UNL     1       2.871   0.734   0.663  1.00  0.00    -0.216 N 
ATOM      6  H2  UNL     1       2.578   0.819   1.636  1.00  0.00     0.178 HD
HETATM    7  N4  UNL     1       0.650   1.272  -0.188  1.00  0.00    -0.218 N 
HETATM    8  C11 UNL     1      -0.161   2.435  -0.270  1.00  0.00     0.142 C 
HETATM    9  C12 UNL     1      -1.571   2.257  -0.705  1.00  0.00     0.032 C 
HETATM   10  C13 UNL     1      -2.144   0.920  -0.285  1.00  0.00    -0.020 C 
HETATM   11  C14 UNL     1      -1.196  -0.206  -0.628  1.00  0.00     0.032 C 
HETATM   12  C15 UNL     1       0.099  -0.030   0.079  1.00  0.00     0.142 C 
HETATM   13  C16 UNL     1      -2.481   0.901   1.191  1.00  0.00     0.031 C 
HETATM   14  C17 UNL     1      -3.432  -0.277   1.244  1.00  0.00     0.126 C 
HETATM   15  N5  UNL     1      -4.226  -0.155   0.012  1.00  0.00    -0.350 N 
HETATM   16  C18 UNL     1      -5.497  -0.716  -0.241  1.00  0.00     0.237 C 
HETATM   17  O2  UNL     1      -6.098  -0.552  -1.330  1.00  0.00    -0.272 OA
HETATM   18  C24 UNL     1      -3.463   0.662  -0.925  1.00  0.00     0.135 C 
ENDROOT
BRANCH   5  19
HETATM   19  C2  UNL     1       4.074   0.033   0.354  1.00  0.00     0.232 C 
BRANCH  19  20
HETATM   20  C3  UNL     1       5.074   0.980  -0.136  1.00  0.00    -0.086 C 
HETATM   21  C4  UNL     1       5.917   1.747  -0.529  1.00  0.00    -0.104 C 
BRANCH  21  22
HETATM   22  C5  UNL     1       6.978   2.673  -0.999  1.00  0.00     0.106 C 
BRANCH  22  23
HETATM   23  C6  UNL     1       7.977   2.899   0.148  1.00  0.00     0.106 C 
BRANCH  23  24
HETATM   24  C7  UNL     1       8.491   1.541   0.452  1.00  0.00    -0.104 C 
HETATM   25  C8  UNL     1       8.886   0.425   0.706  1.00  0.00    -0.087 C 
BRANCH  25  26
HETATM   26  C9  UNL     1       9.335  -0.928   1.018  1.00  0.00     0.216 C 
BRANCH  26  27
HETATM   27  N3  UNL     1       9.913  -1.518  -0.191  1.00  0.00    -0.358 N 
ATOM     28  H3  UNL     1       9.951  -0.981  -1.057  1.00  0.00     0.162 HD
BRANCH  27  29
HETATM   29  C10 UNL     1      10.419  -2.839  -0.149  1.00  0.00     0.349 C 
HETATM   30  O1  UNL     1      10.369  -3.502   0.938  1.00  0.00    -0.284 OA
ENDBRANCH  27  29
ENDBRANCH  26  27
ENDBRANCH  25  26
ENDBRANCH  23  24
ENDBRANCH  22  23
ENDBRANCH  21  22
ENDBRANCH  19  20
ENDBRANCH   5  19
BRANCH  16  31
HETATM   31  C19 UNL     1      -6.151  -1.524   0.806  1.00  0.00     0.228 C 
BRANCH  31  32
HETATM   32  N6  UNL     1      -7.432  -2.035   0.423  1.00  0.00    -0.343 N 
HETATM   33  C20 UNL     1      -8.696  -1.359   0.637  1.00  0.00     0.127 C 
HETATM   34  C21 UNL     1      -9.432  -1.661  -0.651  1.00  0.00     0.029 C 
HETATM   35  C22 UNL     1      -9.021  -3.056  -0.980  1.00  0.00     0.104 C 
HETATM   36  C23 UNL     1      -7.761  -3.270  -0.225  1.00  0.00     0.220 C 
HETATM   37  O3  UNL     1      -7.062  -4.317  -0.131  1.00  0.00    -0.273 OA
ENDBRANCH  31  32
ENDBRANCH  16  31
TORSDOF 10
