REMARK  8 active torsions:
REMARK  status: ('A' for Active; 'I' for Inactive)
REMARK    1  A    between atoms: O1_1  and  C1_3 
REMARK    2  A    between atoms: C1_3  and  N1_4 
REMARK    3  A    between atoms: N1_4  and  C2_7 
REMARK    4  A    between atoms: C2_7  and  N2_8 
REMARK    5  A    between atoms: N2_8  and  N3_10 
REMARK    6  A    between atoms: C3_12  and  N4_13 
REMARK    7  A    between atoms: N4_13  and  N5_15 
REMARK    8  A    between atoms: N5_15  and  C4_17 
ROOT
HETATM    1  N3  UNL     1       0.552  -0.081  -1.488  1.00  0.00    -0.298 N 
ATOM      2  H3  UNL     1       0.401  -0.257  -2.481  1.00  0.00     0.187 HD
HETATM    3  C3  UNL     1      -0.397   0.545  -0.953  1.00  0.00     0.214 C 
ENDROOT
BRANCH   3   4
HETATM    4  N4  UNL     1      -1.447   0.870  -1.852  1.00  0.00    -0.281 N 
ATOM      5  H4  UNL     1      -1.191   1.085  -2.816  1.00  0.00     0.188 HD
BRANCH   4   6
HETATM    6  N5  UNL     1      -2.736   0.916  -1.537  1.00  0.00    -0.129 N 
ATOM      7  H5  UNL     1      -3.293   1.227  -2.333  1.00  0.00     0.205 HD
BRANCH   6   8
HETATM    8  C4  UNL     1      -3.450   0.692  -0.565  1.00  0.00     0.719 A 
HETATM    9  N6  UNL     1      -3.251   0.279   0.710  1.00  0.00    -0.087 N 
HETATM   10  O2  UNL     1      -4.369   0.191   1.365  1.00  0.00    -0.192 OA
ATOM     11  H6  UNL     1      -2.336   0.064   1.106  1.00  0.00     0.214 HD
HETATM   12  C5  UNL     1      -5.346   0.551   0.556  1.00  0.00     0.254 A 
HETATM   13  S1  UNL     1      -6.952   0.619   0.877  1.00  0.00    -0.030 SA
HETATM   14  N7  UNL     1      -4.815   0.866  -0.633  1.00  0.00    -0.155 N 
ATOM     15  H7  UNL     1      -5.335   1.182  -1.452  1.00  0.00     0.187 HD
ENDBRANCH   6   8
ENDBRANCH   4   6
ENDBRANCH   3   4
BRANCH   1  16
HETATM   16  N2  UNL     1       1.713  -0.566  -1.045  1.00  0.00    -0.310 N 
ATOM     17  H2  UNL     1       2.253  -1.205  -1.629  1.00  0.00     0.182 HD
BRANCH  16  18
HETATM   18  C2  UNL     1       2.222  -0.180   0.294  1.00  0.00     0.373 C 
BRANCH  18  19
HETATM   19  N1  UNL     1       3.493  -0.815   0.629  1.00  0.00    -0.038 N 
ATOM     20  H12 UNL     1       3.804  -1.483  -0.076  1.00  0.00     0.281 HD
ATOM     21  H11 UNL     1       3.419  -1.470   1.408  1.00  0.00     0.281 HD
BRANCH  19  22
HETATM   22  C1  UNL     1       4.477   0.272   0.874  1.00  0.00     0.398 C 
BRANCH  22  23
HETATM   23  O1  UNL     1       5.705  -0.165   1.291  1.00  0.00    -0.374 OA
ATOM     24  H1  UNL     1       6.334   0.530   1.448  1.00  0.00     0.211 HD
ENDBRANCH  22  23
ENDBRANCH  19  22
ENDBRANCH  18  19
ENDBRANCH  16  18
ENDBRANCH   1  16
TORSDOF 8
