REMARK  7 active torsions:
REMARK  status: ('A' for Active; 'I' for Inactive)
REMARK    1  A    between atoms: N1_1  and  C1_5 
REMARK    2  A    between atoms: C1_5  and  C2_6 
REMARK    3  A    between atoms: C2_6  and  C3_7 
REMARK    4  A    between atoms: N2_9  and  C5_10 
REMARK    5  A    between atoms: C5_10  and  C6_11 
REMARK    6  A    between atoms: C8_16  and  N4_17 
REMARK    7  A    between atoms: C9_21  and  O1_22 
ROOT
HETATM    1  C6  UNL     1      -1.662  -0.045   0.792  1.00  0.00     0.236 C 
HETATM    2  N3  UNL     1      -2.683   0.551   1.636  1.00  0.00    -0.065 N 
ATOM      3  H31 UNL     1      -2.327   1.204   2.334  1.00  0.00     0.277 HD
ATOM      4  H32 UNL     1      -3.111  -0.093   2.301  1.00  0.00     0.277 HD
HETATM    5  C7  UNL     1      -3.604   1.132   0.686  1.00  0.00     0.268 C 
HETATM    6  C8  UNL     1      -3.788  -0.008  -0.292  1.00  0.00     0.239 C 
HETATM    7  C9  UNL     1      -2.368  -0.497  -0.464  1.00  0.00     0.182 C 
ENDROOT
BRANCH   1   8
HETATM    8  C5  UNL     1      -0.641   1.024   0.521  1.00  0.00     0.181 C 
BRANCH   8   9
HETATM    9  N2  UNL     1       0.442   0.560  -0.315  1.00  0.00    -0.283 N 
HETATM   10  C4  UNL     1       1.565   0.008   0.172  1.00  0.00     0.134 A 
HETATM   11  C3  UNL     1       2.401  -0.328  -0.884  1.00  0.00     0.042 A 
HETATM   12  N6  UNL     1       1.737   0.042  -1.984  1.00  0.00    -0.287 N 
HETATM   13  N5  UNL     1       0.566   0.573  -1.634  1.00  0.00    -0.020 NA
ATOM     14  H6  UNL     1       2.074  -0.065  -2.941  1.00  0.00     0.184 HD
BRANCH  11  15
HETATM   15  C2  UNL     1       3.742  -0.963  -0.769  1.00  0.00     0.087 C 
BRANCH  15  16
HETATM   16  C1  UNL     1       4.807   0.124  -0.661  1.00  0.00     0.235 C 
BRANCH  16  17
HETATM   17  N1  UNL     1       6.112  -0.487  -0.549  1.00  0.00    -0.079 N 
ATOM     18  H13 UNL     1       6.161  -1.152   0.223  1.00  0.00     0.274 HD
ATOM     19  H12 UNL     1       6.300  -1.136  -1.313  1.00  0.00     0.274 HD
ATOM     20  H11 UNL     1       6.824   0.240  -0.477  1.00  0.00     0.274 HD
ENDBRANCH  16  17
ENDBRANCH  15  16
ENDBRANCH  11  15
ENDBRANCH   8   9
ENDBRANCH   1   8
BRANCH   7  21
HETATM   21  O1  UNL     1      -2.348  -1.881  -0.599  1.00  0.00    -0.391 OA
ATOM     22  H1  UNL     1      -2.792  -2.165  -1.389  1.00  0.00     0.210 HD
ENDBRANCH   7  21
BRANCH   6  23
HETATM   23  N4  UNL     1      -4.627  -1.000   0.368  1.00  0.00    -0.071 N 
ATOM     24  H43 UNL     1      -4.259  -1.301   1.271  1.00  0.00     0.274 HD
ATOM     25  H42 UNL     1      -5.509  -0.617   0.709  1.00  0.00     0.274 HD
ATOM     26  H41 UNL     1      -4.751  -1.768  -0.291  1.00  0.00     0.274 HD
ENDBRANCH   6  23
TORSDOF 7
