REMARK  8 active torsions:
REMARK  status: ('A' for Active; 'I' for Inactive)
REMARK    1  A    between atoms: N1_1  and  C1_4 
REMARK    2  A    between atoms: C2_11  and  S1_12 
REMARK    3  A    between atoms: S1_12  and  N5_13 
REMARK    4  A    between atoms: S1_12  and  N6_17 
REMARK    5  A    between atoms: N6_17  and  C3_19 
REMARK    6  A    between atoms: C3_19  and  C4_20 
REMARK    7  A    between atoms: C4_20  and  C5_21 
REMARK    8  A    between atoms: C5_21  and  N7_22 
ROOT
HETATM    1  S1  UNL     1       0.781   0.776  -0.815  1.00  0.00     0.167 S 
HETATM    2  O1  UNL     1       0.588   2.238  -0.593  1.00  0.00    -0.221 OA
ENDROOT
BRANCH   1   3
HETATM    3  C2  UNL     1       2.286   0.201  -0.139  1.00  0.00     0.232 A 
HETATM    4  N4  UNL     1       3.254  -0.340  -0.899  1.00  0.00    -0.260 N 
HETATM    5  N3  UNL     1       4.401  -0.782  -0.409  1.00  0.00    -0.226 N 
ATOM      6  H4  UNL     1       3.096  -0.413  -1.904  1.00  0.00     0.190 HD
HETATM    7  N2  UNL     1       4.623  -0.695   0.890  1.00  0.00    -0.118 N 
ATOM      8  H3  UNL     1       5.105  -1.185  -1.027  1.00  0.00     0.209 HD
HETATM    9  C1  UNL     1       3.684  -0.161   1.689  1.00  0.00     0.693 A 
ATOM     10  H2  UNL     1       5.502  -1.031   1.284  1.00  0.00     0.207 HD
HETATM   11  N8  UNL     1       2.513   0.289   1.183  1.00  0.00    -0.163 N 
ATOM     12  H8  UNL     1       1.808   0.692   1.800  1.00  0.00     0.186 HD
BRANCH   9  13
HETATM   13  N1  UNL     1       3.944  -0.097   2.946  1.00  0.00    -0.233 N 
ATOM     14  H12 UNL     1       4.827  -0.436   3.328  1.00  0.00     0.174 HD
ATOM     15  H11 UNL     1       3.231   0.308   3.553  1.00  0.00     0.174 HD
ENDBRANCH   9  13
ENDBRANCH   1   3
BRANCH   1  16
HETATM   16  N5  UNL     1       0.790   0.515  -2.341  1.00  0.00    -0.339 N 
ATOM     17  H52 UNL     1       1.556   0.078  -2.853  1.00  0.00     0.167 HD
ATOM     18  H51 UNL     1      -0.089   0.851  -2.736  1.00  0.00     0.167 HD
ENDBRANCH   1  16
BRANCH   1  19
HETATM   19  N6  UNL     1      -0.579  -0.056  -0.150  1.00  0.00    -0.330 N 
ATOM     20  H6  UNL     1      -0.646  -0.456   0.786  1.00  0.00     0.171 HD
BRANCH  19  21
HETATM   21  C3  UNL     1      -1.606  -0.079  -1.170  1.00  0.00     0.132 C 
BRANCH  21  22
HETATM   22  C4  UNL     1      -2.865  -0.783  -0.721  1.00  0.00     0.047 C 
BRANCH  22  23
HETATM   23  C5  UNL     1      -3.405  -0.046   0.491  1.00  0.00     0.231 C 
BRANCH  23  24
HETATM   24  N7  UNL     1      -2.492  -0.015   1.590  1.00  0.00    -0.079 N 
ATOM     25  H73 UNL     1      -2.197  -0.958   1.842  1.00  0.00     0.274 HD
ATOM     26  H72 UNL     1      -1.593   0.372   1.303  1.00  0.00     0.274 HD
ATOM     27  H71 UNL     1      -2.855   0.480   2.404  1.00  0.00     0.274 HD
ENDBRANCH  23  24
ENDBRANCH  22  23
ENDBRANCH  21  22
ENDBRANCH  19  21
ENDBRANCH   1  19
TORSDOF 8
