REMARK  6 active torsions:
REMARK  status: ('A' for Active; 'I' for Inactive)
REMARK    1  A    between atoms: N1_1  and  C1_4 
REMARK    2  A    between atoms: C4_10  and  N3_11 
REMARK    3  A    between atoms: N3_11  and  C5_13 
REMARK    4  A    between atoms: C5_13  and  C6_14 
REMARK    5  A    between atoms: C6_14  and  C7_15 
REMARK    6  A    between atoms: C7_15  and  N4_16 
ROOT
HETATM    1  C1  UNL     1       4.506  -0.218  -0.072  1.00  0.00     0.695 A 
HETATM    2  N2  UNL     1       3.883   0.944  -0.351  1.00  0.00    -0.153 N 
ATOM      3  H2  UNL     1       4.402   1.785  -0.605  1.00  0.00     0.187 HD
HETATM    4  C2  UNL     1       2.540   0.935  -0.277  1.00  0.00     0.294 A 
HETATM    5  O1  UNL     1       1.906   1.988  -0.526  1.00  0.00    -0.265 OA
HETATM    6  C3  UNL     1       1.819  -0.191   0.065  1.00  0.00     0.190 A 
HETATM    7  C4  UNL     1       0.471  -0.443   0.206  1.00  0.00     0.153 A 
HETATM    8  N5  UNL     1       0.400  -1.744   0.560  1.00  0.00    -0.267 N 
ATOM      9  H5  UNL     1      -0.458  -2.264   0.746  1.00  0.00     0.190 HD
HETATM   10  N6  UNL     1       1.631  -2.234   0.626  1.00  0.00    -0.219 N 
ATOM     11  H6  UNL     1       1.857  -3.197   0.874  1.00  0.00     0.210 HD
HETATM   12  N7  UNL     1       2.514  -1.320   0.332  1.00  0.00    -0.158 N 
HETATM   13  N8  UNL     1       3.835  -1.331   0.264  1.00  0.00    -0.109 N 
ATOM     14  H8  UNL     1       4.346  -2.190   0.468  1.00  0.00     0.208 HD
ENDROOT
BRANCH   7  15
HETATM   15  N3  UNL     1      -0.610   0.458   0.021  1.00  0.00    -0.373 N 
ATOM     16  H3  UNL     1      -0.423   1.424  -0.249  1.00  0.00     0.161 HD
BRANCH  15  17
HETATM   17  C5  UNL     1      -1.978   0.016   0.213  1.00  0.00     0.123 C 
BRANCH  17  18
HETATM   18  C6  UNL     1      -2.960   1.137  -0.036  1.00  0.00     0.047 C 
BRANCH  18  19
HETATM   19  C7  UNL     1      -4.346   0.602   0.183  1.00  0.00     0.231 C 
BRANCH  19  20
HETATM   20  N4  UNL     1      -4.569  -0.480  -0.738  1.00  0.00    -0.079 N 
ATOM     21  H43 UNL     1      -4.403  -0.209  -1.707  1.00  0.00     0.274 HD
ATOM     22  H42 UNL     1      -3.855  -1.205  -0.671  1.00  0.00     0.274 HD
ATOM     23  H41 UNL     1      -5.510  -0.843  -0.589  1.00  0.00     0.274 HD
ENDBRANCH  19  20
ENDBRANCH  18  19
ENDBRANCH  17  18
ENDBRANCH  15  17
ENDBRANCH   7  15
BRANCH   1  24
HETATM   24  N1  UNL     1       5.779  -0.251  -0.131  1.00  0.00    -0.233 N 
ATOM     25  H12 UNL     1       6.289   0.595  -0.386  1.00  0.00     0.174 HD
ATOM     26  H11 UNL     1       6.251  -1.130   0.080  1.00  0.00     0.174 HD
ENDBRANCH   1  24
TORSDOF 6
