REMARK  6 active torsions:
REMARK  status: ('A' for Active; 'I' for Inactive)
REMARK    1  A    between atoms: N1_1  and  C1_5 
REMARK    2  A    between atoms: C1_5  and  C2_6 
REMARK    3  A    between atoms: C2_6  and  C3_7 
REMARK    4  A    between atoms: C3_7  and  N2_8 
REMARK    5  A    between atoms: C3_7  and  C7_17 
REMARK    6  A    between atoms: N2_8  and  C4_10 
ROOT
HETATM    1  C3  UNL     1      -0.340   0.386   0.187  1.00  0.00     0.150 C 
ENDROOT
BRANCH   1   2
HETATM    2  C2  UNL     1      -1.091  -0.636  -0.583  1.00  0.00     0.060 C 
BRANCH   2   3
HETATM    3  C1  UNL     1      -2.319  -1.208   0.067  1.00  0.00     0.232 C 
BRANCH   3   4
HETATM    4  N1  UNL     1      -2.869  -2.169  -0.881  1.00  0.00    -0.079 N 
ATOM      5  H13 UNL     1      -3.045  -1.773  -1.804  1.00  0.00     0.274 HD
ATOM      6  H12 UNL     1      -2.198  -2.878  -1.176  1.00  0.00     0.274 HD
ATOM      7  H11 UNL     1      -3.703  -2.557  -0.440  1.00  0.00     0.274 HD
ENDBRANCH   3   4
ENDBRANCH   2   3
ENDBRANCH   1   2
BRANCH   1   8
HETATM    8  N2  UNL     1       0.850   0.822  -0.478  1.00  0.00    -0.389 N 
ATOM      9  H2  UNL     1       0.933   1.770  -0.846  1.00  0.00     0.156 HD
BRANCH   8  10
HETATM   10  C4  UNL     1       1.914  -0.114  -0.608  1.00  0.00     0.196 C 
HETATM   11  C5  UNL     1       3.198   0.384   0.089  1.00  0.00     0.166 C 
HETATM   12  N3  UNL     1       3.856  -0.922   0.215  1.00  0.00    -0.383 N 
HETATM   13  C6  UNL     1       2.781  -1.797   0.584  1.00  0.00     0.173 C 
ATOM     14  H3  UNL     1       4.840  -1.152   0.074  1.00  0.00     0.160 HD
HETATM   15  N4  UNL     1       1.694  -1.337   0.120  1.00  0.00    -0.364 N 
ATOM     16  H4  UNL     1       0.782  -1.776   0.246  1.00  0.00     0.162 HD
ENDBRANCH   8  10
ENDBRANCH   1   8
BRANCH   1  17
HETATM   17  C7  UNL     1      -1.203   1.622   0.300  1.00  0.00     0.136 A 
HETATM   18  N5  UNL     1      -0.795   2.804   0.813  1.00  0.00    -0.270 N 
HETATM   19  N6  UNL     1      -1.804   3.690   0.745  1.00  0.00    -0.227 N 
ATOM     20  H5  UNL     1       0.133   2.994   1.192  1.00  0.00     0.190 HD
HETATM   21  N7  UNL     1      -2.837   3.082   0.197  1.00  0.00    -0.227 N 
ATOM     22  H6  UNL     1      -1.775   4.659   1.061  1.00  0.00     0.210 HD
HETATM   23  N8  UNL     1      -2.465   1.828  -0.070  1.00  0.00    -0.270 N 
ATOM     24  H7  UNL     1      -3.752   3.494   0.011  1.00  0.00     0.210 HD
ATOM     25  H8  UNL     1      -3.066   1.124  -0.499  1.00  0.00     0.190 HD
ENDBRANCH   1  17
TORSDOF 6
