REMARK  6 active torsions:
REMARK  status: ('A' for Active; 'I' for Inactive)
REMARK    1  A    between atoms: N1_1  and  C1_4 
REMARK    2  A    between atoms: N5_11  and  C3_12 
REMARK    3  A    between atoms: C3_12  and  N6_13 
REMARK    4  A    between atoms: N6_13  and  C4_16 
REMARK    5  A    between atoms: C4_16  and  C5_17 
REMARK    6  A    between atoms: C5_17  and  N7_18 
ROOT
HETATM    1  C3  UNL     1      -0.911  -0.809   1.019  1.00  0.00     0.384 C 
ENDROOT
BRANCH   1   2
HETATM    2  N5  UNL     1      -2.037  -0.610   0.162  1.00  0.00    -0.234 N 
HETATM    3  C1  UNL     1      -3.047   0.239   0.290  1.00  0.00     0.162 A 
HETATM    4  C2  UNL     1      -3.895   0.064  -0.791  1.00  0.00     0.177 A 
HETATM    5  N2  UNL     1      -5.090   0.732  -1.090  1.00  0.00    -0.077 NA
HETATM    6  N3  UNL     1      -3.343  -0.899  -1.531  1.00  0.00    -0.270 N 
HETATM    7  N4  UNL     1      -2.232  -1.296  -0.953  1.00  0.00    -0.236 N 
ATOM      8  H3  UNL     1      -3.722  -1.267  -2.404  1.00  0.00     0.190 HD
ATOM      9  H4  UNL     1      -1.613  -2.024  -1.310  1.00  0.00     0.208 HD
BRANCH   3  10
HETATM   10  N1  UNL     1      -3.218   1.068   1.232  1.00  0.00    -0.381 N 
ATOM     11  H12 UNL     1      -3.995   1.721   1.330  1.00  0.00     0.157 HD
ATOM     12  H11 UNL     1      -2.593   1.197   2.028  1.00  0.00     0.157 HD
ENDBRANCH   3  10
ENDBRANCH   1   2
BRANCH   1  13
HETATM   13  N6  UNL     1       0.227   0.016   0.695  1.00  0.00    -0.056 N 
ATOM     14  H62 UNL     1       0.529  -0.079  -0.275  1.00  0.00     0.279 HD
ATOM     15  H61 UNL     1       0.006   1.011   0.664  1.00  0.00     0.279 HD
BRANCH  13  16
HETATM   16  C4  UNL     1       1.268  -0.308   1.651  1.00  0.00     0.255 C 
BRANCH  16  17
HETATM   17  C5  UNL     1       2.520   0.498   1.422  1.00  0.00     0.175 C 
BRANCH  17  18
HETATM   18  N7  UNL     1       3.102   0.298   0.122  1.00  0.00    -0.302 N 
HETATM   19  C6  UNL     1       2.786   1.039  -0.956  1.00  0.00     0.111 A 
HETATM   20  C7  UNL     1       3.543   0.556  -2.020  1.00  0.00     0.037 A 
HETATM   21  C8  UNL     1       4.304  -0.482  -1.533  1.00  0.00     0.108 A 
HETATM   22  N8  UNL     1       4.008  -0.605  -0.238  1.00  0.00    -0.310 N 
ATOM     23  H8  UNL     1       4.420  -1.296   0.389  1.00  0.00     0.186 HD
ENDBRANCH  17  18
ENDBRANCH  16  17
ENDBRANCH  13  16
ENDBRANCH   1  13
TORSDOF 6
