REMARK  7 active torsions:
REMARK  status: ('A' for Active; 'I' for Inactive)
REMARK    1  A    between atoms: C2_2  and  N1_3 
REMARK    2  A    between atoms: C2_2  and  C3_7 
REMARK    3  A    between atoms: C3_7  and  N2_8 
REMARK    4  A    between atoms: C3_7  and  C4_12 
REMARK       I    between atoms: C4_12  and  N3_14 
REMARK    5  A    between atoms: N3_14  and  C5_16 
REMARK    6  A    between atoms: C6_19  and  N5_20 
REMARK    7  A    between atoms: N5_20  and  N6_22 
ROOT
HETATM    1  C5  UNL     1       1.144  -0.617   0.846  1.00  0.00     0.169 A 
HETATM    2  N4  UNL     1       1.615   0.410   0.152  1.00  0.00    -0.168 N 
ATOM      3  H4  UNL     1       0.940   1.108  -0.160  1.00  0.00     0.186 HD
HETATM    4  C6  UNL     1       2.919   0.616  -0.181  1.00  0.00     0.700 A 
HETATM    5  N7  UNL     1       3.931  -0.174   0.134  1.00  0.00    -0.169 N 
ATOM      6  H7  UNL     1       4.851   0.123  -0.191  1.00  0.00     0.186 HD
HETATM    7  C7  UNL     1       3.892  -1.320   0.830  1.00  0.00     0.160 A 
HETATM    8  N8  UNL     1       4.960  -2.012   1.076  1.00  0.00    -0.379 N 
ATOM      9  H81 UNL     1       4.930  -2.883   1.605  1.00  0.00     0.158 HD
ATOM     10  H82 UNL     1       5.898  -1.754   0.771  1.00  0.00     0.158 HD
HETATM   11  S1  UNL     1       2.306  -1.756   1.346  1.00  0.00    -0.017 SA
ENDROOT
BRANCH   1  12
HETATM   12  N3  UNL     1      -0.112  -0.772   1.140  1.00  0.00    -0.305 N 
HETATM   13  C4  UNL     1      -1.119   0.117   0.765  1.00  0.00     0.256 C 
HETATM   14  O1  UNL     1      -1.129   1.263   1.314  1.00  0.00    -0.271 OA
ATOM     15  H3  UNL     1      -0.378  -1.596   1.679  1.00  0.00     0.171 HD
BRANCH  13  16
HETATM   16  C3  UNL     1      -2.159  -0.229  -0.237  1.00  0.00     0.304 C 
BRANCH  16  17
HETATM   17  C2  UNL     1      -3.519  -0.070   0.405  1.00  0.00     0.219 C 
HETATM   18  C1  UNL     1      -3.749   1.330   0.866  1.00  0.00     0.042 C 
BRANCH  17  19
HETATM   19  N1  UNL     1      -4.588  -0.470  -0.468  1.00  0.00    -0.073 N 
ATOM     20  H13 UNL     1      -5.504  -0.353  -0.034  1.00  0.00     0.274 HD
ATOM     21  H12 UNL     1      -4.711   0.177  -1.247  1.00  0.00     0.274 HD
ATOM     22  H11 UNL     1      -4.431  -1.427  -0.783  1.00  0.00     0.274 HD
ENDBRANCH  17  19
ENDBRANCH  16  17
BRANCH  16  23
HETATM   23  N2  UNL     1      -1.912  -1.563  -0.689  1.00  0.00    -0.064 N 
ATOM     24  H23 UNL     1      -2.039  -2.235   0.068  1.00  0.00     0.275 HD
ATOM     25  H22 UNL     1      -2.651  -1.879  -1.317  1.00  0.00     0.275 HD
ATOM     26  H21 UNL     1      -0.995  -1.670  -1.122  1.00  0.00     0.275 HD
ENDBRANCH  16  23
ENDBRANCH  13  16
ENDBRANCH   1  12
BRANCH   4  27
HETATM   27  N5  UNL     1       3.161   1.698  -0.871  1.00  0.00    -0.138 N 
ATOM     28  H5  UNL     1       2.406   2.332  -1.132  1.00  0.00     0.205 HD
BRANCH  27  29
HETATM   29  N6  UNL     1       4.467   1.961  -1.238  1.00  0.00    -0.331 N 
ATOM     30  H62 UNL     1       5.211   1.317  -0.969  1.00  0.00     0.177 HD
ATOM     31  H61 UNL     1       4.656   2.806  -1.777  1.00  0.00     0.177 HD
ENDBRANCH  27  29
ENDBRANCH   4  27
TORSDOF 7
