REMARK  4 active torsions:
REMARK  status: ('A' for Active; 'I' for Inactive)
REMARK    1  A    between atoms: S1_2  and  N1_5 
REMARK       I    between atoms: N1_5  and  C2_7 
REMARK    2  A    between atoms: C2_7  and  C3_9 
REMARK    3  A    between atoms: C5_14  and  N4_15 
REMARK    4  A    between atoms: C6_20  and  N6_21 
ROOT
HETATM    1  C3  UNL     1      -0.674  -0.111   0.023  1.00  0.00     0.118 A 
HETATM    2  C4  UNL     1      -1.387   0.689  -0.859  1.00  0.00     0.151 A 
HETATM    3  N2  UNL     1      -0.716   1.299  -1.966  1.00  0.00    -0.081 NA
HETATM    4  N3  UNL     1      -2.696   0.889  -0.674  1.00  0.00    -0.178 N 
ATOM      5  H3  UNL     1      -3.189   1.483  -1.340  1.00  0.00     0.185 HD
HETATM    6  C5  UNL     1      -3.398   0.355   0.335  1.00  0.00     0.678 A 
HETATM    7  N5  UNL     1      -2.720  -0.415   1.187  1.00  0.00    -0.176 N 
ATOM      8  H5  UNL     1      -3.222  -0.838   1.968  1.00  0.00     0.186 HD
HETATM    9  C6  UNL     1      -1.387  -0.662   1.061  1.00  0.00     0.134 A 
ENDROOT
BRANCH   1  10
HETATM   10  C2  UNL     1       0.729  -0.297  -0.215  1.00  0.00     0.272 C 
HETATM   11  N1  UNL     1       1.653  -1.053   0.530  1.00  0.00    -0.250 N 
ATOM     12  H1  UNL     1       1.358  -1.564   1.362  1.00  0.00     0.181 HD
HETATM   13  O3  UNL     1       1.244   0.294  -1.239  1.00  0.00    -0.266 OA
BRANCH  11  14
HETATM   14  S1  UNL     1       3.317  -1.098  -0.002  1.00  0.00     0.229 S 
HETATM   15  C1  UNL     1       4.013   0.538  -0.016  1.00  0.00     0.186 C 
HETATM   16  O1  UNL     1       3.380  -1.733  -1.377  1.00  0.00    -0.206 OA
HETATM   17  O2  UNL     1       4.081  -1.982   0.931  1.00  0.00    -0.206 OA
ENDBRANCH  11  14
ENDBRANCH   1  10
BRANCH   9  18
HETATM   18  N6  UNL     1      -0.819  -1.413   1.924  1.00  0.00    -0.384 N 
ATOM     19  H62 UNL     1       0.180  -1.598   1.830  1.00  0.00     0.157 HD
ATOM     20  H61 UNL     1      -1.348  -1.822   2.694  1.00  0.00     0.157 HD
ENDBRANCH   9  18
BRANCH   6  21
HETATM   21  N4  UNL     1      -4.677   0.574   0.481  1.00  0.00    -0.234 N 
ATOM     22  H42 UNL     1      -5.196   1.163  -0.171  1.00  0.00     0.174 HD
ATOM     23  H41 UNL     1      -5.211   0.168   1.249  1.00  0.00     0.174 HD
ENDBRANCH   6  21
TORSDOF 4
