REMARK  6 active torsions:
REMARK  status: ('A' for Active; 'I' for Inactive)
REMARK    1  A    between atoms: C2_2  and  N1_3 
REMARK    2  A    between atoms: C3_4  and  N2_5 
REMARK    3  A    between atoms: N2_5  and  N3_7 
REMARK    4  A    between atoms: C4_12  and  C5_13 
REMARK    5  A    between atoms: C5_13  and  N5_14 
REMARK    6  A    between atoms: C5_13  and  C6_18 
REMARK       I    between atoms: C6_18  and  N6_20 
ROOT
HETATM    1  N1  UNL     1      -2.173   0.547  -0.653  1.00  0.00    -0.119 N 
HETATM    2  C3  UNL     1      -2.037  -0.034   0.537  1.00  0.00     0.706 A 
HETATM    3  N4  UNL     1      -0.869  -0.660   0.865  1.00  0.00    -0.189 N 
ATOM      4  H4  UNL     1      -0.788  -1.099   1.782  1.00  0.00     0.184 HD
HETATM    5  C4  UNL     1       0.171  -0.720   0.031  1.00  0.00     0.096 A 
HETATM    6  C8  UNL     1       0.058  -0.128  -1.205  1.00  0.00     0.141 A 
HETATM    7  N7  UNL     1       1.138  -0.164  -2.133  1.00  0.00    -0.094 NA
HETATM    8  C9  UNL     1      -1.113   0.498  -1.533  1.00  0.00     0.292 A 
HETATM    9  O2  UNL     1      -1.259   1.057  -2.663  1.00  0.00    -0.265 OA
ENDROOT
BRANCH   5  10
HETATM   10  C5  UNL     1       1.447  -1.419   0.425  1.00  0.00     0.326 C 
BRANCH  10  11
HETATM   11  N5  UNL     1       1.512  -2.753  -0.109  1.00  0.00    -0.061 N 
ATOM     12  H53 UNL     1       0.692  -3.299   0.156  1.00  0.00     0.275 HD
ATOM     13  H52 UNL     1       1.385  -2.754  -1.121  1.00  0.00     0.275 HD
ATOM     14  H51 UNL     1       2.375  -3.226   0.158  1.00  0.00     0.275 HD
ENDBRANCH  10  11
BRANCH  10  15
HETATM   15  C6  UNL     1       2.638  -0.609   0.067  1.00  0.00     0.254 C 
HETATM   16  O1  UNL     1       3.594  -1.065  -0.632  1.00  0.00    -0.271 OA
HETATM   17  N6  UNL     1       2.747   0.728   0.504  1.00  0.00    -0.363 N 
HETATM   18  C7  UNL     1       3.880   1.581   0.193  1.00  0.00     0.149 C 
ATOM     19  H6  UNL     1       1.990   1.116   1.068  1.00  0.00     0.161 HD
ENDBRANCH  10  15
ENDBRANCH   5  10
BRANCH   2  20
HETATM   20  N2  UNL     1      -2.990  -0.043   1.388  1.00  0.00    -0.138 N 
ATOM     21  H2  UNL     1      -3.882   0.400   1.167  1.00  0.00     0.205 HD
BRANCH  20  22
HETATM   22  N3  UNL     1      -2.799  -0.664   2.620  1.00  0.00    -0.331 N 
ATOM     23  H32 UNL     1      -1.901  -1.103   2.825  1.00  0.00     0.177 HD
ATOM     24  H31 UNL     1      -3.560  -0.671   3.299  1.00  0.00     0.177 HD
ENDBRANCH  20  22
ENDBRANCH   2  20
BRANCH   1  25
HETATM   25  C2  UNL     1      -3.326   1.225  -1.040  1.00  0.00     0.108 C 
HETATM   26  C1  UNL     1      -4.241   1.773  -0.328  1.00  0.00     0.031 C 
ENDBRANCH   1  25
TORSDOF 6
