REMARK  13 active torsions:
REMARK  status: ('A' for Active; 'I' for Inactive)
REMARK    1  A    between atoms: N1_1  and  C1_4 
REMARK    2  A    between atoms: C1_4  and  N2_5 
REMARK    3  A    between atoms: N2_5  and  N3_7 
REMARK    4  A    between atoms: C2_9  and  C3_10 
REMARK    5  A    between atoms: C2_9  and  C4_17 
REMARK       I    between atoms: C3_10  and  N4_12 
REMARK    6  A    between atoms: N4_12  and  N5_14 
REMARK    7  A    between atoms: C5_19  and  C6_20 
REMARK    8  A    between atoms: C6_20  and  O3_21 
REMARK    9  A    between atoms: C8_24  and  N6_25 
REMARK   10  A    between atoms: C8_24  and  N10_39 
REMARK   11  A    between atoms: N7_28  and  C11_29 
REMARK   12  A    between atoms: C11_29  and  C12_30 
REMARK   13  A    between atoms: C19_44  and  N12_45 
ROOT
HETATM    1  C4  UNL     1      -2.044  -1.091  -0.513  1.00  0.00     0.130 C 
HETATM    2  O2  UNL     1      -2.643  -1.473  -1.700  1.00  0.00    -0.341 OA
HETATM    3  C5  UNL     1      -2.576  -0.402  -2.562  1.00  0.00     0.156 C 
HETATM    4  C7  UNL     1      -1.341   0.318  -2.177  1.00  0.00     0.096 C 
HETATM    5  C8  UNL     1      -1.258   0.120  -0.613  1.00  0.00     0.169 C 
ENDROOT
BRANCH   5   6
HETATM    6  N6  UNL     1       0.118   0.196  -0.400  1.00  0.00    -0.358 N 
HETATM    7  C9  UNL     1       0.775  -0.135   0.775  1.00  0.00     0.080 C 
HETATM    8  C10 UNL     1       2.205   0.382   0.792  1.00  0.00     0.161 C 
HETATM    9  N7  UNL     1       2.899  -0.187  -0.329  1.00  0.00    -0.401 N 
HETATM   10  C15 UNL     1       2.119  -0.270  -1.539  1.00  0.00     0.137 C 
HETATM   11  C16 UNL     1       0.998   0.779  -1.331  1.00  0.00     0.144 C 
BRANCH   9  12
HETATM   12  C11 UNL     1       3.760  -1.276  -0.059  1.00  0.00     0.175 C 
BRANCH  12  13
HETATM   13  C12 UNL     1       4.847  -0.825   0.856  1.00  0.00     0.043 A 
HETATM   14  C13 UNL     1       5.207   0.446   1.254  1.00  0.00     0.115 A 
HETATM   15  N8  UNL     1       6.246   0.424   2.092  1.00  0.00    -0.360 N 
HETATM   16  C14 UNL     1       6.565  -0.873   2.241  1.00  0.00     0.180 A 
ATOM     17  H8  UNL     1       6.703   1.225   2.528  1.00  0.00     0.166 HD
HETATM   18  N9  UNL     1       5.726  -1.636   1.499  1.00  0.00    -0.353 N 
ATOM     19  H9  UNL     1       5.751  -2.654   1.434  1.00  0.00     0.166 HD
ENDBRANCH  12  13
ENDBRANCH   9  12
ENDBRANCH   5   6
BRANCH   5  20
HETATM   20  N10 UNL     1      -2.047   1.254  -0.147  1.00  0.00    -0.293 N 
HETATM   21  C17 UNL     1      -3.392   1.349  -0.138  1.00  0.00     0.188 A 
HETATM   22  N11 UNL     1      -3.813   2.522   0.354  1.00  0.00    -0.346 N 
HETATM   23  C18 UNL     1      -2.747   3.230   0.682  1.00  0.00     0.122 A 
ATOM     24  H11 UNL     1      -4.784   2.816   0.457  1.00  0.00     0.167 HD
HETATM   25  C19 UNL     1      -2.548   4.481   1.223  1.00  0.00     0.131 A 
HETATM   26  C21 UNL     1      -1.640   2.429   0.365  1.00  0.00     0.142 A 
HETATM   27  N13 UNL     1      -1.306   4.980   1.467  1.00  0.00    -0.337 N 
HETATM   28  C20 UNL     1      -0.253   4.194   1.156  1.00  0.00     0.183 A 
ATOM     29  H13 UNL     1      -1.176   5.909   1.868  1.00  0.00     0.168 HD
HETATM   30  N14 UNL     1      -0.477   2.987   0.633  1.00  0.00    -0.336 N 
ATOM     31  H14 UNL     1       0.350   2.431   0.415  1.00  0.00     0.168 HD
BRANCH  25  32
HETATM   32  N12 UNL     1      -3.591   5.193   1.503  1.00  0.00    -0.383 N 
ATOM     33 2H12 UNL     1      -4.522   4.819   1.320  1.00  0.00     0.157 HD
ATOM     34 1H12 UNL     1      -3.444   6.119   1.904  1.00  0.00     0.157 HD
ENDBRANCH  25  32
ENDBRANCH   5  20
BRANCH   1  35
HETATM   35  C2  UNL     1      -1.597  -2.315   0.162  1.00  0.00     0.152 C 
HETATM   36  N3  UNL     1      -1.105  -3.230  -0.592  1.00  0.00    -0.285 N 
ATOM     37  H3  UNL     1      -1.075  -3.077  -1.600  1.00  0.00     0.188 HD
BRANCH  36  38
HETATM   38  N2  UNL     1      -0.618  -4.407  -0.084  1.00  0.00    -0.250 N 
ATOM     39  H2  UNL     1      -0.090  -4.351   0.787  1.00  0.00     0.198 HD
BRANCH  38  40
HETATM   40  C1  UNL     1      -0.762  -5.557  -0.595  1.00  0.00     0.060 C 
BRANCH  40  41
HETATM   41  N1  UNL     1      -1.129  -6.563  -1.257  1.00  0.00    -0.351 N 
ATOM     42  H12 UNL     1      -1.860  -6.034  -1.733  1.00  0.00     0.167 HD
ATOM     43  H11 UNL     1      -1.245  -7.489  -1.669  1.00  0.00     0.167 HD
ENDBRANCH  40  41
ENDBRANCH  38  40
ENDBRANCH  36  38
BRANCH  35  44
HETATM   44  C3  UNL     1      -1.635  -2.535   1.589  1.00  0.00     0.290 C 
HETATM   45  O1  UNL     1      -1.176  -3.613   2.071  1.00  0.00    -0.264 OA
HETATM   46  N4  UNL     1      -2.189  -1.552   2.471  1.00  0.00    -0.271 N 
ATOM     47  H4  UNL     1      -2.567  -0.674   2.114  1.00  0.00     0.189 HD
BRANCH  46  48
HETATM   48  N5  UNL     1      -2.193  -1.842   3.849  1.00  0.00    -0.342 N 
ATOM     49  H52 UNL     1      -1.812  -2.724   4.190  1.00  0.00     0.176 HD
ATOM     50  H51 UNL     1      -2.588  -1.142   4.477  1.00  0.00     0.176 HD
ENDBRANCH  46  48
ENDBRANCH  35  44
ENDBRANCH   1  35
BRANCH   3  51
HETATM   51  C6  UNL     1      -2.359  -0.894  -4.012  1.00  0.00     0.196 C 
BRANCH  51  52
HETATM   52  O3  UNL     1      -2.306   0.247  -4.801  1.00  0.00    -0.398 OA
ATOM     53  H3  UNL     1      -2.173  -0.055  -5.692  1.00  0.00     0.209 HD
ENDBRANCH  51  52
ENDBRANCH   3  51
TORSDOF 13
