REMARK  9 active torsions:
REMARK  status: ('A' for Active; 'I' for Inactive)
REMARK    1  A    between atoms: C2_5  and  C3_6 
REMARK    2  A    between atoms: C3_6  and  C4_7 
REMARK    3  A    between atoms: C4_7  and  S1_8 
REMARK    4  A    between atoms: S1_8  and  C5_9 
REMARK    5  A    between atoms: C5_9  and  C6_10 
REMARK    6  A    between atoms: C6_10  and  C7_11 
REMARK    7  A    between atoms: N7_24  and  N8_26 
REMARK       I    between atoms: N8_26  and  C10_28 
REMARK    8  A    between atoms: C10_28  and  C11_30 
REMARK    9  A    between atoms: C14_36  and  N9_37 
ROOT
HETATM    1  C1  UNL     1       0.599   4.085   0.893  1.00  0.00     0.180 C 
HETATM    2  N1  UNL     1       0.446   2.610   0.792  1.00  0.00    -0.273 N 
HETATM    3  N2  UNL     1       1.442   1.833   0.902  1.00  0.00    -0.294 N 
ATOM      4  H2  UNL     1       2.372   2.220   1.064  1.00  0.00     0.187 HD
HETATM    5  C2  UNL     1       1.281   0.522   0.807  1.00  0.00     0.070 A 
HETATM    6  S2  UNL     1      -0.403   0.408   0.544  1.00  0.00    -0.036 SA
HETATM    7  C9  UNL     1      -0.767   2.078   0.578  1.00  0.00     0.181 A 
HETATM    8  N7  UNL     1      -1.901   2.718   0.439  1.00  0.00    -0.276 N 
ATOM      9  H7  UNL     1      -1.960   3.735   0.485  1.00  0.00     0.189 HD
ENDROOT
BRANCH   8  10
HETATM   10  N8  UNL     1      -3.036   1.909   0.222  1.00  0.00    -0.266 N 
HETATM   11  C10 UNL     1      -3.826   2.195  -0.910  1.00  0.00     0.260 C 
HETATM   12  O1  UNL     1      -3.532   3.134  -1.698  1.00  0.00    -0.269 OA
ATOM     13  H8  UNL     1      -3.275   1.148   0.858  1.00  0.00     0.190 HD
BRANCH  11  14
HETATM   14  C11 UNL     1      -5.038   1.364  -1.171  1.00  0.00     0.211 C 
HETATM   15  C12 UNL     1      -5.096   0.869  -2.597  1.00  0.00     0.178 C 
HETATM   16  S3  UNL     1      -4.808  -0.871  -2.415  1.00  0.00     0.172 S 
HETATM   17  O2  UNL     1      -6.106  -1.603  -2.511  1.00  0.00    -0.226 OA
HETATM   18  O3  UNL     1      -3.749  -1.389  -3.302  1.00  0.00    -0.226 OA
HETATM   19  C13 UNL     1      -4.255  -0.802  -0.695  1.00  0.00     0.276 C 
HETATM   20  C14 UNL     1      -4.675  -2.016   0.048  1.00  0.00     0.335 C 
HETATM   21  N12 UNL     1      -5.072   0.285  -0.251  1.00  0.00    -0.182 N 
HETATM   22  N10 UNL     1      -5.454  -1.535   1.151  1.00  0.00    -0.194 N 
HETATM   23  C15 UNL     1      -5.628  -0.139   0.994  1.00  0.00     0.673 C 
ATOM     24  H10 UNL     1      -5.820  -2.101   1.917  1.00  0.00     0.180 HD
HETATM   25  N11 UNL     1      -6.214   0.615   1.878  1.00  0.00    -0.235 N 
ATOM     26 2H11 UNL     1      -6.611   0.312   2.767  1.00  0.00     0.174 HD
ATOM     27 1H11 UNL     1      -6.339   1.621   1.765  1.00  0.00     0.174 HD
BRANCH  20  28
HETATM   28  N9  UNL     1      -3.476  -2.625   0.624  1.00  0.00    -0.055 N 
ATOM     29  H93 UNL     1      -2.756  -2.817  -0.072  1.00  0.00     0.276 HD
ATOM     30  H92 UNL     1      -2.939  -1.975   1.199  1.00  0.00     0.276 HD
ATOM     31  H91 UNL     1      -3.765  -3.459   1.135  1.00  0.00     0.276 HD
ENDBRANCH  20  28
ENDBRANCH  11  14
ENDBRANCH   8  10
BRANCH   5  32
HETATM   32  C3  UNL     1       2.311  -0.568   0.907  1.00  0.00     0.076 C 
BRANCH  32  33
HETATM   33  C4  UNL     1       2.896  -0.875  -0.469  1.00  0.00     0.080 C 
BRANCH  33  34
HETATM   34  S1  UNL     1       3.684   0.513  -1.215  1.00  0.00    -0.168 SA
BRANCH  34  35
HETATM   35  C5  UNL     1       5.132   1.185  -0.498  1.00  0.00     0.081 C 
BRANCH  35  36
HETATM   36  C6  UNL     1       6.388   0.435  -0.695  1.00  0.00     0.088 C 
BRANCH  36  37
HETATM   37  C7  UNL     1       6.458  -0.935  -0.204  1.00  0.00     0.113 A 
HETATM   38  N3  UNL     1       6.259  -2.099  -0.873  1.00  0.00    -0.274 N 
HETATM   39  N4  UNL     1       6.421  -3.128  -0.041  1.00  0.00    -0.131 N 
ATOM     40  H3  UNL     1       6.022  -2.175  -1.862  1.00  0.00     0.189 HD
HETATM   41  C8  UNL     1       6.725  -2.641   1.166  1.00  0.00     0.691 A 
ATOM     42  H4  UNL     1       6.329  -4.115  -0.283  1.00  0.00     0.205 HD
HETATM   43  N5  UNL     1       6.951  -3.391   2.223  1.00  0.00    -0.233 N 
HETATM   44  N6  UNL     1       6.747  -1.323   1.071  1.00  0.00    -0.178 N 
ATOM     45  H52 UNL     1       6.934  -4.408   2.296  1.00  0.00     0.174 HD
ATOM     46  H51 UNL     1       7.183  -3.019   3.144  1.00  0.00     0.174 HD
ATOM     47  H6  UNL     1       6.951  -0.687   1.842  1.00  0.00     0.185 HD
ENDBRANCH  36  37
ENDBRANCH  35  36
ENDBRANCH  34  35
ENDBRANCH  33  34
ENDBRANCH  32  33
ENDBRANCH   5  32
TORSDOF 9
