REMARK  14 active torsions:
REMARK  status: ('A' for Active; 'I' for Inactive)
REMARK    1  A    between atoms: C2_2  and  C3_3 
REMARK    2  A    between atoms: C3_3  and  C5_5 
REMARK    3  A    between atoms: C5_5  and  N1_6 
REMARK    4  A    between atoms: C5_5  and  C6_10 
REMARK       I    between atoms: C6_10  and  N2_12 
REMARK    5  A    between atoms: N2_12  and  C7_14 
REMARK    6  A    between atoms: C7_14  and  C9_16 
REMARK    7  A    between atoms: C10_18  and  C11_19 
REMARK    8  A    between atoms: C11_19  and  C12_20 
REMARK    9  A    between atoms: C12_20  and  N3_21 
REMARK   10  A    between atoms: C13_25  and  C14_26 
REMARK       I    between atoms: C14_26  and  N4_28 
REMARK   11  A    between atoms: N4_28  and  C15_30 
REMARK   12  A    between atoms: C15_30  and  C16_31 
REMARK   13  A    between atoms: C15_30  and  C17_36 
REMARK   14  A    between atoms: C16_31  and  N5_32 
ROOT
HETATM    1  C9  UNL     1      -0.401   1.283  -0.533  1.00  0.00     0.283 C 
HETATM    2  O2  UNL     1      -1.136   2.402  -0.862  1.00  0.00    -0.351 OA
HETATM    3  C10 UNL     1      -1.585   2.889   0.370  1.00  0.00     0.164 C 
HETATM    4  C13 UNL     1      -1.930   1.597   1.029  1.00  0.00     0.245 C 
HETATM    5  O5  UNL     1      -0.675   0.920   0.793  1.00  0.00    -0.342 OA
ENDROOT
BRANCH   1   6
HETATM    6  C7  UNL     1       1.079   1.437  -0.762  1.00  0.00     0.135 C 
HETATM    7  C8  UNL     1       1.681   2.499   0.090  1.00  0.00     0.037 C 
BRANCH   6   8
HETATM    8  N2  UNL     1       1.744   0.184  -0.388  1.00  0.00    -0.350 N 
HETATM    9  C6  UNL     1       2.470  -0.589  -1.324  1.00  0.00     0.249 C 
HETATM   10  O1  UNL     1       2.524  -0.151  -2.513  1.00  0.00    -0.271 OA
ATOM     11  H2  UNL     1       1.681  -0.140   0.577  1.00  0.00     0.163 HD
BRANCH   9  12
HETATM   12  C5  UNL     1       3.112  -1.831  -0.893  1.00  0.00     0.278 C 
BRANCH  12  13
HETATM   13  C3  UNL     1       3.998  -1.692   0.295  1.00  0.00     0.021 C 
HETATM   14  C4  UNL     1       4.388  -3.081   0.755  1.00  0.00     0.012 C 
BRANCH  13  15
HETATM   15  C2  UNL     1       5.213  -0.832   0.033  1.00  0.00     0.002 C 
HETATM   16  C1  UNL     1       6.068  -0.661   1.254  1.00  0.00     0.005 C 
ENDBRANCH  13  15
ENDBRANCH  12  13
BRANCH  12  17
HETATM   17  N1  UNL     1       3.789  -2.435  -2.028  1.00  0.00    -0.066 N 
ATOM     18  H13 UNL     1       4.639  -1.922  -2.263  1.00  0.00     0.275 HD
ATOM     19  H12 UNL     1       4.203  -3.332  -1.773  1.00  0.00     0.275 HD
ATOM     20  H11 UNL     1       3.182  -2.530  -2.842  1.00  0.00     0.275 HD
ENDBRANCH  12  17
ENDBRANCH   9  12
ENDBRANCH   6   8
ENDBRANCH   1   6
BRANCH   3  21
HETATM   21  C11 UNL     1      -2.632   3.917   0.252  1.00  0.00     0.062 C 
BRANCH  21  22
HETATM   22  C12 UNL     1      -3.065   4.529   1.543  1.00  0.00     0.232 C 
BRANCH  22  23
HETATM   23  N3  UNL     1      -3.614   3.647   2.518  1.00  0.00    -0.079 N 
ATOM     24  H33 UNL     1      -4.390   3.126   2.109  1.00  0.00     0.274 HD
ATOM     25  H32 UNL     1      -2.956   2.889   2.702  1.00  0.00     0.274 HD
ATOM     26  H31 UNL     1      -3.910   4.065   3.400  1.00  0.00     0.274 HD
ENDBRANCH  22  23
ENDBRANCH  21  22
ENDBRANCH   3  21
BRANCH   4  27
HETATM   27  C14 UNL     1      -2.968   0.761   0.452  1.00  0.00     0.250 C 
HETATM   28  O3  UNL     1      -4.122   1.224   0.263  1.00  0.00    -0.271 OA
HETATM   29  N4  UNL     1      -2.763  -0.612   0.073  1.00  0.00    -0.344 N 
ATOM     30  H4  UNL     1      -1.839  -1.016   0.224  1.00  0.00     0.163 HD
BRANCH  29  31
HETATM   31  C15 UNL     1      -3.766  -1.441  -0.498  1.00  0.00     0.199 C 
BRANCH  31  32
HETATM   32  C16 UNL     1      -4.141  -2.627   0.363  1.00  0.00     0.264 C 
BRANCH  32  33
HETATM   33  N5  UNL     1      -2.985  -3.488   0.607  1.00  0.00    -0.077 N 
ATOM     34  H53 UNL     1      -2.545  -3.782  -0.265  1.00  0.00     0.274 HD
ATOM     35  H52 UNL     1      -2.206  -2.965   1.007  1.00  0.00     0.274 HD
ATOM     36  H51 UNL     1      -3.238  -4.288   1.188  1.00  0.00     0.274 HD
ENDBRANCH  32  33
ENDBRANCH  31  32
BRANCH  31  37
HETATM   37  C17 UNL     1      -3.462  -1.898  -1.877  1.00  0.00     0.255 C 
HETATM   38  N6  UNL     1      -4.411  -2.731  -2.523  1.00  0.00    -0.060 NA
HETATM   39  O4  UNL     1      -2.428  -1.598  -2.502  1.00  0.00    -0.275 OA
ENDBRANCH  31  37
ENDBRANCH  29  31
ENDBRANCH   4  27
TORSDOF 14
