REMARK  15 active torsions:
REMARK  status: ('A' for Active; 'I' for Inactive)
REMARK    1  A    between atoms: N1_1  and  C1_5 
REMARK    2  A    between atoms: C1_5  and  C2_6 
REMARK    3  A    between atoms: C2_6  and  C3_7 
REMARK    4  A    between atoms: C3_7  and  C4_8 
REMARK    5  A    between atoms: C4_8  and  C5_9 
REMARK    6  A    between atoms: C5_9  and  N2_10 
REMARK    7  A    between atoms: N2_10  and  C6_13 
REMARK    8  A    between atoms: C9_19  and  N4_20 
REMARK    9  A    between atoms: C10_24  and  O1_25 
REMARK   10  A    between atoms: O1_25  and  C11_26 
REMARK   11  A    between atoms: C14_29  and  N5_30 
REMARK       I    between atoms: N5_30  and  C15_32 
REMARK   12  A    between atoms: C15_32  and  C16_34 
REMARK   13  A    between atoms: C16_34  and  N6_35 
REMARK   14  A    between atoms: C17_39  and  C18_40 
REMARK   15  A    between atoms: C18_40  and  O3_41 
ROOT
HETATM    1  C6  UNL     1       1.575  -0.098  -1.047  1.00  0.00     0.242 C 
HETATM    2  C7  UNL     1       2.675  -0.524  -1.992  1.00  0.00     0.268 C 
HETATM    3  N3  UNL     1       2.669   0.345  -3.132  1.00  0.00    -0.071 N 
ATOM      4  H31 UNL     1       2.376  -0.166  -3.965  1.00  0.00     0.277 HD
ATOM      5  H32 UNL     1       3.624   0.585  -3.399  1.00  0.00     0.277 HD
HETATM    6  C8  UNL     1       1.882   1.535  -2.975  1.00  0.00     0.267 C 
HETATM    7  C9  UNL     1       0.428   1.238  -2.684  1.00  0.00     0.239 C 
HETATM    8  C10 UNL     1       0.315  -0.076  -1.874  1.00  0.00     0.189 C 
ENDROOT
BRANCH   8   9
HETATM    9  O1  UNL     1      -0.836  -0.014  -1.140  1.00  0.00    -0.352 OA
BRANCH   9  10
HETATM   10  C11 UNL     1      -1.767  -1.018  -1.431  1.00  0.00     0.261 C 
HETATM   11  C12 UNL     1      -2.999  -0.420  -2.080  1.00  0.00     0.063 C 
HETATM   12  C13 UNL     1      -3.790   0.380  -1.094  1.00  0.00     0.032 C 
HETATM   13  C14 UNL     1      -3.971  -0.379   0.185  1.00  0.00     0.115 C 
HETATM   14  C17 UNL     1      -3.242  -1.679   0.263  1.00  0.00     0.170 C 
HETATM   15  O4  UNL     1      -2.015  -1.738  -0.317  1.00  0.00    -0.352 OA
BRANCH  13  16
HETATM   16  N5  UNL     1      -3.640   0.517   1.271  1.00  0.00    -0.352 N 
HETATM   17  C15 UNL     1      -4.647   0.929   2.167  1.00  0.00     0.243 C 
HETATM   18  O2  UNL     1      -5.813   0.507   2.002  1.00  0.00    -0.272 OA
ATOM     19  H5  UNL     1      -2.683   0.849   1.388  1.00  0.00     0.163 HD
BRANCH  17  20
HETATM   20  C16 UNL     1      -4.384   1.846   3.305  1.00  0.00     0.332 C 
BRANCH  20  21
HETATM   21  N6  UNL     1      -5.586   2.100   4.055  1.00  0.00    -0.071 N 
ATOM     22  H63 UNL     1      -6.335   2.449   3.457  1.00  0.00     0.274 HD
ATOM     23  H62 UNL     1      -6.025   1.233   4.365  1.00  0.00     0.274 HD
ATOM     24  H61 UNL     1      -5.405   2.730   4.837  1.00  0.00     0.274 HD
ENDBRANCH  20  21
ENDBRANCH  17  20
ENDBRANCH  13  16
BRANCH  14  25
HETATM   25  C18 UNL     1      -4.131  -2.866  -0.116  1.00  0.00     0.198 C 
BRANCH  25  26
HETATM   26  O3  UNL     1      -3.511  -4.059   0.299  1.00  0.00    -0.398 OA
ATOM     27  H3  UNL     1      -4.063  -4.796   0.064  1.00  0.00     0.209 HD
ENDBRANCH  25  26
ENDBRANCH  14  25
ENDBRANCH   9  10
ENDBRANCH   8   9
BRANCH   1  28
HETATM   28  N2  UNL     1       1.436  -1.023   0.023  1.00  0.00    -0.067 N 
ATOM     29  H22 UNL     1       1.157  -1.937  -0.334  1.00  0.00     0.277 HD
ATOM     30  H21 UNL     1       0.615  -0.794   0.583  1.00  0.00     0.277 HD
BRANCH  28  31
HETATM   31  C5  UNL     1       2.596  -1.149   0.866  1.00  0.00     0.233 C 
BRANCH  31  32
HETATM   32  C4  UNL     1       2.892   0.061   1.683  1.00  0.00     0.027 C 
BRANCH  32  33
HETATM   33  C3  UNL     1       4.103  -0.110   2.544  1.00  0.00     0.003 C 
BRANCH  33  34
HETATM   34  C2  UNL     1       5.358  -0.385   1.784  1.00  0.00     0.027 C 
BRANCH  34  35
HETATM   35  C1  UNL     1       5.719   0.718   0.818  1.00  0.00     0.229 C 
BRANCH  35  36
HETATM   36  N1  UNL     1       6.946   0.382   0.118  1.00  0.00    -0.079 N 
ATOM     37  H13 UNL     1       7.709   0.173   0.762  1.00  0.00     0.274 HD
ATOM     38  H12 UNL     1       6.887  -0.526  -0.343  1.00  0.00     0.274 HD
ATOM     39  H11 UNL     1       7.190   1.127  -0.535  1.00  0.00     0.274 HD
ENDBRANCH  35  36
ENDBRANCH  34  35
ENDBRANCH  33  34
ENDBRANCH  32  33
ENDBRANCH  31  32
ENDBRANCH  28  31
ENDBRANCH   1  28
BRANCH   7  40
HETATM   40  N4  UNL     1      -0.073   2.309  -1.845  1.00  0.00    -0.071 N 
ATOM     41  H43 UNL     1       0.482   2.447  -1.001  1.00  0.00     0.274 HD
ATOM     42  H42 UNL     1       0.071   3.234  -2.251  1.00  0.00     0.274 HD
ATOM     43  H41 UNL     1      -1.054   2.109  -1.649  1.00  0.00     0.274 HD
ENDBRANCH   7  40
TORSDOF 15
