REMARK  13 active torsions:
REMARK  status: ('A' for Active; 'I' for Inactive)
REMARK    1  A    between atoms: N2_3  and  C2_5 
REMARK    2  A    between atoms: C2_5  and  N3_6 
REMARK    3  A    between atoms: C2_5  and  C10_20 
REMARK    4  A    between atoms: N3_6  and  C3_8 
REMARK    5  A    between atoms: C3_8  and  C4_12 
REMARK    6  A    between atoms: C4_12  and  C5_13 
REMARK    7  A    between atoms: C5_13  and  C6_14 
REMARK    8  A    between atoms: C6_14  and  C7_15 
REMARK    9  A    between atoms: C7_15  and  C8_16 
REMARK   10  A    between atoms: C8_16  and  C9_17 
REMARK   11  A    between atoms: C10_20  and  N6_21 
REMARK   12  A    between atoms: C10_20  and  N7_25 
REMARK   13  A    between atoms: C14_31  and  C15_32 
ROOT
HETATM    1  N1  UNL     1       1.952   0.056  -3.662  1.00  0.00    -0.172 NA
HETATM    2  C1  UNL     1       0.959   0.073  -3.075  1.00  0.00     0.179 C 
HETATM    3  N2  UNL     1      -0.243   0.077  -2.387  1.00  0.00    -0.303 N 
ATOM      4  H2  UNL     1      -1.079   0.312  -2.921  1.00  0.00     0.174 HD
ENDROOT
BRANCH   3   5
HETATM    5  C2  UNL     1      -0.426  -0.221  -0.981  1.00  0.00     0.242 C 
BRANCH   5   6
HETATM    6  N3  UNL     1       0.021   0.874  -0.190  1.00  0.00    -0.355 N 
ATOM      7  H3  UNL     1      -0.705   1.574  -0.035  1.00  0.00     0.163 HD
BRANCH   6   8
HETATM    8  C3  UNL     1       1.216   1.199   0.413  1.00  0.00     0.072 C 
HETATM    9  N4  UNL     1       1.162   1.989   1.481  1.00  0.00    -0.389 N 
ATOM     10  H42 UNL     1       0.223   2.283   1.748  1.00  0.00     0.157 HD
ATOM     11  H41 UNL     1       2.047   2.230   1.928  1.00  0.00     0.157 HD
BRANCH   8  12
HETATM   12  C4  UNL     1       2.553   0.780   0.033  1.00  0.00     0.075 C 
BRANCH  12  13
HETATM   13  C5  UNL     1       2.881  -0.666   0.157  1.00  0.00     0.007 C 
BRANCH  13  14
HETATM   14  C6  UNL     1       4.305  -0.899  -0.284  1.00  0.00     0.001 C 
BRANCH  14  15
HETATM   15  C7  UNL     1       5.330  -0.163   0.510  1.00  0.00     0.009 C 
BRANCH  15  16
HETATM   16  C8  UNL     1       6.737  -0.487  -0.008  1.00  0.00     0.099 C 
BRANCH  16  17
HETATM   17  C9  UNL     1       7.733   0.250   0.791  1.00  0.00     0.231 C 
HETATM   18  N5  UNL     1       9.115   0.120   0.505  1.00  0.00    -0.062 NA
HETATM   19  O1  UNL     1       7.373   0.996   1.725  1.00  0.00    -0.277 OA
ENDBRANCH  16  17
ENDBRANCH  15  16
ENDBRANCH  14  15
ENDBRANCH  13  14
ENDBRANCH  12  13
ENDBRANCH   8  12
ENDBRANCH   6   8
ENDBRANCH   5   6
BRANCH   5  20
HETATM   20  C10 UNL     1      -1.997  -0.245  -0.847  1.00  0.00     0.326 C 
BRANCH  20  21
HETATM   21  N6  UNL     1      -2.450   1.053  -1.236  1.00  0.00    -0.054 N 
ATOM     22  H63 UNL     1      -2.010   1.810  -0.713  1.00  0.00     0.276 HD
ATOM     23  H62 UNL     1      -2.126   1.335  -2.161  1.00  0.00     0.276 HD
ATOM     24  H61 UNL     1      -3.466   1.037  -1.149  1.00  0.00     0.276 HD
ENDBRANCH  20  21
BRANCH  20  25
HETATM   25  N7  UNL     1      -2.350  -0.549   0.499  1.00  0.00    -0.349 N 
HETATM   26  C11 UNL     1      -3.584  -0.727   0.817  1.00  0.00     0.084 C 
HETATM   27  C12 UNL     1      -3.827  -1.039   2.253  1.00  0.00     0.149 C 
HETATM   28  N9  UNL     1      -4.629  -0.636  -0.116  1.00  0.00    -0.366 N 
HETATM   29  S1  UNL     1      -5.542  -0.883   2.743  1.00  0.00    -0.159 SA
HETATM   30  C13 UNL     1      -6.541  -1.354   1.278  1.00  0.00     0.108 C 
HETATM   31  C14 UNL     1      -6.015  -0.461   0.150  1.00  0.00     0.181 C 
ATOM     32  H9  UNL     1      -4.363  -0.703  -1.099  1.00  0.00     0.161 HD
ATOM     33  H7  UNL     1      -1.624  -0.626   1.211  1.00  0.00     0.163 HD
BRANCH  31  34
HETATM   34  C15 UNL     1      -6.379   0.922   0.522  1.00  0.00     0.254 C 
HETATM   35  N8  UNL     1      -7.693   1.335   0.828  1.00  0.00    -0.060 NA
HETATM   36  O2  UNL     1      -5.461   1.778   0.567  1.00  0.00    -0.275 OA
ENDBRANCH  31  34
ENDBRANCH  20  25
ENDBRANCH   5  20
ENDBRANCH   3   5
TORSDOF 13
