REMARK  15 active torsions:
REMARK  status: ('A' for Active; 'I' for Inactive)
REMARK    1  A    between atoms: C2_3  and  C3_4 
REMARK    2  A    between atoms: C3_4  and  N2_5 
REMARK    3  A    between atoms: C3_4  and  C13_30 
REMARK       I    between atoms: N2_5  and  C4_7 
REMARK    4  A    between atoms: C4_7  and  C5_9 
REMARK    5  A    between atoms: C5_9  and  N3_10 
REMARK    6  A    between atoms: C5_9  and  C6_14 
REMARK    7  A    between atoms: C6_14  and  C7_15 
REMARK    8  A    between atoms: C7_15  and  C8_16 
REMARK    9  A    between atoms: C8_16  and  N4_17 
REMARK       I    between atoms: N4_17  and  C9_19 
REMARK   10  A    between atoms: C9_19  and  C10_21 
REMARK   11  A    between atoms: C10_21  and  C11_22 
REMARK   12  A    between atoms: C11_22  and  C12_23 
REMARK       I    between atoms: C12_23  and  N5_25 
REMARK   13  A    between atoms: N5_25  and  N6_27 
REMARK   14  A    between atoms: C15_32  and  N7_33 
REMARK   15  A    between atoms: C16_37  and  O4_38 
ROOT
HETATM    1  N1  UNL     1      -7.223  -1.915  -2.063  1.00  0.00    -0.197 NA
HETATM    2  C1  UNL     1      -6.163  -1.443  -2.139  1.00  0.00     0.061 C 
HETATM    3  C2  UNL     1      -4.828  -0.855  -2.216  1.00  0.00     0.149 C 
ENDROOT
BRANCH   3   4
HETATM    4  C3  UNL     1      -3.994  -1.140  -1.014  1.00  0.00     0.101 C 
BRANCH   4   5
HETATM    5  N2  UNL     1      -2.695  -0.508  -1.203  1.00  0.00    -0.353 N 
HETATM    6  C4  UNL     1      -1.507  -1.257  -1.258  1.00  0.00     0.248 C 
HETATM    7  O1  UNL     1      -1.440  -2.496  -1.156  1.00  0.00    -0.271 OA
ATOM      8  H2  UNL     1      -2.646   0.506  -1.298  1.00  0.00     0.163 HD
BRANCH   6   9
HETATM    9  C5  UNL     1      -0.204  -0.534  -1.456  1.00  0.00     0.274 C 
BRANCH   9  10
HETATM   10  N3  UNL     1      -0.390   0.890  -1.562  1.00  0.00    -0.067 N 
ATOM     11  H33 UNL     1      -1.058   1.123  -2.297  1.00  0.00     0.275 HD
ATOM     12  H32 UNL     1      -0.900   1.258  -0.759  1.00  0.00     0.275 HD
ATOM     13  H31 UNL     1       0.494   1.381  -1.696  1.00  0.00     0.275 HD
ENDBRANCH   9  10
BRANCH   9  14
HETATM   14  C6  UNL     1       0.721  -0.888  -0.320  1.00  0.00     0.044 C 
BRANCH  14  15
HETATM   15  C7  UNL     1       2.034  -0.161  -0.498  1.00  0.00     0.022 C 
BRANCH  15  16
HETATM   16  C8  UNL     1       2.717  -0.523  -1.769  1.00  0.00     0.122 C 
BRANCH  16  17
HETATM   17  N4  UNL     1       3.960   0.168  -1.928  1.00  0.00    -0.361 N 
HETATM   18  C9  UNL     1       5.034  -0.002  -1.031  1.00  0.00     0.217 C 
HETATM   19  O2  UNL     1       4.928  -0.784  -0.054  1.00  0.00    -0.274 OA
ATOM     20  H4  UNL     1       4.073   0.805  -2.717  1.00  0.00     0.162 HD
BRANCH  18  21
HETATM   21  C10 UNL     1       6.326   0.753  -1.231  1.00  0.00     0.112 C 
BRANCH  21  22
HETATM   22  C11 UNL     1       7.217   0.490  -0.072  1.00  0.00     0.114 C 
BRANCH  22  23
HETATM   23  C12 UNL     1       6.599   0.996   1.169  1.00  0.00     0.235 C 
HETATM   24  O3  UNL     1       5.505   1.660   1.190  1.00  0.00    -0.272 OA
HETATM   25  N5  UNL     1       7.235   0.743   2.416  1.00  0.00    -0.277 N 
ATOM     26  H5  UNL     1       8.108   0.216   2.435  1.00  0.00     0.189 HD
BRANCH  25  27
HETATM   27  N6  UNL     1       6.682   1.205   3.619  1.00  0.00    -0.343 N 
ATOM     28  H62 UNL     1       5.808   1.730   3.582  1.00  0.00     0.176 HD
ATOM     29  H61 UNL     1       7.138   1.024   4.513  1.00  0.00     0.176 HD
ENDBRANCH  25  27
ENDBRANCH  22  23
ENDBRANCH  21  22
ENDBRANCH  18  21
ENDBRANCH  16  17
ENDBRANCH  15  16
ENDBRANCH  14  15
ENDBRANCH   9  14
ENDBRANCH   6   9
ENDBRANCH   4   5
BRANCH   4  30
HETATM   30  C13 UNL     1      -4.594  -0.618   0.266  1.00  0.00     0.014 C 
HETATM   31  C14 UNL     1      -4.801   0.858   0.280  1.00  0.00     0.042 C 
HETATM   32  C15 UNL     1      -5.125   1.100   1.762  1.00  0.00     0.212 C 
HETATM   33  C16 UNL     1      -4.075   0.262   2.444  1.00  0.00     0.149 C 
HETATM   34  C17 UNL     1      -3.694  -0.840   1.452  1.00  0.00     0.040 C 
BRANCH  32  35
HETATM   35  N7  UNL     1      -6.469   0.655   2.030  1.00  0.00    -0.073 N 
ATOM     36  H73 UNL     1      -7.152   1.088   1.408  1.00  0.00     0.274 HD
ATOM     37  H72 UNL     1      -6.618  -0.316   1.754  1.00  0.00     0.274 HD
ATOM     38  H71 UNL     1      -6.684   0.816   3.014  1.00  0.00     0.274 HD
ENDBRANCH  32  35
BRANCH  33  39
HETATM   39  O4  UNL     1      -2.966   1.099   2.666  1.00  0.00    -0.393 OA
ATOM     40  H4  UNL     1      -2.304   0.571   3.096  1.00  0.00     0.210 HD
ENDBRANCH  33  39
ENDBRANCH   4  30
ENDBRANCH   3   4
TORSDOF 15
