REMARK  14 active torsions:
REMARK  status: ('A' for Active; 'I' for Inactive)
REMARK    1  A    between atoms: C2_2  and  C5_5 
REMARK    2  A    between atoms: C5_5  and  C6_7 
REMARK       I    between atoms: C6_7  and  N1_9 
REMARK    3  A    between atoms: N1_9  and  C7_11 
REMARK    4  A    between atoms: C7_11  and  C8_12 
REMARK       I    between atoms: C8_12  and  N2_14 
REMARK    5  A    between atoms: N2_14  and  C9_16 
REMARK    6  A    between atoms: C9_16  and  C10_17 
REMARK    7  A    between atoms: C12_20  and  C13_21 
REMARK    8  A    between atoms: C13_21  and  N3_22 
REMARK    9  A    between atoms: N3_22  and  C14_25 
REMARK   10  A    between atoms: C14_25  and  C15_26 
REMARK   11  A    between atoms: C15_26  and  N4_27 
REMARK   12  A    between atoms: N4_27  and  C16_29 
REMARK   13  A    between atoms: C16_29  and  C17_33 
REMARK   14  A    between atoms: C17_33  and  N6_34 
ROOT
HETATM    1  C10 UNL     1      -0.279  -0.417  -0.595  1.00  0.00     0.166 C 
HETATM    2  C11 UNL     1       0.584  -1.391   0.208  1.00  0.00     0.204 C 
HETATM    3  O4  UNL     1      -0.434  -2.078   0.881  1.00  0.00    -0.357 OA
HETATM    4  C12 UNL     1      -1.456  -2.194  -0.046  1.00  0.00     0.285 C 
HETATM    5  O5  UNL     1      -1.327  -1.226  -1.004  1.00  0.00    -0.351 OA
ENDROOT
BRANCH   4   6
HETATM    6  C13 UNL     1      -2.779  -2.048   0.664  1.00  0.00     0.292 C 
BRANCH   6   7
HETATM    7  N3  UNL     1      -2.967  -0.802   1.335  1.00  0.00    -0.069 N 
ATOM      8  H32 UNL     1      -2.198  -0.586   1.970  1.00  0.00     0.277 HD
ATOM      9  H31 UNL     1      -2.865  -0.006   0.706  1.00  0.00     0.277 HD
BRANCH   7  10
HETATM   10  C14 UNL     1      -4.248  -0.805   2.009  1.00  0.00     0.252 C 
BRANCH  10  11
HETATM   11  C15 UNL     1      -5.429  -0.799   1.081  1.00  0.00     0.148 C 
BRANCH  11  12
HETATM   12  N4  UNL     1      -5.444   0.360   0.221  1.00  0.00    -0.377 N 
ATOM     13  H4  UNL     1      -4.689   1.039   0.319  1.00  0.00     0.160 HD
BRANCH  12  14
HETATM   14  C16 UNL     1      -6.440   0.611  -0.747  1.00  0.00     0.096 C 
HETATM   15  N5  UNL     1      -6.074   0.520  -1.977  1.00  0.00    -0.388 N 
ATOM     16  H52 UNL     1      -5.105   0.277  -2.185  1.00  0.00     0.157 HD
ATOM     17  H51 UNL     1      -6.794   0.701  -2.677  1.00  0.00     0.157 HD
BRANCH  14  18
HETATM   18  C17 UNL     1      -7.830   0.959  -0.449  1.00  0.00     0.304 C 
BRANCH  18  19
HETATM   19  N6  UNL     1      -8.519  -0.054   0.323  1.00  0.00    -0.073 N 
ATOM     20  H63 UNL     1      -8.463  -0.962  -0.138  1.00  0.00     0.274 HD
ATOM     21  H62 UNL     1      -8.007  -0.269   1.179  1.00  0.00     0.274 HD
ATOM     22  H61 UNL     1      -9.488   0.189   0.531  1.00  0.00     0.274 HD
ENDBRANCH  18  19
ENDBRANCH  14  18
ENDBRANCH  12  14
ENDBRANCH  11  12
ENDBRANCH  10  11
ENDBRANCH   7  10
ENDBRANCH   6   7
ENDBRANCH   4   6
BRANCH   1  23
HETATM   23  C9  UNL     1       0.471   0.174  -1.737  1.00  0.00     0.156 C 
BRANCH  23  24
HETATM   24  N2  UNL     1       1.556   1.003  -1.308  1.00  0.00    -0.357 N 
HETATM   25  C8  UNL     1       1.408   2.168  -0.545  1.00  0.00     0.235 C 
HETATM   26  O3  UNL     1       0.234   2.530  -0.220  1.00  0.00    -0.272 OA
ATOM     27  H2  UNL     1       2.501   0.727  -1.576  1.00  0.00     0.162 HD
BRANCH  25  28
HETATM   28  C7  UNL     1       2.520   3.008  -0.098  1.00  0.00     0.225 C 
BRANCH  28  29
HETATM   29  N1  UNL     1       3.794   2.481  -0.442  1.00  0.00    -0.346 N 
HETATM   30  C6  UNL     1       4.371   1.281   0.037  1.00  0.00     0.288 C 
HETATM   31  O2  UNL     1       3.732   0.588   0.861  1.00  0.00    -0.264 OA
ATOM     32  H1  UNL     1       4.350   3.024  -1.103  1.00  0.00     0.163 HD
BRANCH  30  33
HETATM   33  C5  UNL     1       5.679   0.859  -0.417  1.00  0.00     0.224 C 
HETATM   34  O1  UNL     1       6.297   1.582  -1.238  1.00  0.00    -0.286 OA
BRANCH  33  35
HETATM   35  C2  UNL     1       6.269  -0.413   0.086  1.00  0.00     0.019 C 
HETATM   36  C1  UNL     1       6.429  -0.410   1.584  1.00  0.00     0.023 C 
HETATM   37  C3  UNL     1       7.688  -0.517  -0.490  1.00  0.00     0.023 C 
HETATM   38  C4  UNL     1       5.498  -1.610  -0.381  1.00  0.00     0.023 C 
ENDBRANCH  33  35
ENDBRANCH  30  33
ENDBRANCH  28  29
ENDBRANCH  25  28
ENDBRANCH  23  24
ENDBRANCH   1  23
TORSDOF 14
