REMARK  13 active torsions:
REMARK  status: ('A' for Active; 'I' for Inactive)
REMARK       I    between atoms: C1_4  and  N2_5 
REMARK       I    between atoms: C1_4  and  N7_33 
REMARK    1  A    between atoms: N2_5  and  C2_7 
REMARK    2  A    between atoms: C2_7  and  C3_8 
REMARK    3  A    between atoms: C3_8  and  C4_9 
REMARK    4  A    between atoms: C4_9  and  C5_10 
REMARK    5  A    between atoms: C5_10  and  N3_11 
REMARK    6  A    between atoms: C5_10  and  C15_30 
REMARK       I    between atoms: N3_11  and  C6_13 
REMARK    7  A    between atoms: C6_13  and  C7_15 
REMARK    8  A    between atoms: C7_15  and  C8_16 
REMARK    9  A    between atoms: C8_16  and  C9_17 
REMARK   10  A    between atoms: C9_17  and  N4_18 
REMARK   11  A    between atoms: C12_21  and  O2_22 
REMARK   12  A    between atoms: C13_24  and  N5_25 
REMARK   13  A    between atoms: N7_33  and  N8_35 
ROOT
HETATM    1  N3  UNL     1       0.797   0.269  -2.172  1.00  0.00    -0.348 N 
ATOM      2  H3  UNL     1       1.035  -0.196  -3.048  1.00  0.00     0.163 HD
HETATM    3  C6  UNL     1      -0.545   0.363  -1.762  1.00  0.00     0.218 C 
HETATM    4  O1  UNL     1      -0.886   0.924  -0.695  1.00  0.00    -0.274 OA
ENDROOT
BRANCH   1   5
HETATM    5  C5  UNL     1       1.889   0.865  -1.302  1.00  0.00     0.173 C 
BRANCH   5   6
HETATM    6  C4  UNL     1       2.747  -0.270  -0.885  1.00  0.00     0.036 C 
BRANCH   6   7
HETATM    7  C3  UNL     1       3.919  -0.113  -0.026  1.00  0.00     0.023 C 
BRANCH   7   8
HETATM    8  C2  UNL     1       5.099   0.654  -0.468  1.00  0.00     0.138 C 
BRANCH   8   9
HETATM    9  N2  UNL     1       6.165   0.654   0.530  1.00  0.00    -0.225 N 
HETATM   10  C1  UNL     1       6.903  -0.498   0.866  1.00  0.00     0.691 C 
HETATM   11  N1  UNL     1       6.957  -1.480   0.055  1.00  0.00    -0.233 N 
HETATM   12  N7  UNL     1       7.581  -0.563   2.098  1.00  0.00    -0.072 N 
ATOM     13  H12 UNL     1       6.466  -1.433  -0.838  1.00  0.00     0.174 HD
ATOM     14  H11 UNL     1       7.491  -2.314   0.298  1.00  0.00     0.174 HD
ATOM     15  H7  UNL     1       7.267  -1.195   2.834  1.00  0.00     0.212 HD
ATOM     16  H2  UNL     1       6.386   1.529   1.006  1.00  0.00     0.177 HD
BRANCH  12  17
HETATM   17  N8  UNL     1       8.699   0.263   2.288  1.00  0.00    -0.024 N 
HETATM   18  O4  UNL     1       9.505   0.096   3.233  1.00  0.00    -0.516 OA
HETATM   19  O5  UNL     1       8.960   1.306   1.432  1.00  0.00    -0.516 OA
ENDBRANCH  12  17
ENDBRANCH   8   9
ENDBRANCH   7   8
ENDBRANCH   6   7
ENDBRANCH   5   6
BRANCH   5  20
HETATM   20  C15 UNL     1       2.516   1.935  -2.087  1.00  0.00     0.254 C 
HETATM   21  N6  UNL     1       2.801   3.236  -1.561  1.00  0.00    -0.060 NA
HETATM   22  O3  UNL     1       2.836   1.754  -3.312  1.00  0.00    -0.275 OA
ENDBRANCH   5  20
ENDBRANCH   1   5
BRANCH   3  23
HETATM   23  C7  UNL     1      -1.588  -0.223  -2.626  1.00  0.00     0.104 C 
BRANCH  23  24
HETATM   24  C8  UNL     1      -2.961  -0.169  -2.065  1.00  0.00     0.039 C 
BRANCH  24  25
HETATM   25  C9  UNL     1      -3.154  -0.912  -0.798  1.00  0.00     0.273 C 
BRANCH  25  26
HETATM   26  N4  UNL     1      -4.557  -0.771  -0.362  1.00  0.00     0.090 N 
HETATM   27  C10 UNL     1      -4.781   0.564   0.012  1.00  0.00     0.275 C 
HETATM   28  C11 UNL     1      -5.796   0.800   1.083  1.00  0.00     0.064 C 
HETATM   29  C12 UNL     1      -5.781  -0.228   2.168  1.00  0.00     0.152 C 
HETATM   30  C13 UNL     1      -5.978  -1.574   1.488  1.00  0.00     0.240 C 
HETATM   31  C14 UNL     1      -4.830  -1.796   0.557  1.00  0.00     0.307 C 
BRANCH  29  32
HETATM   32  O2  UNL     1      -4.577  -0.213   2.853  1.00  0.00    -0.393 OA
ATOM     33  H2  UNL     1      -4.567  -0.866   3.543  1.00  0.00     0.210 HD
ENDBRANCH  29  32
BRANCH  30  34
HETATM   34  N5  UNL     1      -7.263  -1.640   0.870  1.00  0.00    -0.071 N 
ATOM     35  H53 UNL     1      -8.012  -1.436   1.531  1.00  0.00     0.274 HD
ATOM     36  H52 UNL     1      -7.414  -0.864   0.225  1.00  0.00     0.274 HD
ATOM     37  H51 UNL     1      -7.395  -2.543   0.414  1.00  0.00     0.274 HD
ENDBRANCH  30  34
ENDBRANCH  25  26
ENDBRANCH  24  25
ENDBRANCH  23  24
ENDBRANCH   3  23
TORSDOF 13
