REMARK  13 active torsions:
REMARK  status: ('A' for Active; 'I' for Inactive)
REMARK    1  A    between atoms: N1_1  and  C1_4 
REMARK    2  A    between atoms: C2_7  and  C3_8 
REMARK    3  A    between atoms: C4_10  and  C5_11 
REMARK    4  A    between atoms: C5_11  and  O2_12 
REMARK    5  A    between atoms: O2_12  and  C6_13 
REMARK    6  A    between atoms: C6_13  and  C7_14 
REMARK    7  A    between atoms: C7_14  and  O3_15 
REMARK    8  A    between atoms: C8_20  and  O4_21 
REMARK    9  A    between atoms: C9_23  and  O5_24 
REMARK   10  A    between atoms: C9_23  and  O6_26 
REMARK   11  A    between atoms: C10_28  and  N4_29 
REMARK   12  A    between atoms: C12_38  and  O7_39 
REMARK   13  A    between atoms: C13_43  and  N10_44 
ROOT
HETATM    1  C3  UNL     1      -1.415   0.012  -0.646  1.00  0.00     0.211 C 
HETATM    2  O1  UNL     1      -0.367  -0.645   0.074  1.00  0.00    -0.323 OA
HETATM    3  C4  UNL     1       0.820   0.027  -0.371  1.00  0.00     0.279 C 
HETATM    4  N3  UNL     1       1.064  -0.504  -1.729  1.00  0.00    -0.007 N 
ATOM      5  H31 UNL     1       1.946  -1.014  -1.786  1.00  0.00     0.284 HD
ATOM      6  H32 UNL     1       1.276   0.238  -2.396  1.00  0.00     0.284 HD
HETATM    7  C8  UNL     1      -0.047  -1.305  -2.154  1.00  0.00     0.389 C 
HETATM    8  C9  UNL     1      -1.256  -0.342  -2.090  1.00  0.00     0.255 C 
HETATM    9  C10 UNL     1       0.459   1.410  -0.362  1.00  0.00     0.226 C 
HETATM   10  C12 UNL     1      -1.098   1.416  -0.341  1.00  0.00     0.197 C 
ENDROOT
BRANCH   1  11
HETATM   11  C2  UNL     1      -2.629  -0.552  -0.008  1.00  0.00     0.156 A 
HETATM   12  N2  UNL     1      -3.426  -1.456  -0.583  1.00  0.00    -0.176 N 
HETATM   13  C1  UNL     1      -4.475  -2.011  -0.005  1.00  0.00     0.691 A 
ATOM     14  H2  UNL     1      -3.208  -1.738  -1.539  1.00  0.00     0.185 HD
HETATM   15  N11 UNL     1      -4.783  -1.649   1.259  1.00  0.00    -0.023 N 
HETATM   16  C13 UNL     1      -4.002  -0.736   1.869  1.00  0.00     0.691 A 
ATOM     17  H11 UNL     1      -5.586  -2.056   1.739  1.00  0.00     0.203 HD
HETATM   18  N9  UNL     1      -2.921  -0.182   1.238  1.00  0.00    -0.176 N 
ATOM     19  H9  UNL     1      -2.344   0.509   1.718  1.00  0.00     0.185 HD
BRANCH  13  20
HETATM   20  N1  UNL     1      -5.181  -2.882  -0.663  1.00  0.00    -0.234 N 
ATOM     21  H12 UNL     1      -4.948  -3.155  -1.618  1.00  0.00     0.174 HD
ATOM     22  H11 UNL     1      -5.992  -3.311  -0.216  1.00  0.00     0.174 HD
ENDBRANCH  13  20
BRANCH  16  23
HETATM   23  N10 UNL     1      -4.305  -0.403   3.056  1.00  0.00    -0.234 N 
ATOM     24 2H10 UNL     1      -3.714   0.288   3.518  1.00  0.00     0.174 HD
ATOM     25 1H10 UNL     1      -5.111  -0.816   3.526  1.00  0.00     0.174 HD
ENDBRANCH  16  23
ENDBRANCH   1  11
BRANCH   8  26
HETATM   26  O5  UNL     1      -2.337  -0.918  -2.686  1.00  0.00    -0.359 OA
ATOM     27  H5  UNL     1      -2.236  -1.143  -3.603  1.00  0.00     0.213 HD
ENDBRANCH   8  26
BRANCH   8  28
HETATM   28  O6  UNL     1      -0.884   0.747  -2.867  1.00  0.00    -0.359 OA
ATOM     29  H6  UNL     1      -0.783   0.522  -3.784  1.00  0.00     0.213 HD
ENDBRANCH   8  28
BRANCH  10  30
HETATM   30  O7  UNL     1      -1.584   2.335  -1.270  1.00  0.00    -0.389 OA
ATOM     31  H7  UNL     1      -1.379   3.242  -1.073  1.00  0.00     0.210 HD
ENDBRANCH  10  30
BRANCH   3  32
HETATM   32  C5  UNL     1       1.932  -0.544   0.480  1.00  0.00     0.239 C 
BRANCH  32  33
HETATM   33  O2  UNL     1       3.156  -0.217  -0.059  1.00  0.00    -0.384 OA
BRANCH  33  34
HETATM   34  C6  UNL     1       4.222  -0.860   0.570  1.00  0.00     0.193 C 
BRANCH  34  35
HETATM   35  C7  UNL     1       4.107  -2.376   0.398  1.00  0.00     0.190 C 
BRANCH  35  36
HETATM   36  O3  UNL     1       5.246  -2.926   1.040  1.00  0.00    -0.399 OA
ATOM     37  H3  UNL     1       5.175  -3.867   0.933  1.00  0.00     0.209 HD
ENDBRANCH  35  36
ENDBRANCH  34  35
ENDBRANCH  33  34
ENDBRANCH  32  33
ENDBRANCH   3  32
BRANCH   7  38
HETATM   38  O4  UNL     1       0.121  -1.821  -3.410  1.00  0.00    -0.365 OA
ATOM     39  H4  UNL     1      -0.615  -2.352  -3.692  1.00  0.00     0.212 HD
ENDBRANCH   7  38
BRANCH   9  40
HETATM   40  N4  UNL     1       0.923   2.318   0.658  1.00  0.00    -0.205 N 
HETATM   41  N5  UNL     1       0.677   2.273   1.949  1.00  0.00    -0.223 N 
HETATM   42  N6  UNL     1       1.231   3.312   2.573  1.00  0.00    -0.256 N 
ATOM     43  H5  UNL     1       0.136   1.542   2.410  1.00  0.00     0.210 HD
HETATM   44  C11 UNL     1       1.863   4.056   1.643  1.00  0.00     0.224 A 
ATOM     45  H6  UNL     1       1.185   3.509   3.573  1.00  0.00     0.191 HD
HETATM   46  N7  UNL     1       2.576   5.277   1.895  1.00  0.00    -0.061 NA
HETATM   47  N8  UNL     1       1.656   3.422   0.475  1.00  0.00    -0.254 N 
ATOM     48  H8  UNL     1       2.010   3.740  -0.427  1.00  0.00     0.191 HD
ENDBRANCH   9  40
TORSDOF 13
