REMARK  13 active torsions:
REMARK  status: ('A' for Active; 'I' for Inactive)
REMARK    1  A    between atoms: C3_4  and  N2_5 
REMARK    2  A    between atoms: C6_10  and  N4_11 
REMARK    3  A    between atoms: C7_16  and  N6_17 
REMARK    4  A    between atoms: C9_24  and  C10_25 
REMARK    5  A    between atoms: C10_25  and  O2_26 
REMARK    6  A    between atoms: C10_25  and  C11_28 
REMARK    7  A    between atoms: C11_28  and  O3_29 
REMARK    8  A    between atoms: C11_28  and  C12_31 
REMARK    9  A    between atoms: C12_31  and  O4_32 
REMARK   10  A    between atoms: C12_31  and  C13_34 
REMARK   11  A    between atoms: C13_34  and  O5_35 
REMARK   12  A    between atoms: N8_37  and  O6_38 
REMARK   13  A    between atoms: O6_38  and  N9_39 
ROOT
HETATM    1  N1  UNL     1      -2.400   1.944  -2.433  1.00  0.00    -0.190 NA
HETATM    2  C1  UNL     1      -1.676   1.559  -1.623  1.00  0.00     0.124 C 
HETATM    3  C2  UNL     1      -0.771   1.068  -0.610  1.00  0.00     0.193 C 
HETATM    4  C3  UNL     1      -0.828  -0.159  -0.065  1.00  0.00     0.194 C 
HETATM    5  O1  UNL     1       0.227  -0.212   0.864  1.00  0.00    -0.302 OA
HETATM    6  C9  UNL     1       1.205   0.759   0.489  1.00  0.00     0.293 C 
HETATM    7  N8  UNL     1       0.307   1.800  -0.040  1.00  0.00    -0.188 N 
ENDROOT
BRANCH   4   8
HETATM    8  N2  UNL     1      -1.758  -1.194  -0.361  1.00  0.00    -0.269 N 
HETATM    9  C4  UNL     1      -1.592  -2.266  -1.146  1.00  0.00     0.193 A 
HETATM   10  N3  UNL     1      -2.732  -2.979  -1.137  1.00  0.00    -0.346 N 
HETATM   11  C5  UNL     1      -3.608  -2.352  -0.348  1.00  0.00     0.123 A 
ATOM     12  H3  UNL     1      -2.899  -3.848  -1.645  1.00  0.00     0.167 HD
HETATM   13  C6  UNL     1      -4.905  -2.624   0.022  1.00  0.00     0.145 A 
HETATM   14  C8  UNL     1      -3.009  -1.223   0.151  1.00  0.00     0.161 A 
HETATM   15  N5  UNL     1      -5.587  -1.810   0.853  1.00  0.00    -0.175 N 
HETATM   16  C7  UNL     1      -4.981  -0.705   1.332  1.00  0.00     0.679 A 
ATOM     17  H5  UNL     1      -6.548  -2.027   1.116  1.00  0.00     0.186 HD
HETATM   18  N7  UNL     1      -3.714  -0.420   0.984  1.00  0.00    -0.174 N 
ATOM     19  H7  UNL     1      -3.273   0.421   1.356  1.00  0.00     0.186 HD
BRANCH  13  20
HETATM   20  N4  UNL     1      -5.529  -3.664  -0.406  1.00  0.00    -0.383 N 
ATOM     21  H42 UNL     1      -5.013  -4.280  -1.035  1.00  0.00     0.157 HD
ATOM     22  H41 UNL     1      -6.491  -3.866  -0.132  1.00  0.00     0.157 HD
ENDBRANCH  13  20
BRANCH  16  23
HETATM   23  N6  UNL     1      -5.575   0.117   2.132  1.00  0.00    -0.234 N 
ATOM     24  H62 UNL     1      -6.536  -0.099   2.396  1.00  0.00     0.174 HD
ATOM     25  H61 UNL     1      -5.117   0.953   2.494  1.00  0.00     0.174 HD
ENDBRANCH  16  23
ENDBRANCH   4   8
BRANCH   7  26
HETATM   26  O6  UNL     1       0.451   3.142  -0.001  1.00  0.00    -0.140 OA
BRANCH  26  27
HETATM   27  N9  UNL     1       0.924   3.658  -1.131  1.00  0.00     0.049 NA
HETATM   28  N10 UNL     1       1.869   4.674  -0.822  1.00  0.00     0.010 NA
HETATM   29  N11 UNL     1       0.788   5.555  -0.698  1.00  0.00     0.002 NA
HETATM   30  N12 UNL     1       0.090   4.699  -1.590  1.00  0.00     0.010 NA
ENDBRANCH  26  27
ENDBRANCH   7  26
BRANCH   6  31
HETATM   31  C10 UNL     1       2.089   0.236  -0.592  1.00  0.00     0.201 C 
BRANCH  31  32
HETATM   32  O2  UNL     1       2.869   1.284  -1.098  1.00  0.00    -0.388 OA
ATOM     33  H2  UNL     1       3.432   0.951  -1.787  1.00  0.00     0.210 HD
ENDBRANCH  31  32
BRANCH  31  34
HETATM   34  C11 UNL     1       2.900  -0.965  -0.251  1.00  0.00     0.182 C 
BRANCH  34  35
HETATM   35  O3  UNL     1       3.514  -1.378  -1.457  1.00  0.00    -0.390 OA
ATOM     36  H3  UNL     1       4.032  -2.144  -1.239  1.00  0.00     0.210 HD
ENDBRANCH  34  35
BRANCH  34  37
HETATM   37  C12 UNL     1       3.994  -0.758   0.740  1.00  0.00     0.173 C 
BRANCH  37  38
HETATM   38  O4  UNL     1       3.580  -0.364   1.994  1.00  0.00    -0.391 OA
ATOM     39  H4  UNL     1       4.277  -0.232   2.626  1.00  0.00     0.210 HD
ENDBRANCH  37  38
BRANCH  37  40
HETATM   40  C13 UNL     1       4.763  -2.061   0.862  1.00  0.00     0.198 C 
BRANCH  40  41
HETATM   41  O5  UNL     1       3.885  -2.998   1.418  1.00  0.00    -0.398 OA
ATOM     42  H5  UNL     1       4.366  -3.813   1.494  1.00  0.00     0.209 HD
ENDBRANCH  40  41
ENDBRANCH  37  40
ENDBRANCH  34  37
ENDBRANCH  31  34
ENDBRANCH   6  31
TORSDOF 13
