REMARK  14 active torsions:
REMARK  status: ('A' for Active; 'I' for Inactive)
REMARK    1  A    between atoms: N1_1  and  C1_4 
REMARK    2  A    between atoms: C2_7  and  N3_8 
REMARK    3  A    between atoms: N5_15  and  C5_16 
REMARK    4  A    between atoms: C5_16  and  C6_17 
REMARK    5  A    between atoms: C7_27  and  C8_28 
REMARK    6  A    between atoms: C8_28  and  O2_29 
REMARK    7  A    between atoms: C8_28  and  C9_31 
REMARK    8  A    between atoms: C9_31  and  O3_32 
REMARK    9  A    between atoms: C9_31  and  C10_34 
REMARK   10  A    between atoms: C10_34  and  O4_35 
REMARK   11  A    between atoms: C10_34  and  N10_37 
REMARK   12  A    between atoms: N10_37  and  N11_38 
REMARK   13  A    between atoms: C11_41  and  O5_42 
REMARK   14  A    between atoms: C12_44  and  O6_45 
ROOT
HETATM    1  C5  UNL     1      -1.060   0.805   0.313  1.00  0.00     0.234 C 
HETATM    2  O1  UNL     1      -0.099  -0.165   0.382  1.00  0.00    -0.340 OA
HETATM    3  C7  UNL     1       1.171   0.419   0.176  1.00  0.00     0.188 C 
HETATM    4  C11 UNL     1       0.883   1.442  -0.871  1.00  0.00     0.183 C 
HETATM    5  C12 UNL     1      -0.432   2.012  -0.355  1.00  0.00     0.214 C 
ENDROOT
BRANCH   1   6
HETATM    6  N5  UNL     1      -2.148   0.352  -0.509  1.00  0.00    -0.285 N 
HETATM    7  C4  UNL     1      -2.203   0.624  -1.846  1.00  0.00     0.189 A 
HETATM    8  N4  UNL     1      -3.318   0.082  -2.355  1.00  0.00    -0.346 N 
HETATM    9  C3  UNL     1      -4.001  -0.543  -1.388  1.00  0.00     0.123 A 
ATOM     10  H4  UNL     1      -3.603   0.137  -3.333  1.00  0.00     0.167 HD
HETATM   11  C2  UNL     1      -5.172  -1.257  -1.309  1.00  0.00     0.145 A 
HETATM   12  C13 UNL     1      -3.258  -0.372  -0.214  1.00  0.00     0.158 A 
HETATM   13  N2  UNL     1      -5.598  -1.782  -0.135  1.00  0.00    -0.175 N 
HETATM   14  C1  UNL     1      -4.851  -1.593   0.966  1.00  0.00     0.679 A 
ATOM     15  H2  UNL     1      -6.469  -2.311  -0.088  1.00  0.00     0.186 HD
HETATM   16  N12 UNL     1      -3.693  -0.898   0.940  1.00  0.00    -0.174 N 
ATOM     17  H12 UNL     1      -3.151  -0.774   1.795  1.00  0.00     0.186 HD
BRANCH  11  18
HETATM   18  N3  UNL     1      -5.871  -1.427  -2.368  1.00  0.00    -0.383 N 
ATOM     19  H32 UNL     1      -6.740  -1.957  -2.309  1.00  0.00     0.157 HD
ATOM     20  H31 UNL     1      -5.550  -1.032  -3.252  1.00  0.00     0.157 HD
ENDBRANCH  11  18
BRANCH  14  21
HETATM   21  N1  UNL     1      -5.225  -2.077   2.097  1.00  0.00    -0.234 N 
ATOM     22  H12 UNL     1      -6.099  -2.602   2.117  1.00  0.00     0.174 HD
ATOM     23  H11 UNL     1      -4.658  -1.934   2.933  1.00  0.00     0.174 HD
ENDBRANCH  14  21
ENDBRANCH   1   6
BRANCH   1  24
HETATM   24  C6  UNL     1      -1.437   1.269   1.669  1.00  0.00     0.173 A 
HETATM   25  N6  UNL     1      -2.361   2.153   1.997  1.00  0.00    -0.268 N 
HETATM   26  N7  UNL     1      -2.349   2.286   3.300  1.00  0.00    -0.227 N 
ATOM     27  H6  UNL     1      -2.976   2.646   1.350  1.00  0.00     0.190 HD
HETATM   28  N8  UNL     1      -1.427   1.495   3.803  1.00  0.00    -0.227 N 
ATOM     29  H7  UNL     1      -2.957   2.904   3.838  1.00  0.00     0.210 HD
HETATM   30  N9  UNL     1      -0.855   0.861   2.808  1.00  0.00    -0.268 N 
ATOM     31  H8  UNL     1      -1.198   1.393   4.792  1.00  0.00     0.210 HD
ATOM     32  H9  UNL     1      -0.101   0.178   2.886  1.00  0.00     0.190 HD
ENDBRANCH   1  24
BRANCH   5  33
HETATM   33  O6  UNL     1      -0.043   2.981   0.594  1.00  0.00    -0.387 OA
ATOM     34  H6  UNL     1       0.351   3.737   0.175  1.00  0.00     0.210 HD
ENDBRANCH   5  33
BRANCH   3  35
HETATM   35  C8  UNL     1       2.065  -0.712  -0.334  1.00  0.00     0.182 C 
BRANCH  35  36
HETATM   36  O2  UNL     1       2.054  -1.719   0.668  1.00  0.00    -0.390 OA
ATOM     37  H2  UNL     1       2.609  -2.422   0.351  1.00  0.00     0.210 HD
ENDBRANCH  35  36
BRANCH  35  38
HETATM   38  C9  UNL     1       3.492  -0.335  -0.518  1.00  0.00     0.195 C 
BRANCH  38  39
HETATM   39  O3  UNL     1       3.766   0.592  -1.487  1.00  0.00    -0.389 OA
ATOM     40  H3  UNL     1       4.677   0.833  -1.605  1.00  0.00     0.210 HD
ENDBRANCH  38  39
BRANCH  38  41
HETATM   41  C10 UNL     1       4.341  -1.589  -0.753  1.00  0.00     0.261 C 
BRANCH  41  42
HETATM   42  O4  UNL     1       4.101  -2.111  -2.029  1.00  0.00    -0.375 OA
ATOM     43  H4  UNL     1       4.627  -2.888  -2.175  1.00  0.00     0.211 HD
ENDBRANCH  41  42
BRANCH  41  44
HETATM   44  N10 UNL     1       5.750  -1.264  -0.701  1.00  0.00    -0.113 NA
BRANCH  44  45
HETATM   45  N11 UNL     1       6.022  -0.743   0.561  1.00  0.00    -0.346 N 
ATOM     46 2H11 UNL     1       5.338  -0.619   1.307  1.00  0.00     0.172 HD
ATOM     47 1H11 UNL     1       7.015  -0.514   0.598  1.00  0.00     0.172 HD
ENDBRANCH  44  45
ENDBRANCH  41  44
ENDBRANCH  38  41
ENDBRANCH  35  38
ENDBRANCH   3  35
BRANCH   4  48
HETATM   48  O5  UNL     1       1.817   2.485  -0.930  1.00  0.00    -0.390 OA
ATOM     49  H5  UNL     1       1.634   3.136  -1.597  1.00  0.00     0.210 HD
ENDBRANCH   4  48
TORSDOF 14
