REMARK  13 active torsions:
REMARK  status: ('A' for Active; 'I' for Inactive)
REMARK    1  A    between atoms: N1_1  and  C1_4 
REMARK    2  A    between atoms: N3_8  and  C3_9 
REMARK    3  A    between atoms: C4_11  and  C5_12 
REMARK    4  A    between atoms: N4_13  and  N5_15 
REMARK    5  A    between atoms: N5_15  and  C6_16 
REMARK    6  A    between atoms: N5_15  and  N10_33 
REMARK    7  A    between atoms: C6_16  and  C7_17 
REMARK    8  A    between atoms: C8_18  and  O2_19 
REMARK    9  A    between atoms: C9_23  and  N7_24 
REMARK   10  A    between atoms: N10_33  and  N11_34 
REMARK   11  A    between atoms: N11_34  and  N12_35 
REMARK   12  A    between atoms: C11_38  and  O3_39 
REMARK   13  A    between atoms: C12_41  and  O4_42 
ROOT
HETATM    1  C5  UNL     1      -0.553   0.325   0.236  1.00  0.00     0.116 C 
HETATM    2  N4  UNL     1       0.357  -0.581   0.098  1.00  0.00    -0.294 N 
ATOM      3  H4  UNL     1       0.148  -1.511  -0.265  1.00  0.00     0.187 HD
ENDROOT
BRANCH   2   4
HETATM    4  N5  UNL     1       1.708  -0.184   0.498  1.00  0.00    -0.193 N 
BRANCH   4   5
HETATM    5  C6  UNL     1       2.576   0.037  -0.550  1.00  0.00     0.153 C 
BRANCH   5   6
HETATM    6  C7  UNL     1       3.984   0.270  -0.536  1.00  0.00     0.078 A 
HETATM    7  C8  UNL     1       4.608   0.499  -1.804  1.00  0.00     0.170 A 
HETATM    8  N6  UNL     1       5.911   0.710  -1.914  1.00  0.00    -0.170 N 
HETATM    9  C9  UNL     1       6.708   0.719  -0.843  1.00  0.00     0.679 A 
ATOM     10  H6  UNL     1       6.314   0.869  -2.837  1.00  0.00     0.186 HD
HETATM   11  N8  UNL     1       6.177   0.511   0.351  1.00  0.00    -0.176 N 
HETATM   12  C10 UNL     1       4.836   0.290   0.509  1.00  0.00     0.130 A 
ATOM     13  H8  UNL     1       6.781   0.516   1.173  1.00  0.00     0.186 HD
HETATM   14  N9  UNL     1       4.472   0.095   1.708  1.00  0.00    -0.384 N 
ATOM     15  H92 UNL     1       3.472  -0.070   1.826  1.00  0.00     0.157 HD
ATOM     16  H91 UNL     1       5.116   0.110   2.498  1.00  0.00     0.157 HD
BRANCH   7  17
HETATM   17  O2  UNL     1       3.744   0.483  -2.899  1.00  0.00    -0.345 OA
ATOM     18  H2  UNL     1       4.158   0.635  -3.740  1.00  0.00     0.219 HD
ENDBRANCH   7  17
BRANCH   9  19
HETATM   19  N7  UNL     1       7.990   0.931  -1.003  1.00  0.00    -0.234 N 
ATOM     20  H72 UNL     1       8.399   1.091  -1.923  1.00  0.00     0.174 HD
ATOM     21  H71 UNL     1       8.599   0.938  -0.185  1.00  0.00     0.174 HD
ENDBRANCH   9  19
ENDBRANCH   5   6
ENDBRANCH   4   5
BRANCH   4  22
HETATM   22  N10 UNL     1       1.827  -0.087   1.843  1.00  0.00     0.013 NA
BRANCH  22  23
HETATM   23  N11 UNL     1       1.050  -1.027   2.549  1.00  0.00    -0.014 NA
BRANCH  23  24
HETATM   24  N12 UNL     1       1.369  -2.292   2.002  1.00  0.00    -0.330 N 
ATOM     25 2H12 UNL     1       2.031  -2.472   1.247  1.00  0.00     0.173 HD
ATOM     26 1H12 UNL     1       0.807  -2.972   2.513  1.00  0.00     0.173 HD
ENDBRANCH  23  24
ENDBRANCH  22  23
ENDBRANCH   4  22
ENDBRANCH   2   4
BRANCH   1  27
HETATM   27  C4  UNL     1      -1.972   0.092  -0.120  1.00  0.00     0.195 C 
HETATM   28  O1  UNL     1      -2.593   1.302  -0.396  1.00  0.00    -0.350 OA
HETATM   29  C3  UNL     1      -3.535   1.045  -1.396  1.00  0.00     0.265 C 
HETATM   30  C12 UNL     1      -2.848   0.069  -2.296  1.00  0.00     0.199 C 
HETATM   31  C11 UNL     1      -2.179  -0.838  -1.267  1.00  0.00     0.185 C 
BRANCH  29  32
HETATM   32  N3  UNL     1      -4.702   0.545  -0.723  1.00  0.00    -0.265 N 
HETATM   33  C2  UNL     1      -5.450  -0.453  -1.190  1.00  0.00     0.208 A 
HETATM   34  N2  UNL     1      -6.520  -0.841  -0.479  1.00  0.00    -0.188 N 
HETATM   35  C1  UNL     1      -6.839  -0.241   0.679  1.00  0.00     0.680 A 
ATOM     36  H2  UNL     1      -7.101  -1.605  -0.824  1.00  0.00     0.185 HD
HETATM   37  N13 UNL     1      -6.089   0.767   1.155  1.00  0.00    -0.141 N 
HETATM   38  C13 UNL     1      -5.018   1.160   0.452  1.00  0.00     0.343 A 
ATOM     39  H13 UNL     1      -6.330   1.224   2.034  1.00  0.00     0.189 HD
HETATM   40  O5  UNL     1      -4.323   2.104   0.906  1.00  0.00    -0.246 OA
BRANCH  35  41
HETATM   41  N1  UNL     1      -7.875  -0.653   1.317  1.00  0.00    -0.234 N 
ATOM     42  H12 UNL     1      -8.444  -1.418   0.956  1.00  0.00     0.174 HD
ATOM     43  H11 UNL     1      -8.117  -0.197   2.197  1.00  0.00     0.174 HD
ENDBRANCH  35  41
ENDBRANCH  29  32
BRANCH  30  44
HETATM   44  O4  UNL     1      -1.778   0.758  -2.910  1.00  0.00    -0.388 OA
ATOM     45  H4  UNL     1      -1.341   0.138  -3.482  1.00  0.00     0.210 HD
ENDBRANCH  30  44
BRANCH  31  46
HETATM   46  O3  UNL     1      -1.049  -1.436  -1.757  1.00  0.00    -0.390 OA
ATOM     47  H3  UNL     1      -1.181  -2.029  -2.488  1.00  0.00     0.210 HD
ENDBRANCH  31  46
ENDBRANCH   1  27
TORSDOF 13
