REMARK  9 active torsions:
REMARK  status: ('A' for Active; 'I' for Inactive)
REMARK    1  A    between atoms: N2_3  and  C2_4 
REMARK    2  A    between atoms: N2_3  and  N7_20 
REMARK    3  A    between atoms: N3_5  and  N4_7 
REMARK       I    between atoms: N4_7  and  C3_9 
REMARK    4  A    between atoms: C3_9  and  C4_11 
REMARK    5  A    between atoms: C4_11  and  N5_12 
REMARK    6  A    between atoms: C4_11  and  N6_16 
REMARK    7  A    between atoms: N7_20  and  S1_22 
REMARK    8  A    between atoms: S1_22  and  C5_25 
REMARK    9  A    between atoms: C7_29  and  N9_30 
ROOT
HETATM    1  N1  UNL     1       1.363   0.849   2.181  1.00  0.00    -0.170 NA
HETATM    2  C1  UNL     1       0.967   0.147   1.335  1.00  0.00     0.206 C 
HETATM    3  N2  UNL     1       0.476  -0.699   0.338  1.00  0.00    -0.175 N 
ENDROOT
BRANCH   3   4
HETATM    4  C2  UNL     1      -0.897  -0.657  -0.024  1.00  0.00     0.235 C 
HETATM    5  N3  UNL     1      -1.365   0.303  -0.718  1.00  0.00    -0.291 N 
ATOM      6  H3  UNL     1      -0.742   1.053  -1.018  1.00  0.00     0.188 HD
BRANCH   5   7
HETATM    7  N4  UNL     1      -2.712   0.349  -1.076  1.00  0.00    -0.266 N 
HETATM    8  C3  UNL     1      -3.682   1.005  -0.273  1.00  0.00     0.294 C 
HETATM    9  O1  UNL     1      -3.287   1.552   0.787  1.00  0.00    -0.267 OA
ATOM     10  H4  UNL     1      -3.009  -0.102  -1.941  1.00  0.00     0.190 HD
BRANCH   8  11
HETATM   11  C4  UNL     1      -5.117   1.054  -0.653  1.00  0.00     0.469 C 
BRANCH  11  12
HETATM   12  N5  UNL     1      -5.906   1.773   0.316  1.00  0.00    -0.041 N 
ATOM     13  H53 UNL     1      -5.784   1.388   1.253  1.00  0.00     0.277 HD
ATOM     14  H52 UNL     1      -5.533   2.709   0.477  1.00  0.00     0.277 HD
ATOM     15  H51 UNL     1      -6.891   1.807   0.055  1.00  0.00     0.277 HD
ENDBRANCH  11  12
BRANCH  11  16
HETATM   16  N6  UNL     1      -5.684  -0.269  -0.785  1.00  0.00    -0.041 N 
ATOM     17  H63 UNL     1      -5.147  -0.840  -1.438  1.00  0.00     0.277 HD
ATOM     18  H62 UNL     1      -5.543  -0.819   0.062  1.00  0.00     0.277 HD
ATOM     19  H61 UNL     1      -6.669  -0.235  -1.046  1.00  0.00     0.277 HD
ENDBRANCH  11  16
ENDBRANCH   8  11
ENDBRANCH   5   7
ENDBRANCH   3   4
BRANCH   3  20
HETATM   20  N7  UNL     1       1.306  -1.597  -0.321  1.00  0.00    -0.206 N 
ATOM     21  H7  UNL     1       1.140  -1.911  -1.277  1.00  0.00     0.201 HD
BRANCH  20  22
HETATM   22  S1  UNL     1       2.627  -2.125   0.615  1.00  0.00     0.285 S 
HETATM   23  O2  UNL     1       2.244  -2.048   2.069  1.00  0.00    -0.198 OA
HETATM   24  O3  UNL     1       2.971  -3.527   0.298  1.00  0.00    -0.198 OA
BRANCH  22  25
HETATM   25  C5  UNL     1       3.979  -1.025   0.344  1.00  0.00     0.140 A 
HETATM   26  C6  UNL     1       4.027   0.079  -0.463  1.00  0.00     0.123 A 
HETATM   27  N8  UNL     1       5.156   0.754  -0.507  1.00  0.00    -0.345 N 
HETATM   28  C7  UNL     1       6.174   0.325   0.232  1.00  0.00     0.143 A 
ATOM     29  H8  UNL     1       5.247   1.584  -1.093  1.00  0.00     0.167 HD
HETATM   30  S2  UNL     1       5.550  -1.053   1.008  1.00  0.00    -0.039 SA
BRANCH  28  31
HETATM   31  N9  UNL     1       7.377   0.844   0.336  1.00  0.00    -0.380 N 
ATOM     32  H92 UNL     1       7.751   1.671  -0.130  1.00  0.00     0.158 HD
ATOM     33  H91 UNL     1       8.158   0.515   0.903  1.00  0.00     0.158 HD
ENDBRANCH  28  31
ENDBRANCH  22  25
ENDBRANCH  20  22
ENDBRANCH   3  20
TORSDOF 9
