REMARK  6 active torsions:
REMARK  status: ('A' for Active; 'I' for Inactive)
REMARK    1  A    between atoms: C6_11  and  C7_12 
REMARK    2  A    between atoms: C7_12  and  C8_14 
REMARK       I    between atoms: C8_14  and  N3_16 
REMARK    3  A    between atoms: N3_16  and  C9_18 
REMARK    4  A    between atoms: C9_18  and  C10_19 
REMARK    5  A    between atoms: C10_19  and  N4_20 
REMARK    6  A    between atoms: N4_20  and  C11_22 
ROOT
HETATM    1  C8  UNL     1      -0.435  -0.965  -0.163  1.00  0.00     0.292 C 
HETATM    2  O4  UNL     1      -0.032   0.159   0.209  1.00  0.00    -0.264 OA
HETATM    3  N3  UNL     1       0.507  -1.963  -0.474  1.00  0.00    -0.353 N 
ATOM      4  H3  UNL     1       0.134  -2.865  -0.769  1.00  0.00     0.162 HD
ENDROOT
BRANCH   1   5
HETATM    5  C7  UNL     1      -1.866  -1.161  -0.250  1.00  0.00     0.256 C 
HETATM    6  O3  UNL     1      -2.286  -2.288  -0.630  1.00  0.00    -0.281 OA
BRANCH   5   7
HETATM    7  C6  UNL     1      -2.851  -0.151   0.071  1.00  0.00     0.110 A 
HETATM    8  C2  UNL     1      -3.276   0.688  -0.930  1.00  0.00     0.029 A 
HETATM    9  C1  UNL     1      -2.717   0.535  -2.285  1.00  0.00     0.069 C 
HETATM   10  N1  UNL     1      -4.190   1.629  -0.665  1.00  0.00    -0.311 N 
HETATM   11  C3  UNL     1      -4.709   1.772   0.588  1.00  0.00     0.329 A 
ATOM     12  H1  UNL     1      -4.503   2.249  -1.412  1.00  0.00     0.170 HD
HETATM   13  O1  UNL     1      -5.567   2.671   0.799  1.00  0.00    -0.246 OA
HETATM   14  N2  UNL     1      -4.303   0.961   1.575  1.00  0.00    -0.270 N 
HETATM   15  C4  UNL     1      -4.862   1.126   2.888  1.00  0.00     0.164 C 
HETATM   16  C5  UNL     1      -3.391   0.005   1.355  1.00  0.00     0.267 A 
HETATM   17  O2  UNL     1      -2.979  -0.782   2.251  1.00  0.00    -0.267 OA
ENDBRANCH   5   7
ENDBRANCH   1   5
BRANCH   3  18
HETATM   18  C9  UNL     1       1.938  -1.847  -0.421  1.00  0.00     0.142 C 
BRANCH  18  19
HETATM   19  C10 UNL     1       2.417  -0.790  -1.368  1.00  0.00     0.142 C 
BRANCH  19  20
HETATM   20  N4  UNL     1       3.864  -0.653  -1.351  1.00  0.00    -0.360 N 
ATOM     21  H4  UNL     1       4.404  -0.932  -2.170  1.00  0.00     0.162 HD
BRANCH  20  22
HETATM   22  C11 UNL     1       4.540  -0.135  -0.208  1.00  0.00     0.188 C 
HETATM   23  N5  UNL     1       4.217   0.925   0.444  1.00  0.00    -0.346 N 
HETATM   24  C12 UNL     1       5.126   1.141   1.543  1.00  0.00     0.259 C 
ATOM     25  H5  UNL     1       3.428   1.529   0.216  1.00  0.00     0.163 HD
HETATM   26  N6  UNL     1       6.307   0.420   1.139  1.00  0.00    -0.119 NA
HETATM   27  N7  UNL     1       5.702  -0.666   0.453  1.00  0.00    -0.274 N 
ATOM     28  H7  UNL     1       6.027  -1.633   0.433  1.00  0.00     0.185 HD
ENDBRANCH  20  22
ENDBRANCH  19  20
ENDBRANCH  18  19
ENDBRANCH   3  18
TORSDOF 6
