REMARK  8 active torsions:
REMARK  status: ('A' for Active; 'I' for Inactive)
REMARK    1  A    between atoms: C1_2  and  N1_3 
REMARK    2  A    between atoms: N1_3  and  O2_4 
REMARK    3  A    between atoms: N1_3  and  C2_6 
REMARK    4  A    between atoms: C3_7  and  C4_8 
REMARK    5  A    between atoms: C4_8  and  C5_9 
REMARK    6  A    between atoms: C6_10  and  O3_11 
REMARK    7  A    between atoms: N5_25  and  C10_26 
REMARK    8  A    between atoms: C10_26  and  O7_27 
ROOT
HETATM    1  C2  UNL     1      -1.678  -0.379   0.122  1.00  0.00     0.167 A 
HETATM    2  C3  UNL     1      -0.614  -0.157  -0.694  1.00  0.00     0.065 A 
HETATM    3  N4  UNL     1      -0.661   1.126  -1.181  1.00  0.00    -0.308 N 
ATOM      4  H4  UNL     1       0.004   1.565  -1.818  1.00  0.00     0.170 HD
HETATM    5  C9  UNL     1      -1.748   1.681  -0.655  1.00  0.00     0.330 A 
HETATM    6  O6  UNL     1      -2.110   2.862  -0.879  1.00  0.00    -0.246 OA
HETATM    7  N5  UNL     1      -2.376   0.805   0.129  1.00  0.00    -0.260 N 
ENDROOT
BRANCH   2   8
HETATM    8  C4  UNL     1       0.579  -0.979  -0.994  1.00  0.00     0.110 C 
BRANCH   8   9
HETATM    9  C5  UNL     1       1.853  -0.367  -0.537  1.00  0.00     0.067 A 
HETATM   10  C6  UNL     1       2.283  -0.266   0.744  1.00  0.00     0.156 A 
HETATM   11  N2  UNL     1       3.482   0.338   1.020  1.00  0.00    -0.288 N 
HETATM   12  C7  UNL     1       4.222   0.825   0.008  1.00  0.00     0.329 A 
ATOM     13  H2  UNL     1       3.810   0.417   1.983  1.00  0.00     0.172 HD
HETATM   14  O4  UNL     1       5.325   1.387   0.200  1.00  0.00    -0.247 OA
HETATM   15  N3  UNL     1       3.797   0.726  -1.274  1.00  0.00    -0.275 N 
HETATM   16  C8  UNL     1       2.646   0.152  -1.596  1.00  0.00     0.260 A 
ATOM     17  H3  UNL     1       4.383   1.106  -2.018  1.00  0.00     0.173 HD
HETATM   18  O5  UNL     1       2.280   0.075  -2.789  1.00  0.00    -0.267 OA
BRANCH  10  19
HETATM   19  O3  UNL     1       1.596  -0.733   1.837  1.00  0.00    -0.345 OA
ATOM     20  H3  UNL     1       1.897  -0.662   2.735  1.00  0.00     0.219 HD
ENDBRANCH  10  19
ENDBRANCH   8   9
ENDBRANCH   2   8
BRANCH   1  21
HETATM   21  N1  UNL     1      -2.158  -1.533   0.785  1.00  0.00    -0.180 N 
BRANCH  21  22
HETATM   22  C1  UNL     1      -1.474  -2.521   1.468  1.00  0.00     0.383 C 
HETATM   23  O1  UNL     1      -2.095  -3.483   2.017  1.00  0.00    -0.281 OA
ENDBRANCH  21  22
BRANCH  21  24
HETATM   24  O2  UNL     1      -3.448  -1.721   0.744  1.00  0.00    -0.279 OA
ATOM     25  H2  UNL     1      -3.918  -1.042   0.275  1.00  0.00     0.245 HD
ENDBRANCH  21  24
ENDBRANCH   1  21
BRANCH   7  26
HETATM   26  C10 UNL     1      -3.593   1.091   0.829  1.00  0.00     0.302 C 
BRANCH  26  27
HETATM   27  O7  UNL     1      -4.684   0.807  -0.028  1.00  0.00    -0.382 OA
ATOM     28  H7  UNL     1      -5.491   0.997   0.436  1.00  0.00     0.211 HD
ENDBRANCH  26  27
ENDBRANCH   7  26
TORSDOF 8
