REMARK  10 active torsions:
REMARK  status: ('A' for Active; 'I' for Inactive)
REMARK    1  A    between atoms: C2_2  and  C4_4 
REMARK    2  A    between atoms: C4_4  and  N1_5 
REMARK    3  A    between atoms: C4_4  and  C8_12 
REMARK       I    between atoms: N1_5  and  C5_7 
REMARK       I    between atoms: C5_7  and  N2_9 
REMARK       I    between atoms: C8_12  and  N3_14 
REMARK    4  A    between atoms: C12_18  and  C13_19 
REMARK    5  A    between atoms: C13_19  and  C14_20 
REMARK    6  A    between atoms: C20_26  and  C21_27 
REMARK       I    between atoms: C21_27  and  N4_29 
REMARK    7  A    between atoms: N4_29  and  C22_31 
REMARK    8  A    between atoms: C22_31  and  C23_32 
REMARK    9  A    between atoms: C22_31  and  C29_41 
REMARK   10  A    between atoms: C23_32  and  C24_33 
ROOT
HETATM    1  C8  UNL     1      -1.680  -0.504  -0.336  1.00  0.00     0.243 C 
HETATM    2  O2  UNL     1      -1.780  -0.677  -1.600  1.00  0.00    -0.271 OA
HETATM    3  N3  UNL     1      -0.602   0.324   0.118  1.00  0.00    -0.337 N 
HETATM    4  C9  UNL     1      -0.443   0.603   1.525  1.00  0.00     0.127 C 
HETATM    5  C10 UNL     1      -0.208   2.083   1.698  1.00  0.00     0.020 C 
HETATM    6  C11 UNL     1       0.931   2.563   0.799  1.00  0.00     0.009 C 
HETATM    7  C12 UNL     1       0.622   2.356  -0.634  1.00  0.00     0.018 C 
HETATM    8  C20 UNL     1       0.314   0.857  -0.832  1.00  0.00     0.183 C 
ENDROOT
BRANCH   8   9
HETATM    9  C21 UNL     1       1.540   0.071  -1.030  1.00  0.00     0.241 C 
HETATM   10  O3  UNL     1       2.429   0.502  -1.801  1.00  0.00    -0.271 OA
HETATM   11  N4  UNL     1       1.763  -1.165  -0.382  1.00  0.00    -0.348 N 
ATOM     12  H4  UNL     1       1.047  -1.529   0.247  1.00  0.00     0.163 HD
BRANCH  11  13
HETATM   13  C22 UNL     1       2.990  -1.941  -0.585  1.00  0.00     0.152 C 
BRANCH  13  14
HETATM   14  C23 UNL     1       3.660  -2.253   0.721  1.00  0.00     0.037 C 
BRANCH  14  15
HETATM   15  C24 UNL     1       4.075  -1.067   1.522  1.00  0.00    -0.009 C 
HETATM   16  C25 UNL     1       5.055  -0.165   0.845  1.00  0.00     0.032 C 
HETATM   17  C26 UNL     1       6.354  -0.866   0.507  1.00  0.00     0.232 C 
HETATM   18  N5  UNL     1       6.961  -1.286   1.734  1.00  0.00    -0.075 N 
HETATM   19  C27 UNL     1       6.105  -2.188   2.462  1.00  0.00     0.232 C 
ATOM     20  H52 UNL     1       7.883  -1.692   1.575  1.00  0.00     0.277 HD
ATOM     21  H51 UNL     1       7.237  -0.488   2.307  1.00  0.00     0.277 HD
HETATM   22  C28 UNL     1       4.757  -1.593   2.781  1.00  0.00     0.032 C 
ENDBRANCH  14  15
ENDBRANCH  13  14
BRANCH  13  23
HETATM   23  C29 UNL     1       2.677  -3.225  -1.268  1.00  0.00     0.104 A 
HETATM   24  N6  UNL     1       3.171  -4.416  -0.924  1.00  0.00    -0.353 N 
HETATM   25  C30 UNL     1       2.674  -5.348  -1.753  1.00  0.00     0.106 A 
ATOM     26  H6  UNL     1       3.820  -4.590  -0.157  1.00  0.00     0.166 HD
HETATM   27  C31 UNL     1       1.846  -4.693  -2.634  1.00  0.00     0.106 A 
HETATM   28  N7  UNL     1       1.850  -3.397  -2.336  1.00  0.00    -0.353 N 
ATOM     29  H7  UNL     1       1.329  -2.665  -2.819  1.00  0.00     0.166 HD
ENDBRANCH  13  23
ENDBRANCH  11  13
ENDBRANCH   8   9
BRANCH   7  30
HETATM   30  C13 UNL     1      -0.459   3.189  -1.170  1.00  0.00     0.012 C 
BRANCH  30  31
HETATM   31  C14 UNL     1      -0.392   4.645  -1.193  1.00  0.00    -0.014 C 
HETATM   32  C15 UNL     1      -0.270   5.446   0.027  1.00  0.00     0.005 C 
HETATM   33  C16 UNL     1      -0.943   6.833  -0.120  1.00  0.00     0.000 C 
HETATM   34  C17 UNL     1      -2.442   6.662  -0.181  1.00  0.00     0.000 C 
HETATM   35  C18 UNL     1      -2.760   5.437  -1.013  1.00  0.00     0.000 C 
HETATM   36  C19 UNL     1      -1.630   5.139  -1.979  1.00  0.00     0.005 C 
ENDBRANCH  30  31
ENDBRANCH   7  30
BRANCH   1  37
HETATM   37  C4  UNL     1      -2.667  -1.160   0.522  1.00  0.00     0.181 C 
BRANCH  37  38
HETATM   38  C2  UNL     1      -2.058  -2.309   1.338  1.00  0.00     0.009 C 
HETATM   39  C1  UNL     1      -3.093  -2.980   2.183  1.00  0.00     0.012 C 
HETATM   40  C3  UNL     1      -1.520  -3.373   0.382  1.00  0.00     0.012 C 
ENDBRANCH  37  38
BRANCH  37  41
HETATM   41  N1  UNL     1      -3.687  -1.807  -0.313  1.00  0.00    -0.329 N 
HETATM   42  C5  UNL     1      -5.069  -1.535  -0.218  1.00  0.00     0.318 C 
HETATM   43  O1  UNL     1      -5.463  -0.686   0.631  1.00  0.00    -0.247 OA
HETATM   44  N2  UNL     1      -5.965  -2.220  -1.075  1.00  0.00    -0.343 N 
HETATM   45  C6  UNL     1      -5.498  -3.184  -2.033  1.00  0.00     0.154 C 
HETATM   46  C7  UNL     1      -7.376  -1.916  -0.958  1.00  0.00     0.154 C 
ATOM     47  H1  UNL     1      -3.379  -2.493  -1.002  1.00  0.00     0.165 HD
ENDBRANCH  37  41
ENDBRANCH   1  37
TORSDOF 10
