REMARK  13 active torsions:
REMARK  status: ('A' for Active; 'I' for Inactive)
REMARK    1  A    between atoms: C9_10  and  N2_11 
REMARK       I    between atoms: N2_11  and  C10_13 
REMARK       I    between atoms: C10_13  and  N3_15 
REMARK    2  A    between atoms: N3_15  and  C11_17 
REMARK    3  A    between atoms: C11_17  and  C12_18 
REMARK    4  A    between atoms: C11_17  and  C29_41 
REMARK       I    between atoms: C12_18  and  N4_20 
REMARK    5  A    between atoms: N4_20  and  C13_22 
REMARK    6  A    between atoms: C13_22  and  C14_23 
REMARK    7  A    between atoms: C13_22  and  C21_30 
REMARK    8  A    between atoms: C14_23  and  C15_24 
REMARK    9  A    between atoms: C21_30  and  O3_31 
REMARK   10  A    between atoms: C21_30  and  C22_33 
REMARK   11  A    between atoms: C22_33  and  N5_34 
REMARK   12  A    between atoms: N5_34  and  C24_36 
REMARK   13  A    between atoms: C24_36  and  C25_37 
ROOT
HETATM    1  C12 UNL     1       0.108   1.393   0.496  1.00  0.00     0.241 C 
HETATM    2  O2  UNL     1       0.090   0.838  -0.671  1.00  0.00    -0.271 OA
HETATM    3  N4  UNL     1      -1.131   1.713   1.049  1.00  0.00    -0.352 N 
ATOM      4  H4  UNL     1      -1.172   2.147   1.971  1.00  0.00     0.163 HD
ENDROOT
BRANCH   1   5
HETATM    5  C11 UNL     1       1.464   1.584   1.032  1.00  0.00     0.185 C 
BRANCH   5   6
HETATM    6  N3  UNL     1       2.268   0.420   0.670  1.00  0.00    -0.329 N 
HETATM    7  C10 UNL     1       3.302   0.481  -0.283  1.00  0.00     0.318 C 
HETATM    8  N2  UNL     1       4.092  -0.638  -0.649  1.00  0.00    -0.307 N 
HETATM    9  O1  UNL     1       3.542   1.578  -0.844  1.00  0.00    -0.247 OA
ATOM     10  H2  UNL     1       3.892  -1.518  -0.173  1.00  0.00     0.166 HD
ATOM     11  H3  UNL     1       2.073  -0.472   1.125  1.00  0.00     0.165 HD
BRANCH   8  12
HETATM   12  C9  UNL     1       5.139  -0.655  -1.617  1.00  0.00     0.241 C 
HETATM   13  C2  UNL     1       4.725  -0.312  -3.009  1.00  0.00     0.070 C 
HETATM   14  C1  UNL     1       3.222  -0.512  -3.243  1.00  0.00     0.016 C 
HETATM   15  C3  UNL     1       5.508  -1.529  -3.455  1.00  0.00     0.285 C 
HETATM   16  N1  UNL     1       5.513  -1.973  -2.098  1.00  0.00     0.127 N 
HETATM   17  C4  UNL     1       6.702  -2.385  -1.477  1.00  0.00     0.156 C 
HETATM   18  C5  UNL     1       7.837  -2.723  -2.404  1.00  0.00     0.049 C 
HETATM   19  C6  UNL     1       6.469  -3.668  -0.648  1.00  0.00     0.049 C 
HETATM   20  C7  UNL     1       7.135  -1.260  -0.583  1.00  0.00     0.045 C 
HETATM   21  C8  UNL     1       6.443  -0.053  -1.154  1.00  0.00     0.068 C 
ENDBRANCH   8  12
ENDBRANCH   5   6
BRANCH   5  22
HETATM   22  C29 UNL     1       1.563   1.905   2.483  1.00  0.00    -0.022 C 
HETATM   23  C30 UNL     1       1.060   0.811   3.375  1.00  0.00     0.017 C 
HETATM   24  C31 UNL     1       0.960   3.217   2.882  1.00  0.00     0.017 C 
HETATM   25  C32 UNL     1       3.072   2.034   2.865  1.00  0.00     0.017 C 
ENDBRANCH   5  22
ENDBRANCH   1   5
BRANCH   3  26
HETATM   26  C13 UNL     1      -2.406   1.429   0.310  1.00  0.00     0.115 C 
BRANCH  26  27
HETATM   27  C14 UNL     1      -2.816   2.843  -0.123  1.00  0.00     0.032 C 
BRANCH  27  28
HETATM   28  C15 UNL     1      -4.048   2.957  -0.920  1.00  0.00    -0.013 C 
HETATM   29  C16 UNL     1      -4.021   2.211  -2.225  1.00  0.00     0.005 C 
HETATM   30  C17 UNL     1      -4.428   3.063  -3.404  1.00  0.00     0.000 C 
HETATM   31  C18 UNL     1      -5.656   3.876  -3.129  1.00  0.00     0.000 C 
HETATM   32  C19 UNL     1      -5.510   4.723  -1.882  1.00  0.00     0.000 C 
HETATM   33  C20 UNL     1      -4.159   4.456  -1.304  1.00  0.00     0.005 C 
ENDBRANCH  27  28
ENDBRANCH  26  27
BRANCH  26  34
HETATM   34  C21 UNL     1      -3.436   0.912   1.225  1.00  0.00     0.158 C 
BRANCH  34  35
HETATM   35  O3  UNL     1      -4.616   0.660   0.557  1.00  0.00    -0.392 OA
ATOM     36  H3  UNL     1      -5.281   0.326   1.148  1.00  0.00     0.210 HD
ENDBRANCH  34  35
BRANCH  34  37
HETATM   37  C22 UNL     1      -3.138  -0.204   2.141  1.00  0.00     0.155 C 
BRANCH  37  38
HETATM   38  N5  UNL     1      -3.035  -1.522   1.616  1.00  0.00    -0.394 N 
HETATM   39  C23 UNL     1      -1.952  -1.831   0.791  1.00  0.00     0.148 C 
BRANCH  38  40
HETATM   40  C24 UNL     1      -4.232  -2.248   1.565  1.00  0.00     0.066 C 
BRANCH  40  41
HETATM   41  C25 UNL     1      -4.194  -3.677   1.085  1.00  0.00    -0.019 C 
HETATM   42  C26 UNL     1      -3.321  -4.554   1.923  1.00  0.00     0.020 C 
HETATM   43  C27 UNL     1      -3.857  -3.842  -0.359  1.00  0.00     0.020 C 
HETATM   44  C28 UNL     1      -5.628  -4.269   1.236  1.00  0.00     0.020 C 
ENDBRANCH  40  41
ENDBRANCH  38  40
ENDBRANCH  37  38
ENDBRANCH  34  37
ENDBRANCH  26  34
ENDBRANCH   3  26
TORSDOF 13
