REMARK  12 active torsions:
REMARK  status: ('A' for Active; 'I' for Inactive)
REMARK    1  A    between atoms: C4_4  and  C5_5 
REMARK    2  A    between atoms: C5_5  and  C6_7 
REMARK    3  A    between atoms: C6_7  and  N1_8 
REMARK    4  A    between atoms: C6_7  and  C7_12 
REMARK       I    between atoms: C7_12  and  N2_14 
REMARK    5  A    between atoms: N2_14  and  C8_16 
REMARK    6  A    between atoms: C8_16  and  C9_17 
REMARK    7  A    between atoms: C8_16  and  C16_24 
REMARK    8  A    between atoms: C9_17  and  C10_18 
REMARK       I    between atoms: C16_24  and  N3_26 
REMARK    9  A    between atoms: N3_26  and  C17_28 
REMARK   10  A    between atoms: C17_28  and  C18_29 
REMARK   11  A    between atoms: C17_28  and  C23_37 
REMARK       I    between atoms: C18_29  and  N4_31 
REMARK   12  A    between atoms: N4_31  and  C19_33 
ROOT
HETATM    1  C8  UNL     1      -1.853  -2.048  -1.044  1.00  0.00     0.080 C 
ENDROOT
BRANCH   1   2
HETATM    2  N2  UNL     1      -0.804  -1.837  -1.946  1.00  0.00    -0.324 N 
HETATM    3  C7  UNL     1      -0.338  -0.661  -2.572  1.00  0.00     0.260 C 
HETATM    4  O2  UNL     1      -0.877   0.447  -2.337  1.00  0.00    -0.270 OA
ATOM      5  H2  UNL     1      -0.286  -2.680  -2.194  1.00  0.00     0.169 HD
BRANCH   3   6
HETATM    6  C6  UNL     1       0.827  -0.673  -3.554  1.00  0.00     0.348 C 
BRANCH   6   7
HETATM    7  C5  UNL     1       2.007  -1.182  -2.835  1.00  0.00     0.199 C 
HETATM    8  O1  UNL     1       2.220  -2.446  -2.820  1.00  0.00    -0.289 OA
BRANCH   7   9
HETATM    9  C4  UNL     1       2.976  -0.373  -2.125  1.00  0.00     0.013 A 
HETATM   10  C3  UNL     1       2.900   0.962  -1.880  1.00  0.00     0.022 A 
HETATM   11  C2  UNL     1       3.876   1.720  -1.231  1.00  0.00    -0.053 A 
HETATM   12  C1  UNL     1       3.677   3.198  -1.022  1.00  0.00     0.049 C 
HETATM   13  C28 UNL     1       5.017   1.083  -0.795  1.00  0.00    -0.038 A 
HETATM   14  C27 UNL     1       5.139  -0.267  -1.018  1.00  0.00    -0.050 A 
HETATM   15  C29 UNL     1       6.237   1.538  -0.093  1.00  0.00    -0.019 C 
HETATM   16  C26 UNL     1       4.154  -0.989  -1.664  1.00  0.00     0.023 A 
HETATM   17  C33 UNL     1       6.434  -0.760  -0.470  1.00  0.00     0.040 C 
HETATM   18  C32 UNL     1       6.703   0.261   0.614  1.00  0.00     0.018 C 
HETATM   19  C30 UNL     1       5.986   2.567   0.960  1.00  0.00     0.020 C 
HETATM   20  C31 UNL     1       7.284   1.958  -1.102  1.00  0.00     0.020 C 
ENDBRANCH   7   9
ENDBRANCH   6   7
BRANCH   6  21
HETATM   21  N1  UNL     1       1.010   0.626  -4.106  1.00  0.00    -0.059 N 
ATOM     22  H13 UNL     1       1.304   1.285  -3.385  1.00  0.00     0.275 HD
ATOM     23  H12 UNL     1       1.835   0.649  -4.706  1.00  0.00     0.275 HD
ATOM     24  H11 UNL     1       0.193   0.979  -4.604  1.00  0.00     0.275 HD
ENDBRANCH   6  21
ENDBRANCH   3   6
ENDBRANCH   1   2
BRANCH   1  25
HETATM   25  C9  UNL     1      -1.548  -2.589   0.272  1.00  0.00     0.067 C 
BRANCH  25  26
HETATM   26  C10 UNL     1      -0.931  -3.939   0.421  1.00  0.00    -0.009 C 
HETATM   27  C11 UNL     1       0.392  -4.177  -0.206  1.00  0.00     0.005 C 
HETATM   28  C12 UNL     1       1.194  -5.209   0.602  1.00  0.00     0.000 C 
HETATM   29  C13 UNL     1       0.218  -6.237   1.162  1.00  0.00     0.000 C 
HETATM   30  C14 UNL     1      -0.666  -5.596   2.226  1.00  0.00     0.000 C 
HETATM   31  C15 UNL     1      -0.755  -4.129   1.947  1.00  0.00     0.005 C 
ENDBRANCH  25  26
ENDBRANCH   1  25
BRANCH   1  32
HETATM   32  C16 UNL     1      -2.851  -0.919  -0.915  1.00  0.00     0.264 C 
HETATM   33  O3  UNL     1      -3.283  -0.453  -2.024  1.00  0.00    -0.266 OA
HETATM   34  N3  UNL     1      -3.299  -0.387   0.305  1.00  0.00    -0.342 N 
ATOM     35  H3  UNL     1      -2.946  -0.764   1.184  1.00  0.00     0.163 HD
BRANCH  34  36
HETATM   36  C17 UNL     1      -4.260   0.694   0.318  1.00  0.00     0.180 C 
BRANCH  36  37
HETATM   37  C18 UNL     1      -3.651   1.951   0.812  1.00  0.00     0.241 C 
HETATM   38  O4  UNL     1      -2.422   1.964   1.166  1.00  0.00    -0.271 OA
HETATM   39  N4  UNL     1      -4.346   3.174   0.924  1.00  0.00    -0.351 N 
ATOM     40  H4  UNL     1      -5.330   3.183   0.656  1.00  0.00     0.163 HD
BRANCH  39  41
HETATM   41  C19 UNL     1      -3.776   4.402   1.385  1.00  0.00     0.022 C 
HETATM   42  C20 UNL     1      -2.649   4.890   0.498  1.00  0.00     0.037 C 
HETATM   43  C21 UNL     1      -3.203   4.299   2.786  1.00  0.00     0.037 C 
HETATM   44  C22 UNL     1      -4.844   5.493   1.411  1.00  0.00     0.037 C 
ENDBRANCH  39  41
ENDBRANCH  36  37
BRANCH  36  45
HETATM   45  C23 UNL     1      -5.520   0.347   1.066  1.00  0.00     0.009 C 
HETATM   46  C24 UNL     1      -6.213  -0.859   0.445  1.00  0.00     0.012 C 
HETATM   47  C25 UNL     1      -5.333   0.161   2.536  1.00  0.00     0.012 C 
ENDBRANCH  36  45
ENDBRANCH  34  36
ENDBRANCH   1  32
TORSDOF 12
