REMARK  13 active torsions:
REMARK  status: ('A' for Active; 'I' for Inactive)
REMARK    1  A    between atoms: N1_2  and  C2_5 
REMARK    2  A    between atoms: C2_5  and  C4_7 
REMARK       I    between atoms: C4_7  and  N2_9 
REMARK    3  A    between atoms: N2_9  and  C5_11 
REMARK    4  A    between atoms: C5_11  and  C6_12 
REMARK    5  A    between atoms: C5_11  and  C13_19 
REMARK    6  A    between atoms: C6_12  and  C7_13 
REMARK       I    between atoms: C13_19  and  N3_21 
REMARK    7  A    between atoms: N3_21  and  C14_23 
REMARK    8  A    between atoms: C14_23  and  C15_24 
REMARK    9  A    between atoms: C14_23  and  C22_31 
REMARK   10  A    between atoms: C15_24  and  C16_25 
REMARK   11  A    between atoms: C22_31  and  O3_32 
REMARK   12  A    between atoms: C22_31  and  N4_34 
REMARK   13  A    between atoms: N5_36  and  C24_37 
ROOT
HETATM    1  N4  UNL     1       3.020  -0.986  -0.742  1.00  0.00    -0.330 N 
HETATM    2  C23 UNL     1       3.834  -0.157   0.115  1.00  0.00     0.247 C 
HETATM    3  N5  UNL     1       4.437  -1.011   1.117  1.00  0.00    -0.392 N 
HETATM    4  C29 UNL     1       5.226  -2.076   0.638  1.00  0.00     0.122 C 
HETATM    5  C30 UNL     1       4.383  -2.960  -0.304  1.00  0.00     0.060 C 
HETATM    6  C31 UNL     1       3.736  -2.108  -1.362  1.00  0.00     0.196 C 
HETATM    7  C32 UNL     1       4.755  -1.577  -2.271  1.00  0.00     0.085 C 
HETATM    8  N6  UNL     1       5.563  -1.175  -2.972  1.00  0.00    -0.195 NA
ENDROOT
BRANCH   1   9
HETATM    9  C22 UNL     1       1.669  -0.737  -0.991  1.00  0.00     0.139 C 
BRANCH   9  10
HETATM   10  C14 UNL     1       0.885   0.409  -0.553  1.00  0.00     0.159 C 
BRANCH  10  11
HETATM   11  N3  UNL     1      -0.367  -0.106  -0.014  1.00  0.00    -0.347 N 
HETATM   12  C13 UNL     1      -1.608   0.433   0.162  1.00  0.00     0.241 C 
HETATM   13  O2  UNL     1      -1.948   1.616  -0.172  1.00  0.00    -0.271 OA
ATOM     14  H3  UNL     1      -0.302  -1.075   0.298  1.00  0.00     0.163 HD
BRANCH  12  15
HETATM   15  C5  UNL     1      -2.742  -0.372   0.797  1.00  0.00     0.177 C 
BRANCH  15  16
HETATM   16  N2  UNL     1      -3.858  -0.138  -0.086  1.00  0.00    -0.346 N 
HETATM   17  C4  UNL     1      -4.800   0.906   0.065  1.00  0.00     0.248 C 
HETATM   18  O1  UNL     1      -4.705   1.729   1.005  1.00  0.00    -0.271 OA
ATOM     19  H2  UNL     1      -3.976  -0.771  -0.877  1.00  0.00     0.163 HD
BRANCH  17  20
HETATM   20  C2  UNL     1      -5.916   1.042  -0.893  1.00  0.00     0.272 C 
HETATM   21  C3  UNL     1      -5.544   0.784  -2.309  1.00  0.00     0.050 C 
BRANCH  20  22
HETATM   22  N1  UNL     1      -6.700   2.262  -0.687  1.00  0.00    -0.067 N 
HETATM   23  C1  UNL     1      -5.917   3.425  -1.112  1.00  0.00     0.267 C 
ATOM     24  H12 UNL     1      -7.030   2.350   0.274  1.00  0.00     0.277 HD
ATOM     25  H11 UNL     1      -7.608   2.219  -1.150  1.00  0.00     0.277 HD
ENDBRANCH  20  22
ENDBRANCH  17  20
ENDBRANCH  15  16
BRANCH  15  26
HETATM   26  C6  UNL     1      -2.317  -1.760   0.943  1.00  0.00     0.039 C 
BRANCH  26  27
HETATM   27  C7  UNL     1      -3.342  -2.745   1.459  1.00  0.00    -0.012 C 
HETATM   28  C8  UNL     1      -4.549  -2.920   0.573  1.00  0.00     0.005 C 
HETATM   29  C9  UNL     1      -5.152  -4.284   1.006  1.00  0.00     0.000 C 
HETATM   30  C10 UNL     1      -5.073  -4.373   2.533  1.00  0.00     0.000 C 
HETATM   31  C11 UNL     1      -5.130  -2.986   3.112  1.00  0.00     0.000 C 
HETATM   32  C12 UNL     1      -3.783  -2.347   2.865  1.00  0.00     0.005 C 
ENDBRANCH  26  27
ENDBRANCH  15  26
ENDBRANCH  12  15
ENDBRANCH  10  11
BRANCH  10  33
HETATM   33  C15 UNL     1       0.417   1.221  -1.801  1.00  0.00     0.038 C 
BRANCH  33  34
HETATM   34  C16 UNL     1       1.515   1.838  -2.587  1.00  0.00    -0.012 C 
HETATM   35  C17 UNL     1       0.807   2.586  -3.752  1.00  0.00     0.005 C 
HETATM   36  C18 UNL     1       0.329   3.902  -3.240  1.00  0.00     0.000 C 
HETATM   37  C19 UNL     1       1.530   4.840  -3.121  1.00  0.00     0.000 C 
HETATM   38  C20 UNL     1       2.728   4.008  -2.772  1.00  0.00     0.000 C 
HETATM   39  C21 UNL     1       2.363   2.837  -1.860  1.00  0.00     0.005 C 
ENDBRANCH  33  34
ENDBRANCH  10  33
ENDBRANCH   9  10
BRANCH   9  40
HETATM   40  O3  UNL     1       1.084  -1.670  -1.702  1.00  0.00    -0.348 OA
ATOM     41  H3  UNL     1       1.596  -2.418  -1.988  1.00  0.00     0.219 HD
ENDBRANCH   9  40
ENDBRANCH   1   9
BRANCH   3  42
HETATM   42  C24 UNL     1       4.938  -0.282   2.248  1.00  0.00     0.080 C 
HETATM   43  C25 UNL     1       6.023   0.672   1.900  1.00  0.00     0.025 C 
HETATM   44  C26 UNL     1       6.630   1.031   3.241  1.00  0.00     0.002 C 
HETATM   45  C27 UNL     1       6.389  -0.148   4.119  1.00  0.00     0.002 C 
HETATM   46  C28 UNL     1       5.448  -1.088   3.369  1.00  0.00     0.025 C 
ENDBRANCH   3  42
TORSDOF 13
