REMARK  16 active torsions:
REMARK  status: ('A' for Active; 'I' for Inactive)
REMARK       I    between atoms: C2_2  and  N1_4 
REMARK    1  A    between atoms: N1_4  and  C3_6 
REMARK    2  A    between atoms: C3_6  and  C4_7 
REMARK    3  A    between atoms: C3_6  and  C27_40 
REMARK    4  A    between atoms: C4_7  and  C5_8 
REMARK    5  A    between atoms: C5_8  and  C6_9 
REMARK    6  A    between atoms: C6_9  and  O2_10 
REMARK    7  A    between atoms: C6_9  and  N2_12 
REMARK    8  A    between atoms: N2_12  and  C7_13 
REMARK    9  A    between atoms: N2_12  and  C14_23 
REMARK   10  A    between atoms: C7_13  and  O3_14 
REMARK   11  A    between atoms: C7_13  and  N3_16 
REMARK   12  A    between atoms: C25_34  and  C26_35 
REMARK   13  A    between atoms: C26_35  and  O4_36 
REMARK   14  A    between atoms: C27_40  and  O5_41 
REMARK   15  A    between atoms: C27_40  and  C28_43 
REMARK   16  A    between atoms: C28_43  and  C29_44 
ROOT
HETATM    1  N2  UNL     1       0.177   0.475  -0.051  1.00  0.00    -0.292 N 
ENDROOT
BRANCH   1   2
HETATM    2  C6  UNL     1      -0.819  -0.384  -0.481  1.00  0.00     0.121 C 
BRANCH   2   3
HETATM    3  C5  UNL     1      -2.288  -0.336  -0.535  1.00  0.00     0.090 C 
BRANCH   3   4
HETATM    4  C4  UNL     1      -2.847  -1.634  -1.076  1.00  0.00     0.063 C 
BRANCH   4   5
HETATM    5  C3  UNL     1      -4.296  -1.732  -1.249  1.00  0.00     0.018 C 
BRANCH   5   6
HETATM    6  N1  UNL     1      -4.893  -0.759  -2.169  1.00  0.00    -0.332 N 
HETATM    7  C2  UNL     1      -5.465  -1.110  -3.411  1.00  0.00     0.217 C 
HETATM    8  C1  UNL     1      -6.042  -0.072  -4.280  1.00  0.00     0.117 C 
HETATM    9  O1  UNL     1      -5.477  -2.304  -3.767  1.00  0.00    -0.274 OA
ATOM     10  H1  UNL     1      -4.895   0.224  -1.897  1.00  0.00     0.168 HD
ENDBRANCH   5   6
BRANCH   5  11
HETATM   11  C27 UNL     1      -5.153  -1.968  -0.046  1.00  0.00     0.164 C 
BRANCH  11  12
HETATM   12  O5  UNL     1      -4.600  -2.824   0.869  1.00  0.00    -0.390 OA
ATOM     13  H5  UNL     1      -5.144  -2.974   1.633  1.00  0.00     0.210 HD
ENDBRANCH  11  12
BRANCH  11  14
HETATM   14  C28 UNL     1      -5.690  -0.740   0.624  1.00  0.00     0.041 C 
BRANCH  14  15
HETATM   15  C29 UNL     1      -6.537  -1.127   1.800  1.00  0.00    -0.020 C 
HETATM   16  C30 UNL     1      -5.852  -1.894   2.874  1.00  0.00     0.009 C 
HETATM   17  C31 UNL     1      -7.771  -1.912   1.365  1.00  0.00     0.009 C 
ENDBRANCH  14  15
ENDBRANCH  11  14
ENDBRANCH   5  11
ENDBRANCH   4   5
ENDBRANCH   3   4
ENDBRANCH   2   3
BRANCH   2  18
HETATM   18  O2  UNL     1      -0.416  -1.568  -0.983  1.00  0.00    -0.349 OA
ATOM     19  H2  UNL     1       0.533  -1.599  -0.948  1.00  0.00     0.219 HD
ENDBRANCH   2  18
ENDBRANCH   1   2
BRANCH   1  20
HETATM   20  C7  UNL     1       0.151   1.725   0.521  1.00  0.00     0.224 C 
BRANCH  20  21
HETATM   21  O3  UNL     1       1.425   2.126   0.787  1.00  0.00    -0.332 OA
ATOM     22  H3  UNL     1       1.407   2.990   1.182  1.00  0.00     0.221 HD
ENDBRANCH  20  21
BRANCH  20  23
HETATM   23  N3  UNL     1      -0.687   2.737   0.930  1.00  0.00    -0.338 N 
HETATM   24  C8  UNL     1      -2.145   2.753   0.862  1.00  0.00     0.206 C 
HETATM   25  C9  UNL     1      -2.650   3.989   1.392  1.00  0.00    -0.163 C 
HETATM   26  C10 UNL     1      -2.906   5.254   1.919  1.00  0.00     0.081 C 
HETATM   27  C11 UNL     1      -1.519   5.978   2.059  1.00  0.00     0.013 C 
HETATM   28  C12 UNL     1      -0.469   5.261   1.219  1.00  0.00     0.021 C 
HETATM   29  C13 UNL     1       0.004   3.933   1.535  1.00  0.00     0.127 C 
ENDBRANCH  20  23
ENDBRANCH   1  20
BRANCH   1  30
HETATM   30  C14 UNL     1       1.552  -0.084  -0.234  1.00  0.00     0.095 C 
HETATM   31  C15 UNL     1       2.393   0.643  -1.204  1.00  0.00     0.028 C 
HETATM   32  C16 UNL     1       3.841   0.663  -0.760  1.00  0.00     0.032 C 
HETATM   33  C17 UNL     1       4.352  -0.685  -0.303  1.00  0.00     0.026 C 
HETATM   34  C18 UNL     1       3.356  -1.393   0.630  1.00  0.00     0.032 C 
HETATM   35  C20 UNL     1       4.509  -1.539  -1.505  1.00  0.00     0.031 C 
HETATM   36  N4  UNL     1       5.514  -0.466   0.479  1.00  0.00    -0.406 N 
HETATM   37  C19 UNL     1       2.285  -0.335   1.027  1.00  0.00     0.028 C 
HETATM   38  C21 UNL     1       5.864  -1.369  -2.176  1.00  0.00     0.013 C 
HETATM   39  C22 UNL     1       6.876  -1.766  -1.122  1.00  0.00    -0.025 C 
HETATM   40  C23 UNL     1       8.253  -1.576  -1.723  1.00  0.00     0.017 C 
HETATM   41  C24 UNL     1       6.718  -3.275  -0.913  1.00  0.00     0.017 C 
HETATM   42  C25 UNL     1       6.746  -0.995   0.125  1.00  0.00     0.108 C 
ATOM     43  H4  UNL     1       5.442   0.097   1.327  1.00  0.00     0.154 HD
BRANCH  42  44
HETATM   44  C26 UNL     1       7.253  -1.880   1.275  1.00  0.00     0.189 C 
BRANCH  44  45
HETATM   45  O4  UNL     1       7.372  -1.083   2.419  1.00  0.00    -0.399 OA
ATOM     46  H4  UNL     1       7.685  -1.630   3.130  1.00  0.00     0.209 HD
ENDBRANCH  44  45
ENDBRANCH  42  44
ENDBRANCH   1  30
TORSDOF 16
