REMARK  15 active torsions:
REMARK  status: ('A' for Active; 'I' for Inactive)
REMARK    1  A    between atoms: N1_2  and  C2_3 
REMARK    2  A    between atoms: N1_2  and  C15_25 
REMARK    3  A    between atoms: C2_3  and  O1_4 
REMARK    4  A    between atoms: C2_3  and  C3_6 
REMARK    5  A    between atoms: C3_6  and  N2_7 
REMARK    6  A    between atoms: C3_6  and  C11_21 
REMARK       I    between atoms: N2_7  and  C4_9 
REMARK       I    between atoms: C4_9  and  N3_11 
REMARK    7  A    between atoms: N3_11  and  C5_13 
REMARK    8  A    between atoms: C5_13  and  C6_14 
REMARK    9  A    between atoms: C5_13  and  C7_17 
REMARK   10  A    between atoms: C15_25  and  C16_26 
REMARK   11  A    between atoms: C15_25  and  C26_37 
REMARK   12  A    between atoms: C16_26  and  C17_27 
REMARK   13  A    between atoms: C17_27  and  C18_28 
REMARK   14  A    between atoms: C18_28  and  N4_29 
REMARK       I    between atoms: C26_37  and  N5_39 
REMARK   15  A    between atoms: N5_39  and  C27_41 
ROOT
HETATM    1  C1  UNL     1       0.030  -0.702  -3.047  1.00  0.00     0.152 C 
HETATM    2  N1  UNL     1      -0.112  -0.093  -1.731  1.00  0.00    -0.355 N 
ENDROOT
BRANCH   2   3
HETATM    3  C2  UNL     1       1.040   0.274  -1.016  1.00  0.00     0.138 C 
BRANCH   3   4
HETATM    4  O1  UNL     1       0.770   0.720   0.179  1.00  0.00    -0.348 OA
ATOM      5  H1  UNL     1       1.549   0.968   0.663  1.00  0.00     0.219 HD
ENDBRANCH   3   4
BRANCH   3   6
HETATM    6  C3  UNL     1       2.458   0.211  -1.441  1.00  0.00     0.168 C 
BRANCH   6   7
HETATM    7  N2  UNL     1       3.255  -0.289  -0.338  1.00  0.00    -0.330 N 
HETATM    8  C4  UNL     1       4.407  -1.042  -0.282  1.00  0.00     0.317 C 
HETATM    9  O2  UNL     1       5.101  -1.485  -1.251  1.00  0.00    -0.247 OA
HETATM   10  N3  UNL     1       4.922  -1.385   0.996  1.00  0.00    -0.328 N 
ATOM     11  H3  UNL     1       4.355  -1.110   1.798  1.00  0.00     0.165 HD
ATOM     12  H2  UNL     1       2.890  -0.032   0.579  1.00  0.00     0.165 HD
BRANCH  10  13
HETATM   13  C5  UNL     1       6.139  -2.069   1.291  1.00  0.00     0.194 C 
BRANCH  13  14
HETATM   14  C6  UNL     1       5.884  -3.544   1.504  1.00  0.00     0.197 C 
HETATM   15  O3  UNL     1       4.787  -4.062   1.423  1.00  0.00    -0.646 OA
HETATM   16  O4  UNL     1       7.016  -4.339   1.814  1.00  0.00    -0.646 OA
ENDBRANCH  13  14
BRANCH  13  17
HETATM   17  C7  UNL     1       6.742  -1.476   2.555  1.00  0.00    -0.021 C 
HETATM   18  C8  UNL     1       5.844  -1.637   3.743  1.00  0.00     0.017 C 
HETATM   19  C9  UNL     1       8.126  -1.938   2.841  1.00  0.00     0.017 C 
HETATM   20  C10 UNL     1       6.822   0.039   2.286  1.00  0.00     0.017 C 
ENDBRANCH  13  17
ENDBRANCH  10  13
ENDBRANCH   6   7
BRANCH   6  21
HETATM   21  C11 UNL     1       2.958   1.621  -1.810  1.00  0.00    -0.023 C 
HETATM   22  C12 UNL     1       2.973   2.587  -0.702  1.00  0.00     0.017 C 
HETATM   23  C13 UNL     1       1.955   2.201  -2.845  1.00  0.00     0.017 C 
HETATM   24  C14 UNL     1       4.255   1.608  -2.537  1.00  0.00     0.017 C 
ENDBRANCH   6  21
ENDBRANCH   3   6
ENDBRANCH   2   3
BRANCH   2  25
HETATM   25  C15 UNL     1      -1.489   0.144  -1.260  1.00  0.00     0.177 C 
BRANCH  25  26
HETATM   26  C16 UNL     1      -1.746   1.577  -1.059  1.00  0.00     0.036 C 
BRANCH  26  27
HETATM   27  C17 UNL     1      -3.136   1.911  -0.643  1.00  0.00     0.033 C 
BRANCH  27  28
HETATM   28  C18 UNL     1      -4.102   1.533  -1.731  1.00  0.00     0.272 C 
BRANCH  28  29
HETATM   29  N4  UNL     1      -5.475   1.790  -1.394  1.00  0.00     0.088 N 
HETATM   30  C19 UNL     1      -5.802   3.174  -1.280  1.00  0.00     0.272 C 
HETATM   31  C20 UNL     1      -6.638   3.398  -0.048  1.00  0.00     0.030 C 
HETATM   32  C21 UNL     1      -6.732   2.194   0.834  1.00  0.00     0.002 C 
HETATM   33  C22 UNL     1      -8.023   1.451   0.472  1.00  0.00     0.000 C 
HETATM   34  C23 UNL     1      -7.676   0.353  -0.482  1.00  0.00     0.002 C 
HETATM   35  C24 UNL     1      -7.691   0.878  -1.890  1.00  0.00     0.030 C 
HETATM   36  C25 UNL     1      -6.285   1.133  -2.402  1.00  0.00     0.272 C 
ENDBRANCH  28  29
ENDBRANCH  27  28
ENDBRANCH  26  27
ENDBRANCH  25  26
BRANCH  25  37
HETATM   37  C26 UNL     1      -1.632  -0.628  -0.004  1.00  0.00     0.241 C 
HETATM   38  O5  UNL     1      -2.466  -0.378   0.874  1.00  0.00    -0.271 OA
HETATM   39  N5  UNL     1      -0.754  -1.762   0.245  1.00  0.00    -0.351 N 
ATOM     40  H5  UNL     1      -0.049  -2.023  -0.444  1.00  0.00     0.163 HD
BRANCH  39  41
HETATM   41  C27 UNL     1      -0.882  -2.509   1.457  1.00  0.00     0.022 C 
HETATM   42  C28 UNL     1      -2.247  -3.189   1.603  1.00  0.00     0.037 C 
HETATM   43  C29 UNL     1       0.155  -3.607   1.506  1.00  0.00     0.037 C 
HETATM   44  C30 UNL     1      -0.703  -1.667   2.714  1.00  0.00     0.037 C 
ENDBRANCH  39  41
ENDBRANCH  25  37
ENDBRANCH   2  25
TORSDOF 15
