REMARK  13 active torsions:
REMARK  status: ('A' for Active; 'I' for Inactive)
REMARK    1  A    between atoms: C2_2  and  C3_3 
REMARK    2  A    between atoms: C8_8  and  C9_9 
REMARK       I    between atoms: C9_9  and  N1_11 
REMARK    3  A    between atoms: N1_11  and  C10_13 
REMARK    4  A    between atoms: C10_13  and  C11_14 
REMARK    5  A    between atoms: C10_13  and  C15_19 
REMARK    6  A    between atoms: C11_14  and  C12_16 
REMARK    7  A    between atoms: C19_23  and  N2_24 
REMARK    8  A    between atoms: N2_24  and  C20_26 
REMARK    9  A    between atoms: C20_26  and  O3_27 
REMARK   10  A    between atoms: C20_26  and  C21_29 
REMARK   11  A    between atoms: C21_29  and  N3_30 
REMARK   12  A    between atoms: C21_29  and  C26_41 
REMARK       I    between atoms: N3_30  and  C22_32 
REMARK   13  A    between atoms: C22_32  and  C23_34 
ROOT
HETATM    1  C3  UNL     1      -1.063  -3.429  -1.334  1.00  0.00    -0.005 C 
HETATM    2  C4  UNL     1      -0.231  -4.118  -0.330  1.00  0.00    -0.005 C 
HETATM    3  C5  UNL     1      -1.174  -4.334   0.876  1.00  0.00     0.006 C 
HETATM    4  C6  UNL     1      -2.071  -3.152   0.795  1.00  0.00     0.006 C 
HETATM    5  C7  UNL     1      -1.789  -2.415  -0.462  1.00  0.00     0.009 C 
HETATM    6  C8  UNL     1      -0.777  -1.269  -0.294  1.00  0.00     0.128 C 
HETATM    7  C19 UNL     1       0.561  -1.692  -0.190  1.00  0.00     0.002 C 
HETATM    8  C32 UNL     1       0.827  -3.164   0.151  1.00  0.00     0.058 C 
ENDROOT
BRANCH   7   9
HETATM    9  N2  UNL     1       1.633  -1.009   0.519  1.00  0.00    -0.345 N 
ATOM     10  H2  UNL     1       1.587  -0.935   1.535  1.00  0.00     0.167 HD
BRANCH   9  11
HETATM   11  C20 UNL     1       2.738  -0.444  -0.164  1.00  0.00     0.139 C 
BRANCH  11  12
HETATM   12  O3  UNL     1       2.629  -0.572  -1.458  1.00  0.00    -0.348 OA
ATOM     13  H3  UNL     1       3.370  -0.193  -1.916  1.00  0.00     0.219 HD
ENDBRANCH  11  12
BRANCH  11  14
HETATM   14  C21 UNL     1       3.918   0.206   0.327  1.00  0.00     0.163 C 
BRANCH  14  15
HETATM   15  N3  UNL     1       4.942   0.287  -0.729  1.00  0.00    -0.343 N 
HETATM   16  C22 UNL     1       4.872   1.088  -1.866  1.00  0.00     0.270 C 
HETATM   17  O4  UNL     1       3.970   1.870  -2.170  1.00  0.00    -0.266 OA
ATOM     18  H3  UNL     1       5.773  -0.293  -0.618  1.00  0.00     0.163 HD
BRANCH  16  19
HETATM   19  C23 UNL     1       5.986   1.011  -2.864  1.00  0.00     0.117 A 
HETATM   20  C24 UNL     1       7.159   0.326  -2.661  1.00  0.00     0.124 A 
HETATM   21  N4  UNL     1       7.925   0.388  -3.745  1.00  0.00    -0.360 N 
HETATM   22  C25 UNL     1       7.214   1.130  -4.662  1.00  0.00     0.180 A 
ATOM     23  H4  UNL     1       8.848  -0.028  -3.872  1.00  0.00     0.166 HD
HETATM   24  N5  UNL     1       6.056   1.487  -4.089  1.00  0.00    -0.347 N 
ATOM     25  H5  UNL     1       5.332   2.048  -4.538  1.00  0.00     0.167 HD
ENDBRANCH  16  19
ENDBRANCH  14  15
BRANCH  14  26
HETATM   26  C26 UNL     1       3.861   1.473   1.104  1.00  0.00     0.016 C 
HETATM   27  C27 UNL     1       3.157   1.449   2.425  1.00  0.00     0.007 C 
HETATM   28  C28 UNL     1       4.175   1.366   3.585  1.00  0.00     0.000 C 
HETATM   29  C29 UNL     1       4.907   2.680   3.657  1.00  0.00     0.000 C 
HETATM   30  C30 UNL     1       5.242   3.158   2.253  1.00  0.00     0.000 C 
HETATM   31  C31 UNL     1       5.282   2.010   1.319  1.00  0.00     0.007 C 
ENDBRANCH  14  26
ENDBRANCH  11  14
ENDBRANCH   9  11
ENDBRANCH   7   9
BRANCH   6  32
HETATM   32  C9  UNL     1      -1.448  -0.292   0.628  1.00  0.00     0.232 C 
HETATM   33  O1  UNL     1      -1.062   0.046   1.744  1.00  0.00    -0.272 OA
HETATM   34  N1  UNL     1      -2.632   0.259   0.110  1.00  0.00    -0.326 N 
ATOM     35  H1  UNL     1      -2.837  -0.103  -0.821  1.00  0.00     0.168 HD
BRANCH  34  36
HETATM   36  C10 UNL     1      -3.615   1.181   0.535  1.00  0.00     0.066 C 
BRANCH  36  37
HETATM   37  C11 UNL     1      -3.546   2.462  -0.221  1.00  0.00     0.175 C 
HETATM   38  O2  UNL     1      -2.816   3.346   0.300  1.00  0.00    -0.291 OA
BRANCH  37  39
HETATM   39  C12 UNL     1      -4.179   2.789  -1.503  1.00  0.00     0.053 C 
HETATM   40  C13 UNL     1      -5.522   2.382  -1.889  1.00  0.00     0.018 C 
HETATM   41  C14 UNL     1      -4.166   4.347  -1.643  1.00  0.00     0.018 C 
ENDBRANCH  37  39
ENDBRANCH  36  37
BRANCH  36  42
HETATM   42  C15 UNL     1      -4.885   0.786   1.130  1.00  0.00    -0.005 C 
HETATM   43  C16 UNL     1      -5.856  -0.024   0.372  1.00  0.00     0.021 C 
HETATM   44  C17 UNL     1      -4.506   0.026   2.458  1.00  0.00     0.021 C 
HETATM   45  C18 UNL     1      -5.562   2.026   1.715  1.00  0.00     0.021 C 
ENDBRANCH  36  42
ENDBRANCH  34  36
ENDBRANCH   6  32
BRANCH   1  46
HETATM   46  C2  UNL     1      -1.948  -4.191  -2.215  1.00  0.00     0.001 C 
HETATM   47  C1  UNL     1      -3.025  -5.030  -1.659  1.00  0.00     0.005 C 
ENDBRANCH   1  46
TORSDOF 13
