REMARK  13 active torsions:
REMARK  status: ('A' for Active; 'I' for Inactive)
REMARK    1  A    between atoms: C3_3  and  C4_4 
REMARK    2  A    between atoms: C5_7  and  N1_8 
REMARK    3  A    between atoms: N1_8  and  N2_9 
REMARK       I    between atoms: N1_8  and  C12_40 
REMARK    4  A    between atoms: N2_9  and  C6_11 
REMARK    5  A    between atoms: C6_11  and  C10_28 
REMARK    6  A    between atoms: N3_12  and  N4_14 
REMARK       I    between atoms: N4_14  and  C7_16 
REMARK    7  A    between atoms: C7_16  and  C8_18 
REMARK    8  A    between atoms: C8_18  and  N5_19 
REMARK    9  A    between atoms: C8_18  and  C9_23 
REMARK   10  A    between atoms: C9_23  and  N6_24 
REMARK   11  A    between atoms: C10_28  and  O4_29 
REMARK   12  A    between atoms: C10_28  and  C11_31 
REMARK   13  A    between atoms: C12_40  and  O6_42 
ROOT
HETATM    1  C6  UNL     1       0.888   1.215   0.480  1.00  0.00     0.148 C 
HETATM    2  N3  UNL     1       2.048   1.298  -0.104  1.00  0.00    -0.283 N 
ATOM      3  H3  UNL     1       2.568   2.173  -0.032  1.00  0.00     0.188 HD
ENDROOT
BRANCH   1   4
HETATM    4  N2  UNL     1       0.133   0.034   0.410  1.00  0.00    -0.278 N 
ATOM      5  H2  UNL     1       0.561  -0.826   0.752  1.00  0.00     0.189 HD
BRANCH   4   6
HETATM    6  N1  UNL     1      -1.200  -0.043  -0.110  1.00  0.00    -0.227 N 
HETATM    7  C12 UNL     1      -1.432   0.844  -1.188  1.00  0.00     0.381 C 
HETATM    8  O5  UNL     1      -2.555   0.910  -1.733  1.00  0.00    -0.236 OA
BRANCH   6   9
HETATM    9  C5  UNL     1      -2.087  -0.956   0.471  1.00  0.00     0.159 C 
HETATM   10  C3  UNL     1      -2.518  -2.165  -0.281  1.00  0.00     0.162 C 
HETATM   11  C2  UNL     1      -3.442  -2.782   0.763  1.00  0.00     0.016 C 
HETATM   12  C1  UNL     1      -3.811  -4.037   0.836  1.00  0.00     0.039 C 
HETATM   13  N11 UNL     1      -3.838  -1.758   1.653  1.00  0.00    -0.354 N 
HETATM   14  C14 UNL     1      -3.355  -0.487   1.078  1.00  0.00     0.136 C 
HETATM   15  C16 UNL     1      -4.500  -1.344   2.888  1.00  0.00     0.293 C 
HETATM   16  C15 UNL     1      -3.237   0.355   2.301  1.00  0.00     0.197 C 
HETATM   17  O7  UNL     1      -3.559  -0.422   3.382  1.00  0.00    -0.370 OA
BRANCH  10  18
HETATM   18  C4  UNL     1      -3.295  -2.056  -1.481  1.00  0.00     0.185 C 
HETATM   19  O1  UNL     1      -2.803  -2.352  -2.596  1.00  0.00    -0.647 OA
HETATM   20  O2  UNL     1      -4.607  -1.623  -1.448  1.00  0.00    -0.647 OA
ENDBRANCH  10  18
ENDBRANCH   6   9
BRANCH   7  21
HETATM   21  O6  UNL     1      -0.460   1.686  -1.710  1.00  0.00    -0.308 OA
HETATM   22  C13 UNL     1      -0.795   2.532  -2.787  1.00  0.00     0.215 C 
ENDBRANCH   7  21
ENDBRANCH   4   6
ENDBRANCH   1   4
BRANCH   1  23
HETATM   23  C10 UNL     1       0.404   2.377   1.233  1.00  0.00     0.258 C 
BRANCH  23  24
HETATM   24  O4  UNL     1       0.332   2.099   2.620  1.00  0.00    -0.380 OA
ATOM     25  H4  UNL     1       0.019   2.852   3.108  1.00  0.00     0.211 HD
ENDBRANCH  23  24
BRANCH  23  26
HETATM   26  C11 UNL     1       1.290   3.573   1.106  1.00  0.00     0.150 A 
HETATM   27  N7  UNL     1       2.281   3.825   0.273  1.00  0.00    -0.270 N 
HETATM   28  N8  UNL     1       2.762   5.017   0.546  1.00  0.00    -0.227 N 
ATOM     29  H7  UNL     1       2.617   3.200  -0.460  1.00  0.00     0.190 HD
HETATM   30  N9  UNL     1       2.065   5.502   1.553  1.00  0.00    -0.227 N 
ATOM     31  H8  UNL     1       3.533   5.481   0.066  1.00  0.00     0.210 HD
HETATM   32  N10 UNL     1       1.143   4.637   1.929  1.00  0.00    -0.270 N 
ATOM     33  H9  UNL     1       2.217   6.416   1.981  1.00  0.00     0.210 HD
ATOM     34  H10 UNL     1       0.463   4.747   2.681  1.00  0.00     0.190 HD
ENDBRANCH  23  26
ENDBRANCH   1  23
BRANCH   2  35
HETATM   35  N4  UNL     1       2.614   0.242  -0.826  1.00  0.00    -0.267 N 
HETATM   36  C7  UNL     1       4.000   0.094  -1.029  1.00  0.00     0.268 C 
HETATM   37  O3  UNL     1       4.800   0.927  -0.558  1.00  0.00    -0.269 OA
ATOM     38  H4  UNL     1       1.990  -0.458  -1.227  1.00  0.00     0.190 HD
BRANCH  36  39
HETATM   39  C8  UNL     1       4.526  -1.048  -1.802  1.00  0.00     0.301 C 
BRANCH  39  40
HETATM   40  N5  UNL     1       3.428  -1.876  -2.242  1.00  0.00    -0.065 N 
ATOM     41  H53 UNL     1       2.835  -2.175  -1.467  1.00  0.00     0.275 HD
ATOM     42  H52 UNL     1       2.730  -1.346  -2.763  1.00  0.00     0.275 HD
ATOM     43  H51 UNL     1       3.792  -2.665  -2.776  1.00  0.00     0.275 HD
ENDBRANCH  39  40
BRANCH  39  44
HETATM   44  C9  UNL     1       5.490  -1.883  -0.957  1.00  0.00     0.272 C 
BRANCH  44  45
HETATM   45  N6  UNL     1       6.602  -1.068  -0.531  1.00  0.00    -0.077 N 
ATOM     46  H63 UNL     1       7.072  -0.620  -1.318  1.00  0.00     0.274 HD
ATOM     47  H62 UNL     1       6.295  -0.227  -0.043  1.00  0.00     0.274 HD
ATOM     48  H61 UNL     1       7.245  -1.625   0.032  1.00  0.00     0.274 HD
ENDBRANCH  44  45
ENDBRANCH  39  44
ENDBRANCH  36  39
ENDBRANCH   2  35
TORSDOF 13
