REMARK  10 active torsions:
REMARK  status: ('A' for Active; 'I' for Inactive)
REMARK    1  A    between atoms: C4_5  and  C5_6 
REMARK    2  A    between atoms: N4_14  and  C9_15 
REMARK    3  A    between atoms: C9_15  and  C10_16 
REMARK    4  A    between atoms: C10_16  and  N5_17 
REMARK    5  A    between atoms: C10_16  and  C17_36 
REMARK       I    between atoms: N5_17  and  C11_19 
REMARK    6  A    between atoms: C11_19  and  C12_21 
REMARK    7  A    between atoms: C12_21  and  N6_22 
REMARK    8  A    between atoms: C12_21  and  C13_27 
REMARK    9  A    between atoms: C17_36  and  O4_37 
REMARK   10  A    between atoms: C17_36  and  O5_39 
ROOT
HETATM    1  C10 UNL     1      -0.539   2.236  -0.309  1.00  0.00     0.157 C 
ENDROOT
BRANCH   1   2
HETATM    2  C9  UNL     1       0.166   2.299   1.030  1.00  0.00     0.161 C 
BRANCH   2   3
HETATM    3  N4  UNL     1       1.476   2.882   0.954  1.00  0.00    -0.325 N 
HETATM    4  C6  UNL     1       2.596   2.147   0.692  1.00  0.00     0.143 A 
HETATM    5  N2  UNL     1       2.800   0.842   0.443  1.00  0.00    -0.324 N 
HETATM    6  C7  UNL     1       3.644   3.049   0.716  1.00  0.00     0.146 A 
HETATM    7  C5  UNL     1       4.024   0.342   0.204  1.00  0.00     0.138 A 
ATOM      8  H2  UNL     1       1.999   0.210   0.435  1.00  0.00     0.169 HD
HETATM    9  N10 UNL     1       5.043   1.225   0.229  1.00  0.00    -0.306 N 
HETATM   10  C18 UNL     1       4.909   2.535   0.470  1.00  0.00     0.277 A 
ATOM     11  H10 UNL     1       5.982   0.870   0.052  1.00  0.00     0.170 HD
HETATM   12  O6  UNL     1       5.877   3.331   0.486  1.00  0.00    -0.265 OA
HETATM   13  N3  UNL     1       3.135   4.251   0.982  1.00  0.00    -0.345 N 
HETATM   14  C8  UNL     1       1.800   4.174   1.133  1.00  0.00     0.185 A 
ATOM     15  H3  UNL     1       3.681   5.109   1.060  1.00  0.00     0.167 HD
BRANCH   7  16
HETATM   16  C4  UNL     1       4.250  -1.073  -0.073  1.00  0.00     0.093 A 
HETATM   17  C3  UNL     1       3.306  -2.077  -0.129  1.00  0.00     0.053 A 
HETATM   18  C2  UNL     1       4.005  -3.253  -0.426  1.00  0.00     0.112 A 
HETATM   19  N1  UNL     1       5.296  -2.953  -0.538  1.00  0.00    -0.307 N 
HETATM   20  C1  UNL     1       6.375  -3.908  -0.845  1.00  0.00     0.177 C 
HETATM   21  N11 UNL     1       5.409  -1.660  -0.324  1.00  0.00    -0.296 N 
ATOM     22  H11 UNL     1       6.298  -1.161  -0.349  1.00  0.00     0.187 HD
ENDBRANCH   7  16
ENDBRANCH   2   3
ENDBRANCH   1   2
BRANCH   1  23
HETATM   23  N5  UNL     1      -1.848   1.649  -0.197  1.00  0.00    -0.348 N 
HETATM   24  C11 UNL     1      -2.219   0.406  -0.767  1.00  0.00     0.246 C 
HETATM   25  O1  UNL     1      -1.334  -0.214  -1.409  1.00  0.00    -0.271 OA
ATOM     26  H5  UNL     1      -2.556   2.162   0.328  1.00  0.00     0.163 HD
BRANCH  24  27
HETATM   27  C12 UNL     1      -3.551  -0.194  -0.659  1.00  0.00     0.242 C 
BRANCH  27  28
HETATM   28  N6  UNL     1      -4.498   0.635   0.012  1.00  0.00    -0.325 N 
HETATM   29  N7  UNL     1      -5.233   1.460  -0.501  1.00  0.00    -0.348 N 
ATOM     30  H72 UNL     1      -5.150   1.555  -1.513  1.00  0.00     0.176 HD
ATOM     31  H71 UNL     1      -5.910   2.053  -0.021  1.00  0.00     0.176 HD
ATOM     32  H6  UNL     1      -4.567   0.526   1.024  1.00  0.00     0.180 HD
ENDBRANCH  27  28
BRANCH  27  33
HETATM   33  C13 UNL     1      -3.497  -1.586  -0.009  1.00  0.00     0.177 C 
HETATM   34  C14 UNL     1      -3.154  -1.454   1.466  1.00  0.00     0.070 C 
HETATM   35  N8  UNL     1      -4.856  -2.101  -0.071  1.00  0.00    -0.097 NA
HETATM   36  N9  UNL     1      -4.955  -3.362   0.529  1.00  0.00    -0.269 N 
HETATM   37  C15 UNL     1      -3.753  -4.123   0.528  1.00  0.00     0.257 C 
ATOM     38  H9  UNL     1      -5.823  -3.709   0.936  1.00  0.00     0.185 HD
HETATM   39  O2  UNL     1      -3.576  -5.056   1.345  1.00  0.00    -0.270 OA
HETATM   40  C16 UNL     1      -2.756  -3.725  -0.500  1.00  0.00     0.274 C 
HETATM   41  O3  UNL     1      -2.589  -2.378  -0.645  1.00  0.00    -0.351 OA
ENDBRANCH  27  33
ENDBRANCH  24  27
ENDBRANCH   1  23
BRANCH   1  42
HETATM   42  C17 UNL     1      -0.714   3.632  -0.857  1.00  0.00     0.278 C 
BRANCH  42  43
HETATM   43  O4  UNL     1      -1.503   4.418   0.001  1.00  0.00    -0.369 OA
ATOM     44  H4  UNL     1      -1.613   5.296  -0.344  1.00  0.00     0.212 HD
ENDBRANCH  42  43
BRANCH  42  45
HETATM   45  O5  UNL     1      -1.425   3.612  -2.069  1.00  0.00    -0.369 OA
ATOM     46  H5  UNL     1      -1.535   4.490  -2.414  1.00  0.00     0.212 HD
ENDBRANCH  42  45
ENDBRANCH   1  42
TORSDOF 10
