REMARK  13 active torsions:
REMARK  status: ('A' for Active; 'I' for Inactive)
REMARK    1  A    between atoms: C2_7  and  C3_8 
REMARK    2  A    between atoms: C3_8  and  N3_9 
REMARK    3  A    between atoms: C3_8  and  C4_13 
REMARK    4  A    between atoms: C4_13  and  O1_14 
REMARK    5  A    between atoms: C4_13  and  C5_16 
REMARK    6  A    between atoms: C7_20  and  C8_21 
REMARK    7  A    between atoms: C8_21  and  N5_22 
REMARK    8  A    between atoms: C8_21  and  C9_26 
REMARK    9  A    between atoms: N8_37  and  C13_38 
REMARK   10  A    between atoms: C15_41  and  N9_42 
REMARK   11  A    between atoms: N10_46  and  C16_47 
REMARK   12  A    between atoms: C16_47  and  C17_48 
REMARK   13  A    between atoms: C17_48  and  O6_49 
ROOT
HETATM    1  N1  UNL     1       0.561  -0.786  -4.526  1.00  0.00    -0.383 N 
ATOM      2  H11 UNL     1      -0.129  -0.424  -5.184  1.00  0.00     0.157 HD
ATOM      3  H12 UNL     1       1.421  -1.176  -4.912  1.00  0.00     0.157 HD
HETATM    4  C1  UNL     1       0.389  -0.769  -3.240  1.00  0.00     0.131 A 
HETATM    5  N2  UNL     1       1.292  -1.243  -2.378  1.00  0.00    -0.329 N 
ATOM      6  H2  UNL     1       2.154  -1.635  -2.756  1.00  0.00     0.168 HD
HETATM    7  C2  UNL     1       1.137  -1.236  -1.051  1.00  0.00     0.118 A 
HETATM    8  N6  UNL     1       0.018  -0.729  -0.530  1.00  0.00    -0.328 N 
ATOM      9  H6  UNL     1      -0.109  -0.720   0.482  1.00  0.00     0.169 HD
HETATM   10  C10 UNL     1      -0.944  -0.230  -1.328  1.00  0.00     0.143 A 
HETATM   11  C11 UNL     1      -0.774  -0.241  -2.718  1.00  0.00     0.122 A 
HETATM   12  N7  UNL     1      -1.875   0.310  -3.231  1.00  0.00    -0.346 N 
ATOM     13  H7  UNL     1      -2.063   0.451  -4.224  1.00  0.00     0.167 HD
HETATM   14  C12 UNL     1      -2.696   0.649  -2.221  1.00  0.00     0.188 A 
HETATM   15  N8  UNL     1      -2.143   0.326  -1.039  1.00  0.00    -0.291 N 
ENDROOT
BRANCH   7  16
HETATM   16  C3  UNL     1       2.180  -1.777  -0.188  1.00  0.00     0.281 C 
BRANCH  16  17
HETATM   17  N3  UNL     1       1.608  -2.616   0.843  1.00  0.00    -0.066 N 
ATOM     18  H33 UNL     1       0.893  -2.123   1.378  1.00  0.00     0.275 HD
ATOM     19  H32 UNL     1       1.024  -3.353   0.449  1.00  0.00     0.275 HD
ATOM     20  H31 UNL     1       2.338  -2.995   1.447  1.00  0.00     0.275 HD
ENDBRANCH  16  17
BRANCH  16  21
HETATM   21  C4  UNL     1       3.058  -0.741   0.453  1.00  0.00     0.187 C 
BRANCH  21  22
HETATM   22  O1  UNL     1       2.358   0.076   1.339  1.00  0.00    -0.390 OA
ATOM     23  H1  UNL     1       2.913   0.731   1.745  1.00  0.00     0.210 HD
ENDBRANCH  21  22
BRANCH  21  24
HETATM   24  C5  UNL     1       3.780   0.128  -0.513  1.00  0.00     0.179 C 
HETATM   25  C6  UNL     1       4.706  -0.587  -1.439  1.00  0.00     0.156 C 
HETATM   26  N4  UNL     1       6.010  -0.217  -0.967  1.00  0.00    -0.370 N 
HETATM   27  C7  UNL     1       5.978   0.648  -0.035  1.00  0.00     0.156 C 
ATOM     28  H4  UNL     1       6.875  -0.608  -1.341  1.00  0.00     0.161 HD
HETATM   29  O4  UNL     1       4.672   0.955   0.224  1.00  0.00    -0.327 OA
BRANCH  27  30
HETATM   30  C8  UNL     1       7.169   1.232   0.662  1.00  0.00     0.356 C 
BRANCH  30  31
HETATM   31  N5  UNL     1       7.075   0.922   2.074  1.00  0.00    -0.058 N 
ATOM     32  H53 UNL     1       6.193   1.229   2.484  1.00  0.00     0.275 HD
ATOM     33  H52 UNL     1       6.971  -0.077   2.249  1.00  0.00     0.275 HD
ATOM     34  H51 UNL     1       7.886   1.320   2.548  1.00  0.00     0.275 HD
ENDBRANCH  30  31
BRANCH  30  35
HETATM   35  C9  UNL     1       7.174   2.704   0.492  1.00  0.00     0.213 C 
HETATM   36  O2  UNL     1       7.250   3.197  -0.661  1.00  0.00    -0.646 OA
HETATM   37  O3  UNL     1       7.097   3.556   1.576  1.00  0.00    -0.646 OA
ENDBRANCH  30  35
ENDBRANCH  27  30
ENDBRANCH  21  24
ENDBRANCH  16  21
ENDBRANCH   7  16
BRANCH  15  38
HETATM   38  C13 UNL     1      -2.686   0.516   0.308  1.00  0.00     0.323 C 
HETATM   39  O5  UNL     1      -2.553  -0.616   1.066  1.00  0.00    -0.353 OA
HETATM   40  C14 UNL     1      -3.593  -0.920   1.902  1.00  0.00     0.225 C 
HETATM   41  C15 UNL     1      -4.896  -1.153   1.163  1.00  0.00     0.310 C 
HETATM   42  N10 UNL     1      -5.199   0.099   0.466  1.00  0.00    -0.317 N 
HETATM   43  C18 UNL     1      -4.099   0.955   0.221  1.00  0.00     0.271 C 
HETATM   44  O7  UNL     1      -4.357   2.165  -0.091  1.00  0.00    -0.268 OA
BRANCH  41  45
HETATM   45  N9  UNL     1      -4.802  -2.247   0.242  1.00  0.00    -0.056 N 
ATOM     46  H93 UNL     1      -4.026  -2.119  -0.407  1.00  0.00     0.276 HD
ATOM     47  H92 UNL     1      -4.483  -3.097   0.708  1.00  0.00     0.276 HD
ATOM     48  H91 UNL     1      -5.679  -2.404  -0.255  1.00  0.00     0.276 HD
ENDBRANCH  41  45
BRANCH  42  49
HETATM   49  C16 UNL     1      -6.556   0.374   0.087  1.00  0.00     0.154 C 
BRANCH  49  50
HETATM   50  C17 UNL     1      -7.315   1.109   1.169  1.00  0.00     0.184 C 
BRANCH  50  51
HETATM   51  O6  UNL     1      -6.754   2.336   1.497  1.00  0.00    -0.399 OA
ATOM     52  H6  UNL     1      -7.231   2.798   2.177  1.00  0.00     0.209 HD
ENDBRANCH  50  51
ENDBRANCH  49  50
ENDBRANCH  42  49
ENDBRANCH  15  38
TORSDOF 13
