REMARK  13 active torsions:
REMARK  status: ('A' for Active; 'I' for Inactive)
REMARK    1  A    between atoms: O1_2  and  C2_3 
REMARK    2  A    between atoms: C2_3  and  C3_5 
REMARK    3  A    between atoms: C3_5  and  O3_6 
REMARK    4  A    between atoms: C7_11  and  S1_12 
REMARK    5  A    between atoms: C10_18  and  C11_19 
REMARK    6  A    between atoms: C11_19  and  N1_20 
REMARK    7  A    between atoms: N1_20  and  N2_22 
REMARK    8  A    between atoms: N2_22  and  N3_23 
REMARK    9  A    between atoms: C13_26  and  N4_27 
REMARK   10  A    between atoms: C15_29  and  C16_30 
REMARK   11  A    between atoms: C16_30  and  N5_31 
REMARK   12  A    between atoms: N5_31  and  N6_32 
REMARK   13  A    between atoms: C17_39  and  O7_40 
ROOT
HETATM    1  C3  UNL     1      -0.219  -2.179   0.337  1.00  0.00     0.203 C 
HETATM    2  C4  UNL     1      -1.107  -2.738   1.405  1.00  0.00    -0.039 C 
HETATM    3  C5  UNL     1      -0.813  -4.105   1.986  1.00  0.00     0.047 C 
HETATM    4  C6  UNL     1      -2.132  -2.055   1.839  1.00  0.00     0.003 C 
HETATM    5  C7  UNL     1      -2.569  -0.721   1.398  1.00  0.00     0.164 C 
HETATM    6  C8  UNL     1      -1.822  -0.337   0.150  1.00  0.00     0.074 C 
HETATM    7  C9  UNL     1      -1.638   1.171   0.066  1.00  0.00    -0.011 C 
HETATM    8  C10 UNL     1      -0.440   1.440  -0.402  1.00  0.00    -0.041 C 
HETATM    9  C13 UNL     1       0.262   0.116  -0.667  1.00  0.00     0.178 C 
HETATM   10  C17 UNL     1      -0.381  -0.718   0.384  1.00  0.00     0.137 C 
ENDROOT
BRANCH   9  11
HETATM   11  N4  UNL     1       1.671   0.253  -0.617  1.00  0.00    -0.275 N 
HETATM   12  C14 UNL     1       2.581   0.152   0.342  1.00  0.00     0.140 A 
HETATM   13  C15 UNL     1       3.814   0.390  -0.186  1.00  0.00     0.060 A 
HETATM   14  N7  UNL     1       3.626   0.637  -1.484  1.00  0.00    -0.288 N 
HETATM   15  N8  UNL     1       2.358   0.555  -1.737  1.00  0.00    -0.240 N 
ATOM     16  H7  UNL     1       4.357   0.854  -2.162  1.00  0.00     0.188 HD
ATOM     17  H8  UNL     1       1.938   0.699  -2.655  1.00  0.00     0.208 HD
BRANCH  13  18
HETATM   18  C16 UNL     1       5.152   0.396   0.446  1.00  0.00     0.194 C 
BRANCH  18  19
HETATM   19  N5  UNL     1       5.872  -0.811   0.019  1.00  0.00    -0.142 NA
BRANCH  19  20
HETATM   20  N6  UNL     1       7.143  -0.818   0.611  1.00  0.00    -0.348 N 
ATOM     21  H62 UNL     1       7.496  -0.094   1.236  1.00  0.00     0.172 HD
ATOM     22  H61 UNL     1       7.643  -1.656   0.314  1.00  0.00     0.172 HD
ENDBRANCH  19  20
ENDBRANCH  18  19
ENDBRANCH  13  18
ENDBRANCH   9  11
BRANCH   8  23
HETATM   23  C11 UNL     1       0.123   2.783  -0.633  1.00  0.00     0.147 C 
BRANCH  23  24
HETATM   24  N1  UNL     1      -0.848   3.791  -0.320  1.00  0.00    -0.215 NA
HETATM   25  C12 UNL     1      -1.889   3.779  -1.319  1.00  0.00     0.134 C 
BRANCH  24  26
HETATM   26  N2  UNL     1      -0.290   5.026  -0.076  1.00  0.00    -0.056 NA
BRANCH  26  27
HETATM   27  N3  UNL     1      -1.284   5.863   0.437  1.00  0.00    -0.333 N 
ATOM     28  H32 UNL     1      -2.254   5.591   0.598  1.00  0.00     0.173 HD
ATOM     29  H31 UNL     1      -0.871   6.778   0.618  1.00  0.00     0.173 HD
ENDBRANCH  26  27
ENDBRANCH  24  26
ENDBRANCH  23  24
ENDBRANCH   8  23
BRANCH  10  30
HETATM   30  O7  UNL     1      -0.067  -0.280   1.679  1.00  0.00    -0.383 OA
ATOM     31  H7  UNL     1      -0.172   0.664   1.709  1.00  0.00     0.210 HD
ENDBRANCH  10  30
BRANCH   1  32
HETATM   32  C2  UNL     1      -0.564  -2.858  -0.923  1.00  0.00     0.301 C 
HETATM   33  O2  UNL     1       0.340  -3.537  -1.530  1.00  0.00    -0.261 OA
BRANCH  32  34
HETATM   34  O1  UNL     1      -1.784  -2.861  -1.564  1.00  0.00    -0.324 OA
HETATM   35  C1  UNL     1      -2.050  -3.528  -2.764  1.00  0.00     0.213 C 
ENDBRANCH  32  34
ENDBRANCH   1  32
BRANCH   1  36
HETATM   36  O3  UNL     1       1.123  -2.557   0.617  1.00  0.00    -0.373 OA
ATOM     37  H3  UNL     1       1.346  -2.119   1.430  1.00  0.00     0.211 HD
ENDBRANCH   1  36
BRANCH   5  38
HETATM   38  S1  UNL     1      -4.309  -0.717   0.985  1.00  0.00     0.110 S 
HETATM   39  O4  UNL     1      -5.051  -0.993   2.284  1.00  0.00    -0.594 OA
HETATM   40  O5  UNL     1      -4.643  -1.776   0.000  1.00  0.00    -0.594 OA
HETATM   41  O6  UNL     1      -4.746   0.762   0.350  1.00  0.00    -0.594 OA
ENDBRANCH   5  38
TORSDOF 13
