REMARK  12 active torsions:
REMARK  status: ('A' for Active; 'I' for Inactive)
REMARK    1  A    between atoms: N1_1  and  C1_5 
REMARK    2  A    between atoms: C1_5  and  C2_6 
REMARK    3  A    between atoms: C2_6  and  C3_7 
REMARK       I    between atoms: C3_7  and  N2_9 
REMARK    4  A    between atoms: N2_9  and  C4_11 
REMARK    5  A    between atoms: C5_12  and  O2_13 
REMARK    6  A    between atoms: C6_16  and  N3_17 
REMARK    7  A    between atoms: C9_22  and  N5_23 
REMARK    8  A    between atoms: N5_23  and  C10_24 
REMARK    9  A    between atoms: C10_24  and  C11_25 
REMARK   10  A    between atoms: C12_28  and  C13_29 
REMARK   11  A    between atoms: C13_29  and  N7_30 
REMARK   12  A    between atoms: C13_29  and  O4_34 
ROOT
HETATM    1  N3  UNL     1      -1.356   1.492  -2.297  1.00  0.00    -0.297 N 
HETATM    2  C7  UNL     1      -0.987   2.641  -1.701  1.00  0.00     0.188 A 
HETATM    3  N4  UNL     1      -0.090   2.394  -0.727  1.00  0.00    -0.345 N 
ATOM      4  H4  UNL     1       0.347   3.091  -0.124  1.00  0.00     0.167 HD
HETATM    5  C8  UNL     1       0.125   1.083  -0.690  1.00  0.00     0.137 A 
HETATM    6  C9  UNL     1       0.962   0.311   0.136  1.00  0.00     0.210 A 
HETATM    7  N11 UNL     1       0.918  -1.031  -0.123  1.00  0.00    -0.325 N 
ATOM      8  H11 UNL     1       1.502  -1.649   0.440  1.00  0.00     0.169 HD
HETATM    9  C17 UNL     1       0.153  -1.578  -1.072  1.00  0.00     0.184 A 
HETATM   10  N12 UNL     1      -0.636  -0.820  -1.845  1.00  0.00    -0.336 N 
ATOM     11  H12 UNL     1      -1.214  -1.254  -2.565  1.00  0.00     0.168 HD
HETATM   12  C18 UNL     1      -0.666   0.523  -1.670  1.00  0.00     0.143 A 
ENDROOT
BRANCH   6  13
HETATM   13  N5  UNL     1       1.633   0.844   0.974  1.00  0.00    -0.394 NA
BRANCH  13  14
HETATM   14  C10 UNL     1       2.423   1.313   1.936  1.00  0.00     0.235 C 
BRANCH  14  15
HETATM   15  C11 UNL     1       3.526   0.342   2.287  1.00  0.00     0.157 A 
HETATM   16  N6  UNL     1       3.316  -0.850   2.822  1.00  0.00    -0.337 N 
HETATM   17  C12 UNL     1       4.493  -1.505   3.036  1.00  0.00     0.102 A 
ATOM     18  H6  UNL     1       2.396  -1.229   3.045  1.00  0.00     0.167 HD
HETATM   19  C14 UNL     1       5.468  -0.631   2.592  1.00  0.00     0.153 A 
HETATM   20  C15 UNL     1       6.824  -0.741   2.547  1.00  0.00     0.277 A 
HETATM   21  N10 UNL     1       4.837   0.479   2.145  1.00  0.00    -0.229 N 
HETATM   22  O5  UNL     1       7.397  -1.779   2.962  1.00  0.00    -0.266 OA
HETATM   23  N8  UNL     1       7.557   0.294   2.043  1.00  0.00    -0.317 N 
HETATM   24  C16 UNL     1       6.889   1.372   1.615  1.00  0.00     0.200 A 
ATOM     25  H8  UNL     1       8.575   0.248   1.994  1.00  0.00     0.170 HD
HETATM   26  N9  UNL     1       5.554   1.469   1.663  1.00  0.00    -0.287 N 
ATOM     27  H9  UNL     1       5.093   2.313   1.325  1.00  0.00     0.188 HD
BRANCH  17  28
HETATM   28  C13 UNL     1       4.575  -2.844   3.649  1.00  0.00     0.369 C 
BRANCH  28  29
HETATM   29  N7  UNL     1       5.499  -2.986   4.725  1.00  0.00    -0.047 N 
ATOM     30  H73 UNL     1       6.427  -2.686   4.426  1.00  0.00     0.277 HD
ATOM     31  H72 UNL     1       5.303  -2.289   5.443  1.00  0.00     0.277 HD
ATOM     32  H71 UNL     1       5.556  -3.912   5.149  1.00  0.00     0.277 HD
ENDBRANCH  28  29
BRANCH  28  33
HETATM   33  O4  UNL     1       4.817  -3.812   2.633  1.00  0.00    -0.365 OA
ATOM     34  H4  UNL     1       4.870  -4.674   3.028  1.00  0.00     0.212 HD
ENDBRANCH  28  33
ENDBRANCH  17  28
ENDBRANCH  14  15
ENDBRANCH  13  14
ENDBRANCH   6  13
BRANCH   1  35
HETATM   35  C6  UNL     1      -2.299   1.360  -3.376  1.00  0.00     0.261 C 
HETATM   36  C4  UNL     1      -3.363   0.316  -3.210  1.00  0.00     0.188 C 
HETATM   37  C5  UNL     1      -3.186   0.277  -4.707  1.00  0.00     0.286 C 
HETATM   38  O3  UNL     1      -1.836   0.665  -4.498  1.00  0.00    -0.332 OA
BRANCH  36  39
HETATM   39  N2  UNL     1      -4.595   0.856  -2.709  1.00  0.00    -0.347 N 
HETATM   40  C3  UNL     1      -5.344   0.240  -1.666  1.00  0.00     0.219 C 
HETATM   41  O1  UNL     1      -4.887  -0.835  -1.163  1.00  0.00    -0.274 OA
ATOM     42  H2  UNL     1      -4.950   1.720  -3.119  1.00  0.00     0.163 HD
BRANCH  40  43
HETATM   43  C2  UNL     1      -6.611   0.799  -1.155  1.00  0.00     0.130 C 
BRANCH  43  44
HETATM   44  C1  UNL     1      -7.123  -0.073  -0.032  1.00  0.00     0.238 C 
BRANCH  44  45
HETATM   45  N1  UNL     1      -8.370   0.428   0.511  1.00  0.00    -0.079 N 
ATOM     46  H13 UNL     1      -8.283   1.401   0.806  1.00  0.00     0.274 HD
ATOM     47  H12 UNL     1      -9.073   0.545  -0.219  1.00  0.00     0.274 HD
ATOM     48  H11 UNL     1      -8.716  -0.161   1.269  1.00  0.00     0.274 HD
ENDBRANCH  44  45
ENDBRANCH  43  44
ENDBRANCH  40  43
ENDBRANCH  36  39
BRANCH  37  49
HETATM   49  O2  UNL     1      -3.821   1.267  -5.422  1.00  0.00    -0.369 OA
ATOM     50  H2  UNL     1      -3.709   1.242  -6.365  1.00  0.00     0.212 HD
ENDBRANCH  37  49
ENDBRANCH   1  35
TORSDOF 12
