REMARK  11 active torsions:
REMARK  status: ('A' for Active; 'I' for Inactive)
REMARK       I    between atoms: C1_4  and  N2_5 
REMARK       I    between atoms: C1_4  and  N7_23 
REMARK    1  A    between atoms: N2_5  and  C2_7 
REMARK    2  A    between atoms: C2_7  and  C3_8 
REMARK    3  A    between atoms: C4_12  and  C5_13 
REMARK    4  A    between atoms: N7_23  and  C9_25 
REMARK    5  A    between atoms: C9_25  and  C10_26 
REMARK    6  A    between atoms: C12_29  and  N8_30 
REMARK    7  A    between atoms: C13_34  and  C14_35 
REMARK    8  A    between atoms: C14_35  and  N9_36 
REMARK    9  A    between atoms: C15_37  and  C16_38 
REMARK   10  A    between atoms: C17_44  and  N13_45 
REMARK   11  A    between atoms: C18_49  and  O4_50 
ROOT
HETATM    1  C10 UNL     1      -1.193   0.782   1.428  1.00  0.00     0.105 C 
HETATM    2  C11 UNL     1      -1.215   2.050   0.690  1.00  0.00     0.166 C 
HETATM    3  O2  UNL     1      -0.589   3.086   0.882  1.00  0.00    -0.295 OA
HETATM    4  C12 UNL     1      -2.190   1.868  -0.407  1.00  0.00     0.264 C 
HETATM    5  C13 UNL     1      -3.318   0.985   0.209  1.00  0.00     0.092 C 
HETATM    6  C18 UNL     1      -2.655   0.354   1.411  1.00  0.00     0.142 C 
ENDROOT
BRANCH   1   7
HETATM    7  C9  UNL     1      -0.293  -0.224   0.834  1.00  0.00     0.153 C 
BRANCH   7   8
HETATM    8  N7  UNL     1       1.077   0.117   0.760  1.00  0.00    -0.226 N 
HETATM    9  C1  UNL     1       1.669   1.067  -0.086  1.00  0.00     0.667 C 
HETATM   10  N1  UNL     1       1.329   1.157  -1.319  1.00  0.00    -0.235 N 
HETATM   11  N2  UNL     1       2.676   1.935   0.428  1.00  0.00    -0.220 N 
ATOM     12  H12 UNL     1       1.759   1.848  -1.934  1.00  0.00     0.174 HD
ATOM     13  H11 UNL     1       0.608   0.536  -1.687  1.00  0.00     0.174 HD
ATOM     14  H2  UNL     1       2.648   2.147   1.425  1.00  0.00     0.178 HD
ATOM     15  H7  UNL     1       1.704  -0.382   1.391  1.00  0.00     0.177 HD
BRANCH  11  16
HETATM   16  C2  UNL     1       3.724   2.533  -0.345  1.00  0.00     0.216 C 
BRANCH  16  17
HETATM   17  C3  UNL     1       4.591   1.469  -0.918  1.00  0.00     0.122 A 
HETATM   18  N3  UNL     1       4.595   0.869  -2.115  1.00  0.00    -0.245 N 
HETATM   19  O1  UNL     1       5.544  -0.012  -2.173  1.00  0.00    -0.216 OA
ATOM     20  H3  UNL     1       3.944   1.076  -2.873  1.00  0.00     0.196 HD
HETATM   21  C4  UNL     1       6.211  -0.047  -1.034  1.00  0.00     0.200 A 
HETATM   22  N6  UNL     1       5.619   0.872  -0.257  1.00  0.00    -0.320 N 
ATOM     23  H6  UNL     1       5.901   1.093   0.698  1.00  0.00     0.169 HD
BRANCH  21  24
HETATM   24  C5  UNL     1       7.340  -0.887  -0.675  1.00  0.00     0.101 A 
HETATM   25  C6  UNL     1       7.882  -1.809  -1.545  1.00  0.00     0.121 A 
HETATM   26  N4  UNL     1       8.931  -2.582  -1.194  1.00  0.00    -0.372 N 
HETATM   27  C7  UNL     1       9.490  -2.486   0.007  1.00  0.00     0.104 A 
ATOM     28  H4  UNL     1       9.302  -3.254  -1.865  1.00  0.00     0.164 HD
HETATM   29  C8  UNL     1       8.940  -1.548   0.897  1.00  0.00     0.105 A 
HETATM   30  N5  UNL     1       7.898  -0.788   0.538  1.00  0.00    -0.360 N 
ATOM     31  H5  UNL     1       7.519  -0.116   1.206  1.00  0.00     0.165 HD
ENDBRANCH  21  24
ENDBRANCH  16  17
ENDBRANCH  11  16
ENDBRANCH   7   8
ENDBRANCH   1   7
BRANCH   6  32
HETATM   32  O4  UNL     1      -3.258   0.904   2.539  1.00  0.00    -0.394 OA
ATOM     33  H4  UNL     1      -4.170   0.637   2.528  1.00  0.00     0.210 HD
ENDBRANCH   6  32
BRANCH   4  34
HETATM   34  N8  UNL     1      -2.707   3.156  -0.798  1.00  0.00    -0.068 N 
ATOM     35  H83 UNL     1      -3.101   3.671  -0.011  1.00  0.00     0.275 HD
ATOM     36  H82 UNL     1      -1.966   3.813  -1.043  1.00  0.00     0.275 HD
ATOM     37  H81 UNL     1      -3.379   3.030  -1.555  1.00  0.00     0.275 HD
ENDBRANCH   4  34
BRANCH   5  38
HETATM   38  C14 UNL     1      -3.674   0.012  -0.847  1.00  0.00     0.079 C 
BRANCH  38  39
HETATM   39  N9  UNL     1      -4.640  -0.969  -0.688  1.00  0.00    -0.298 N 
HETATM   40  C15 UNL     1      -5.745  -1.200   0.136  1.00  0.00     0.188 C 
HETATM   41  N11 UNL     1      -5.962  -2.509   0.219  1.00  0.00    -0.281 N 
HETATM   42  N12 UNL     1      -5.023  -3.192  -0.544  1.00  0.00    -0.084 NA
ATOM     43  H11 UNL     1      -6.707  -2.947   0.762  1.00  0.00     0.184 HD
HETATM   44  C17 UNL     1      -4.661  -2.184  -1.575  1.00  0.00     0.404 C 
BRANCH  40  45
HETATM   45  C16 UNL     1      -6.629  -0.231   0.765  1.00  0.00     0.300 C 
HETATM   46  N10 UNL     1      -7.685  -0.737   1.608  1.00  0.00    -0.054 NA
HETATM   47  O3  UNL     1      -6.597   1.000   0.674  1.00  0.00    -0.268 OA
ENDBRANCH  40  45
BRANCH  44  48
HETATM   48  N13 UNL     1      -3.354  -2.515  -2.038  1.00  0.00    -0.042 N 
ATOM     49 3H13 UNL     1      -2.910  -1.722  -2.501  1.00  0.00     0.278 HD
ATOM     50 2H13 UNL     1      -2.701  -2.630  -1.263  1.00  0.00     0.278 HD
ATOM     51 1H13 UNL     1      -3.368  -3.339  -2.639  1.00  0.00     0.278 HD
ENDBRANCH  44  48
ENDBRANCH  38  39
ENDBRANCH   5  38
TORSDOF 11
