REMARK  12 active torsions:
REMARK  status: ('A' for Active; 'I' for Inactive)
REMARK    1  A    between atoms: C3_7  and  N3_8 
REMARK    2  A    between atoms: N3_8  and  C4_10 
REMARK    3  A    between atoms: C4_10  and  C5_11 
REMARK    4  A    between atoms: C5_11  and  S1_12 
REMARK    5  A    between atoms: S1_12  and  C6_13 
REMARK    6  A    between atoms: C6_13  and  C7_14 
REMARK    7  A    between atoms: C7_14  and  C8_15 
REMARK    8  A    between atoms: C9_17  and  N4_18 
REMARK    9  A    between atoms: C12_23  and  N6_24 
REMARK   10  A    between atoms: C15_33  and  O3_34 
REMARK   11  A    between atoms: C16_39  and  O4_40 
REMARK   12  A    between atoms: C16_39  and  O5_42 
ROOT
HETATM    1  C8  UNL     1      -2.055  -1.823  -0.817  1.00  0.00     0.218 C 
HETATM    2  O2  UNL     1      -1.830  -0.713  -0.084  1.00  0.00    -0.349 OA
HETATM    3  C9  UNL     1      -2.838  -0.214   0.693  1.00  0.00     0.287 C 
HETATM    4  C15 UNL     1      -3.467  -1.311   1.532  1.00  0.00     0.375 C 
HETATM    5  N9  UNL     1      -3.933  -2.368   0.699  1.00  0.00     0.016 N 
ATOM      6  H91 UNL     1      -4.778  -2.087   0.201  1.00  0.00     0.287 HD
ATOM      7  H92 UNL     1      -4.312  -3.129   1.262  1.00  0.00     0.287 HD
HETATM    8  C16 UNL     1      -2.955  -2.855  -0.208  1.00  0.00     0.363 C 
ENDROOT
BRANCH   1   9
HETATM    9  C7  UNL     1      -0.729  -2.509  -1.071  1.00  0.00     0.050 C 
BRANCH   9  10
HETATM   10  C6  UNL     1       0.248  -1.623  -1.825  1.00  0.00     0.076 C 
BRANCH  10  11
HETATM   11  S1  UNL     1       1.783  -2.533  -2.083  1.00  0.00    -0.167 SA
BRANCH  11  12
HETATM   12  C5  UNL     1       2.671  -2.904  -0.579  1.00  0.00     0.094 C 
BRANCH  12  13
HETATM   13  C4  UNL     1       3.216  -1.681   0.124  1.00  0.00     0.148 C 
BRANCH  13  14
HETATM   14  N3  UNL     1       4.132  -0.991  -0.761  1.00  0.00    -0.225 N 
ATOM     15  H3  UNL     1       4.156  -1.230  -1.752  1.00  0.00     0.177 HD
BRANCH  14  16
HETATM   16  C3  UNL     1       4.903  -0.093  -0.311  1.00  0.00     0.686 A 
HETATM   17  N2  UNL     1       4.910   0.257   0.978  1.00  0.00    -0.141 N 
HETATM   18  C2  UNL     1       5.750   1.221   1.425  1.00  0.00     0.344 A 
ATOM     19  H2  UNL     1       4.278  -0.205   1.631  1.00  0.00     0.189 HD
HETATM   20  N1  UNL     1       6.610   1.864   0.592  1.00  0.00    -0.255 N 
HETATM   21  O1  UNL     1       5.777   1.573   2.646  1.00  0.00    -0.246 OA
HETATM   22  C1  UNL     1       7.516   2.900   1.066  1.00  0.00     0.166 C 
HETATM   23  C17 UNL     1       6.571   1.483  -0.693  1.00  0.00     0.344 A 
HETATM   24  N10 UNL     1       5.744   0.530  -1.151  1.00  0.00    -0.141 N 
HETATM   25  O6  UNL     1       7.360   2.063  -1.494  1.00  0.00    -0.246 OA
ATOM     26  H10 UNL     1       5.755   0.279  -2.140  1.00  0.00     0.189 HD
ENDBRANCH  14  16
ENDBRANCH  13  14
ENDBRANCH  12  13
ENDBRANCH  11  12
ENDBRANCH  10  11
ENDBRANCH   9  10
ENDBRANCH   1   9
BRANCH   8  27
HETATM   27  O4  UNL     1      -3.654  -3.468  -1.276  1.00  0.00    -0.342 OA
ATOM     28  H4  UNL     1      -4.225  -4.122  -0.890  1.00  0.00     0.215 HD
ENDBRANCH   8  27
BRANCH   8  29
HETATM   29  O5  UNL     1      -2.183  -3.810   0.461  1.00  0.00    -0.342 OA
ATOM     30  H5  UNL     1      -2.754  -4.464   0.847  1.00  0.00     0.215 HD
ENDBRANCH   8  29
BRANCH   3  31
HETATM   31  N4  UNL     1      -3.800   0.605   0.014  1.00  0.00    -0.295 N 
HETATM   32  C10 UNL     1      -4.875   0.254  -0.694  1.00  0.00     0.188 A 
HETATM   33  N5  UNL     1      -5.496   1.364  -1.153  1.00  0.00    -0.346 N 
HETATM   34  C11 UNL     1      -4.834   2.441  -0.749  1.00  0.00     0.122 A 
ATOM     35  H5  UNL     1      -6.343   1.372  -1.722  1.00  0.00     0.167 HD
HETATM   36  C12 UNL     1      -5.024   3.794  -0.928  1.00  0.00     0.131 A 
HETATM   37  C14 UNL     1      -3.767   1.967  -0.015  1.00  0.00     0.142 A 
HETATM   38  N7  UNL     1      -4.150   4.633  -0.372  1.00  0.00    -0.337 N 
HETATM   39  C13 UNL     1      -3.101   4.208   0.348  1.00  0.00     0.183 A 
ATOM     40  H7  UNL     1      -4.284   5.636  -0.499  1.00  0.00     0.168 HD
HETATM   41  N8  UNL     1      -2.928   2.893   0.514  1.00  0.00    -0.336 N 
ATOM     42  H8  UNL     1      -2.130   2.572   1.062  1.00  0.00     0.168 HD
BRANCH  36  43
HETATM   43  N6  UNL     1      -6.020   4.237  -1.613  1.00  0.00    -0.383 N 
ATOM     44  H62 UNL     1      -6.689   3.595  -2.038  1.00  0.00     0.157 HD
ATOM     45  H61 UNL     1      -6.161   5.239  -1.746  1.00  0.00     0.157 HD
ENDBRANCH  36  43
ENDBRANCH   3  31
BRANCH   4  46
HETATM   46  O3  UNL     1      -4.471  -0.813   2.339  1.00  0.00    -0.366 OA
ATOM     47  H3  UNL     1      -4.865  -1.500   2.864  1.00  0.00     0.212 HD
ENDBRANCH   4  46
TORSDOF 12
