REMARK  11 active torsions:
REMARK  status: ('A' for Active; 'I' for Inactive)
REMARK    1  A    between atoms: N1_1  and  C1_4 
REMARK    2  A    between atoms: C2_7  and  C3_8 
REMARK    3  A    between atoms: C3_8  and  C4_13 
REMARK    4  A    between atoms: N3_9  and  O1_11 
REMARK       I    between atoms: C4_13  and  N4_15 
REMARK    5  A    between atoms: N4_15  and  C5_17 
REMARK    6  A    between atoms: C7_21  and  C8_22 
REMARK    7  A    between atoms: C9_25  and  C10_26 
REMARK    8  A    between atoms: C10_26  and  O6_27 
REMARK    9  A    between atoms: O6_27  and  S1_28 
REMARK   10  A    between atoms: N6_32  and  N7_33 
REMARK   11  A    between atoms: C11_36  and  O10_37 
ROOT
HETATM    1  C5  UNL     1       0.739  -0.928  -0.587  1.00  0.00     0.205 C 
HETATM    2  C6  UNL     1       0.074  -2.016  -1.368  1.00  0.00     0.250 C 
HETATM    3  O3  UNL     1       0.340  -2.967  -2.123  1.00  0.00    -0.271 OA
HETATM    4  N5  UNL     1      -1.133  -1.491  -0.862  1.00  0.00    -0.297 N 
HETATM    5  C7  UNL     1      -2.478  -1.578  -0.344  1.00  0.00     0.141 C 
HETATM    6  C9  UNL     1      -3.110  -0.541   0.162  1.00  0.00     0.090 C 
HETATM    7  N6  UNL     1      -2.415   0.737   0.195  1.00  0.00    -0.267 N 
HETATM    8  C11 UNL     1      -0.993   0.748   0.081  1.00  0.00     0.266 C 
HETATM    9  C12 UNL     1      -0.505  -0.176  -1.002  1.00  0.00     0.175 C 
ENDROOT
BRANCH   1  10
HETATM   10  N4  UNL     1       1.899  -0.343  -1.224  1.00  0.00    -0.340 N 
HETATM   11  C4  UNL     1       3.092  -0.039  -0.502  1.00  0.00     0.273 C 
HETATM   12  O2  UNL     1       3.084  -0.313   0.752  1.00  0.00    -0.266 OA
ATOM     13  H4  UNL     1       1.863  -0.141  -2.223  1.00  0.00     0.163 HD
BRANCH  11  14
HETATM   14  C3  UNL     1       4.210   0.542  -1.199  1.00  0.00     0.149 C 
HETATM   15  N3  UNL     1       4.221   0.812  -2.429  1.00  0.00    -0.262 N 
ATOM     16  H3  UNL     1       5.115   1.217  -2.706  1.00  0.00     0.194 HD
BRANCH  14  17
HETATM   17  C2  UNL     1       5.451   0.846  -0.394  1.00  0.00     0.075 A 
HETATM   18  N2  UNL     1       5.602   0.631   0.875  1.00  0.00    -0.335 N 
HETATM   19  C1  UNL     1       6.781   0.961   1.448  1.00  0.00     0.142 A 
ATOM     20  H2  UNL     1       4.849   0.222   1.428  1.00  0.00     0.168 HD
HETATM   21  S2  UNL     1       7.681   1.585   0.161  1.00  0.00    -0.064 SA
HETATM   22  C13 UNL     1       6.517   1.403  -1.072  1.00  0.00     0.085 A 
BRANCH  19  23
HETATM   23  N1  UNL     1       7.108   0.813   2.719  1.00  0.00    -0.380 N 
ATOM     24  H12 UNL     1       6.565   0.436   3.496  1.00  0.00     0.158 HD
ATOM     25  H11 UNL     1       7.998   1.062   3.151  1.00  0.00     0.158 HD
ENDBRANCH  19  23
ENDBRANCH  14  17
BRANCH  15  26
HETATM   26  O1  UNL     1       3.428   0.723  -3.432  1.00  0.00    -0.289 OA
ATOM     27  H1  UNL     1       3.436   0.927  -4.360  1.00  0.00     0.244 HD
ENDBRANCH  15  26
ENDBRANCH  11  14
ENDBRANCH   1  10
BRANCH   8  28
HETATM   28  O10 UNL     1      -0.484   2.012  -0.166  1.00  0.00    -0.373 OA
ATOM     29  H10 UNL     1       0.463   2.019  -0.242  1.00  0.00     0.212 HD
ENDBRANCH   8  28
BRANCH   5  30
HETATM   30  C8  UNL     1      -3.068  -2.902  -0.391  1.00  0.00     0.229 C 
HETATM   31  O4  UNL     1      -4.196  -3.132   0.051  1.00  0.00    -0.643 OA
HETATM   32  O5  UNL     1      -2.383  -3.991  -0.945  1.00  0.00    -0.643 OA
ENDBRANCH   5  30
BRANCH   7  33
HETATM   33  N7  UNL     1      -3.170   1.934   0.338  1.00  0.00    -0.340 N 
ATOM     34  H72 UNL     1      -4.187   1.926   0.420  1.00  0.00     0.177 HD
ATOM     35  H71 UNL     1      -2.683   2.830   0.361  1.00  0.00     0.177 HD
ENDBRANCH   7  33
BRANCH   6  36
HETATM   36  C10 UNL     1      -4.469  -0.510   0.711  1.00  0.00     0.254 C 
BRANCH  36  37
HETATM   37  O6  UNL     1      -4.407  -0.111   2.071  1.00  0.00    -0.251 OA
BRANCH  37  38
HETATM   38  S1  UNL     1      -5.938  -0.062   2.741  1.00  0.00     0.251 S 
HETATM   39  O7  UNL     1      -5.891  -0.353   4.231  1.00  0.00    -0.572 OA
HETATM   40  O8  UNL     1      -6.835  -1.112   2.141  1.00  0.00    -0.572 OA
HETATM   41  O9  UNL     1      -6.649   1.449   2.572  1.00  0.00    -0.572 OA
ENDBRANCH  37  38
ENDBRANCH  36  37
ENDBRANCH   6  36
TORSDOF 11
