REMARK  12 active torsions:
REMARK  status: ('A' for Active; 'I' for Inactive)
REMARK    1  A    between atoms: N1_1  and  N2_4 
REMARK       I    between atoms: N2_4  and  C1_6 
REMARK    2  A    between atoms: C1_6  and  C2_8 
REMARK    3  A    between atoms: C2_8  and  S1_9 
REMARK    4  A    between atoms: S1_9  and  C3_10 
REMARK    5  A    between atoms: C4_13  and  C5_14 
REMARK    6  A    between atoms: N4_18  and  C7_19 
REMARK    7  A    between atoms: C8_20  and  O4_21 
REMARK    8  A    between atoms: C9_23  and  N5_24 
REMARK    9  A    between atoms: C14_34  and  C15_35 
REMARK   10  A    between atoms: C15_35  and  O8_36 
REMARK   11  A    between atoms: C15_35  and  C16_38 
REMARK       I    between atoms: C16_38  and  N7_40 
REMARK   12  A    between atoms: N7_40  and  N8_42 
ROOT
HETATM    1  C7  UNL     1      -0.205   0.503  -1.249  1.00  0.00     0.156 C 
HETATM    2  C8  UNL     1      -0.468  -0.740  -0.471  1.00  0.00     0.193 C 
HETATM    3  C9  UNL     1      -1.982  -0.804  -0.779  1.00  0.00     0.263 C 
HETATM    4  O7  UNL     1      -2.393   0.469  -0.529  1.00  0.00    -0.353 OA
HETATM    5  C14 UNL     1      -1.330   1.361  -0.752  1.00  0.00     0.188 C 
ENDROOT
BRANCH   1   6
HETATM    6  N4  UNL     1       1.091   1.023  -1.331  1.00  0.00    -0.325 N 
HETATM    7  C3  UNL     1       2.277   0.566  -0.915  1.00  0.00     0.148 A 
HETATM    8  N3  UNL     1       3.222   1.451  -1.276  1.00  0.00    -0.330 N 
HETATM    9  C4  UNL     1       2.660   2.474  -1.921  1.00  0.00     0.127 A 
ATOM     10  H3  UNL     1       4.219   1.355  -1.085  1.00  0.00     0.168 HD
HETATM   11  C6  UNL     1       1.333   2.208  -1.955  1.00  0.00     0.130 A 
BRANCH   7  12
HETATM   12  S1  UNL     1       2.592  -0.993  -0.044  1.00  0.00    -0.084 SA
BRANCH  12  13
HETATM   13  C2  UNL     1       4.348  -1.169   0.259  1.00  0.00     0.186 C 
BRANCH  13  14
HETATM   14  C1  UNL     1       4.610  -2.435   0.966  1.00  0.00     0.245 C 
HETATM   15  N2  UNL     1       5.927  -2.793   1.313  1.00  0.00    -0.276 N 
ATOM     16  H2  UNL     1       6.685  -2.158   1.064  1.00  0.00     0.189 HD
HETATM   17  O1  UNL     1       3.673  -3.199   1.263  1.00  0.00    -0.271 OA
BRANCH  15  18
HETATM   18  N1  UNL     1       6.243  -3.973   1.980  1.00  0.00    -0.343 N 
ATOM     19  H12 UNL     1       5.473  -4.597   2.221  1.00  0.00     0.176 HD
ATOM     20  H11 UNL     1       7.197  -4.232   2.231  1.00  0.00     0.176 HD
ENDBRANCH  15  18
ENDBRANCH  13  14
ENDBRANCH  12  13
ENDBRANCH   7  12
BRANCH   9  21
HETATM   21  C5  UNL     1       3.330   3.643  -2.477  1.00  0.00     0.228 C 
HETATM   22  O2  UNL     1       4.582   3.772  -2.377  1.00  0.00    -0.643 OA
HETATM   23  O3  UNL     1       2.610   4.631  -3.124  1.00  0.00    -0.643 OA
ENDBRANCH   9  21
ENDBRANCH   1   6
BRANCH   2  24
HETATM   24  O4  UNL     1      -0.227  -0.566   0.847  1.00  0.00    -0.389 OA
ATOM     25  H4  UNL     1      -0.395  -1.359   1.343  1.00  0.00     0.210 HD
ENDBRANCH   2  24
BRANCH   5  26
HETATM   26  C15 UNL     1      -1.144   2.125   0.508  1.00  0.00     0.242 C 
BRANCH  26  27
HETATM   27  O8  UNL     1      -0.083   3.060   0.454  1.00  0.00    -0.383 OA
ATOM     28  H8  UNL     1       0.036   3.549   1.260  1.00  0.00     0.210 HD
ENDBRANCH  26  27
BRANCH  26  29
HETATM   29  C16 UNL     1      -2.352   3.005   0.745  1.00  0.00     0.267 C 
HETATM   30  O9  UNL     1      -2.256   4.251   0.663  1.00  0.00    -0.269 OA
HETATM   31  N7  UNL     1      -3.611   2.472   1.065  1.00  0.00    -0.274 N 
ATOM     32  H7  UNL     1      -3.709   1.460   1.142  1.00  0.00     0.189 HD
BRANCH  31  33
HETATM   33  N8  UNL     1      -4.735   3.272   1.282  1.00  0.00    -0.343 N 
ATOM     34  H82 UNL     1      -4.620   4.282   1.201  1.00  0.00     0.176 HD
ATOM     35  H81 UNL     1      -5.650   2.885   1.514  1.00  0.00     0.176 HD
ENDBRANCH  31  33
ENDBRANCH  26  29
ENDBRANCH   5  26
BRANCH   3  36
HETATM   36  N5  UNL     1      -2.658  -1.860  -0.141  1.00  0.00    -0.280 N 
HETATM   37  C10 UNL     1      -2.041  -2.936   0.349  1.00  0.00     0.104 A 
HETATM   38  C11 UNL     1      -2.776  -3.920   0.955  1.00  0.00     0.092 A 
HETATM   39  C12 UNL     1      -4.140  -3.785   1.050  1.00  0.00     0.250 A 
HETATM   40  O5  UNL     1      -4.807  -4.699   1.612  1.00  0.00    -0.268 OA
HETATM   41  N6  UNL     1      -4.769  -2.704   0.560  1.00  0.00    -0.275 N 
HETATM   42  C13 UNL     1      -3.989  -1.780  -0.021  1.00  0.00     0.331 A 
ATOM     43  H6  UNL     1      -5.781  -2.592   0.626  1.00  0.00     0.173 HD
HETATM   44  O6  UNL     1      -4.620  -0.762  -0.478  1.00  0.00    -0.246 OA
ENDBRANCH   3  36
TORSDOF 12
