REMARK  3 active torsions:
REMARK  status: ('A' for Active; 'I' for Inactive)
REMARK    1  A    between atoms: C5_5  and  N1_6 
REMARK    2  A    between atoms: N1_6  and  N2_7 
REMARK    3  A    between atoms: N1_6  and  C6_10 
ROOT
HETATM    1  C1  UNL     1       3.747   0.057   0.518  1.00  0.00     0.010 C 
HETATM    2  C2  UNL     1       2.741   0.138  -0.640  1.00  0.00    -0.019 C 
HETATM    3  C3  UNL     1       2.086  -1.158  -0.889  1.00  0.00     0.006 C 
HETATM    4  C4  UNL     1       0.657  -1.296  -0.620  1.00  0.00     0.027 C 
HETATM    5  C5  UNL     1      -0.100  -0.041  -0.231  1.00  0.00     0.102 C 
HETATM    6  C9  UNL     1       0.784   0.798   0.634  1.00  0.00     0.027 C 
HETATM    7  C10 UNL     1       1.851   1.293  -0.344  1.00  0.00     0.006 C 
ENDROOT
BRANCH   5   8
HETATM    8  N1  UNL     1      -1.319  -0.337   0.409  1.00  0.00    -0.326 N 
BRANCH   8   9
HETATM    9  N2  UNL     1      -1.495  -1.574   0.946  1.00  0.00    -0.347 N 
ATOM     10  H22 UNL     1      -0.677  -2.009   1.373  1.00  0.00     0.176 HD
ATOM     11  H21 UNL     1      -2.378  -1.788   1.410  1.00  0.00     0.176 HD
ENDBRANCH   8   9
BRANCH   8  12
HETATM   12  C6  UNL     1      -2.454   0.267  -0.184  1.00  0.00     0.094 C 
HETATM   13  C7  UNL     1      -2.473   1.742   0.150  1.00  0.00     0.033 C 
HETATM   14  C8  UNL     1      -3.774  -0.349   0.104  1.00  0.00     0.033 C 
ENDBRANCH   8  12
ENDBRANCH   5   8
TORSDOF 3
