REMARK  2 active torsions:
REMARK  status: ('A' for Active; 'I' for Inactive)
REMARK    1  A    between atoms: C2_2  and  C3_3 
REMARK    2  A    between atoms: C3_3  and  C4_4 
ROOT
HETATM    1  C4  UNL     1      -0.057  -0.876  -0.036  1.00  0.00     0.101 C 
HETATM    2  C5  UNL     1       0.853  -1.219  -1.152  1.00  0.00     0.030 C 
HETATM    3  C6  UNL     1       2.307  -0.946  -0.901  1.00  0.00     0.080 C 
HETATM    4  C7  UNL     1       2.549   0.247  -0.072  1.00  0.00     0.106 C 
HETATM    5  N1  UNL     1       3.636   0.928  -0.166  1.00  0.00    -0.387 N 
ATOM      6  H11 UNL     1       3.804   1.754   0.408  1.00  0.00     0.157 HD
ATOM      7  H12 UNL     1       4.361   0.649  -0.827  1.00  0.00     0.157 HD
HETATM    8  N2  UNL     1       1.536   0.636   0.851  1.00  0.00    -0.187 N 
HETATM    9 CL1  UNL     1       1.540   2.220   1.576  1.00  0.00     0.034 Cl
HETATM   10  N3  UNL     1       0.567  -0.322   1.123  1.00  0.00    -0.116 NA
ENDROOT
BRANCH   1  11
HETATM   11  C3  UNL     1      -1.226   0.004  -0.505  1.00  0.00     0.023 C 
BRANCH  11  12
HETATM   12  C2  UNL     1      -2.106   0.308   0.694  1.00  0.00    -0.003 C 
HETATM   13  C1  UNL     1      -3.260   1.168   0.268  1.00  0.00     0.005 C 
ENDBRANCH  11  12
ENDBRANCH   1  11
TORSDOF 2
