REMARK  14 active torsions:
REMARK  status: ('A' for Active; 'I' for Inactive)
REMARK    1  A    between atoms: C2_2  and  C4_4 
REMARK    2  A    between atoms: C4_4  and  C5_5 
REMARK    3  A    between atoms: C5_5  and  N1_6 
REMARK    4  A    between atoms: C5_5  and  C25_37 
REMARK       I    between atoms: N1_6  and  C6_7 
REMARK    5  A    between atoms: C6_7  and  C7_9 
REMARK    6  A    between atoms: C7_9  and  N2_10 
REMARK    7  A    between atoms: C7_9  and  C20_28 
REMARK       I    between atoms: N2_10  and  C8_12 
REMARK    8  A    between atoms: C8_12  and  C9_14 
REMARK    9  A    between atoms: C9_14  and  C11_16 
REMARK   10  A    between atoms: C11_16  and  C12_17 
REMARK   11  A    between atoms: C12_17  and  C13_19 
REMARK   12  A    between atoms: C20_28  and  N4_29 
REMARK   13  A    between atoms: C20_28  and  C21_33 
REMARK   14  A    between atoms: C21_33  and  C22_34 
ROOT
HETATM    1  C7  UNL     1      -1.513   0.720   0.251  1.00  0.00     0.222 C 
ENDROOT
BRANCH   1   2
HETATM    2  C6  UNL     1      -2.706   0.164  -0.543  1.00  0.00     0.317 C 
HETATM    3  N1  UNL     1      -3.917  -0.041  -0.065  1.00  0.00    -0.368 NA
HETATM    4  O1  UNL     1      -2.320  -0.061  -1.750  1.00  0.00    -0.255 OA
BRANCH   3   5
HETATM    5  C5  UNL     1      -5.214  -0.264   0.436  1.00  0.00     0.153 C 
BRANCH   5   6
HETATM    6  C4  UNL     1      -5.530  -1.630   0.929  1.00  0.00     0.082 C 
BRANCH   6   7
HETATM    7  C2  UNL     1      -5.439  -2.758  -0.018  1.00  0.00    -0.016 C 
HETATM    8  C1  UNL     1      -6.345  -2.700  -1.206  1.00  0.00     0.010 C 
HETATM    9  C3  UNL     1      -5.817  -4.035   0.741  1.00  0.00     0.010 C 
ENDBRANCH   6   7
ENDBRANCH   5   6
BRANCH   5  10
HETATM   10  C25 UNL     1      -6.311   0.372  -0.365  1.00  0.00     0.291 C 
HETATM   11  N5  UNL     1      -7.685   0.140  -0.157  1.00  0.00    -0.055 NA
HETATM   12  O4  UNL     1      -5.942   1.163  -1.282  1.00  0.00    -0.269 OA
ENDBRANCH   5  10
ENDBRANCH   3   5
ENDBRANCH   1   2
BRANCH   1  13
HETATM   13  N2  UNL     1      -0.396  -0.072  -0.110  1.00  0.00    -0.344 N 
HETATM   14  C8  UNL     1       0.692  -0.480   0.666  1.00  0.00     0.222 C 
HETATM   15  O2  UNL     1       0.898  -0.188   1.886  1.00  0.00    -0.273 OA
ATOM     16  H2  UNL     1      -0.384  -0.392  -1.079  1.00  0.00     0.163 HD
BRANCH  14  17
HETATM   17  C9  UNL     1       1.776  -1.365   0.102  1.00  0.00     0.081 C 
HETATM   18  C10 UNL     1       1.832  -0.958  -1.378  1.00  0.00     0.020 C 
BRANCH  17  19
HETATM   19  C11 UNL     1       3.116  -1.043   0.726  1.00  0.00     0.098 C 
BRANCH  19  20
HETATM   20  C12 UNL     1       4.128  -1.976   0.163  1.00  0.00     0.172 C 
HETATM   21  O3  UNL     1       3.710  -2.982  -0.506  1.00  0.00    -0.291 OA
BRANCH  20  22
HETATM   22  C13 UNL     1       5.596  -1.781   0.342  1.00  0.00     0.051 C 
HETATM   23  N3  UNL     1       5.690  -0.651   1.028  1.00  0.00    -0.390 N 
HETATM   24  C14 UNL     1       6.873   0.035   1.488  1.00  0.00     0.119 C 
ATOM     25  H3  UNL     1       4.804  -0.205   1.263  1.00  0.00     0.159 HD
HETATM   26  C15 UNL     1       7.751   0.767   0.537  1.00  0.00     0.020 C 
HETATM   27  C16 UNL     1       8.709  -0.143  -0.290  1.00  0.00     0.002 C 
HETATM   28  C17 UNL     1       7.968  -1.323  -0.483  1.00  0.00     0.000 C 
HETATM   29  C18 UNL     1       7.658  -2.602  -0.950  1.00  0.00     0.006 C 
HETATM   30  C19 UNL     1       6.273  -2.902  -0.293  1.00  0.00     0.061 C 
ENDBRANCH  20  22
ENDBRANCH  19  20
ENDBRANCH  17  19
ENDBRANCH  14  17
ENDBRANCH   1  13
BRANCH   1  31
HETATM   31  C20 UNL     1      -1.380   2.168  -0.202  1.00  0.00     0.216 C 
BRANCH  31  32
HETATM   32  N4  UNL     1      -0.251   2.690   0.561  1.00  0.00    -0.073 N 
ATOM     33  H43 UNL     1      -0.344   2.577   1.570  1.00  0.00     0.274 HD
ATOM     34  H42 UNL     1       0.605   2.144   0.463  1.00  0.00     0.274 HD
ATOM     35  H41 UNL     1      -0.162   3.660   0.258  1.00  0.00     0.274 HD
ENDBRANCH  31  32
BRANCH  31  36
HETATM   36  C21 UNL     1      -2.571   3.019   0.095  1.00  0.00     0.039 C 
BRANCH  36  37
HETATM   37  C22 UNL     1      -2.417   4.437  -0.359  1.00  0.00    -0.021 C 
HETATM   38  C23 UNL     1      -3.715   5.171   0.002  1.00  0.00     0.009 C 
HETATM   39  C24 UNL     1      -1.319   5.204   0.303  1.00  0.00     0.009 C 
ENDBRANCH  36  37
ENDBRANCH  31  36
ENDBRANCH   1  31
TORSDOF 14
