REMARK  15 active torsions:
REMARK  status: ('A' for Active; 'I' for Inactive)
REMARK    1  A    between atoms: C2_2  and  C3_3 
REMARK    2  A    between atoms: C3_3  and  C5_5 
REMARK    3  A    between atoms: C5_5  and  N1_6 
REMARK    4  A    between atoms: C5_5  and  C8_12 
REMARK       I    between atoms: N1_6  and  C6_8 
REMARK    5  A    between atoms: C6_8  and  O2_10 
REMARK    6  A    between atoms: C8_12  and  C9_13 
REMARK    7  A    between atoms: C8_12  and  N2_20 
REMARK    8  A    between atoms: C9_13  and  C10_14 
REMARK    9  A    between atoms: N2_20  and  C16_22 
REMARK   10  A    between atoms: C16_22  and  C18_24 
REMARK       I    between atoms: C18_24  and  N3_26 
REMARK   11  A    between atoms: N3_26  and  C19_28 
REMARK   12  A    between atoms: C19_28  and  C21_30 
REMARK   13  A    between atoms: C21_30  and  O5_32 
REMARK   14  A    between atoms: O5_32  and  C22_33 
REMARK   15  A    between atoms: C22_33  and  N4_34 
REMARK       I    between atoms: N4_34  and  C23_36 
ROOT
HETATM    1  C8  UNL     1      -1.788  -0.172   0.152  1.00  0.00     0.101 C 
ENDROOT
BRANCH   1   2
HETATM    2  C5  UNL     1      -2.781  -1.276   0.099  1.00  0.00     0.112 C 
BRANCH   2   3
HETATM    3  C3  UNL     1      -2.561  -2.387   1.086  1.00  0.00     0.006 C 
HETATM    4  C4  UNL     1      -1.264  -3.111   1.004  1.00  0.00     0.012 C 
BRANCH   3   5
HETATM    5  C2  UNL     1      -3.689  -3.389   1.096  1.00  0.00     0.002 C 
HETATM    6  C1  UNL     1      -3.636  -4.346   2.263  1.00  0.00     0.005 C 
ENDBRANCH   3   5
ENDBRANCH   2   3
BRANCH   2   7
HETATM    7  N1  UNL     1      -2.885  -1.872  -1.238  1.00  0.00    -0.330 N 
HETATM    8  C6  UNL     1      -4.111  -1.982  -1.950  1.00  0.00     0.360 C 
HETATM    9  O1  UNL     1      -5.147  -1.559  -1.417  1.00  0.00    -0.239 OA
ATOM     10  H1  UNL     1      -2.035  -2.225  -1.679  1.00  0.00     0.165 HD
BRANCH   8  11
HETATM   11  O2  UNL     1      -4.180  -2.547  -3.219  1.00  0.00    -0.309 OA
HETATM   12  C7  UNL     1      -5.465  -2.609  -3.846  1.00  0.00     0.215 C 
ENDBRANCH   8  11
ENDBRANCH   2   7
ENDBRANCH   1   2
BRANCH   1  13
HETATM   13  C9  UNL     1      -2.039   0.947  -0.819  1.00  0.00     0.031 C 
BRANCH  13  14
HETATM   14  C10 UNL     1      -3.317   1.672  -0.688  1.00  0.00    -0.013 C 
HETATM   15  C11 UNL     1      -3.340   2.749  -1.772  1.00  0.00     0.005 C 
HETATM   16  C12 UNL     1      -2.525   3.949  -1.441  1.00  0.00     0.000 C 
HETATM   17  C13 UNL     1      -2.903   4.560  -0.101  1.00  0.00     0.000 C 
HETATM   18  C14 UNL     1      -2.573   3.467   0.926  1.00  0.00     0.000 C 
HETATM   19  C15 UNL     1      -3.549   2.350   0.627  1.00  0.00     0.005 C 
ENDBRANCH  13  14
ENDBRANCH   1  13
BRANCH   1  20
HETATM   20  N2  UNL     1      -0.472  -0.727  -0.041  1.00  0.00    -0.403 N 
ATOM     21  H2  UNL     1      -0.324  -1.724  -0.196  1.00  0.00     0.154 HD
BRANCH  20  22
HETATM   22  C16 UNL     1       0.620   0.208  -0.002  1.00  0.00     0.165 C 
HETATM   23  C17 UNL     1       0.701   0.846   1.366  1.00  0.00     0.042 C 
BRANCH  22  24
HETATM   24  C18 UNL     1       1.888  -0.547  -0.194  1.00  0.00     0.240 C 
HETATM   25  O3  UNL     1       1.884  -1.805  -0.307  1.00  0.00    -0.271 OA
HETATM   26  N3  UNL     1       3.155   0.104  -0.262  1.00  0.00    -0.346 N 
ATOM     27  H3  UNL     1       3.192   1.120  -0.175  1.00  0.00     0.163 HD
BRANCH  26  28
HETATM   28  C19 UNL     1       4.387  -0.624  -0.450  1.00  0.00     0.180 C 
HETATM   29  C20 UNL     1       4.897  -0.425  -1.896  1.00  0.00     0.043 C 
BRANCH  28  30
HETATM   30  C21 UNL     1       5.427  -0.264   0.509  1.00  0.00     0.283 C 
HETATM   31  O4  UNL     1       5.186   0.644   1.378  1.00  0.00    -0.263 OA
BRANCH  30  32
HETATM   32  O5  UNL     1       6.686  -0.830   0.569  1.00  0.00    -0.300 OA
BRANCH  32  33
HETATM   33  C22 UNL     1       7.666  -0.432   1.525  1.00  0.00     0.305 C 
BRANCH  33  34
HETATM   34  N4  UNL     1       8.014   0.948   1.394  1.00  0.00    -0.324 N 
HETATM   35  C23 UNL     1       8.972   1.513   2.263  1.00  0.00     0.330 C 
HETATM   36  N5  UNL     1       9.333   2.903   2.143  1.00  0.00    -0.040 NA
HETATM   37  O6  UNL     1       9.511   0.801   3.144  1.00  0.00    -0.251 OA
ATOM     38  H4  UNL     1       7.572   1.522   0.676  1.00  0.00     0.166 HD
ENDBRANCH  33  34
ENDBRANCH  32  33
ENDBRANCH  30  32
ENDBRANCH  28  30
ENDBRANCH  26  28
ENDBRANCH  22  24
ENDBRANCH  20  22
ENDBRANCH   1  20
TORSDOF 15
