REMARK  18 active torsions:
REMARK  status: ('A' for Active; 'I' for Inactive)
REMARK    1  A    between atoms: C2_2  and  C3_3 
REMARK    2  A    between atoms: C3_3  and  C4_4 
REMARK    3  A    between atoms: C4_4  and  N1_5 
REMARK    4  A    between atoms: C7_8  and  C8_9 
REMARK    5  A    between atoms: C8_9  and  C9_10 
REMARK    6  A    between atoms: C9_10  and  C10_11 
REMARK    7  A    between atoms: C12_13  and  C13_14 
REMARK    8  A    between atoms: C13_14  and  O1_15 
REMARK    9  A    between atoms: C13_14  and  C14_17 
REMARK   10  A    between atoms: C14_17  and  C15_18 
REMARK   11  A    between atoms: C15_18  and  C16_19 
REMARK   12  A    between atoms: C16_19  and  C17_20 
REMARK   13  A    between atoms: C17_20  and  C18_21 
REMARK   14  A    between atoms: C19_23  and  C20_24 
REMARK   15  A    between atoms: C20_24  and  O3_25 
REMARK   16  A    between atoms: C21_27  and  O4_28 
REMARK   17  A    between atoms: C22_30  and  O5_31 
REMARK   18  A    between atoms: C23_33  and  N2_34 
REMARK       I    between atoms: N2_34  and  C24_36 
ROOT
HETATM    1  C16 UNL     1       1.688   0.758   0.429  1.00  0.00     0.003 C 
ENDROOT
BRANCH   1   2
HETATM    2  C15 UNL     1       0.914   1.652  -0.493  1.00  0.00     0.002 C 
BRANCH   2   3
HETATM    3  C14 UNL     1      -0.573   1.539  -0.451  1.00  0.00     0.032 C 
BRANCH   3   4
HETATM    4  C13 UNL     1      -1.182   0.231  -0.777  1.00  0.00     0.124 C 
BRANCH   4   5
HETATM    5  C12 UNL     1      -2.721   0.281  -0.749  1.00  0.00     0.036 C 
HETATM    6  C7  UNL     1      -3.249   0.650   0.581  1.00  0.00    -0.005 C 
HETATM    7  C6  UNL     1      -4.322  -0.192   1.173  1.00  0.00     0.025 C 
HETATM    8  C5  UNL     1      -4.172  -1.613   0.677  1.00  0.00     0.122 C 
HETATM    9  N1  UNL     1      -4.355  -1.538  -0.735  1.00  0.00    -0.393 N 
HETATM   10  C26 UNL     1      -3.193  -1.007  -1.335  1.00  0.00     0.129 C 
BRANCH   6  11
HETATM   11  C8  UNL     1      -3.679   2.112   0.646  1.00  0.00     0.005 C 
BRANCH  11  12
HETATM   12  C9  UNL     1      -4.942   2.416  -0.090  1.00  0.00     0.000 C 
BRANCH  12  13
HETATM   13  C10 UNL     1      -5.188   3.922   0.093  1.00  0.00    -0.005 C 
HETATM   14  C11 UNL     1      -4.068   4.742  -0.456  1.00  0.00     0.005 C 
ENDBRANCH  12  13
ENDBRANCH  11  12
ENDBRANCH   6  11
BRANCH   9  15
HETATM   15  C4  UNL     1      -5.096  -2.505  -1.393  1.00  0.00     0.061 C 
BRANCH  15  16
HETATM   16  C3  UNL     1      -4.574  -3.895  -1.499  1.00  0.00     0.070 C 
BRANCH  16  17
HETATM   17  C2  UNL     1      -4.349  -4.590  -0.215  1.00  0.00    -0.032 C 
HETATM   18  C1  UNL     1      -5.006  -5.699   0.080  1.00  0.00     0.007 C 
ENDBRANCH  16  17
ENDBRANCH  15  16
ENDBRANCH   9  15
ENDBRANCH   4   5
BRANCH   4  19
HETATM   19  O1  UNL     1      -0.750  -0.743   0.150  1.00  0.00    -0.395 OA
ATOM     20  H1  UNL     1       0.199  -0.774   0.133  1.00  0.00     0.210 HD
ENDBRANCH   4  19
ENDBRANCH   3   4
ENDBRANCH   2   3
ENDBRANCH   1   2
BRANCH   1  21
HETATM   21  C17 UNL     1       3.207   1.052   0.284  1.00  0.00     0.034 C 
BRANCH  21  22
HETATM   22  C18 UNL     1       3.870   0.098   1.252  1.00  0.00     0.147 C 
HETATM   23  O2  UNL     1       3.586  -1.223   0.940  1.00  0.00    -0.374 OA
HETATM   24  C19 UNL     1       4.104  -1.596  -0.297  1.00  0.00     0.176 C 
HETATM   25  C21 UNL     1       5.583  -1.393  -0.391  1.00  0.00     0.180 C 
HETATM   26  C22 UNL     1       6.157  -0.884   0.896  1.00  0.00     0.174 C 
HETATM   27  C23 UNL     1       5.358   0.314   1.364  1.00  0.00     0.144 C 
BRANCH  24  28
HETATM   28  C20 UNL     1       3.807  -3.078  -0.465  1.00  0.00     0.198 C 
BRANCH  28  29
HETATM   29  O3  UNL     1       4.302  -3.516  -1.689  1.00  0.00    -0.398 OA
ATOM     30  H3  UNL     1       4.116  -4.442  -1.794  1.00  0.00     0.209 HD
ENDBRANCH  28  29
ENDBRANCH  24  28
BRANCH  25  31
HETATM   31  O4  UNL     1       5.949  -0.580  -1.479  1.00  0.00    -0.390 OA
ATOM     32  H4  UNL     1       6.888  -0.451  -1.539  1.00  0.00     0.210 HD
ENDBRANCH  25  31
BRANCH  26  33
HETATM   33  O5  UNL     1       6.124  -1.913   1.836  1.00  0.00    -0.391 OA
ATOM     34  H5  UNL     1       6.488  -1.590   2.652  1.00  0.00     0.210 HD
ENDBRANCH  26  33
BRANCH  27  35
HETATM   35  N2  UNL     1       5.811   1.460   0.639  1.00  0.00    -0.352 N 
HETATM   36  C24 UNL     1       6.519   2.483   1.318  1.00  0.00     0.214 C 
HETATM   37  C25 UNL     1       7.022   3.700   0.644  1.00  0.00     0.117 C 
HETATM   38  O6  UNL     1       6.741   2.371   2.548  1.00  0.00    -0.274 OA
ATOM     39  H2  UNL     1       5.626   1.541  -0.361  1.00  0.00     0.163 HD
ENDBRANCH  27  35
ENDBRANCH  21  22
ENDBRANCH   1  21
TORSDOF 18
