REMARK  16 active torsions:
REMARK  status: ('A' for Active; 'I' for Inactive)
REMARK    1  A    between atoms: C2_2  and  C3_4 
REMARK    2  A    between atoms: C5_7  and  C6_8 
REMARK    3  A    between atoms: C10_15  and  C11_16 
REMARK    4  A    between atoms: C11_16  and  C12_17 
REMARK    5  A    between atoms: C12_17  and  C13_18 
REMARK    6  A    between atoms: C12_17  and  C22_33 
REMARK    7  A    between atoms: C13_18  and  C14_19 
REMARK    8  A    between atoms: C14_19  and  O4_20 
REMARK    9  A    between atoms: C14_19  and  C15_22 
REMARK   10  A    between atoms: C15_22  and  C16_23 
REMARK   11  A    between atoms: C16_23  and  C17_24 
REMARK   12  A    between atoms: C17_24  and  C18_25 
REMARK   13  A    between atoms: C18_25  and  C19_26 
REMARK   14  A    between atoms: C19_26  and  C20_27 
REMARK   15  A    between atoms: C20_27  and  N2_28 
REMARK   16  A    between atoms: C25_36  and  O5_37 
ROOT
HETATM    1  C11 UNL     1      -1.668  -2.214   0.763  1.00  0.00     0.023 C 
ENDROOT
BRANCH   1   2
HETATM    2  C10 UNL     1      -2.596  -1.088   0.561  1.00  0.00     0.045 C 
HETATM    3  C9  UNL     1      -2.099   0.156  -0.056  1.00  0.00     0.251 C 
HETATM    4  N1  UNL     1      -2.391   1.565   0.020  1.00  0.00    -0.340 N 
HETATM    5  O3  UNL     1      -1.141  -0.045  -0.909  1.00  0.00    -0.268 OA
HETATM    6  C5  UNL     1      -3.698   2.224   0.263  1.00  0.00     0.185 C 
ATOM      7  H1  UNL     1      -1.596   2.191  -0.110  1.00  0.00     0.164 HD
HETATM    8  C4  UNL     1      -4.701   1.221   0.151  1.00  0.00     0.006 C 
HETATM    9  O2  UNL     1      -5.670   0.426   0.007  1.00  0.00    -0.269 OA
HETATM   10  C3  UNL     1      -5.117  -0.883  -0.281  1.00  0.00     0.142 C 
HETATM   11  C25 UNL     1      -4.030  -1.410   0.466  1.00  0.00     0.218 C 
BRANCH   6  12
HETATM   12  C6  UNL     1      -3.829   3.401  -0.723  1.00  0.00     0.013 C 
HETATM   13  C7  UNL     1      -3.765   2.951  -2.142  1.00  0.00     0.012 C 
HETATM   14  C8  UNL     1      -5.144   4.116  -0.508  1.00  0.00     0.012 C 
ENDBRANCH   6  12
BRANCH  10  15
HETATM   15  C2  UNL     1      -5.094  -1.071  -1.760  1.00  0.00     0.178 C 
HETATM   16  C1  UNL     1      -4.553  -2.300  -2.388  1.00  0.00     0.099 C 
HETATM   17  O1  UNL     1      -5.521  -0.222  -2.535  1.00  0.00    -0.291 OA
ENDBRANCH  10  15
BRANCH  11  18
HETATM   18  O5  UNL     1      -4.032  -2.769   0.045  1.00  0.00    -0.384 OA
ATOM     19  H5  UNL     1      -3.305  -3.121   0.545  1.00  0.00     0.211 HD
ENDBRANCH  11  18
ENDBRANCH   1   2
BRANCH   1  20
HETATM   20  C12 UNL     1      -0.536  -2.322   1.649  1.00  0.00    -0.055 C 
BRANCH  20  21
HETATM   21  C13 UNL     1       0.709  -1.735   1.929  1.00  0.00     0.012 C 
BRANCH  21  22
HETATM   22  C14 UNL     1       1.237  -0.441   2.306  1.00  0.00     0.141 C 
BRANCH  22  23
HETATM   23  O4  UNL     1       2.694  -0.673   2.542  1.00  0.00    -0.392 OA
ATOM     24  H4  UNL     1       3.041   0.176   2.789  1.00  0.00     0.210 HD
ENDBRANCH  22  23
BRANCH  22  25
HETATM   25  C15 UNL     1       1.319   0.743   1.443  1.00  0.00     0.036 C 
BRANCH  25  26
HETATM   26  C16 UNL     1       2.115   0.711   0.203  1.00  0.00     0.003 C 
BRANCH  26  27
HETATM   27  C17 UNL     1       3.580   0.498   0.283  1.00  0.00     0.000 C 
BRANCH  27  28
HETATM   28  C18 UNL     1       4.334   1.573   1.046  1.00  0.00     0.002 C 
BRANCH  28  29
HETATM   29  C19 UNL     1       5.799   1.198   1.046  1.00  0.00     0.020 C 
BRANCH  29  30
HETATM   30  C20 UNL     1       6.340   1.108  -0.357  1.00  0.00     0.122 C 
BRANCH  30  31
HETATM   31  N2  UNL     1       6.196   2.385  -1.029  1.00  0.00    -0.367 N 
HETATM   32  C21 UNL     1       7.022   2.737  -1.947  1.00  0.00     0.196 C 
HETATM   33  N3  UNL     1       8.081   1.871  -2.304  1.00  0.00    -0.067 NA
HETATM   34  N4  UNL     1       6.868   3.986  -2.592  1.00  0.00    -0.067 NA
ATOM     35  H2  UNL     1       5.432   3.009  -0.770  1.00  0.00     0.161 HD
ENDBRANCH  30  31
ENDBRANCH  29  30
ENDBRANCH  28  29
ENDBRANCH  27  28
ENDBRANCH  26  27
ENDBRANCH  25  26
ENDBRANCH  22  25
ENDBRANCH  21  22
ENDBRANCH  20  21
BRANCH  20  36
HETATM   36  C22 UNL     1      -0.170  -3.902   1.561  1.00  0.00     0.010 C 
HETATM   37  C23 UNL     1       0.966  -4.290   2.405  1.00  0.00     0.015 C 
HETATM   38  C24 UNL     1       0.231  -4.159   0.107  1.00  0.00     0.015 C 
ENDBRANCH  20  36
ENDBRANCH   1  20
TORSDOF 16
