REMARK  14 active torsions:
REMARK  status: ('A' for Active; 'I' for Inactive)
REMARK    1  A    between atoms: O1_2  and  C2_3 
REMARK    2  A    between atoms: C2_3  and  C3_4 
REMARK    3  A    between atoms: C3_4  and  C4_5 
REMARK    4  A    between atoms: C4_5  and  N1_6 
REMARK    5  A    between atoms: C4_5  and  C6_13 
REMARK       I    between atoms: N1_6  and  C5_8 
REMARK    6  A    between atoms: C6_13  and  C7_14 
REMARK    7  A    between atoms: C6_13  and  N4_21 
REMARK    8  A    between atoms: C7_14  and  C8_15 
REMARK       I    between atoms: N4_21  and  C14_23 
REMARK    9  A    between atoms: C14_23  and  C15_25 
REMARK   10  A    between atoms: C15_25  and  C16_26 
REMARK   11  A    between atoms: C15_25  and  N5_30 
REMARK   12  A    between atoms: C16_26  and  C17_27 
REMARK       I    between atoms: N5_30  and  C20_32 
REMARK   13  A    between atoms: C20_32  and  C21_34 
REMARK   14  A    between atoms: C21_34  and  N6_35 
ROOT
HETATM    1  C6  UNL     1      -1.493  -0.014  -0.653  1.00  0.00     0.107 C 
ENDROOT
BRANCH   1   2
HETATM    2  C4  UNL     1      -2.310  -1.245  -0.792  1.00  0.00     0.108 C 
BRANCH   2   3
HETATM    3  C3  UNL     1      -1.673  -2.432  -0.046  1.00  0.00     0.053 C 
BRANCH   3   4
HETATM    4  C2  UNL     1      -1.846  -2.329   1.438  1.00  0.00     0.169 C 
BRANCH   4   5
HETATM    5  O1  UNL     1      -1.229  -3.458   2.000  1.00  0.00    -0.396 OA
HETATM    6  C1  UNL     1      -1.385  -3.368   3.385  1.00  0.00     0.201 C 
ENDBRANCH   4   5
ENDBRANCH   3   4
ENDBRANCH   2   3
BRANCH   2   7
HETATM    7  N1  UNL     1      -3.706  -1.192  -0.498  1.00  0.00    -0.358 N 
HETATM    8  C5  UNL     1      -4.631  -2.135  -1.063  1.00  0.00     0.182 C 
HETATM    9  N2  UNL     1      -5.897  -1.874  -1.018  1.00  0.00    -0.374 N 
HETATM   10  N3  UNL     1      -4.254  -3.342  -1.675  1.00  0.00    -0.064 NA
ATOM     11  H22 UNL     1      -6.171  -0.998  -0.574  1.00  0.00     0.158 HD
ATOM     12  H21 UNL     1      -6.554  -2.543  -1.419  1.00  0.00     0.158 HD
ATOM     13  H1  UNL     1      -4.055  -0.467   0.129  1.00  0.00     0.162 HD
ENDBRANCH   2   7
ENDBRANCH   1   2
BRANCH   1  14
HETATM   14  C7  UNL     1      -1.943   1.216  -1.325  1.00  0.00     0.032 C 
BRANCH  14  15
HETATM   15  C8  UNL     1      -3.204   1.877  -0.990  1.00  0.00    -0.013 C 
HETATM   16  C9  UNL     1      -3.302   2.365   0.442  1.00  0.00     0.005 C 
HETATM   17  C10 UNL     1      -4.554   3.160   0.616  1.00  0.00     0.000 C 
HETATM   18  C11 UNL     1      -4.618   4.366  -0.292  1.00  0.00     0.000 C 
HETATM   19  C12 UNL     1      -4.535   3.871  -1.713  1.00  0.00     0.000 C 
HETATM   20  C13 UNL     1      -3.233   3.147  -1.883  1.00  0.00     0.005 C 
ENDBRANCH  14  15
ENDBRANCH   1  14
BRANCH   1  21
HETATM   21  N4  UNL     1      -0.135  -0.387  -1.136  1.00  0.00    -0.353 N 
HETATM   22  C14 UNL     1       1.011  -0.277  -0.294  1.00  0.00     0.240 C 
HETATM   23  O2  UNL     1       0.779   0.151   0.900  1.00  0.00    -0.271 OA
ATOM     24  H4  UNL     1      -0.022  -0.729  -2.090  1.00  0.00     0.163 HD
BRANCH  22  25
HETATM   25  C15 UNL     1       2.375  -0.606  -0.661  1.00  0.00     0.177 C 
BRANCH  25  26
HETATM   26  C16 UNL     1       3.154   0.248  -1.569  1.00  0.00     0.038 C 
BRANCH  26  27
HETATM   27  C17 UNL     1       2.714   0.516  -2.955  1.00  0.00    -0.020 C 
HETATM   28  C18 UNL     1       2.518  -0.667  -3.838  1.00  0.00     0.009 C 
HETATM   29  C19 UNL     1       1.631   1.537  -3.083  1.00  0.00     0.009 C 
ENDBRANCH  26  27
ENDBRANCH  25  26
BRANCH  25  30
HETATM   30  N5  UNL     1       3.170  -0.709   0.578  1.00  0.00    -0.347 N 
HETATM   31  C20 UNL     1       3.476   0.367   1.407  1.00  0.00     0.233 C 
HETATM   32  O3  UNL     1       3.103   1.550   1.193  1.00  0.00    -0.272 OA
ATOM     33  H5  UNL     1       3.519  -1.630   0.845  1.00  0.00     0.163 HD
BRANCH  31  34
HETATM   34  C21 UNL     1       4.292   0.205   2.654  1.00  0.00     0.223 C 
BRANCH  34  35
HETATM   35  N6  UNL     1       4.733  -1.155   2.868  1.00  0.00    -0.188 NA
HETATM   36  C22 UNL     1       5.461  -1.246   4.153  1.00  0.00     0.123 C 
HETATM   37  C23 UNL     1       6.912  -1.034   3.793  1.00  0.00     0.045 C 
HETATM   38  C24 UNL     1       6.855  -0.887   2.290  1.00  0.00     0.195 C 
HETATM   39  O4  UNL     1       5.679  -1.508   1.948  1.00  0.00    -0.303 OA
ENDBRANCH  34  35
ENDBRANCH  31  34
ENDBRANCH  25  30
ENDBRANCH  22  25
ENDBRANCH   1  21
TORSDOF 14
