REMARK  16 active torsions:
REMARK  status: ('A' for Active; 'I' for Inactive)
REMARK    1  A    between atoms: C2_2  and  O1_3 
REMARK    2  A    between atoms: O1_3  and  C3_4 
REMARK       I    between atoms: C3_4  and  N1_6 
REMARK    3  A    between atoms: N1_6  and  C4_8 
REMARK    4  A    between atoms: C4_8  and  C6_10 
REMARK       I    between atoms: C6_10  and  N2_12 
REMARK    5  A    between atoms: N2_12  and  C7_14 
REMARK    6  A    between atoms: C7_14  and  C8_15 
REMARK    7  A    between atoms: C8_15  and  C9_16 
REMARK    8  A    between atoms: C8_15  and  N3_21 
REMARK    9  A    between atoms: C9_16  and  C10_17 
REMARK   10  A    between atoms: C10_17  and  C11_18 
REMARK   11  A    between atoms: N3_21  and  C14_24 
REMARK   12  A    between atoms: C14_24  and  C15_25 
REMARK   13  A    between atoms: C15_25  and  O4_26 
REMARK   14  A    between atoms: C15_25  and  C16_28 
REMARK   15  A    between atoms: C16_28  and  N4_29 
REMARK   16  A    between atoms: N4_29  and  C17_31 
ROOT
HETATM    1  C8  UNL     1       0.947  -0.731   0.547  1.00  0.00     0.203 C 
ENDROOT
BRANCH   1   2
HETATM    2  C7  UNL     1       0.686   0.729   0.391  1.00  0.00     0.155 C 
BRANCH   2   3
HETATM    3  N2  UNL     1       1.904   1.470   0.170  1.00  0.00    -0.357 N 
HETATM    4  C6  UNL     1       2.740   1.266  -0.930  1.00  0.00     0.240 C 
HETATM    5  O3  UNL     1       2.483   0.414  -1.814  1.00  0.00    -0.271 OA
ATOM      6  H2  UNL     1       2.168   2.180   0.853  1.00  0.00     0.162 HD
BRANCH   4   7
HETATM    7  C4  UNL     1       3.979   2.090  -1.050  1.00  0.00     0.174 C 
HETATM    8  C5  UNL     1       3.621   3.564  -1.217  1.00  0.00     0.042 C 
BRANCH   7   9
HETATM    9  N1  UNL     1       4.756   1.740  -2.219  1.00  0.00    -0.324 N 
HETATM   10  C3  UNL     1       6.144   1.409  -2.081  1.00  0.00     0.361 C 
HETATM   11  O2  UNL     1       6.705   1.417  -0.957  1.00  0.00    -0.238 OA
ATOM     12  H1  UNL     1       4.317   1.729  -3.140  1.00  0.00     0.165 HD
BRANCH  10  13
HETATM   13  O1  UNL     1       6.901   1.071  -3.188  1.00  0.00    -0.304 OA
BRANCH  13  14
HETATM   14  C2  UNL     1       8.292   0.737  -3.075  1.00  0.00     0.176 C 
HETATM   15  C1  UNL     1       8.364  -0.470  -2.165  1.00  0.00     0.034 C 
ENDBRANCH  13  14
ENDBRANCH  10  13
ENDBRANCH   7   9
ENDBRANCH   4   7
ENDBRANCH   2   3
ENDBRANCH   1   2
BRANCH   1  16
HETATM   16  C9  UNL     1       1.867  -1.023   1.720  1.00  0.00     0.035 C 
BRANCH  16  17
HETATM   17  C10 UNL     1       2.075  -2.515   1.789  1.00  0.00     0.006 C 
BRANCH  17  18
HETATM   18  C11 UNL     1       2.980  -2.912   2.923  1.00  0.00    -0.023 C 
HETATM   19  C12 UNL     1       2.401  -2.478   4.231  1.00  0.00     0.009 C 
HETATM   20  C13 UNL     1       4.349  -2.312   2.673  1.00  0.00     0.009 C 
ENDBRANCH  17  18
ENDBRANCH  16  17
ENDBRANCH   1  16
BRANCH   1  21
HETATM   21  N3  UNL     1      -0.275  -1.501   0.692  1.00  0.00    -0.067 N 
ATOM     22  H32 UNL     1      -0.851  -1.412  -0.145  1.00  0.00     0.277 HD
ATOM     23  H31 UNL     1      -0.070  -2.500   0.659  1.00  0.00     0.277 HD
BRANCH  21  24
HETATM   24  C14 UNL     1      -1.041  -1.192   1.853  1.00  0.00     0.265 C 
BRANCH  24  25
HETATM   25  C15 UNL     1      -2.327  -1.977   1.934  1.00  0.00     0.161 C 
BRANCH  25  26
HETATM   26  O4  UNL     1      -2.048  -3.338   1.963  1.00  0.00    -0.392 OA
ATOM     27  H4  UNL     1      -2.858  -3.832   2.014  1.00  0.00     0.210 HD
ENDBRANCH  25  26
BRANCH  25  28
HETATM   28  C16 UNL     1      -3.326  -1.611   0.860  1.00  0.00     0.147 C 
BRANCH  28  29
HETATM   29  N4  UNL     1      -3.570  -0.207   0.879  1.00  0.00    -0.410 N 
ATOM     30  H4  UNL     1      -3.087   0.418   1.524  1.00  0.00     0.154 HD
BRANCH  29  31
HETATM   31  C17 UNL     1      -4.539   0.272  -0.067  1.00  0.00     0.026 C 
HETATM   32  C18 UNL     1      -4.099   0.019  -1.493  1.00  0.00     0.035 C 
HETATM   33  C19 UNL     1      -5.055   0.683  -2.450  1.00  0.00    -0.012 C 
HETATM   34  C20 UNL     1      -4.975   2.177  -2.224  1.00  0.00     0.009 C 
HETATM   35  C24 UNL     1      -6.450   0.162  -2.238  1.00  0.00     0.009 C 
HETATM   36  C21 UNL     1      -5.480   2.469  -0.830  1.00  0.00    -0.012 C 
HETATM   37  C22 UNL     1      -6.858   1.937  -0.574  1.00  0.00     0.009 C 
HETATM   38  C26 UNL     1      -4.545   1.797   0.132  1.00  0.00     0.035 C 
HETATM   39  C23 UNL     1      -6.857   0.462  -0.816  1.00  0.00    -0.012 C 
HETATM   40  C25 UNL     1      -5.909  -0.295   0.097  1.00  0.00     0.035 C 
ENDBRANCH  29  31
ENDBRANCH  28  29
ENDBRANCH  25  28
ENDBRANCH  24  25
ENDBRANCH  21  24
ENDBRANCH   1  21
TORSDOF 16
