REMARK  14 active torsions:
REMARK  status: ('A' for Active; 'I' for Inactive)
REMARK    1  A    between atoms: C4_4  and  S1_5 
REMARK    2  A    between atoms: S1_5  and  C5_6 
REMARK    3  A    between atoms: S1_5  and  N4_31 
REMARK    4  A    between atoms: C5_6  and  C6_7 
REMARK    5  A    between atoms: C6_7  and  C7_8 
REMARK    6  A    between atoms: C7_8  and  C8_9 
REMARK    7  A    between atoms: C7_8  and  C15_16 
REMARK    8  A    between atoms: C8_9  and  C9_10 
REMARK       I    between atoms: C15_16  and  N1_18 
REMARK    9  A    between atoms: N1_18  and  C16_20 
REMARK   10  A    between atoms: C16_20  and  C17_21 
REMARK   11  A    between atoms: C16_20  and  C20_28 
REMARK   12  A    between atoms: C17_21  and  C18_22 
REMARK   13  A    between atoms: C18_22  and  C19_23 
REMARK   14  A    between atoms: C19_23  and  N2_24 
ROOT
HETATM    1  C7  UNL     1      -0.552  -0.839   0.715  1.00  0.00     0.079 C 
ENDROOT
BRANCH   1   2
HETATM    2  C6  UNL     1       0.288   0.294   0.171  1.00  0.00     0.025 C 
BRANCH   2   3
HETATM    3  C5  UNL     1       1.679  -0.112  -0.165  1.00  0.00     0.092 C 
BRANCH   3   4
HETATM    4  S1  UNL     1       2.618   1.260  -0.785  1.00  0.00    -0.053 SA
BRANCH   4   5
HETATM    5  C4  UNL     1       4.273   0.756  -1.181  1.00  0.00     0.067 C 
HETATM    6  C3  UNL     1       5.080   1.913  -1.709  1.00  0.00     0.048 C 
HETATM    7  C2  UNL     1       5.748   2.699  -0.622  1.00  0.00     0.183 C 
HETATM    8  C1  UNL     1       6.532   3.825  -1.219  1.00  0.00     0.040 C 
HETATM    9  N5  UNL     1       6.651   1.781   0.075  1.00  0.00    -0.071 N 
HETATM   10  C22 UNL     1       5.808   0.865   0.809  1.00  0.00     0.234 C 
ATOM     11  H52 UNL     1       7.313   1.315  -0.545  1.00  0.00     0.277 HD
ATOM     12  H51 UNL     1       7.340   2.255   0.659  1.00  0.00     0.277 HD
HETATM   13  C21 UNL     1       4.947   0.012  -0.083  1.00  0.00     0.044 C 
ENDBRANCH   4   5
BRANCH   4  14
HETATM   14  N4  UNL     1       1.876   2.035  -2.107  1.00  0.00    -0.094 N 
HETATM   15  O3  UNL     1       2.098   1.606  -3.262  1.00  0.00    -0.527 OA
HETATM   16  O4  UNL     1       1.046   3.112  -1.934  1.00  0.00    -0.527 OA
ENDBRANCH   4  14
ENDBRANCH   3   4
ENDBRANCH   2   3
ENDBRANCH   1   2
BRANCH   1  17
HETATM   17  C8  UNL     1      -0.623  -1.916  -0.315  1.00  0.00     0.018 C 
BRANCH  17  18
HETATM   18  C9  UNL     1      -1.453  -3.111   0.122  1.00  0.00    -0.014 C 
HETATM   19  C10 UNL     1      -1.420  -4.096  -1.029  1.00  0.00     0.005 C 
HETATM   20  C11 UNL     1      -1.506  -5.525  -0.539  1.00  0.00     0.000 C 
HETATM   21  C12 UNL     1      -0.326  -5.903   0.327  1.00  0.00     0.000 C 
HETATM   22  C13 UNL     1       0.254  -4.652   0.946  1.00  0.00     0.000 C 
HETATM   23  C14 UNL     1      -0.913  -3.775   1.361  1.00  0.00     0.005 C 
ENDBRANCH  17  18
ENDBRANCH   1  17
BRANCH   1  24
HETATM   24  C15 UNL     1      -1.868  -0.368   1.166  1.00  0.00     0.222 C 
HETATM   25  O1  UNL     1      -2.198  -0.525   2.364  1.00  0.00    -0.273 OA
HETATM   26  N1  UNL     1      -2.767   0.258   0.280  1.00  0.00    -0.348 N 
ATOM     27  H1  UNL     1      -2.509   0.391  -0.698  1.00  0.00     0.163 HD
BRANCH  26  28
HETATM   28  C16 UNL     1      -4.097   0.727   0.771  1.00  0.00     0.173 C 
BRANCH  28  29
HETATM   29  C17 UNL     1      -4.131   2.199   0.593  1.00  0.00     0.036 C 
BRANCH  29  30
HETATM   30  C18 UNL     1      -5.369   2.888   1.030  1.00  0.00     0.030 C 
BRANCH  30  31
HETATM   31  C19 UNL     1      -5.121   4.398   0.774  1.00  0.00     0.230 C 
BRANCH  31  32
HETATM   32  N2  UNL     1      -3.968   4.739   1.576  1.00  0.00    -0.079 N 
ATOM     33  H23 UNL     1      -4.069   4.501   2.563  1.00  0.00     0.274 HD
ATOM     34  H22 UNL     1      -3.153   4.153   1.394  1.00  0.00     0.274 HD
ATOM     35  H21 UNL     1      -3.805   5.732   1.408  1.00  0.00     0.274 HD
ENDBRANCH  31  32
ENDBRANCH  30  31
ENDBRANCH  29  30
ENDBRANCH  28  29
BRANCH  28  36
HETATM   36  C20 UNL     1      -5.159   0.063   0.008  1.00  0.00     0.254 C 
HETATM   37  N3  UNL     1      -6.542   0.178   0.245  1.00  0.00    -0.060 NA
HETATM   38  O2  UNL     1      -4.806  -0.694  -0.960  1.00  0.00    -0.275 OA
ENDBRANCH  28  36
ENDBRANCH  26  28
ENDBRANCH   1  24
TORSDOF 14
