REMARK  17 active torsions:
REMARK  status: ('A' for Active; 'I' for Inactive)
REMARK    1  A    between atoms: C6_6  and  C7_7 
REMARK    2  A    between atoms: C7_7  and  C8_8 
REMARK    3  A    between atoms: C8_8  and  N1_9 
REMARK    4  A    between atoms: C8_8  and  C18_26 
REMARK    5  A    between atoms: N1_9  and  C9_12 
REMARK    6  A    between atoms: C9_12  and  C10_13 
REMARK    7  A    between atoms: C10_13  and  C11_15 
REMARK    8  A    between atoms: C11_15  and  O2_16 
REMARK    9  A    between atoms: C11_15  and  N2_18 
REMARK   10  A    between atoms: N2_18  and  C12_20 
REMARK   11  A    between atoms: C18_26  and  N3_28 
REMARK       I    between atoms: N3_28  and  C20_30 
REMARK   12  A    between atoms: C20_30  and  C21_32 
REMARK   13  A    between atoms: C21_32  and  C22_33 
REMARK   14  A    between atoms: C22_33  and  N4_34 
REMARK   15  A    between atoms: C22_33  and  C23_38 
REMARK   16  A    between atoms: C23_38  and  C24_39 
REMARK   17  A    between atoms: C24_39  and  S1_40 
ROOT
HETATM    1  C8  UNL     1       0.477  -1.682   0.383  1.00  0.00     0.231 C 
ENDROOT
BRANCH   1   2
HETATM    2  C7  UNL     1      -0.067  -3.027   0.176  1.00  0.00     0.015 C 
BRANCH   2   3
HETATM    3  C6  UNL     1       0.728  -4.122  -0.370  1.00  0.00    -0.054 C 
HETATM    4  C2  UNL     1       1.345  -3.948  -1.694  1.00  0.00    -0.061 C 
HETATM    5  C1  UNL     1       0.894  -3.244  -2.717  1.00  0.00     0.019 C 
HETATM    6  C3  UNL     1       2.605  -4.723  -1.668  1.00  0.00     0.038 C 
HETATM    7  C4  UNL     1       2.356  -5.740  -0.577  1.00  0.00     0.009 C 
HETATM    8  C5  UNL     1       1.727  -4.811   0.503  1.00  0.00     0.039 C 
ENDBRANCH   2   3
ENDBRANCH   1   2
BRANCH   1   9
HETATM    9  N1  UNL     1      -0.586  -0.809   0.945  1.00  0.00    -0.059 N 
ATOM     10  H12 UNL     1      -0.924  -1.186   1.830  1.00  0.00     0.278 HD
ATOM     11  H11 UNL     1      -0.187   0.072   1.270  1.00  0.00     0.278 HD
BRANCH   9  12
HETATM   12  C9  UNL     1      -1.667  -0.565   0.071  1.00  0.00     0.316 C 
BRANCH  12  13
HETATM   13  C10 UNL     1      -2.783   0.113   0.830  1.00  0.00     0.200 C 
HETATM   14  O1  UNL     1      -2.684   0.270   2.028  1.00  0.00    -0.291 OA
BRANCH  13  15
HETATM   15  C11 UNL     1      -4.024   0.598   0.128  1.00  0.00     0.286 C 
BRANCH  15  16
HETATM   16  O2  UNL     1      -3.745   0.661  -1.212  1.00  0.00    -0.370 OA
ATOM     17  H2  UNL     1      -4.528   0.967  -1.655  1.00  0.00     0.212 HD
ENDBRANCH  15  16
BRANCH  15  18
HETATM   18  N2  UNL     1      -4.465   1.780   0.767  1.00  0.00    -0.387 N 
ATOM     19  H2  UNL     1      -3.874   2.255   1.449  1.00  0.00     0.156 HD
BRANCH  18  20
HETATM   20  C12 UNL     1      -5.745   2.290   0.440  1.00  0.00     0.079 C 
HETATM   21  C13 UNL     1      -6.773   1.217   0.815  1.00  0.00     0.025 C 
HETATM   22  C14 UNL     1      -8.081   1.895   1.043  1.00  0.00     0.002 C 
HETATM   23  C15 UNL     1      -8.149   3.132   0.165  1.00  0.00     0.000 C 
HETATM   24  C16 UNL     1      -7.506   2.823  -1.167  1.00  0.00     0.002 C 
HETATM   25  C17 UNL     1      -5.988   2.724  -0.956  1.00  0.00     0.025 C 
ENDBRANCH  18  20
ENDBRANCH  15  18
ENDBRANCH  13  15
ENDBRANCH  12  13
ENDBRANCH   9  12
ENDBRANCH   1   9
BRANCH   1  26
HETATM   26  C18 UNL     1       1.640  -1.490   1.284  1.00  0.00     0.114 C 
HETATM   27  C19 UNL     1       1.422  -1.898   2.694  1.00  0.00     0.034 C 
BRANCH  26  28
HETATM   28  N3  UNL     1       2.085  -0.079   1.257  1.00  0.00    -0.354 N 
HETATM   29  C20 UNL     1       3.428   0.251   0.982  1.00  0.00     0.220 C 
HETATM   30  O3  UNL     1       4.297  -0.664   0.760  1.00  0.00    -0.274 OA
ATOM     31  H3  UNL     1       1.411   0.665   1.440  1.00  0.00     0.162 HD
BRANCH  29  32
HETATM   32  C21 UNL     1       3.897   1.649   0.934  1.00  0.00     0.135 C 
BRANCH  32  33
HETATM   33  C22 UNL     1       5.408   1.646   0.748  1.00  0.00     0.193 C 
BRANCH  33  34
HETATM   34  N4  UNL     1       5.711   0.963  -0.468  1.00  0.00    -0.075 N 
ATOM     35  H43 UNL     1       5.310   0.026  -0.502  1.00  0.00     0.274 HD
ATOM     36  H42 UNL     1       5.218   1.354  -1.271  1.00  0.00     0.274 HD
ATOM     37  H41 UNL     1       6.723   0.961  -0.593  1.00  0.00     0.274 HD
ENDBRANCH  33  34
BRANCH  33  38
HETATM   38  C23 UNL     1       5.988   3.023   0.729  1.00  0.00     0.043 C 
BRANCH  38  39
HETATM   39  C24 UNL     1       5.503   3.933  -0.344  1.00  0.00     0.075 C 
BRANCH  39  40
HETATM   40  S1  UNL     1       5.864   3.380  -2.012  1.00  0.00    -0.173 SA
HETATM   41  C25 UNL     1       7.644   3.421  -2.374  1.00  0.00     0.089 C 
ENDBRANCH  39  40
ENDBRANCH  38  39
ENDBRANCH  33  38
ENDBRANCH  32  33
ENDBRANCH  29  32
ENDBRANCH  26  28
ENDBRANCH   1  26
TORSDOF 17
