REMARK  17 active torsions:
REMARK  status: ('A' for Active; 'I' for Inactive)
REMARK    1  A    between atoms: C2_2  and  C3_4 
REMARK    2  A    between atoms: C3_4  and  C4_5 
REMARK    3  A    between atoms: C3_4  and  N1_12 
REMARK    4  A    between atoms: C4_5  and  C5_6 
REMARK    5  A    between atoms: N1_12  and  C11_14 
REMARK    6  A    between atoms: C11_14  and  O2_15 
REMARK    7  A    between atoms: C11_14  and  C12_17 
REMARK    8  A    between atoms: C12_17  and  N2_18 
REMARK    9  A    between atoms: C12_17  and  C24_39 
REMARK       I    between atoms: N2_18  and  C13_20 
REMARK   10  A    between atoms: C13_20  and  C14_22 
REMARK   11  A    between atoms: C14_22  and  C15_23 
REMARK   12  A    between atoms: C14_22  and  N4_31 
REMARK   13  A    between atoms: C15_23  and  C16_24 
REMARK   14  A    between atoms: C16_24  and  C17_25 
REMARK   15  A    between atoms: C17_25  and  C18_26 
REMARK   16  A    between atoms: C18_26  and  N3_27 
REMARK   17  A    between atoms: C23_36  and  O4_37 
ROOT
HETATM    1  N2  UNL     1      -0.967   0.021  -0.353  1.00  0.00    -0.344 N 
ATOM      2  H2  UNL     1      -1.529  -0.785  -0.627  1.00  0.00     0.163 HD
HETATM    3  C13 UNL     1      -1.479   0.800   0.689  1.00  0.00     0.265 C 
HETATM    4  O3  UNL     1      -0.779   1.816   1.034  1.00  0.00    -0.266 OA
ENDROOT
BRANCH   1   5
HETATM    5  C12 UNL     1       0.260   0.218  -1.089  1.00  0.00     0.163 C 
BRANCH   5   6
HETATM    6  C11 UNL     1       0.981  -1.058  -1.238  1.00  0.00     0.139 C 
BRANCH   6   7
HETATM    7  N1  UNL     1       1.729  -1.647  -0.229  1.00  0.00    -0.339 N 
ATOM      8  H1  UNL     1       1.423  -2.528   0.183  1.00  0.00     0.167 HD
BRANCH   7   9
HETATM    9  C3  UNL     1       2.944  -1.013   0.241  1.00  0.00     0.057 C 
BRANCH   9  10
HETATM   10  C2  UNL     1       2.818   0.215   0.982  1.00  0.00     0.168 C 
HETATM   11  C1  UNL     1       3.586   1.489   0.839  1.00  0.00     0.098 C 
HETATM   12  O1  UNL     1       1.931   0.213   1.880  1.00  0.00    -0.292 OA
ENDBRANCH   9  10
BRANCH   9  13
HETATM   13  C4  UNL     1       3.999  -1.054  -0.820  1.00  0.00     0.065 C 
BRANCH  13  14
HETATM   14  C5  UNL     1       5.421  -0.856  -0.413  1.00  0.00    -0.009 C 
HETATM   15  C6  UNL     1       6.342  -0.972  -1.641  1.00  0.00     0.005 C 
HETATM   16  C7  UNL     1       7.248  -2.143  -1.409  1.00  0.00     0.000 C 
HETATM   17  C8  UNL     1       8.105  -1.964  -0.172  1.00  0.00     0.000 C 
HETATM   18  C9  UNL     1       7.289  -1.494   0.999  1.00  0.00     0.000 C 
HETATM   19  C10 UNL     1       5.811  -1.795   0.681  1.00  0.00     0.005 C 
ENDBRANCH  13  14
ENDBRANCH   9  13
ENDBRANCH   7   9
ENDBRANCH   6   7
BRANCH   6  20
HETATM   20  O2  UNL     1       0.178  -2.065  -1.849  1.00  0.00    -0.348 OA
ATOM     21  H2  UNL     1      -0.334  -1.662  -2.540  1.00  0.00     0.219 HD
ENDBRANCH   6  20
ENDBRANCH   5   6
BRANCH   5  22
HETATM   22  C24 UNL     1      -0.048   0.765  -2.486  1.00  0.00     0.008 C 
HETATM   23  C25 UNL     1      -0.908  -0.147  -3.277  1.00  0.00     0.012 C 
HETATM   24  C26 UNL     1      -0.470   2.196  -2.469  1.00  0.00     0.012 C 
ENDBRANCH   5  22
ENDBRANCH   1   5
BRANCH   3  25
HETATM   25  C14 UNL     1      -2.734   0.593   1.439  1.00  0.00     0.081 C 
BRANCH  25  26
HETATM   26  C15 UNL     1      -3.391   1.914   1.828  1.00  0.00     0.063 C 
BRANCH  26  27
HETATM   27  C16 UNL     1      -3.698   2.787   0.654  1.00  0.00     0.008 C 
BRANCH  27  28
HETATM   28  C17 UNL     1      -4.282   4.118   0.893  1.00  0.00     0.027 C 
BRANCH  28  29
HETATM   29  C18 UNL     1      -5.606   4.168   1.550  1.00  0.00     0.229 C 
BRANCH  29  30
HETATM   30  N3  UNL     1      -5.590   3.628   2.869  1.00  0.00    -0.079 N 
ATOM     31  H33 UNL     1      -5.218   2.678   2.870  1.00  0.00     0.274 HD
ATOM     32  H32 UNL     1      -4.881   4.085   3.442  1.00  0.00     0.274 HD
ATOM     33  H31 UNL     1      -6.503   3.662   3.322  1.00  0.00     0.274 HD
ENDBRANCH  29  30
ENDBRANCH  28  29
ENDBRANCH  27  28
ENDBRANCH  26  27
ENDBRANCH  25  26
BRANCH  25  34
HETATM   34  N4  UNL     1      -3.535  -0.474   1.119  1.00  0.00    -0.332 N 
HETATM   35  C19 UNL     1      -3.072  -1.786   1.337  1.00  0.00     0.067 C 
HETATM   36  C20 UNL     1      -3.691  -2.782   0.377  1.00  0.00     0.045 C 
HETATM   37  C21 UNL     1      -5.191  -2.828   0.552  1.00  0.00     0.009 C 
HETATM   38  C22 UNL     1      -5.647  -1.542   1.156  1.00  0.00     0.054 C 
HETATM   39  C23 UNL     1      -4.843  -0.335   0.627  1.00  0.00     0.224 C 
BRANCH  39  40
HETATM   40  O4  UNL     1      -4.996  -0.426  -0.758  1.00  0.00    -0.376 OA
ATOM     41  H4  UNL     1      -5.881  -0.332  -1.091  1.00  0.00     0.212 HD
ENDBRANCH  39  40
ENDBRANCH  25  34
ENDBRANCH   3  25
TORSDOF 17
