REMARK  3 active torsions:
REMARK  status: ('A' for Active; 'I' for Inactive)
REMARK    1  A    between atoms: C2_7  and  N4_8 
REMARK    2  A    between atoms: N4_8  and  N5_10 
REMARK    3  A    between atoms: N5_10  and  C3_12 
ROOT
HETATM    1  N4  UNL     1       0.411   0.470   0.137  1.00  0.00    -0.287 N 
ATOM      2  H4  UNL     1      -0.194   1.163  -0.303  1.00  0.00     0.188 HD
ENDROOT
BRANCH   1   3
HETATM    3  C2  UNL     1       1.814   0.658   0.199  1.00  0.00     0.149 A 
HETATM    4  C1  UNL     1       2.801  -0.301   0.030  1.00  0.00     0.155 A 
HETATM    5  N1  UNL     1       4.019   0.245   0.211  1.00  0.00    -0.292 N 
HETATM    6  N2  UNL     1       3.821   1.526   0.489  1.00  0.00    -0.021 NA
ATOM      7  H1  UNL     1       4.918  -0.233   0.147  1.00  0.00     0.183 HD
HETATM    8  N3  UNL     1       2.524   1.784   0.486  1.00  0.00    -0.267 N 
ATOM      9  H3  UNL     1       2.113   2.699   0.673  1.00  0.00     0.186 HD
ENDBRANCH   1   3
BRANCH   1  10
HETATM   10  N5  UNL     1      -0.109  -0.674   0.688  1.00  0.00    -0.327 N 
ATOM     11  H5  UNL     1       0.485  -1.341   1.181  1.00  0.00     0.180 HD
BRANCH  10  12
HETATM   12  C3  UNL     1      -1.500  -0.894   0.547  1.00  0.00     0.150 A 
HETATM   13  C4  UNL     1      -2.403   0.274   0.817  1.00  0.00     0.260 A 
HETATM   14  N6  UNL     1      -2.945   0.073  -0.537  1.00  0.00    -0.071 N 
HETATM   15  C5  UNL     1      -2.124  -1.134  -0.766  1.00  0.00     0.260 A 
ATOM     16  H62 UNL     1      -3.956   0.009  -0.657  1.00  0.00     0.277 HD
ATOM     17  H61 UNL     1      -2.889   0.840  -1.207  1.00  0.00     0.277 HD
ENDBRANCH  10  12
ENDBRANCH   1  10
TORSDOF 3
