REMARK  2 active torsions:
REMARK  status: ('A' for Active; 'I' for Inactive)
REMARK       I    between atoms: N1_1  and  C1_5 
REMARK       I    between atoms: C1_5  and  N2_6 
REMARK       I    between atoms: C1_5  and  N3_10 
REMARK    1  A    between atoms: N3_10  and  N4_11 
REMARK    2  A    between atoms: N4_11  and  C2_13 
ROOT
HETATM    1  N1  UNL     1       2.227  -1.123  -1.332  1.00  0.00    -0.035 N 
ATOM      2  H11 UNL     1       1.401  -1.714  -1.239  1.00  0.00     0.278 HD
ATOM      3  H12 UNL     1       3.043  -1.657  -1.632  1.00  0.00     0.278 HD
ATOM      4  H13 UNL     1       2.155  -0.493  -2.131  1.00  0.00     0.278 HD
HETATM    5  C1  UNL     1       2.475  -0.410  -0.112  1.00  0.00     0.490 C 
HETATM    6  N2  UNL     1       3.633   0.418  -0.242  1.00  0.00    -0.035 N 
ATOM      7  H21 UNL     1       3.809   0.925   0.625  1.00  0.00     0.278 HD
ATOM      8  H22 UNL     1       3.561   1.048  -1.041  1.00  0.00     0.278 HD
ATOM      9  H23 UNL     1       4.449  -0.116  -0.542  1.00  0.00     0.278 HD
HETATM   10  N3  UNL     1       1.319   0.344   0.338  1.00  0.00    -0.080 NA
ENDROOT
BRANCH  10  11
HETATM   11  N4  UNL     1       0.223  -0.463   0.579  1.00  0.00    -0.299 N 
ATOM     12  H4  UNL     1       0.368  -1.410   0.929  1.00  0.00     0.182 HD
BRANCH  11  13
HETATM   13  C2  UNL     1      -1.113   0.002   0.347  1.00  0.00     0.059 A 
HETATM   14  C3  UNL     1      -2.200  -0.803   0.588  1.00  0.00     0.033 A 
HETATM   15  C4  UNL     1      -3.466  -0.293   0.343  1.00  0.00     0.019 A 
HETATM   16  C5  UNL     1      -3.611   0.984  -0.127  1.00  0.00     0.088 A 
HETATM   17  N5  UNL     1      -2.528   1.766  -0.360  1.00  0.00    -0.373 N 
HETATM   18  C6  UNL     1      -1.296   1.283  -0.127  1.00  0.00     0.118 A 
ATOM     19  H5  UNL     1      -2.648   2.716  -0.710  1.00  0.00     0.164 HD
ENDBRANCH  11  13
ENDBRANCH  10  11
TORSDOF 2
