REMARK  4 active torsions:
REMARK  status: ('A' for Active; 'I' for Inactive)
REMARK    1  A    between atoms: N1_2  and  N2_3 
REMARK    2  A    between atoms: N2_3  and  C2_5 
REMARK    3  A    between atoms: C5_10  and  N4_11 
REMARK    4  A    between atoms: N4_11  and  N5_13 
ROOT
HETATM    1  C2  UNL     1       0.124   0.153   0.534  1.00  0.00     0.133 A 
HETATM    2  C3  UNL     1      -0.129  -1.055   1.171  1.00  0.00     0.067 A 
HETATM    3  C4  UNL     1      -1.391  -1.583   1.017  1.00  0.00     0.110 A 
HETATM    4  N3  UNL     1      -2.313  -0.936   0.281  1.00  0.00    -0.200 N 
ATOM      5  H3  UNL     1      -3.240  -1.351   0.186  1.00  0.00     0.183 HD
HETATM    6  C5  UNL     1      -2.068   0.231  -0.334  1.00  0.00     0.697 A 
HETATM    7  N6  UNL     1      -0.844   0.774  -0.205  1.00  0.00    -0.174 N 
ATOM      8  H6  UNL     1      -0.636   1.660  -0.664  1.00  0.00     0.186 HD
ENDROOT
BRANCH   6   9
HETATM    9  N4  UNL     1      -3.018   0.799  -1.023  1.00  0.00    -0.138 N 
ATOM     10  H4  UNL     1      -3.923   0.331  -1.071  1.00  0.00     0.205 HD
BRANCH   9  11
HETATM   11  N5  UNL     1      -2.868   1.998  -1.691  1.00  0.00    -0.331 N 
ATOM     12  H52 UNL     1      -1.956   2.452  -1.632  1.00  0.00     0.177 HD
ATOM     13  H51 UNL     1      -3.611   2.442  -2.230  1.00  0.00     0.177 HD
ENDBRANCH   9  11
ENDBRANCH   6   9
BRANCH   1  14
HETATM   14  N2  UNL     1       1.419   0.699   0.690  1.00  0.00    -0.289 N 
ATOM     15  H2  UNL     1       1.582   1.394   1.419  1.00  0.00     0.184 HD
BRANCH  14  16
HETATM   16  N1  UNL     1       2.468   0.313  -0.122  1.00  0.00    -0.144 NA
HETATM   17  C1  UNL     1       3.329  -0.679   0.486  1.00  0.00     0.159 C 
ENDBRANCH  14  16
ENDBRANCH   1  14
TORSDOF 4
