REMARK  12 active torsions:
REMARK  status: ('A' for Active; 'I' for Inactive)
REMARK    1  A    between atoms: C2_2  and  C3_3 
REMARK    2  A    between atoms: C3_3  and  N1_4 
REMARK    3  A    between atoms: N1_4  and  C4_6 
REMARK    4  A    between atoms: C4_6  and  N2_8 
REMARK    5  A    between atoms: N2_8  and  C5_10 
REMARK    6  A    between atoms: C6_13  and  O1_14 
REMARK    7  A    between atoms: O1_14  and  C7_15 
REMARK    8  A    between atoms: C12_23  and  N5_24 
REMARK    9  A    between atoms: N5_24  and  C13_26 
REMARK   10  A    between atoms: C18_31  and  C19_32 
REMARK   11  A    between atoms: C20_33  and  C21_34 
REMARK   12  A    between atoms: C21_34  and  O2_37 
ROOT
HETATM    1  C5  UNL     1      -0.852   0.006   0.518  1.00  0.00     0.128 A 
HETATM    2  N3  UNL     1       0.338   0.601   0.713  1.00  0.00    -0.320 N 
ATOM      3  H3  UNL     1       0.396   1.437   1.294  1.00  0.00     0.169 HD
HETATM    4  C6  UNL     1       1.463   0.098   0.143  1.00  0.00     0.171 A 
HETATM    5  C12 UNL     1       1.378  -1.055  -0.657  1.00  0.00     0.082 A 
HETATM    6  C17 UNL     1       0.152  -1.645  -0.842  1.00  0.00     0.058 A 
HETATM    7  C18 UNL     1      -0.967  -1.120  -0.257  1.00  0.00     0.064 A 
ENDROOT
BRANCH   1   8
HETATM    8  N2  UNL     1      -1.877   0.536   1.088  1.00  0.00    -0.318 N 
ATOM      9  H2  UNL     1      -2.784   0.091   0.946  1.00  0.00     0.170 HD
BRANCH   8  10
HETATM   10  C4  UNL     1      -1.830   1.685   1.892  1.00  0.00     0.173 C 
HETATM   11  S1  UNL     1      -1.288   1.482   3.439  1.00  0.00    -0.041 SA
BRANCH  10  12
HETATM   12  N1  UNL     1      -2.221   2.963   1.424  1.00  0.00    -0.364 N 
ATOM     13  H1  UNL     1      -2.555   3.085   0.468  1.00  0.00     0.162 HD
BRANCH  12  14
HETATM   14  C3  UNL     1      -2.140   4.086   2.318  1.00  0.00     0.148 C 
BRANCH  14  15
HETATM   15  C2  UNL     1      -2.578   5.346   1.693  1.00  0.00    -0.018 C 
HETATM   16  C1  UNL     1      -1.788   6.404   1.568  1.00  0.00     0.008 C 
ENDBRANCH  14  15
ENDBRANCH  12  14
ENDBRANCH  10  12
ENDBRANCH   8  10
ENDBRANCH   1   8
BRANCH   7  17
HETATM   17  C19 UNL     1      -2.261  -1.763  -0.467  1.00  0.00    -0.060 C 
HETATM   18  C20 UNL     1      -3.335  -2.285  -0.629  1.00  0.00    -0.063 C 
BRANCH  18  19
HETATM   19  C21 UNL     1      -4.643  -2.920  -0.801  1.00  0.00     0.116 C 
HETATM   20  C22 UNL     1      -5.461  -2.116  -1.815  1.00  0.00     0.060 C 
HETATM   21  C23 UNL     1      -5.442  -2.902   0.491  1.00  0.00     0.060 C 
BRANCH  19  22
HETATM   22  O2  UNL     1      -4.415  -4.215  -1.242  1.00  0.00    -0.373 OA
HETATM   23  C24 UNL     1      -5.676  -4.822  -1.407  1.00  0.00     0.204 C 
ENDBRANCH  19  22
ENDBRANCH  18  19
ENDBRANCH   7  17
BRANCH   4  24
HETATM   24  O1  UNL     1       2.715   0.639   0.288  1.00  0.00    -0.329 OA
BRANCH  24  25
HETATM   25  C7  UNL     1       3.003   1.764   1.030  1.00  0.00     0.133 C 
HETATM   26  C8  UNL     1       4.096   1.530   2.063  1.00  0.00     0.060 C 
HETATM   27  C9  UNL     1       4.273   2.833   2.815  1.00  0.00     0.235 C 
HETATM   28  N4  UNL     1       4.853   3.815   1.915  1.00  0.00    -0.075 N 
HETATM   29  C10 UNL     1       3.858   4.095   0.894  1.00  0.00     0.235 C 
ATOM     30  H42 UNL     1       5.182   4.653   2.394  1.00  0.00     0.277 HD
ATOM     31  H41 UNL     1       5.752   3.524   1.530  1.00  0.00     0.277 HD
HETATM   32  C11 UNL     1       3.587   2.843   0.096  1.00  0.00     0.060 C 
ENDBRANCH  24  25
ENDBRANCH   4  24
BRANCH   5  33
HETATM   33  N5  UNL     1       2.552  -1.562  -1.241  1.00  0.00    -0.378 N 
ATOM     34  H5  UNL     1       3.413  -1.049  -1.049  1.00  0.00     0.160 HD
BRANCH  33  35
HETATM   35  C13 UNL     1       2.673  -2.722  -2.078  1.00  0.00     0.019 C 
HETATM   36  C14 UNL     1       4.141  -2.884  -2.516  1.00  0.00     0.037 C 
HETATM   37  C15 UNL     1       1.865  -2.639  -3.332  1.00  0.00     0.037 C 
HETATM   38  C16 UNL     1       2.248  -3.940  -1.285  1.00  0.00     0.037 C 
ENDBRANCH  33  35
ENDBRANCH   5  33
TORSDOF 12
