REMARK  10 active torsions:
REMARK  status: ('A' for Active; 'I' for Inactive)
REMARK    1  A    between atoms: C7_10  and  N2_11 
REMARK    2  A    between atoms: N2_11  and  C8_13 
REMARK    3  A    between atoms: C16_23  and  C17_24 
REMARK    4  A    between atoms: C17_24  and  C18_25 
REMARK    5  A    between atoms: C18_25  and  N4_26 
REMARK    6  A    between atoms: N4_26  and  S2_28 
REMARK    7  A    between atoms: S2_28  and  N5_30 
REMARK    8  A    between atoms: S2_28  and  N6_35 
REMARK    9  A    between atoms: N5_30  and  C19_32 
REMARK   10  A    between atoms: N6_35  and  O2_37 
ROOT
HETATM    1  C1  UNL     1       1.679  -3.042   1.430  1.00  0.00     0.068 C 
HETATM    2  C2  UNL     1       0.317  -2.548   1.018  1.00  0.00     0.014 A 
HETATM    3  N1  UNL     1      -0.722  -3.356   1.265  1.00  0.00    -0.358 N 
ATOM      4  H1  UNL     1      -0.544  -4.248   1.726  1.00  0.00     0.166 HD
HETATM    5  C3  UNL     1      -2.005  -3.044   0.930  1.00  0.00     0.052 A 
HETATM    6  C4  UNL     1      -3.099  -3.781   1.144  1.00  0.00     0.038 A 
HETATM    7  C5  UNL     1      -4.303  -3.268   0.735  1.00  0.00     0.053 A 
HETATM    8  S1  UNL     1      -3.862  -1.773   0.063  1.00  0.00    -0.097 SA
HETATM    9  C6  UNL     1      -2.156  -1.832   0.317  1.00  0.00     0.058 A 
HETATM   10  C7  UNL     1      -1.113  -0.966   0.046  1.00  0.00     0.060 A 
HETATM   11  C16 UNL     1       0.216  -1.327   0.411  1.00  0.00    -0.006 A 
ENDROOT
BRANCH  11  12
HETATM   12  C17 UNL     1       1.270  -0.343   0.256  1.00  0.00     0.063 C 
BRANCH  12  13
HETATM   13  C18 UNL     1       2.584  -0.689  -0.325  1.00  0.00     0.137 C 
BRANCH  13  14
HETATM   14  N4  UNL     1       3.362   0.586  -0.400  1.00  0.00    -0.318 N 
ATOM     15  H4  UNL     1       2.954   1.509  -0.254  1.00  0.00     0.172 HD
BRANCH  14  16
HETATM   16  S2  UNL     1       4.995   0.325  -0.754  1.00  0.00     0.217 S 
HETATM   17  O1  UNL     1       5.262  -0.593  -1.861  1.00  0.00    -0.204 OA
BRANCH  16  18
HETATM   18  N5  UNL     1       5.703   1.875  -1.102  1.00  0.00    -0.283 N 
ATOM     19  H5  UNL     1       5.818   2.200  -2.062  1.00  0.00     0.179 HD
BRANCH  18  20
HETATM   20  C19 UNL     1       6.090   2.623  -0.070  1.00  0.00     0.042 A 
HETATM   21  C20 UNL     1       6.691   3.923  -0.250  1.00  0.00     0.032 A 
HETATM   22  C21 UNL     1       6.481   3.378   0.968  1.00  0.00     0.032 A 
ENDBRANCH  18  20
ENDBRANCH  16  18
BRANCH  16  23
HETATM   23  N6  UNL     1       5.746  -0.245   0.522  1.00  0.00    -0.195 N 
ATOM     24  H6  UNL     1       5.609   0.228   1.415  1.00  0.00     0.207 HD
BRANCH  23  25
HETATM   25  O2  UNL     1       6.560  -1.327   0.488  1.00  0.00    -0.280 OA
ATOM     26  H2  UNL     1       7.010  -1.668   1.252  1.00  0.00     0.245 HD
ENDBRANCH  23  25
ENDBRANCH  16  23
ENDBRANCH  14  16
ENDBRANCH  13  14
ENDBRANCH  12  13
ENDBRANCH  11  12
BRANCH  10  27
HETATM   27  N2  UNL     1      -1.293   0.178  -0.428  1.00  0.00    -0.355 N 
ATOM     28  H2  UNL     1      -0.432   0.703  -0.578  1.00  0.00     0.166 HD
BRANCH  27  29
HETATM   29  C8  UNL     1      -2.445   0.870  -0.789  1.00  0.00     0.033 A 
HETATM   30  C9  UNL     1      -2.797   1.029  -2.106  1.00  0.00     0.032 A 
HETATM   31  C10 UNL     1      -3.940   1.733  -2.432  1.00  0.00     0.033 A 
HETATM   32  C11 UNL     1      -4.724   2.274  -1.419  1.00  0.00     0.042 A 
HETATM   33  N3  UNL     1      -5.857   2.971  -1.418  1.00  0.00    -0.365 N 
HETATM   34  C14 UNL     1      -4.361   2.108  -0.099  1.00  0.00    -0.006 A 
HETATM   35  C12 UNL     1      -6.235   3.261  -0.142  1.00  0.00     0.089 A 
ATOM     36  H3  UNL     1      -6.370   3.249  -2.255  1.00  0.00     0.165 HD
HETATM   37  C13 UNL     1      -5.288   2.715   0.712  1.00  0.00     0.030 A 
HETATM   38  C15 UNL     1      -3.230   1.411   0.221  1.00  0.00     0.043 A 
ENDBRANCH  27  29
ENDBRANCH  10  27
TORSDOF 10
