REMARK  9 active torsions:
REMARK  status: ('A' for Active; 'I' for Inactive)
REMARK    1  A    between atoms: C2_2  and  C3_3 
REMARK    2  A    between atoms: C3_3  and  C4_4 
REMARK    3  A    between atoms: C6_6  and  O1_7 
REMARK    4  A    between atoms: C14_16  and  O2_17 
REMARK    5  A    between atoms: C15_19  and  O3_20 
REMARK    6  A    between atoms: N1_28  and  C22_29 
REMARK    7  A    between atoms: C22_29  and  C23_30 
REMARK    8  A    between atoms: C23_30  and  C24_31 
REMARK    9  A    between atoms: C24_31  and  N2_32 
REMARK       I    between atoms: N2_32  and  C25_34 
ROOT
HETATM    1  C4  UNL     1       0.009   1.321  -1.298  1.00  0.00     0.185 C 
HETATM    2  C5  UNL     1      -0.904   1.277  -2.546  1.00  0.00     0.052 C 
HETATM    3  C6  UNL     1      -0.576   2.479  -0.573  1.00  0.00     0.161 C 
HETATM    4  C7  UNL     1      -0.136   2.908   0.728  1.00  0.00     0.016 C 
HETATM    5  C8  UNL     1      -0.085   4.451   0.736  1.00  0.00     0.013 C 
HETATM    6  C9  UNL     1      -1.154   2.535   1.828  1.00  0.00     0.034 C 
HETATM    7  C10 UNL     1      -0.611   1.495   2.704  1.00  0.00    -0.026 C 
HETATM    8  C11 UNL     1      -1.334   0.254   2.974  1.00  0.00     0.001 C 
HETATM    9  C12 UNL     1      -2.085  -0.565   2.298  1.00  0.00    -0.053 C 
HETATM   10  C13 UNL     1      -2.593  -1.758   3.136  1.00  0.00     0.046 C 
HETATM   11  C14 UNL     1      -2.562  -0.598   0.917  1.00  0.00     0.183 C 
HETATM   12  C15 UNL     1      -1.936  -1.512  -0.077  1.00  0.00     0.118 C 
HETATM   13  C16 UNL     1      -1.734  -2.939   0.358  1.00  0.00     0.047 C 
HETATM   14  C17 UNL     1      -1.571  -3.848  -0.845  1.00  0.00    -0.015 C 
HETATM   15  C18 UNL     1      -2.781  -4.746  -1.064  1.00  0.00     0.010 C 
HETATM   16  C19 UNL     1      -1.199  -3.161  -2.101  1.00  0.00     0.006 C 
HETATM   17  C20 UNL     1      -0.201  -2.058  -1.759  1.00  0.00     0.039 C 
HETATM   18  C21 UNL     1      -0.873  -0.948  -0.975  1.00  0.00     0.261 C 
HETATM   19  N1  UNL     1      -0.030   0.082  -0.515  1.00  0.00     0.108 N 
ENDROOT
BRANCH  19  20
HETATM   20  C22 UNL     1       1.306  -0.254  -0.149  1.00  0.00     0.276 C 
BRANCH  20  21
HETATM   21  C23 UNL     1       1.638  -1.289   0.828  1.00  0.00     0.050 C 
BRANCH  21  22
HETATM   22  C24 UNL     1       3.152  -1.403   0.932  1.00  0.00     0.124 C 
BRANCH  22  23
HETATM   23  N2  UNL     1       3.823  -0.224   1.345  1.00  0.00    -0.361 N 
HETATM   24  C25 UNL     1       5.232  -0.216   1.459  1.00  0.00     0.213 C 
HETATM   25  C26 UNL     1       6.005   0.978   1.874  1.00  0.00     0.117 C 
HETATM   26  O4  UNL     1       5.865  -1.264   1.197  1.00  0.00    -0.274 OA
ATOM     27  H2  UNL     1       3.289   0.618   1.560  1.00  0.00     0.162 HD
ENDBRANCH  22  23
ENDBRANCH  21  22
ENDBRANCH  20  21
ENDBRANCH  19  20
BRANCH   1  28
HETATM   28  C3  UNL     1       1.348   1.577  -1.929  1.00  0.00     0.070 C 
BRANCH  28  29
HETATM   29  C2  UNL     1       1.483   2.815  -2.732  1.00  0.00    -0.034 C 
HETATM   30  C1  UNL     1       1.734   2.754  -4.049  1.00  0.00     0.007 C 
ENDBRANCH  28  29
ENDBRANCH   1  28
BRANCH   3  31
HETATM   31  O1  UNL     1      -0.703   3.553  -1.487  1.00  0.00    -0.393 OA
ATOM     32  H1  UNL     1      -1.077   4.293  -1.024  1.00  0.00     0.210 HD
ENDBRANCH   3  31
BRANCH  12  33
HETATM   33  O3  UNL     1      -3.078  -1.770  -0.949  1.00  0.00    -0.385 OA
ATOM     34  H3  UNL     1      -2.678  -2.353  -1.583  1.00  0.00     0.210 HD
ENDBRANCH  12  33
BRANCH  11  35
HETATM   35  O2  UNL     1      -3.959  -0.976   1.067  1.00  0.00    -0.388 OA
ATOM     36  H2  UNL     1      -4.269  -0.997   0.169  1.00  0.00     0.210 HD
ENDBRANCH  11  35
TORSDOF 9
