REMARK  9 active torsions:
REMARK  status: ('A' for Active; 'I' for Inactive)
REMARK    1  A    between atoms: C3_3  and  N1_4 
REMARK    2  A    between atoms: C5_9  and  N3_10 
REMARK    3  A    between atoms: N3_10  and  C6_12 
REMARK    4  A    between atoms: C6_12  and  C7_13 
REMARK    5  A    between atoms: C7_13  and  C8_14 
REMARK    6  A    between atoms: C10_17  and  N4_18 
REMARK    7  A    between atoms: N4_18  and  C11_20 
REMARK    8  A    between atoms: C14_25  and  N6_26 
REMARK    9  A    between atoms: N6_26  and  C15_28 
ROOT
HETATM    1  C1  UNL     1      -2.132  -5.590  -1.639  1.00  0.00     0.014 C 
HETATM    2  C2  UNL     1      -2.369  -4.798  -0.777  1.00  0.00    -0.097 C 
HETATM    3  C3  UNL     1      -2.677  -3.837   0.297  1.00  0.00     0.231 C 
ENDROOT
BRANCH   3   4
HETATM    4  N1  UNL     1      -3.248  -2.675  -0.271  1.00  0.00    -0.216 N 
HETATM    5  C4  UNL     1      -2.591  -1.680  -0.833  1.00  0.00     0.682 A 
HETATM    6  N2  UNL     1      -3.310  -0.653  -1.320  1.00  0.00    -0.170 N 
HETATM    7  N8  UNL     1      -1.269  -1.809  -0.857  1.00  0.00    -0.170 N 
HETATM    8  C5  UNL     1      -2.850   0.440  -1.925  1.00  0.00     0.163 A 
ATOM      9  H2  UNL     1      -4.322  -0.719  -1.214  1.00  0.00     0.186 HD
HETATM   10  S1  UNL     1      -1.125   0.470  -2.060  1.00  0.00    -0.017 SA
HETATM   11  C10 UNL     1      -0.418  -0.921  -1.381  1.00  0.00     0.168 A 
ATOM     12  H8  UNL     1      -0.872  -2.652  -0.443  1.00  0.00     0.186 HD
ATOM     13  H1  UNL     1      -4.265  -2.599  -0.243  1.00  0.00     0.178 HD
BRANCH   8  14
HETATM   14  N3  UNL     1      -3.572   1.407  -2.381  1.00  0.00    -0.370 N 
ATOM     15  H3  UNL     1      -3.116   2.202  -2.829  1.00  0.00     0.161 HD
BRANCH  14  16
HETATM   16  C6  UNL     1      -4.996   1.389  -2.272  1.00  0.00     0.121 C 
BRANCH  16  17
HETATM   17  C7  UNL     1      -5.405   1.925  -0.907  1.00  0.00     0.019 C 
BRANCH  17  18
HETATM   18  C8  UNL     1      -4.907   3.349  -0.746  1.00  0.00    -0.003 C 
HETATM   19  C9  UNL     1      -5.503   4.224  -1.822  1.00  0.00     0.005 C 
ENDBRANCH  17  18
ENDBRANCH  16  17
ENDBRANCH  14  16
ENDBRANCH   8  14
BRANCH  11  20
HETATM   20  N4  UNL     1       0.855  -1.160  -1.348  1.00  0.00    -0.320 N 
ATOM     21  H4  UNL     1       1.485  -0.470  -1.757  1.00  0.00     0.169 HD
BRANCH  20  22
HETATM   22  C11 UNL     1       1.420  -2.326  -0.776  1.00  0.00     0.134 A 
HETATM   23  N5  UNL     1       1.459  -3.576  -1.260  1.00  0.00    -0.350 N 
HETATM   24  C12 UNL     1       2.091  -4.410  -0.418  1.00  0.00     0.092 A 
ATOM     25  H5  UNL     1       1.059  -3.858  -2.155  1.00  0.00     0.166 HD
HETATM   26  C13 UNL     1       2.489  -3.681   0.675  1.00  0.00     0.050 A 
HETATM   27  C14 UNL     1       2.075  -2.387   0.457  1.00  0.00     0.078 A 
BRANCH  27  28
HETATM   28  N6  UNL     1       2.247  -1.254   1.296  1.00  0.00    -0.352 N 
ATOM     29  H6  UNL     1       1.608  -1.073   2.070  1.00  0.00     0.166 HD
BRANCH  28  30
HETATM   30  C15 UNL     1       3.231  -0.462   1.053  1.00  0.00     0.046 A 
HETATM   31  C16 UNL     1       4.104  -0.687   0.015  1.00  0.00     0.047 A 
HETATM   32  C17 UNL     1       5.149   0.183  -0.224  1.00  0.00     0.090 A 
HETATM   33  N7  UNL     1       5.315   1.257   0.562  1.00  0.00    -0.365 N 
HETATM   34  C18 UNL     1       4.499   1.520   1.579  1.00  0.00     0.050 A 
ATOM     35  H7  UNL     1       6.091   1.892   0.374  1.00  0.00     0.165 HD
HETATM   36  C19 UNL     1       4.718   2.650   2.365  1.00  0.00    -0.034 A 
HETATM   37  C24 UNL     1       3.444   0.670   1.846  1.00  0.00     0.018 A 
HETATM   38  C20 UNL     1       5.853   3.537   2.050  1.00  0.00     0.050 C 
HETATM   39  C21 UNL     1       3.893   2.941   3.414  1.00  0.00     0.009 A 
HETATM   40  C22 UNL     1       2.835   2.073   3.668  1.00  0.00     0.002 A 
HETATM   41  C23 UNL     1       2.607   0.961   2.908  1.00  0.00     0.016 A 
ENDBRANCH  28  30
ENDBRANCH  27  28
ENDBRANCH  20  22
ENDBRANCH  11  20
ENDBRANCH   3   4
TORSDOF 9
