REMARK  8 active torsions:
REMARK  status: ('A' for Active; 'I' for Inactive)
REMARK    1  A    between atoms: N1_2  and  C2_4 
REMARK    2  A    between atoms: C4_6  and  C5_7 
REMARK    3  A    between atoms: C5_7  and  C6_8 
REMARK       I    between atoms: C6_8  and  N2_10 
REMARK    4  A    between atoms: N2_10  and  C7_12 
REMARK    5  A    between atoms: C10_15  and  C11_16 
REMARK    6  A    between atoms: C15_26  and  N6_27 
REMARK    7  A    between atoms: N6_27  and  C16_28 
REMARK    8  A    between atoms: C16_28  and  C17_29 
ROOT
HETATM    1  C7  UNL     1       0.898   1.220  -0.517  1.00  0.00     0.034 A 
HETATM    2  C8  UNL     1       0.577   1.520   0.771  1.00  0.00     0.030 A 
HETATM    3  C9  UNL     1      -0.708   1.970   1.111  1.00  0.00     0.014 A 
HETATM    4  C10 UNL     1      -1.663   2.112   0.137  1.00  0.00    -0.023 A 
HETATM    5  C23 UNL     1      -1.338   1.800  -1.147  1.00  0.00     0.014 A 
HETATM    6  C24 UNL     1      -0.094   1.363  -1.495  1.00  0.00     0.030 A 
ENDROOT
BRANCH   4   7
HETATM    7  C11 UNL     1      -2.896   2.782   0.458  1.00  0.00     0.008 A 
HETATM    8  C12 UNL     1      -2.853   4.178   0.733  1.00  0.00     0.103 A 
HETATM    9  N3  UNL     1      -4.102   4.581   0.927  1.00  0.00    -0.351 N 
HETATM   10  C13 UNL     1      -4.929   3.534   0.795  1.00  0.00     0.122 A 
ATOM     11  H3  UNL     1      -4.388   5.536   1.142  1.00  0.00     0.166 HD
HETATM   12  N4  UNL     1      -6.243   3.503   0.913  1.00  0.00    -0.338 N 
HETATM   13  C22 UNL     1      -4.185   2.374   0.498  1.00  0.00     0.079 A 
HETATM   14  C14 UNL     1      -6.864   2.326   0.740  1.00  0.00     0.184 A 
ATOM     15  H4  UNL     1      -6.771   4.349   1.129  1.00  0.00     0.168 HD
HETATM   16  N5  UNL     1      -6.194   1.201   0.458  1.00  0.00    -0.327 N 
HETATM   17  C15 UNL     1      -4.822   1.151   0.320  1.00  0.00     0.194 A 
ATOM     18  H5  UNL     1      -6.725   0.338   0.339  1.00  0.00     0.169 HD
BRANCH  17  19
HETATM   19  N6  UNL     1      -4.272   0.134   0.098  1.00  0.00    -0.398 NA
BRANCH  19  20
HETATM   20  C16 UNL     1      -3.604  -1.009  -0.156  1.00  0.00     0.196 C 
BRANCH  20  21
HETATM   21  C17 UNL     1      -4.371  -2.290  -0.261  1.00  0.00    -0.005 A 
HETATM   22  C18 UNL     1      -5.554  -2.527   0.357  1.00  0.00     0.031 A 
HETATM   23  C19 UNL     1      -6.205  -3.725   0.205  1.00  0.00     0.088 A 
HETATM   24  N7  UNL     1      -5.677  -4.707  -0.573  1.00  0.00    -0.375 N 
HETATM   25  C20 UNL     1      -4.517  -4.471  -1.176  1.00  0.00     0.088 A 
ATOM     26  H7  UNL     1      -6.158  -5.599  -0.690  1.00  0.00     0.164 HD
HETATM   27  C21 UNL     1      -3.818  -3.273  -1.056  1.00  0.00     0.031 A 
ENDBRANCH  20  21
ENDBRANCH  19  20
ENDBRANCH  17  19
ENDBRANCH   4   7
BRANCH   1  28
HETATM   28  N2  UNL     1       2.202   0.901  -1.008  1.00  0.00    -0.327 N 
HETATM   29  C6  UNL     1       3.362   1.308  -0.363  1.00  0.00     0.226 C 
HETATM   30  O1  UNL     1       3.295   1.983   0.737  1.00  0.00    -0.273 OA
ATOM     31  H2  UNL     1       2.283   0.354  -1.865  1.00  0.00     0.169 HD
BRANCH  29  32
HETATM   32  C5  UNL     1       4.713   1.038  -0.831  1.00  0.00     0.141 C 
BRANCH  32  33
HETATM   33  C4  UNL     1       5.467   0.091  -0.012  1.00  0.00    -0.045 A 
HETATM   34  C3  UNL     1       6.421  -0.742  -0.624  1.00  0.00     0.055 A 
HETATM   35  C2  UNL     1       7.155  -1.653   0.120  1.00  0.00     0.100 A 
HETATM   36  N8  UNL     1       6.962  -1.755   1.430  1.00  0.00    -0.353 N 
HETATM   37  C26 UNL     1       6.056  -0.972   2.023  1.00  0.00     0.090 A 
ATOM     38  H8  UNL     1       7.501  -2.425   1.979  1.00  0.00     0.166 HD
HETATM   39  C25 UNL     1       5.294  -0.036   1.329  1.00  0.00     0.024 A 
BRANCH  35  40
HETATM   40  N1  UNL     1       8.021  -2.379  -0.495  1.00  0.00    -0.381 N 
HETATM   41  C1  UNL     1       8.852  -3.364   0.128  1.00  0.00     0.147 C 
ATOM     42  H1  UNL     1       8.123  -2.243  -1.501  1.00  0.00     0.160 HD
ENDBRANCH  35  40
ENDBRANCH  32  33
ENDBRANCH  29  32
ENDBRANCH   1  28
TORSDOF 8
