REMARK  13 active torsions:
REMARK  status: ('A' for Active; 'I' for Inactive)
REMARK    1  A    between atoms: C2_2  and  C4_4 
REMARK    2  A    between atoms: C6_6  and  C7_7 
REMARK    3  A    between atoms: C8_8  and  C9_9 
REMARK    4  A    between atoms: C9_9  and  C10_10 
REMARK    5  A    between atoms: C10_10  and  O1_11 
REMARK    6  A    between atoms: C10_10  and  C11_13 
REMARK    7  A    between atoms: C10_10  and  C17_21 
REMARK    8  A    between atoms: C11_13  and  C12_14 
REMARK    9  A    between atoms: C12_14  and  C13_15 
REMARK   10  A    between atoms: C13_15  and  C14_16 
REMARK   11  A    between atoms: C14_16  and  O2_19 
REMARK   12  A    between atoms: C19_23  and  O3_24 
REMARK   13  A    between atoms: C28_35  and  O5_36 
ROOT
HETATM    1  C10 UNL     1       2.600  -0.202  -1.308  1.00  0.00     0.094 C 
ENDROOT
BRANCH   1   2
HETATM    2  C9  UNL     1       1.694  -0.031  -2.508  1.00  0.00     0.134 C 
BRANCH   2   3
HETATM    3  C8  UNL     1       0.311   0.032  -2.119  1.00  0.00    -0.103 C 
HETATM    4  C7  UNL     1      -0.882   0.071  -1.825  1.00  0.00    -0.102 C 
BRANCH   4   5
HETATM    5  C6  UNL     1      -2.315   0.110  -1.498  1.00  0.00     0.066 C 
HETATM    6  C5  UNL     1      -2.436   0.007  -0.017  1.00  0.00     0.029 C 
HETATM    7  C4  UNL     1      -3.888  -0.221   0.442  1.00  0.00    -0.010 C 
HETATM    8  C28 UNL     1      -4.721   0.658  -0.423  1.00  0.00     0.131 C 
HETATM    9  C29 UNL     1      -4.243  -1.668   0.276  1.00  0.00     0.017 C 
HETATM   10  C27 UNL     1      -5.207  -0.026  -1.674  1.00  0.00     0.020 C 
HETATM   11  C24 UNL     1      -4.397  -1.164  -2.135  1.00  0.00    -0.003 C 
HETATM   12  C26 UNL     1      -6.219  -1.071  -1.160  1.00  0.00     0.012 C 
HETATM   13  C23 UNL     1      -2.948  -1.076  -2.132  1.00  0.00     0.022 C 
HETATM   14  C25 UNL     1      -4.993  -1.968  -0.987  1.00  0.00    -0.009 C 
BRANCH   7  15
HETATM   15  C2  UNL     1      -3.878   0.151   1.904  1.00  0.00    -0.012 C 
HETATM   16  C1  UNL     1      -5.200   0.007   2.595  1.00  0.00     0.010 C 
HETATM   17  C3  UNL     1      -3.352   1.541   2.146  1.00  0.00     0.010 C 
ENDBRANCH   7  15
BRANCH   8  18
HETATM   18  O5  UNL     1      -5.865   1.015   0.292  1.00  0.00    -0.394 OA
ATOM     19  H5  UNL     1      -6.397   1.576  -0.260  1.00  0.00     0.210 HD
ENDBRANCH   8  18
ENDBRANCH   4   5
ENDBRANCH   2   3
ENDBRANCH   1   2
BRANCH   1  20
HETATM   20  O1  UNL     1       3.897  -0.270  -1.928  1.00  0.00    -0.386 OA
ATOM     21  H1  UNL     1       4.466  -0.377  -1.175  1.00  0.00     0.210 HD
ENDBRANCH   1  20
BRANCH   1  22
HETATM   22  C11 UNL     1       2.342  -1.525  -0.678  1.00  0.00     0.041 C 
BRANCH  22  23
HETATM   23  C12 UNL     1       3.163  -1.852   0.523  1.00  0.00     0.006 C 
BRANCH  23  24
HETATM   24  C13 UNL     1       4.621  -1.948   0.302  1.00  0.00     0.037 C 
BRANCH  24  25
HETATM   25  C14 UNL     1       5.376  -2.315   1.575  1.00  0.00     0.051 C 
HETATM   26  C15 UNL     1       6.845  -2.378   1.205  1.00  0.00     0.045 C 
HETATM   27  C16 UNL     1       4.949  -3.635   2.130  1.00  0.00     0.045 C 
BRANCH  25  28
HETATM   28  O2  UNL     1       5.236  -1.351   2.559  1.00  0.00    -0.391 OA
ATOM     29  H2  UNL     1       5.706  -1.580   3.352  1.00  0.00     0.210 HD
ENDBRANCH  25  28
ENDBRANCH  24  25
ENDBRANCH  23  24
ENDBRANCH  22  23
ENDBRANCH   1  22
BRANCH   1  30
HETATM   30  C17 UNL     1       2.684   0.943  -0.385  1.00  0.00     0.160 C 
HETATM   31  C18 UNL     1       1.687   1.164   0.657  1.00  0.00     0.069 C 
HETATM   32  C19 UNL     1       1.366   2.641   0.577  1.00  0.00     0.154 C 
HETATM   33  C20 UNL     1       2.353   3.153  -0.424  1.00  0.00     0.080 C 
HETATM   34  C21 UNL     1       1.614   4.043  -1.408  1.00  0.00     0.048 C 
HETATM   35  C22 UNL     1       3.424   4.017   0.218  1.00  0.00     0.048 C 
HETATM   36  O4  UNL     1       2.904   2.113  -1.114  1.00  0.00    -0.370 OA
BRANCH  32  37
HETATM   37  O3  UNL     1       0.042   2.893   0.254  1.00  0.00    -0.392 OA
ATOM     38  H3  UNL     1      -0.159   3.820   0.204  1.00  0.00     0.210 HD
ENDBRANCH  32  37
ENDBRANCH   1  30
TORSDOF 13
