REMARK  10 active torsions:
REMARK  status: ('A' for Active; 'I' for Inactive)
REMARK    1  A    between atoms: C2_2  and  C4_4 
REMARK    2  A    between atoms: C4_4  and  C5_5 
REMARK    3  A    between atoms: C5_5  and  C6_6 
REMARK    4  A    between atoms: C10_10  and  O1_11 
REMARK    5  A    between atoms: C12_14  and  O2_15 
REMARK    6  A    between atoms: C13_17  and  O3_18 
REMARK    7  A    between atoms: C16_22  and  C18_24 
REMARK    8  A    between atoms: C18_24  and  O4_25 
REMARK    9  A    between atoms: O4_25  and  C19_26 
REMARK   10  A    between atoms: C26_33  and  O5_34 
ROOT
HETATM    1  C6  UNL     1      -1.762   0.174  -0.857  1.00  0.00    -0.068 C 
HETATM    2  C7  UNL     1      -3.132   0.059  -1.445  1.00  0.00     0.014 C 
HETATM    3  C8  UNL     1      -3.789   1.410  -1.698  1.00  0.00     0.015 C 
HETATM    4  C9  UNL     1      -4.096  -0.739  -0.632  1.00  0.00     0.047 C 
HETATM    5  C10 UNL     1      -3.489  -2.010  -0.241  1.00  0.00     0.072 C 
HETATM    6  C11 UNL     1      -3.683  -2.208   1.252  1.00  0.00     0.073 C 
HETATM    7  C12 UNL     1      -2.718  -3.304   1.616  1.00  0.00     0.150 C 
HETATM    8  C13 UNL     1      -1.800  -3.413   0.445  1.00  0.00     0.159 C 
HETATM    9  C14 UNL     1      -2.051  -2.286  -0.528  1.00  0.00     0.029 C 
HETATM   10  C15 UNL     1      -2.020  -2.989  -1.894  1.00  0.00     0.022 C 
HETATM   11  C16 UNL     1      -1.095  -1.126  -0.476  1.00  0.00     0.014 C 
HETATM   12  C17 UNL     1      -0.384  -1.054   0.857  1.00  0.00     0.023 C 
ENDROOT
BRANCH  11  13
HETATM   13  C18 UNL     1      -0.002  -1.427  -1.496  1.00  0.00     0.182 C 
BRANCH  13  14
HETATM   14  O4  UNL     1       0.993  -0.648  -1.740  1.00  0.00    -0.382 OA
BRANCH  14  15
HETATM   15  C19 UNL     1       2.006  -0.131  -1.127  1.00  0.00     0.151 C 
HETATM   16  C20 UNL     1       3.363  -0.784  -1.562  1.00  0.00     0.038 C 
HETATM   17  C21 UNL     1       4.274  -1.013  -0.409  1.00  0.00    -0.016 C 
HETATM   18  C22 UNL     1       3.633  -1.989   0.554  1.00  0.00     0.010 C 
HETATM   19  C23 UNL     1       4.779   0.219   0.288  1.00  0.00     0.010 C 
HETATM   20  C24 UNL     1       4.477   1.424  -0.498  1.00  0.00     0.001 A 
HETATM   21  C25 UNL     1       3.013   1.813  -0.117  1.00  0.00     0.030 A 
HETATM   22  C27 UNL     1       4.102   2.742  -0.044  1.00  0.00    -0.037 A 
HETATM   23  C26 UNL     1       2.198   1.393  -1.282  1.00  0.00     0.152 C 
HETATM   24  C28 UNL     1       4.126   3.886  -1.036  1.00  0.00     0.015 C 
HETATM   25  C29 UNL     1       4.584   3.164   1.332  1.00  0.00     0.015 C 
BRANCH  23  26
HETATM   26  O5  UNL     1       2.951   1.659  -2.437  1.00  0.00    -0.393 OA
ATOM     27  H5  UNL     1       3.069   2.597  -2.532  1.00  0.00     0.210 HD
ENDBRANCH  23  26
ENDBRANCH  14  15
ENDBRANCH  13  14
ENDBRANCH  11  13
BRANCH   1  28
HETATM   28  C5  UNL     1      -1.553   1.334   0.039  1.00  0.00    -0.018 C 
BRANCH  28  29
HETATM   29  C4  UNL     1      -2.290   1.559   1.265  1.00  0.00     0.060 C 
BRANCH  29  30
HETATM   30  C2  UNL     1      -1.829   2.841   1.928  1.00  0.00    -0.090 C 
HETATM   31  C1  UNL     1      -0.918   3.643   1.438  1.00  0.00     0.014 C 
HETATM   32  C3  UNL     1      -2.473   3.202   3.248  1.00  0.00     0.043 C 
ENDBRANCH  29  30
ENDBRANCH  28  29
ENDBRANCH   1  28
BRANCH   5  33
HETATM   33  O1  UNL     1      -4.309  -3.029  -0.821  1.00  0.00    -0.389 OA
ATOM     34  H1  UNL     1      -3.915  -3.855  -0.567  1.00  0.00     0.210 HD
ENDBRANCH   5  33
BRANCH   8  35
HETATM   35  O3  UNL     1      -0.532  -3.760   0.744  1.00  0.00    -0.392 OA
ATOM     36  H3  UNL     1       0.053  -3.829  -0.002  1.00  0.00     0.210 HD
ENDBRANCH   8  35
BRANCH   7  37
HETATM   37  O2  UNL     1      -3.465  -4.488   1.858  1.00  0.00    -0.393 OA
ATOM     38  H2  UNL     1      -2.856  -5.180   2.088  1.00  0.00     0.210 HD
ENDBRANCH   7  37
TORSDOF 10
