REMARK  10 active torsions:
REMARK  status: ('A' for Active; 'I' for Inactive)
REMARK    1  A    between atoms: C4_4  and  O1_5 
REMARK    2  A    between atoms: C18_21  and  O3_22 
REMARK    3  A    between atoms: C20_25  and  C21_26 
REMARK    4  A    between atoms: C21_26  and  C22_27 
REMARK    5  A    between atoms: C22_27  and  C23_28 
REMARK    6  A    between atoms: C23_28  and  C24_29 
REMARK    7  A    between atoms: C24_29  and  C25_30 
REMARK    8  A    between atoms: C25_30  and  O4_31 
REMARK    9  A    between atoms: C25_30  and  C26_33 
REMARK   10  A    between atoms: C26_33  and  O5_34 
ROOT
HETATM    1  C1  UNL     1      -5.141  -0.754   2.042  1.00  0.00     0.018 C 
HETATM    2  C2  UNL     1      -4.766  -0.789   0.541  1.00  0.00    -0.015 C 
HETATM    3  C3  UNL     1      -6.041  -1.003  -0.166  1.00  0.00     0.018 C 
HETATM    4  C4  UNL     1      -3.846  -2.011   0.392  1.00  0.00     0.150 C 
HETATM    5  C5  UNL     1      -2.476  -1.844   0.918  1.00  0.00     0.201 C 
HETATM    6  O2  UNL     1      -1.477  -1.323   0.338  1.00  0.00    -0.377 OA
HETATM    7  C6  UNL     1      -1.134  -0.467  -0.570  1.00  0.00     0.069 C 
HETATM    8  C7  UNL     1      -1.819  -0.777  -1.887  1.00  0.00     0.040 C 
HETATM    9  C8  UNL     1      -3.128  -0.099  -2.068  1.00  0.00     0.013 C 
HETATM   10  C9  UNL     1      -3.565   0.827  -1.030  1.00  0.00    -0.032 C 
HETATM   11  C10 UNL     1      -4.578   1.787  -1.681  1.00  0.00     0.016 C 
HETATM   12  C11 UNL     1      -3.978   0.382   0.295  1.00  0.00     0.005 C 
HETATM   13  C12 UNL     1      -4.449   1.738   0.851  1.00  0.00     0.007 C 
HETATM   14  C13 UNL     1      -3.121   2.475   0.572  1.00  0.00     0.011 C 
HETATM   15  C14 UNL     1      -2.424   1.747  -0.545  1.00  0.00    -0.030 C 
HETATM   16  C15 UNL     1      -2.256   2.790  -1.666  1.00  0.00     0.016 C 
HETATM   17  C16 UNL     1      -1.182   1.017  -0.240  1.00  0.00     0.032 C 
HETATM   18  C17 UNL     1      -0.586   1.191   1.116  1.00  0.00     0.040 C 
HETATM   19  C18 UNL     1       0.914   0.883   1.011  1.00  0.00     0.123 C 
HETATM   20  C19 UNL     1       1.254  -0.330   0.259  1.00  0.00     0.025 C 
HETATM   21  C20 UNL     1       2.594  -0.079  -0.421  1.00  0.00    -0.008 C 
HETATM   22  C27 UNL     1       2.398  -0.178  -1.892  1.00  0.00     0.005 C 
HETATM   23  C28 UNL     1       0.893  -0.271  -2.115  1.00  0.00     0.008 C 
HETATM   24  C29 UNL     1       0.349  -0.765  -0.835  1.00  0.00     0.027 C 
ENDROOT
BRANCH  21  25
HETATM   25  C21 UNL     1       3.671  -1.007   0.087  1.00  0.00     0.005 C 
BRANCH  25  26
HETATM   26  C22 UNL     1       4.941  -0.658  -0.652  1.00  0.00     0.000 C 
BRANCH  26  27
HETATM   27  C23 UNL     1       6.102  -1.526  -0.230  1.00  0.00     0.002 C 
BRANCH  27  28
HETATM   28  C24 UNL     1       6.428  -1.413   1.221  1.00  0.00     0.034 C 
BRANCH  28  29
HETATM   29  C25 UNL     1       6.799  -0.020   1.649  1.00  0.00     0.141 C 
BRANCH  29  30
HETATM   30  O4  UNL     1       7.075  -0.089   3.033  1.00  0.00    -0.393 OA
ATOM     31  H4  UNL     1       7.309   0.791   3.303  1.00  0.00     0.210 HD
ENDBRANCH  29  30
BRANCH  29  32
HETATM   32  C26 UNL     1       8.050   0.480   0.983  1.00  0.00     0.195 C 
BRANCH  32  33
HETATM   33  O5  UNL     1       9.117  -0.407   1.232  1.00  0.00    -0.398 OA
ATOM     34  H5  UNL     1       9.908  -0.091   0.811  1.00  0.00     0.209 HD
ENDBRANCH  32  33
ENDBRANCH  29  32
ENDBRANCH  28  29
ENDBRANCH  27  28
ENDBRANCH  26  27
ENDBRANCH  25  26
ENDBRANCH  21  25
BRANCH  19  35
HETATM   35  O3  UNL     1       1.380   0.767   2.329  1.00  0.00    -0.395 OA
ATOM     36  H3  UNL     1       2.308   0.576   2.264  1.00  0.00     0.210 HD
ENDBRANCH  19  35
BRANCH   4  37
HETATM   37  O1  UNL     1      -4.497  -2.979   1.213  1.00  0.00    -0.393 OA
ATOM     38  H1  UNL     1      -3.928  -3.734   1.121  1.00  0.00     0.210 HD
ENDBRANCH   4  37
TORSDOF 10
