REMARK  10 active torsions:
REMARK  status: ('A' for Active; 'I' for Inactive)
REMARK    1  A    between atoms: O1_1  and  C1_3 
REMARK    2  A    between atoms: C1_3  and  C2_4 
REMARK    3  A    between atoms: C5_7  and  C6_8 
REMARK    4  A    between atoms: C8_10  and  O2_11 
REMARK    5  A    between atoms: C11_15  and  C12_16 
REMARK    6  A    between atoms: C16_20  and  C17_21 
REMARK    7  A    between atoms: C17_21  and  O3_22 
REMARK    8  A    between atoms: C17_21  and  N1_24 
REMARK    9  A    between atoms: N1_24  and  C18_26 
REMARK   10  A    between atoms: C20_28  and  C21_29 
ROOT
HETATM    1  C12 UNL     1      -1.852  -0.881   0.962  1.00  0.00    -0.024 A 
HETATM    2  C13 UNL     1      -2.056   0.220   1.740  1.00  0.00     0.012 A 
HETATM    3  C14 UNL     1      -1.261   1.368   1.666  1.00  0.00     0.002 A 
HETATM    4  C15 UNL     1      -0.226   1.405   0.778  1.00  0.00     0.011 A 
HETATM    5  C16 UNL     1       0.003   0.310  -0.018  1.00  0.00    -0.009 A 
HETATM    6  C28 UNL     1      -0.786  -0.820   0.060  1.00  0.00     0.024 A 
ENDROOT
BRANCH   5   7
HETATM    7  C17 UNL     1       1.168   0.401  -0.975  1.00  0.00     0.253 C 
BRANCH   7   8
HETATM    8  O3  UNL     1       1.846  -0.812  -0.829  1.00  0.00    -0.372 OA
ATOM      9  H3  UNL     1       2.579  -0.755  -1.431  1.00  0.00     0.212 HD
ENDBRANCH   7   8
BRANCH   7  10
HETATM   10  N1  UNL     1       1.957   1.499  -0.667  1.00  0.00    -0.346 N 
ATOM     11  H1  UNL     1       1.388   2.313  -0.433  1.00  0.00     0.164 HD
BRANCH  10  12
HETATM   12  C18 UNL     1       3.192   1.763  -0.598  1.00  0.00     0.103 A 
HETATM   13  C19 UNL     1       4.239   0.902  -0.849  1.00  0.00     0.060 A 
HETATM   14  C20 UNL     1       5.578   1.279  -0.735  1.00  0.00    -0.021 A 
HETATM   15  C26 UNL     1       5.854   2.573  -0.353  1.00  0.00     0.029 A 
HETATM   16  C27 UNL     1       4.791   3.438  -0.102  1.00  0.00     0.090 A 
HETATM   17  N3  UNL     1       3.524   3.047  -0.219  1.00  0.00    -0.352 N 
ATOM     18  H3  UNL     1       2.778   3.715  -0.023  1.00  0.00     0.166 HD
BRANCH  14  19
HETATM   19  C21 UNL     1       6.652   0.336  -1.008  1.00  0.00    -0.023 A 
HETATM   20  C22 UNL     1       7.846   0.441  -0.326  1.00  0.00     0.029 A 
HETATM   21  C23 UNL     1       8.889  -0.445  -0.564  1.00  0.00     0.088 A 
HETATM   22  N2  UNL     1       8.699  -1.417  -1.485  1.00  0.00    -0.375 N 
HETATM   23  C24 UNL     1       7.555  -1.552  -2.167  1.00  0.00     0.088 A 
ATOM     24  H2  UNL     1       9.458  -2.074  -1.667  1.00  0.00     0.164 HD
HETATM   25  C25 UNL     1       6.520  -0.679  -1.937  1.00  0.00     0.029 A 
ENDBRANCH  14  19
ENDBRANCH  10  12
ENDBRANCH   7  10
ENDBRANCH   5   7
BRANCH   1  26
HETATM   26  C11 UNL     1      -2.685  -2.051   1.069  1.00  0.00    -0.015 A 
HETATM   27  C6  UNL     1      -4.023  -1.973   0.787  1.00  0.00    -0.011 A 
HETATM   28  C7  UNL     1      -4.797  -3.134   0.897  1.00  0.00     0.049 A 
HETATM   29  C8  UNL     1      -4.258  -4.340   1.277  1.00  0.00     0.066 A 
HETATM   30  C9  UNL     1      -2.916  -4.426   1.562  1.00  0.00     0.037 A 
HETATM   31  C10 UNL     1      -2.149  -3.291   1.457  1.00  0.00     0.016 A 
BRANCH  27  32
HETATM   32  C5  UNL     1      -4.634  -0.740   0.392  1.00  0.00    -0.009 A 
HETATM   33  C4  UNL     1      -4.256  -0.104  -0.758  1.00  0.00     0.015 A 
HETATM   34  C3  UNL     1      -4.883   1.100  -1.116  1.00  0.00     0.028 A 
HETATM   35  C2  UNL     1      -5.866   1.619  -0.306  1.00  0.00     0.032 A 
HETATM   36  N4  UNL     1      -6.218   0.973   0.818  1.00  0.00    -0.367 N 
HETATM   37  C29 UNL     1      -5.618  -0.178   1.160  1.00  0.00     0.100 A 
ATOM     38  H4  UNL     1      -6.947   1.360   1.417  1.00  0.00     0.165 HD
BRANCH  35  39
HETATM   39  C1  UNL     1      -6.574   2.887  -0.623  1.00  0.00     0.220 C 
BRANCH  39  40
HETATM   40  O1  UNL     1      -7.309   3.328   0.477  1.00  0.00    -0.395 OA
ATOM     41  H1  UNL     1      -7.761   4.138   0.274  1.00  0.00     0.209 HD
ENDBRANCH  39  40
ENDBRANCH  35  39
ENDBRANCH  27  32
BRANCH  29  42
HETATM   42  O2  UNL     1      -5.091  -5.447   1.363  1.00  0.00    -0.361 OA
ATOM     43  H2  UNL     1      -4.718  -6.281   1.626  1.00  0.00     0.217 HD
ENDBRANCH  29  42
ENDBRANCH   1  26
TORSDOF 10
