REMARK  10 active torsions:
REMARK  status: ('A' for Active; 'I' for Inactive)
REMARK    1  A    between atoms: C2_2  and  C3_3 
REMARK    2  A    between atoms: C2_2  and  C4_6 
REMARK    3  A    between atoms: C3_3  and  O1_4 
REMARK    4  A    between atoms: C5_7  and  O2_8 
REMARK    5  A    between atoms: C11_16  and  C13_18 
REMARK    6  A    between atoms: C13_18  and  C14_19 
REMARK    7  A    between atoms: C14_19  and  C15_20 
REMARK    8  A    between atoms: C22_27  and  C24_29 
REMARK    9  A    between atoms: C24_29  and  O4_30 
REMARK   10  A    between atoms: C25_32  and  O5_33 
ROOT
HETATM    1  C15 UNL     1       1.081   0.483  -1.271  1.00  0.00     0.002 C 
HETATM    2  C16 UNL     1       1.496   1.741  -2.017  1.00  0.00    -0.043 C 
HETATM    3  C17 UNL     1       0.296   2.583  -2.462  1.00  0.00     0.015 C 
HETATM    4  C18 UNL     1       2.199   1.400  -3.315  1.00  0.00     0.015 C 
HETATM    5  C19 UNL     1       2.327   2.679  -1.238  1.00  0.00     0.010 C 
HETATM    6  C20 UNL     1       3.386   2.111  -0.384  1.00  0.00     0.007 C 
HETATM    7  C21 UNL     1       3.416   0.621  -0.431  1.00  0.00     0.007 C 
HETATM    8  C22 UNL     1       4.465   0.133   0.499  1.00  0.00     0.007 C 
HETATM    9  C23 UNL     1       5.418  -0.817  -0.217  1.00  0.00     0.020 C 
HETATM   10  C25 UNL     1       4.051  -0.509   1.760  1.00  0.00     0.128 C 
HETATM   11  C26 UNL     1       2.620  -0.445   2.142  1.00  0.00     0.033 C 
HETATM   12  C27 UNL     1       1.731   0.367   1.208  1.00  0.00     0.012 C 
HETATM   13  C28 UNL     1       2.004   0.072  -0.217  1.00  0.00    -0.035 C 
HETATM   14  C29 UNL     1       2.118  -1.471  -0.334  1.00  0.00     0.016 C 
ENDROOT
BRANCH   1  15
HETATM   15  C14 UNL     1      -0.405   0.394  -1.129  1.00  0.00     0.007 C 
BRANCH  15  16
HETATM   16  C13 UNL     1      -1.021  -0.759  -0.471  1.00  0.00     0.015 C 
BRANCH  16  17
HETATM   17  C11 UNL     1      -2.472  -0.906  -0.391  1.00  0.00    -0.007 C 
HETATM   18  C4  UNL     1      -3.439  -0.085   0.256  1.00  0.00    -0.034 C 
HETATM   19  C5  UNL     1      -4.891  -0.513   0.045  1.00  0.00     0.159 C 
HETATM   20  C6  UNL     1      -5.118  -1.916   0.546  1.00  0.00     0.084 C 
HETATM   21  C7  UNL     1      -6.461  -2.408   0.058  1.00  0.00     0.021 C 
HETATM   22  C8  UNL     1      -4.051  -2.790   0.049  1.00  0.00     0.138 C 
HETATM   23  O3  UNL     1      -4.334  -3.866  -0.450  1.00  0.00    -0.297 OA
HETATM   24  C9  UNL     1      -2.665  -2.352   0.163  1.00  0.00     0.064 C 
HETATM   25  C10 UNL     1      -2.120  -2.515   1.533  1.00  0.00     0.019 C 
HETATM   26  C12 UNL     1      -2.963  -1.190  -1.892  1.00  0.00     0.021 C 
BRANCH  18  27
HETATM   27  C2  UNL     1      -3.441   1.312   0.635  1.00  0.00    -0.038 C 
HETATM   28  C1  UNL     1      -4.202   2.226  -0.030  1.00  0.00     0.021 C 
BRANCH  27  29
HETATM   29  C3  UNL     1      -2.819   1.868   1.861  1.00  0.00     0.202 C 
BRANCH  29  30
HETATM   30  O1  UNL     1      -1.479   1.857   1.920  1.00  0.00    -0.396 OA
ATOM     31  H1  UNL     1      -1.081   2.213   2.705  1.00  0.00     0.209 HD
ENDBRANCH  29  30
ENDBRANCH  27  29
ENDBRANCH  18  27
BRANCH  19  32
HETATM   32  O2  UNL     1      -5.355  -0.356  -1.238  1.00  0.00    -0.390 OA
ATOM     33  H2  UNL     1      -6.258  -0.622  -1.369  1.00  0.00     0.210 HD
ENDBRANCH  19  32
ENDBRANCH  16  17
ENDBRANCH  15  16
ENDBRANCH   1  15
BRANCH   8  34
HETATM   34  C24 UNL     1       5.418   1.305   0.863  1.00  0.00     0.176 C 
BRANCH  34  35
HETATM   35  O4  UNL     1       6.423   0.815   1.743  1.00  0.00    -0.400 OA
ATOM     36  H4  UNL     1       7.006   1.532   1.966  1.00  0.00     0.209 HD
ENDBRANCH  34  35
ENDBRANCH   8  34
BRANCH  10  37
HETATM   37  O5  UNL     1       4.586  -1.813   1.957  1.00  0.00    -0.395 OA
ATOM     38  H5  UNL     1       4.319  -2.227   2.770  1.00  0.00     0.210 HD
ENDBRANCH  10  37
TORSDOF 10
