REMARK  7 active torsions:
REMARK  status: ('A' for Active; 'I' for Inactive)
REMARK    1  A    between atoms: N1_1  and  C1_4 
REMARK    2  A    between atoms: C3_9  and  C4_10 
REMARK    3  A    between atoms: C4_10  and  O1_11 
REMARK    4  A    between atoms: C4_10  and  O2_13 
REMARK    5  A    between atoms: C5_15  and  N4_16 
REMARK       I    between atoms: N4_16  and  C6_18 
REMARK    6  A    between atoms: C6_18  and  C7_20 
REMARK    7  A    between atoms: C7_20  and  C8_22 
ROOT
HETATM    1  C1  UNL     1      -1.981   1.761  -0.393  1.00  0.00     0.678 A 
HETATM    2  N2  UNL     1      -2.986   0.905  -0.092  1.00  0.00    -0.178 N 
ATOM      3  H2  UNL     1      -3.940   1.249   0.018  1.00  0.00     0.185 HD
HETATM    4  C2  UNL     1      -2.716  -0.400   0.060  1.00  0.00     0.146 A 
HETATM    5  N3  UNL     1      -3.773  -1.299   0.376  1.00  0.00    -0.081 NA
HETATM    6  C3  UNL     1      -1.400  -0.843  -0.099  1.00  0.00     0.082 A 
HETATM    7  C5  UNL     1      -0.382   0.030  -0.405  1.00  0.00     0.138 A 
HETATM    8  N6  UNL     1      -0.703   1.324  -0.545  1.00  0.00    -0.176 N 
ATOM      9  H6  UNL     1       0.030   1.997  -0.771  1.00  0.00     0.186 HD
ENDROOT
BRANCH   7  10
HETATM   10  N4  UNL     1       0.804  -0.436  -0.537  1.00  0.00    -0.305 N 
HETATM   11  C6  UNL     1       1.939   0.346  -0.850  1.00  0.00     0.302 C 
HETATM   12  O3  UNL     1       1.949   1.002  -1.910  1.00  0.00    -0.264 OA
ATOM     13  H4  UNL     1       0.938  -1.439  -0.408  1.00  0.00     0.170 HD
BRANCH  11  14
HETATM   14  C7  UNL     1       3.094   0.408   0.028  1.00  0.00     0.303 C 
HETATM   15  O4  UNL     1       3.149  -0.231   1.116  1.00  0.00    -0.277 OA
BRANCH  14  16
HETATM   16  C8  UNL     1       4.241   1.231  -0.341  1.00  0.00     0.310 C 
HETATM   17  N5  UNL     1       5.386   1.316   0.492  1.00  0.00    -0.054 NA
HETATM   18  O5  UNL     1       4.248   1.889  -1.409  1.00  0.00    -0.267 OA
ENDBRANCH  14  16
ENDBRANCH  11  14
ENDBRANCH   7  10
BRANCH   6  19
HETATM   19  C4  UNL     1      -1.096  -2.275   0.066  1.00  0.00     0.295 C 
BRANCH  19  20
HETATM   20  O1  UNL     1       0.053  -2.457   0.845  1.00  0.00    -0.367 OA
ATOM     21  H1  UNL     1       0.249  -3.380   0.951  1.00  0.00     0.213 HD
ENDBRANCH  19  20
BRANCH  19  22
HETATM   22  O2  UNL     1      -2.146  -2.945   0.705  1.00  0.00    -0.367 OA
ATOM     23  H2  UNL     1      -1.950  -3.868   0.811  1.00  0.00     0.213 HD
ENDBRANCH  19  22
ENDBRANCH   6  19
BRANCH   1  24
HETATM   24  N1  UNL     1      -2.304   3.001  -0.525  1.00  0.00    -0.234 N 
ATOM     25  H12 UNL     1      -3.263   3.329  -0.411  1.00  0.00     0.174 HD
ATOM     26  H11 UNL     1      -1.547   3.646  -0.752  1.00  0.00     0.174 HD
ENDBRANCH   1  24
TORSDOF 7
