REMARK  7 active torsions:
REMARK  status: ('A' for Active; 'I' for Inactive)
REMARK    1  A    between atoms: N1_1  and  C1_4 
REMARK    2  A    between atoms: C3_10  and  C4_11 
REMARK    3  A    between atoms: C4_11  and  N4_12 
REMARK    4  A    between atoms: C4_11  and  C5_16 
REMARK    5  A    between atoms: C5_16  and  O1_17 
REMARK    6  A    between atoms: C5_16  and  C6_19 
REMARK    7  A    between atoms: N6_22  and  N7_23 
ROOT
HETATM    1  C1  UNL     1      -4.243  -0.411  -1.009  1.00  0.00     0.678 A 
HETATM    2  N2  UNL     1      -3.229   0.264  -1.571  1.00  0.00    -0.174 N 
ATOM      3  H2  UNL     1      -3.246   0.789  -2.445  1.00  0.00     0.186 HD
HETATM    4  C2  UNL     1      -2.180   0.101  -0.734  1.00  0.00     0.155 A 
HETATM    5  N3  UNL     1      -0.928   0.542  -0.783  1.00  0.00    -0.326 N 
ATOM      6  H3  UNL     1      -0.651   1.116  -1.580  1.00  0.00     0.169 HD
HETATM    7  C3  UNL     1       0.021   0.268   0.183  1.00  0.00     0.142 A 
HETATM    8  N6  UNL     1      -0.324  -0.482   1.234  1.00  0.00    -0.210 N 
HETATM    9  C7  UNL     1      -1.607  -0.944   1.299  1.00  0.00     0.298 A 
HETATM   10  O3  UNL     1      -1.918  -1.659   2.308  1.00  0.00    -0.263 OA
HETATM   11  C8  UNL     1      -2.547  -0.673   0.341  1.00  0.00     0.163 A 
HETATM   12  N8  UNL     1      -3.840  -0.982   0.149  1.00  0.00    -0.183 N 
ATOM     13  H8  UNL     1      -4.418  -1.549   0.769  1.00  0.00     0.184 HD
ENDROOT
BRANCH   7  14
HETATM   14  C4  UNL     1       1.332   0.860  -0.039  1.00  0.00     0.289 C 
BRANCH  14  15
HETATM   15  N4  UNL     1       1.231   2.289   0.304  1.00  0.00    -0.065 N 
ATOM     16  H43 UNL     1       0.486   2.769  -0.201  1.00  0.00     0.275 HD
ATOM     17  H42 UNL     1       0.876   2.449   1.247  1.00  0.00     0.275 HD
ATOM     18  H41 UNL     1       2.150   2.704   0.148  1.00  0.00     0.275 HD
ENDBRANCH  14  15
BRANCH  14  19
HETATM   19  C5  UNL     1       2.545   0.190   0.449  1.00  0.00     0.245 C 
BRANCH  19  20
HETATM   20  O1  UNL     1       2.529  -1.149   0.061  1.00  0.00    -0.384 OA
ATOM     21  H1  UNL     1       3.313  -1.582   0.377  1.00  0.00     0.210 HD
ENDBRANCH  19  20
BRANCH  19  22
HETATM   22  C6  UNL     1       3.806   0.767  -0.141  1.00  0.00     0.262 C 
HETATM   23  N5  UNL     1       4.626  -0.084  -0.891  1.00  0.00    -0.060 NA
HETATM   24  O2  UNL     1       4.167   1.950  -0.007  1.00  0.00    -0.274 OA
ENDBRANCH  19  22
ENDBRANCH  14  19
ENDBRANCH   7  14
BRANCH   8  25
HETATM   25  N7  UNL     1       0.568  -0.775   2.261  1.00  0.00    -0.334 N 
ATOM     26  H72 UNL     1       1.527  -0.430   2.212  1.00  0.00     0.177 HD
ATOM     27  H71 UNL     1       0.305  -1.347   3.063  1.00  0.00     0.177 HD
ENDBRANCH   8  25
BRANCH   1  28
HETATM   28  N1  UNL     1      -5.430  -0.493  -1.518  1.00  0.00    -0.234 N 
ATOM     29  H12 UNL     1      -5.734  -0.062  -2.391  1.00  0.00     0.174 HD
ATOM     30  H11 UNL     1      -6.201  -1.006  -1.091  1.00  0.00     0.174 HD
ENDBRANCH   1  28
TORSDOF 7
