REMARK  7 active torsions:
REMARK  status: ('A' for Active; 'I' for Inactive)
REMARK    1  A    between atoms: C5_15  and  N6_16 
REMARK    2  A    between atoms: N7_19  and  C6_20 
REMARK    3  A    between atoms: C6_20  and  C7_21 
REMARK    4  A    between atoms: C7_21  and  O1_22 
REMARK    5  A    between atoms: C7_21  and  C8_24 
REMARK    6  A    between atoms: C8_24  and  O2_25 
REMARK    7  A    between atoms: C9_27  and  N8_28 
ROOT
HETATM    1  C1  UNL     1       3.602   2.459  -0.383  1.00  0.00     0.074 C 
HETATM    2  C2  UNL     1       2.452   1.562  -0.111  1.00  0.00     0.067 A 
HETATM    3  N1  UNL     1       1.474   1.965   0.681  1.00  0.00    -0.287 N 
ATOM      4  H1  UNL     1       1.537   2.897   1.091  1.00  0.00     0.187 HD
HETATM    5  N2  UNL     1       0.421   1.226   0.969  1.00  0.00    -0.130 N 
ATOM      6  H2  UNL     1      -0.305   1.588   1.588  1.00  0.00     0.205 HD
HETATM    7  C3  UNL     1       0.305  -0.028   0.435  1.00  0.00     0.736 A 
HETATM    8  N3  UNL     1       1.271  -0.451  -0.358  1.00  0.00     0.042 N 
HETATM    9  C4  UNL     1       1.251  -1.688  -0.910  1.00  0.00     0.713 A 
HETATM   10  N4  UNL     1       2.105  -2.151  -1.651  1.00  0.00    -0.233 N 
ATOM     11  H41 UNL     1       2.090  -3.082  -2.067  1.00  0.00     0.174 HD
ATOM     12  H42 UNL     1       2.913  -1.576  -1.890  1.00  0.00     0.174 HD
HETATM   13  N5  UNL     1       0.162  -2.464  -0.588  1.00  0.00    -0.021 N 
ATOM     14  H5  UNL     1       0.098  -3.405  -0.976  1.00  0.00     0.203 HD
HETATM   15  C5  UNL     1      -0.804  -2.036   0.206  1.00  0.00     0.707 A 
HETATM   16  N7  UNL     1      -0.743  -0.802   0.729  1.00  0.00    -0.009 N 
HETATM   17  C9  UNL     1       2.370   0.280  -0.677  1.00  0.00     0.164 A 
ENDROOT
BRANCH  16  18
HETATM   18  C6  UNL     1      -1.823  -0.333   1.543  1.00  0.00     0.200 C 
BRANCH  18  19
HETATM   19  C7  UNL     1      -3.000   0.249   0.849  1.00  0.00     0.161 C 
BRANCH  19  20
HETATM   20  O1  UNL     1      -3.649  -0.666  -0.021  1.00  0.00    -0.392 OA
ATOM     21  H1  UNL     1      -4.402  -0.294  -0.465  1.00  0.00     0.210 HD
ENDBRANCH  19  20
BRANCH  19  22
HETATM   22  C8  UNL     1      -2.769   1.470   0.015  1.00  0.00     0.197 C 
BRANCH  22  23
HETATM   23  O2  UNL     1      -3.976   1.912  -0.577  1.00  0.00    -0.398 OA
ATOM     24  H2  UNL     1      -3.829   2.687  -1.106  1.00  0.00     0.209 HD
ENDBRANCH  22  23
ENDBRANCH  19  22
ENDBRANCH  18  19
ENDBRANCH  16  18
BRANCH  15  25
HETATM   25  N6  UNL     1      -1.776  -2.837   0.472  1.00  0.00    -0.233 N 
ATOM     26  H62 UNL     1      -1.822  -3.775   0.074  1.00  0.00     0.174 HD
ATOM     27  H61 UNL     1      -2.522  -2.507   1.085  1.00  0.00     0.174 HD
ENDBRANCH  15  25
BRANCH  17  28
HETATM   28  N8  UNL     1       3.246  -0.108  -1.401  1.00  0.00    -0.382 N 
ATOM     29  H82 UNL     1       4.072   0.441  -1.641  1.00  0.00     0.157 HD
ATOM     30  H81 UNL     1       3.186  -1.040  -1.812  1.00  0.00     0.157 HD
ENDBRANCH  17  28
TORSDOF 7
