REMARK  6 active torsions:
REMARK  status: ('A' for Active; 'I' for Inactive)
REMARK    1  A    between atoms: N1_1  and  C1_4 
REMARK    2  A    between atoms: C2_9  and  N4_10 
REMARK    3  A    between atoms: N4_10  and  N5_12 
REMARK    4  A    between atoms: C4_17  and  S1_18 
REMARK    5  A    between atoms: S1_18  and  N7_21 
REMARK    6  A    between atoms: N7_21  and  N8_23 
ROOT
HETATM    1  N5  UNL     1       0.769   0.866  -1.589  1.00  0.00    -0.117 N 
ATOM      2  H5  UNL     1       0.398   1.782  -1.840  1.00  0.00     0.206 HD
HETATM    3  C3  UNL     1      -0.067  -0.016  -1.160  1.00  0.00     0.700 A 
HETATM    4  N6  UNL     1      -1.365   0.352  -1.081  1.00  0.00    -0.163 N 
ATOM      5  H6  UNL     1      -1.625   1.298  -1.360  1.00  0.00     0.186 HD
HETATM    6  C4  UNL     1      -2.322  -0.480  -0.650  1.00  0.00     0.240 A 
HETATM    7  N9  UNL     1      -1.977  -1.722  -0.285  1.00  0.00    -0.327 N 
ATOM      8  H9  UNL     1      -2.687  -2.375   0.047  1.00  0.00     0.168 HD
HETATM    9  C5  UNL     1      -0.684  -2.105  -0.359  1.00  0.00     0.200 A 
HETATM   10  N10 UNL     1       0.293  -1.259  -0.798  1.00  0.00    -0.186 N 
ATOM     11  H10 UNL     1       1.266  -1.561  -0.850  1.00  0.00     0.185 HD
ENDROOT
BRANCH   1  12
HETATM   12  N4  UNL     1       2.124   0.669  -1.735  1.00  0.00    -0.116 N 
ATOM     13  H4  UNL     1       2.513   0.508  -2.664  1.00  0.00     0.206 HD
BRANCH  12  14
HETATM   14  C2  UNL     1       2.902   0.686  -0.715  1.00  0.00     0.726 A 
HETATM   15  N3  UNL     1       2.499   0.888   0.549  1.00  0.00    -0.116 N 
HETATM   16  N2  UNL     1       3.562   0.841   1.346  1.00  0.00    -0.117 N 
ATOM     17  H3  UNL     1       1.538   1.050   0.848  1.00  0.00     0.206 HD
HETATM   18  C1  UNL     1       4.635   0.608   0.569  1.00  0.00     0.705 A 
ATOM     19  H2  UNL     1       3.564   0.960   2.359  1.00  0.00     0.206 HD
HETATM   20  N11 UNL     1       4.227   0.510  -0.719  1.00  0.00    -0.019 N 
ATOM     21  H11 UNL     1       4.816   0.336  -1.533  1.00  0.00     0.203 HD
BRANCH  18  22
HETATM   22  N1  UNL     1       5.862   0.496   1.002  1.00  0.00    -0.233 N 
ATOM     23  H12 UNL     1       6.169   0.570   1.972  1.00  0.00     0.174 HD
ATOM     24  H11 UNL     1       6.676   0.319   0.413  1.00  0.00     0.174 HD
ENDBRANCH  18  22
ENDBRANCH  12  14
ENDBRANCH   1  12
BRANCH   6  25
HETATM   25  S1  UNL     1      -3.964   0.096  -0.586  1.00  0.00     0.308 S 
HETATM   26  O1  UNL     1      -4.907  -1.048  -0.825  1.00  0.00    -0.196 OA
HETATM   27  O2  UNL     1      -4.131   1.145  -1.649  1.00  0.00    -0.196 OA
BRANCH  25  28
HETATM   28  N7  UNL     1      -4.324   0.816   0.948  1.00  0.00    -0.227 N 
ATOM     29  H7  UNL     1      -4.207   1.796   1.205  1.00  0.00     0.199 HD
BRANCH  28  30
HETATM   30  N8  UNL     1      -4.809  -0.215   1.768  1.00  0.00    -0.336 N 
ATOM     31  H82 UNL     1      -4.922  -1.192   1.499  1.00  0.00     0.177 HD
ATOM     32  H81 UNL     1      -5.021   0.209   2.671  1.00  0.00     0.177 HD
ENDBRANCH  28  30
ENDBRANCH  25  28
ENDBRANCH   6  25
TORSDOF 6
