REMARK  5 active torsions:
REMARK  status: ('A' for Active; 'I' for Inactive)
REMARK       I    between atoms: C2_4  and  N3_6 
REMARK    1  A    between atoms: N3_6  and  N4_8 
REMARK    2  A    between atoms: C4_15  and  N7_16 
REMARK    3  A    between atoms: N7_16  and  C5_18 
REMARK    4  A    between atoms: C5_18  and  O2_19 
REMARK    5  A    between atoms: C5_18  and  N8_21 
REMARK       I    between atoms: N8_21  and  C6_24 
REMARK       I    between atoms: C6_24  and  N9_25 
REMARK       I    between atoms: C6_24  and  N10_29 
ROOT
HETATM    1  N7  UNL     1      -1.487   0.609  -1.065  1.00  0.00    -0.171 N 
ATOM      2  H7  UNL     1      -2.262   0.439  -1.706  1.00  0.00     0.182 HD
ENDROOT
BRANCH   1   3
HETATM    3  C4  UNL     1      -0.512  -0.011  -1.472  1.00  0.00     0.722 A 
HETATM    4  N4  UNL     1       0.740  -0.140  -1.022  1.00  0.00    -0.027 N 
HETATM    5  C3  UNL     1       1.432  -0.959  -1.870  1.00  0.00     0.375 A 
HETATM    6  O1  UNL     1       2.630  -1.305  -1.765  1.00  0.00    -0.243 OA
HETATM    7  N5  UNL     1       0.577  -1.316  -2.828  1.00  0.00    -0.235 N 
HETATM    8  N6  UNL     1      -0.598  -0.775  -2.635  1.00  0.00    -0.126 N 
ATOM      9  H5  UNL     1       0.808  -1.930  -3.609  1.00  0.00     0.192 HD
ATOM     10  H6  UNL     1      -1.422  -0.890  -3.225  1.00  0.00     0.206 HD
BRANCH   4  11
HETATM   11  N3  UNL     1       1.328   0.423   0.102  1.00  0.00    -0.248 N 
HETATM   12  C2  UNL     1       2.707   0.162   0.414  1.00  0.00     0.203 C 
HETATM   13  N1  UNL     1       3.047  -0.800   1.175  1.00  0.00    -0.368 N 
HETATM   14  N2  UNL     1       3.674   1.019  -0.157  1.00  0.00    -0.062 NA
HETATM   15  C1  UNL     1       4.447  -1.033   1.470  1.00  0.00     0.148 C 
ATOM     16  H1  UNL     1       2.334  -1.408   1.578  1.00  0.00     0.161 HD
ATOM     17  H3  UNL     1       0.777   1.027   0.712  1.00  0.00     0.191 HD
ENDBRANCH   4  11
ENDBRANCH   1   3
BRANCH   1  18
HETATM   18  C5  UNL     1      -1.927   1.441  -0.077  1.00  0.00     0.445 C 
BRANCH  18  19
HETATM   19  O2  UNL     1      -1.273   2.685   0.069  1.00  0.00    -0.354 OA
ATOM     20  H2  UNL     1      -1.579   3.264   0.757  1.00  0.00     0.214 HD
ENDBRANCH  18  19
BRANCH  18  21
HETATM   21  N8  UNL     1      -2.119   0.839   1.236  1.00  0.00     0.024 N 
HETATM   22  C6  UNL     1      -3.116  -0.207   1.062  1.00  0.00     0.579 C 
HETATM   23  N9  UNL     1      -3.315  -0.813   2.362  1.00  0.00    -0.026 N 
HETATM   24  N10 UNL     1      -4.297   0.369   0.518  1.00  0.00    -0.026 N 
ATOM     25  H93 UNL     1      -2.450  -1.148   2.787  1.00  0.00     0.278 HD
ATOM     26  H92 UNL     1      -3.561  -0.139   3.087  1.00  0.00     0.278 HD
ATOM     27  H91 UNL     1      -4.014  -1.546   2.240  1.00  0.00     0.278 HD
ATOM     28 3H10 UNL     1      -4.644   1.148   1.078  1.00  0.00     0.278 HD
ATOM     29 2H10 UNL     1      -4.118   0.883  -0.345  1.00  0.00     0.278 HD
ATOM     30 1H10 UNL     1      -4.996  -0.364   0.396  1.00  0.00     0.278 HD
ATOM     31  H82 UNL     1      -1.253   0.507   1.661  1.00  0.00     0.287 HD
ATOM     32  H81 UNL     1      -2.362   1.515   1.960  1.00  0.00     0.287 HD
ENDBRANCH  18  21
ENDBRANCH   1  18
TORSDOF 5
