REMARK  9 active torsions:
REMARK  status: ('A' for Active; 'I' for Inactive)
REMARK    1  A    between atoms: C4_10  and  C5_11 
REMARK    2  A    between atoms: N6_13  and  O1_15 
REMARK    3  A    between atoms: C7_18  and  C8_19 
REMARK    4  A    between atoms: C8_19  and  O2_20 
REMARK    5  A    between atoms: C8_19  and  C9_22 
REMARK    6  A    between atoms: C9_22  and  N7_23 
REMARK    7  A    between atoms: C9_22  and  C10_27 
REMARK    8  A    between atoms: C10_27  and  O3_28 
REMARK    9  A    between atoms: C10_27  and  C11_30 
ROOT
HETATM    1  N1  UNL     1       2.271  -3.566   0.384  1.00  0.00    -0.190 NA
HETATM    2  C1  UNL     1       1.181  -3.314   0.198  1.00  0.00     0.120 C 
HETATM    3  C2  UNL     1      -0.190  -3.044  -0.051  1.00  0.00     0.144 A 
HETATM    4  N2  UNL     1      -1.156  -3.992  -0.207  1.00  0.00    -0.340 N 
ATOM      5  H2  UNL     1      -0.993  -4.996  -0.136  1.00  0.00     0.167 HD
HETATM    6  C3  UNL     1      -2.322  -3.447  -0.460  1.00  0.00     0.208 A 
HETATM    7  N3  UNL     1      -2.118  -2.107  -0.471  1.00  0.00    -0.248 N 
HETATM    8  N4  UNL     1      -2.986  -1.141  -0.698  1.00  0.00    -0.289 N 
ATOM      9  H4  UNL     1      -3.956  -1.399  -0.881  1.00  0.00     0.188 HD
HETATM   10  C4  UNL     1      -2.669   0.150  -0.702  1.00  0.00     0.092 A 
HETATM   11  C6  UNL     1      -1.340   0.481  -0.449  1.00  0.00     0.047 A 
HETATM   12  C7  UNL     1      -0.399  -0.486  -0.205  1.00  0.00     0.007 A 
HETATM   13  C12 UNL     1      -0.800  -1.833  -0.218  1.00  0.00     0.104 A 
ENDROOT
BRANCH  12  14
HETATM   14  C8  UNL     1       0.999  -0.202   0.099  1.00  0.00     0.187 C 
BRANCH  14  15
HETATM   15  O2  UNL     1       1.238  -0.540   1.441  1.00  0.00    -0.389 OA
ATOM     16  H2  UNL     1       2.149  -0.355   1.639  1.00  0.00     0.210 HD
ENDBRANCH  14  15
BRANCH  14  17
HETATM   17  C9  UNL     1       1.426   1.236   0.003  1.00  0.00     0.253 C 
BRANCH  17  18
HETATM   18  N7  UNL     1       0.671   2.033   1.019  1.00  0.00    -0.069 N 
ATOM     19  H73 UNL     1      -0.339   1.920   0.931  1.00  0.00     0.275 HD
ATOM     20  H72 UNL     1       0.774   1.659   1.962  1.00  0.00     0.275 HD
ATOM     21  H71 UNL     1       0.961   3.009   0.954  1.00  0.00     0.275 HD
ENDBRANCH  17  18
BRANCH  17  22
HETATM   22  C10 UNL     1       2.878   1.403   0.443  1.00  0.00     0.240 C 
BRANCH  22  23
HETATM   23  O3  UNL     1       3.148   2.821   0.461  1.00  0.00    -0.384 OA
ATOM     24  H3  UNL     1       4.052   2.925   0.735  1.00  0.00     0.210 HD
ENDBRANCH  22  23
BRANCH  22  25
HETATM   25  C11 UNL     1       3.867   0.794  -0.438  1.00  0.00     0.262 C 
HETATM   26  N8  UNL     1       4.084  -0.581  -0.674  1.00  0.00    -0.060 NA
HETATM   27  O4  UNL     1       4.657   1.566  -1.094  1.00  0.00    -0.274 OA
ENDBRANCH  22  25
ENDBRANCH  17  22
ENDBRANCH  14  17
ENDBRANCH  12  14
BRANCH  10  28
HETATM   28  C5  UNL     1      -3.653   1.183  -0.957  1.00  0.00     0.164 C 
HETATM   29  N5  UNL     1      -3.249   2.537  -0.947  1.00  0.00    -0.078 NA
HETATM   30  N6  UNL     1      -4.866   0.885  -1.188  1.00  0.00    -0.253 N 
ATOM     31  H6  UNL     1      -5.544   1.626  -1.365  1.00  0.00     0.195 HD
BRANCH  30  32
HETATM   32  O1  UNL     1      -5.271  -0.421  -1.201  1.00  0.00    -0.288 OA
ATOM     33  H1  UNL     1      -6.178  -0.644  -1.374  1.00  0.00     0.244 HD
ENDBRANCH  30  32
ENDBRANCH  10  28
TORSDOF 9
