REMARK  12 active torsions:
REMARK  status: ('A' for Active; 'I' for Inactive)
REMARK    1  A    between atoms: C2_2  and  O1_3 
REMARK    2  A    between atoms: C2_2  and  C13_31 
REMARK    3  A    between atoms: O1_3  and  C3_4 
REMARK       I    between atoms: C3_4  and  N1_6 
REMARK    4  A    between atoms: N1_6  and  C4_8 
REMARK    5  A    between atoms: C4_8  and  C5_9 
REMARK    6  A    between atoms: C4_8  and  C7_13 
REMARK    7  A    between atoms: C5_9  and  C6_10 
REMARK    8  A    between atoms: C7_13  and  O4_14 
REMARK    9  A    between atoms: C7_13  and  N2_16 
REMARK   10  A    between atoms: C10_21  and  N4_22 
REMARK   11  A    between atoms: C13_31  and  N7_32 
REMARK   12  A    between atoms: C13_31  and  O5_36 
ROOT
HETATM    1  C6  UNL     1       1.129   3.195   1.966  1.00  0.00     0.054 C 
HETATM    2  O3  UNL     1       1.462   4.371   2.613  1.00  0.00    -0.314 OA
ATOM      3  H3  UNL     1       1.705   5.179   3.049  1.00  0.00     0.230 HD
ENDROOT
BRANCH   1   4
HETATM    4  C5  UNL     1       0.820   2.168   1.412  1.00  0.00    -0.046 C 
BRANCH   4   5
HETATM    5  C4  UNL     1       0.430   0.950   0.742  1.00  0.00     0.217 C 
BRANCH   5   6
HETATM    6  N1  UNL     1      -0.973   0.608   1.003  1.00  0.00    -0.317 N 
HETATM    7  C3  UNL     1      -1.911   0.509  -0.045  1.00  0.00     0.362 C 
HETATM    8  O2  UNL     1      -1.534   0.721  -1.237  1.00  0.00    -0.238 OA
ATOM      9  H1  UNL     1      -1.276   0.438   1.962  1.00  0.00     0.166 HD
BRANCH   7  10
HETATM   10  O1  UNL     1      -3.224   0.189   0.202  1.00  0.00    -0.295 OA
BRANCH  10  11
HETATM   11  C2  UNL     1      -4.209   0.075  -0.803  1.00  0.00     0.185 C 
HETATM   12  C1  UNL     1      -5.292   1.097  -0.462  1.00  0.00     0.044 C 
BRANCH  11  13
HETATM   13  C13 UNL     1      -4.867  -1.288  -0.779  1.00  0.00     0.345 C 
BRANCH  13  14
HETATM   14  N7  UNL     1      -3.834  -2.279  -1.001  1.00  0.00    -0.051 N 
ATOM     15  H73 UNL     1      -3.300  -2.111  -1.854  1.00  0.00     0.277 HD
ATOM     16  H72 UNL     1      -3.061  -2.200  -0.341  1.00  0.00     0.277 HD
ATOM     17  H71 UNL     1      -4.277  -3.197  -0.985  1.00  0.00     0.277 HD
ENDBRANCH  13  14
BRANCH  13  18
HETATM   18  O5  UNL     1      -5.474  -1.531   0.441  1.00  0.00    -0.368 OA
ATOM     19  H5  UNL     1      -5.887  -2.386   0.456  1.00  0.00     0.212 HD
ENDBRANCH  13  18
ENDBRANCH  11  13
ENDBRANCH  10  11
ENDBRANCH   7  10
ENDBRANCH   5   6
BRANCH   5  20
HETATM   20  C7  UNL     1       1.246  -0.244   1.149  1.00  0.00     0.262 C 
BRANCH  20  21
HETATM   21  O4  UNL     1       1.085  -0.560   2.505  1.00  0.00    -0.373 OA
ATOM     22  H4  UNL     1       1.601  -1.315   2.762  1.00  0.00     0.212 HD
ENDBRANCH  20  21
BRANCH  20  23
HETATM   23  N2  UNL     1       2.643  -0.117   0.886  1.00  0.00    -0.297 N 
HETATM   24  C8  UNL     1       3.533   0.521   1.655  1.00  0.00     0.188 A 
HETATM   25  N3  UNL     1       4.725   0.404   1.052  1.00  0.00    -0.346 N 
HETATM   26  C9  UNL     1       4.596  -0.291  -0.073  1.00  0.00     0.122 A 
ATOM     27  H3  UNL     1       5.600   0.791   1.405  1.00  0.00     0.167 HD
HETATM   28  C10 UNL     1       5.500  -0.691  -1.053  1.00  0.00     0.131 A 
HETATM   29  C12 UNL     1       3.267  -0.629  -0.188  1.00  0.00     0.142 A 
HETATM   30  N5  UNL     1       5.015  -1.400  -2.079  1.00  0.00    -0.337 N 
HETATM   31  C11 UNL     1       3.720  -1.735  -2.201  1.00  0.00     0.183 A 
ATOM     32  H5  UNL     1       5.663  -1.702  -2.807  1.00  0.00     0.168 HD
HETATM   33  N6  UNL     1       2.838  -1.355  -1.261  1.00  0.00    -0.336 N 
ATOM     34  H6  UNL     1       1.854  -1.608  -1.349  1.00  0.00     0.168 HD
BRANCH  28  35
HETATM   35  N4  UNL     1       6.749  -0.374  -0.946  1.00  0.00    -0.383 N 
ATOM     36  H42 UNL     1       7.119   0.166  -0.164  1.00  0.00     0.157 HD
ATOM     37  H41 UNL     1       7.411  -0.667  -1.664  1.00  0.00     0.157 HD
ENDBRANCH  28  35
ENDBRANCH  20  23
ENDBRANCH   5  20
ENDBRANCH   4   5
ENDBRANCH   1   4
TORSDOF 12
