REMARK  7 active torsions:
REMARK  status: ('A' for Active; 'I' for Inactive)
REMARK       I    between atoms: N1_2  and  C2_4 
REMARK    1  A    between atoms: C2_4  and  C3_6 
REMARK    2  A    between atoms: C4_11  and  C5_12 
REMARK    3  A    between atoms: C11_18  and  N4_19 
REMARK    4  A    between atoms: C19_28  and  C20_29 
REMARK       I    between atoms: C20_29  and  N5_31 
REMARK    5  A    between atoms: N5_31  and  C21_33 
REMARK    6  A    between atoms: C21_33  and  C22_34 
REMARK    7  A    between atoms: C22_34  and  C24_36 
ROOT
HETATM    1  C3  UNL     1       0.197  -3.301  -0.108  1.00  0.00     0.133 A 
HETATM    2  N2  UNL     1      -0.979  -3.673  -0.630  1.00  0.00    -0.294 N 
ATOM      3  H2  UNL     1      -1.239  -4.627  -0.878  1.00  0.00     0.187 HD
HETATM    4  N3  UNL     1      -1.725  -2.641  -0.768  1.00  0.00    -0.302 N 
ATOM      5  H3  UNL     1      -2.671  -2.677  -1.148  1.00  0.00     0.186 HD
HETATM    6  C4  UNL     1      -1.121  -1.486  -0.353  1.00  0.00     0.052 A 
HETATM    7  C19 UNL     1       0.110  -1.928   0.064  1.00  0.00     0.090 A 
ENDROOT
BRANCH   6   8
HETATM    8  C5  UNL     1      -1.772  -0.174  -0.386  1.00  0.00     0.006 C 
HETATM    9  C6  UNL     1      -1.009   0.866  -1.178  1.00  0.00     0.020 C 
HETATM   10  C7  UNL     1      -1.878   2.110  -1.271  1.00  0.00    -0.013 C 
HETATM   11  C8  UNL     1      -3.089   1.848  -2.144  1.00  0.00     0.011 C 
HETATM   12  C17 UNL     1      -2.316   2.615   0.076  1.00  0.00     0.011 C 
HETATM   13  C9  UNL     1      -3.890   0.780  -1.403  1.00  0.00     0.010 C 
HETATM   14  C10 UNL     1      -3.037  -0.404  -1.271  1.00  0.00     0.022 C 
HETATM   15  C11 UNL     1      -4.348   1.344  -0.082  1.00  0.00     0.087 C 
HETATM   16  C16 UNL     1      -3.177   1.540   0.785  1.00  0.00     0.010 C 
HETATM   17  C18 UNL     1      -2.218   0.374   0.917  1.00  0.00     0.022 C 
BRANCH  15  18
HETATM   18  N4  UNL     1      -5.503   0.735   0.371  1.00  0.00    -0.406 N 
HETATM   19  C12 UNL     1      -5.605  -0.615   0.704  1.00  0.00     0.127 C 
HETATM   20  C13 UNL     1      -6.778  -0.913   1.654  1.00  0.00     0.093 C 
HETATM   21  S1  UNL     1      -7.146   0.704   2.450  1.00  0.00    -0.166 SA
HETATM   22  C14 UNL     1      -7.628   1.782   1.039  1.00  0.00     0.093 C 
HETATM   23  C15 UNL     1      -6.714   1.361  -0.097  1.00  0.00     0.127 C 
ENDBRANCH  15  18
ENDBRANCH   6   8
BRANCH   7  24
HETATM   24  C20 UNL     1       1.227  -1.088   0.503  1.00  0.00     0.259 C 
HETATM   25  O2  UNL     1       1.048  -0.359   1.480  1.00  0.00    -0.267 OA
HETATM   26  N5  UNL     1       2.470  -1.107  -0.168  1.00  0.00    -0.336 N 
ATOM     27  H5  UNL     1       2.482  -1.752  -0.958  1.00  0.00     0.168 HD
BRANCH  26  28
HETATM   28  C21 UNL     1       3.685  -0.444   0.004  1.00  0.00     0.070 C 
BRANCH  28  29
HETATM   29  C22 UNL     1       3.720   1.006  -0.183  1.00  0.00     0.051 C 
HETATM   30  C23 UNL     1       2.924   1.893   0.685  1.00  0.00     0.017 C 
BRANCH  29  31
HETATM   31  C24 UNL     1       5.178   1.485  -0.111  1.00  0.00     0.194 C 
HETATM   32  C25 UNL     1       5.802   1.155   1.218  1.00  0.00     0.034 C 
HETATM   33  C26 UNL     1       7.104   1.964   1.290  1.00  0.00     0.004 C 
HETATM   34  C27 UNL     1       7.967   1.687   0.098  1.00  0.00     0.027 C 
HETATM   35  C28 UNL     1       7.215   1.742  -1.207  1.00  0.00     0.232 C 
HETATM   36  N6  UNL     1       5.992   0.956  -1.159  1.00  0.00    -0.070 N 
ATOM     37  H62 UNL     1       6.167  -0.044  -1.059  1.00  0.00     0.277 HD
ATOM     38  H61 UNL     1       5.509   0.919  -2.056  1.00  0.00     0.277 HD
ENDBRANCH  29  31
ENDBRANCH  28  29
ENDBRANCH  26  28
ENDBRANCH   7  24
BRANCH   1  39
HETATM   39  C2  UNL     1       1.315  -4.209   0.225  1.00  0.00     0.270 C 
HETATM   40  N1  UNL     1       1.177  -5.572  -0.186  1.00  0.00    -0.360 N 
HETATM   41  C1  UNL     1       2.223  -6.550   0.094  1.00  0.00     0.149 C 
ATOM     42  H1  UNL     1       0.335  -5.865  -0.682  1.00  0.00     0.162 HD
HETATM   43  O1  UNL     1       2.346  -3.878   0.826  1.00  0.00    -0.266 OA
ENDBRANCH   1  39
TORSDOF 7
