REMARK  10 active torsions:
REMARK  status: ('A' for Active; 'I' for Inactive)
REMARK    1  A    between atoms: C2_2  and  C3_3 
REMARK    2  A    between atoms: C12_15  and  C13_16 
REMARK    3  A    between atoms: C13_16  and  C15_18 
REMARK    4  A    between atoms: C16_20  and  C17_21 
REMARK    5  A    between atoms: C17_21  and  C18_22 
REMARK    6  A    between atoms: C17_21  and  C21_25 
REMARK    7  A    between atoms: C25_29  and  O3_30 
REMARK    8  A    between atoms: C26_32  and  C27_33 
REMARK    9  A    between atoms: C27_33  and  O4_34 
REMARK   10  A    between atoms: C28_36  and  O5_37 
ROOT
HETATM    1  C3  UNL     1       4.877   2.231   1.257  1.00  0.00     0.177 C 
HETATM    2  N1  UNL     1       3.499   2.514   1.603  1.00  0.00    -0.346 N 
ATOM      3  H1  UNL     1       3.274   3.194   2.329  1.00  0.00     0.163 HD
HETATM    4  C4  UNL     1       2.467   1.825   0.911  1.00  0.00     0.228 C 
HETATM    5  O1  UNL     1       1.356   2.399   0.800  1.00  0.00    -0.273 OA
HETATM    6  C5  UNL     1       2.724   0.436   0.331  1.00  0.00     0.056 C 
HETATM    7  C6  UNL     1       3.372  -0.331   1.507  1.00  0.00     0.027 C 
HETATM    8  C7  UNL     1       2.305  -1.407   1.787  1.00  0.00     0.017 C 
HETATM    9  C8  UNL     1       1.127  -0.545   1.512  1.00  0.00     0.014 C 
HETATM   10  C9  UNL     1       1.449  -0.136   0.058  1.00  0.00     0.018 C 
HETATM   11  C10 UNL     1       1.157  -1.249  -0.830  1.00  0.00    -0.001 C 
HETATM   12  C11 UNL     1       1.759  -1.083  -2.240  1.00  0.00     0.021 C 
HETATM   13  C12 UNL     1      -0.319  -1.475  -1.152  1.00  0.00    -0.060 C 
HETATM   14  C24 UNL     1      -0.893  -2.486  -0.239  1.00  0.00     0.068 C 
HETATM   15  C25 UNL     1       0.302  -3.358   0.085  1.00  0.00     0.136 C 
HETATM   16  C26 UNL     1       1.548  -2.622  -0.302  1.00  0.00     0.045 C 
HETATM   17  C28 UNL     1       2.550  -2.501   0.823  1.00  0.00     0.136 C 
HETATM   18  C29 UNL     1       3.841   0.703  -0.581  1.00  0.00     0.072 C 
HETATM   19  C30 UNL     1       3.625   1.894  -1.507  1.00  0.00     0.019 C 
HETATM   20  C31 UNL     1       5.006   1.128   0.276  1.00  0.00     0.158 C 
HETATM   21  O6  UNL     1       6.113   0.601   0.220  1.00  0.00    -0.295 OA
ENDROOT
BRANCH  13  22
HETATM   22  C13 UNL     1      -1.100  -0.360  -1.622  1.00  0.00    -0.033 C 
HETATM   23  C14 UNL     1      -1.247  -0.137  -2.927  1.00  0.00     0.022 C 
BRANCH  22  24
HETATM   24  C15 UNL     1      -1.898   0.609  -0.828  1.00  0.00     0.184 A 
HETATM   25  O2  UNL     1      -2.101   0.505   0.525  1.00  0.00    -0.370 OA
HETATM   26  C16 UNL     1      -3.134   0.044  -0.222  1.00  0.00     0.160 A 
BRANCH  26  27
HETATM   27  C17 UNL     1      -4.454   0.784  -0.337  1.00  0.00     0.024 C 
BRANCH  27  28
HETATM   28  C18 UNL     1      -4.450   2.129   0.255  1.00  0.00    -0.016 C 
HETATM   29  C19 UNL     1      -4.173   2.290   1.696  1.00  0.00     0.010 C 
HETATM   30  C20 UNL     1      -5.638   2.944  -0.253  1.00  0.00     0.010 C 
ENDBRANCH  27  28
BRANCH  27  31
HETATM   31  C21 UNL     1      -5.531  -0.166   0.052  1.00  0.00    -0.016 C 
HETATM   32  C22 UNL     1      -5.424  -0.708   1.455  1.00  0.00     0.010 C 
HETATM   33  C23 UNL     1      -6.931   0.228  -0.260  1.00  0.00     0.010 C 
ENDBRANCH  27  31
ENDBRANCH  26  27
ENDBRANCH  22  24
ENDBRANCH  13  22
BRANCH  16  34
HETATM   34  C27 UNL     1       2.239  -3.486  -1.347  1.00  0.00     0.179 C 
BRANCH  34  35
HETATM   35  O4  UNL     1       2.503  -4.709  -0.668  1.00  0.00    -0.400 OA
ATOM     36  H4  UNL     1       2.934  -5.248  -1.320  1.00  0.00     0.209 HD
ENDBRANCH  34  35
ENDBRANCH  16  34
BRANCH  15  37
HETATM   37  O3  UNL     1       0.222  -3.690   1.436  1.00  0.00    -0.394 OA
ATOM     38  H3  UNL     1       0.972  -4.237   1.639  1.00  0.00     0.210 HD
ENDBRANCH  15  37
BRANCH  17  39
HETATM   39  O5  UNL     1       2.596  -3.709   1.550  1.00  0.00    -0.394 OA
ATOM     40  H5  UNL     1       2.753  -4.412   0.931  1.00  0.00     0.210 HD
ENDBRANCH  17  39
BRANCH   1  41
HETATM   41  C2  UNL     1       5.597   3.427   0.753  1.00  0.00    -0.005 C 
HETATM   42  C1  UNL     1       5.252   4.666   1.053  1.00  0.00     0.009 C 
ENDBRANCH   1  41
TORSDOF 10
