REMARK  8 active torsions:
REMARK  status: ('A' for Active; 'I' for Inactive)
REMARK    1  A    between atoms: C4_4  and  N1_5 
REMARK    2  A    between atoms: N1_5  and  C5_7 
REMARK    3  A    between atoms: C14_16  and  N2_17 
REMARK       I    between atoms: N2_17  and  C15_19 
REMARK    4  A    between atoms: C15_19  and  C16_21 
REMARK    5  A    between atoms: C16_21  and  C17_22 
REMARK    6  A    between atoms: C17_22  and  C18_23 
REMARK    7  A    between atoms: C18_23  and  C19_24 
REMARK       I    between atoms: C19_24  and  N3_26 
REMARK    8  A    between atoms: N3_26  and  C20_27 
ROOT
HETATM    1  C5  UNL     1      -3.670  -0.478   1.014  1.00  0.00     0.081 C 
HETATM    2  C6  UNL     1      -3.615   0.540   2.034  1.00  0.00     0.026 C 
HETATM    3  C7  UNL     1      -3.074   1.834   1.563  1.00  0.00     0.012 C 
HETATM    4  C8  UNL     1      -1.767   1.762   0.877  1.00  0.00    -0.036 C 
HETATM    5  C9  UNL     1      -1.451   3.068   0.252  1.00  0.00     0.016 C 
HETATM    6  C10 UNL     1      -0.660   1.475   1.889  1.00  0.00     0.037 C 
HETATM    7  C11 UNL     1       0.631   1.549   1.150  1.00  0.00    -0.022 C 
HETATM    8  C12 UNL     1       0.754   1.094  -0.041  1.00  0.00    -0.073 C 
HETATM    9  C13 UNL     1       2.024   1.178  -0.796  1.00  0.00     0.059 C 
HETATM   10  C14 UNL     1       2.416  -0.154  -1.347  1.00  0.00     0.088 C 
HETATM   11  C21 UNL     1       1.392  -1.208  -1.355  1.00  0.00     0.026 C 
HETATM   12  C22 UNL     1       0.008  -0.942  -0.929  1.00  0.00     0.016 C 
HETATM   13  C23 UNL     1      -0.411   0.503  -0.787  1.00  0.00    -0.016 C 
HETATM   14  C24 UNL     1      -0.471   1.034  -2.222  1.00  0.00     0.020 C 
HETATM   15  C25 UNL     1      -1.727   0.649  -0.153  1.00  0.00     0.008 C 
HETATM   16  C26 UNL     1      -2.230  -0.634   0.458  1.00  0.00     0.031 C 
ENDROOT
BRANCH  10  17
HETATM   17  N2  UNL     1       3.468  -0.702  -0.390  1.00  0.00    -0.356 N 
HETATM   18  C15 UNL     1       4.737  -1.136  -0.903  1.00  0.00     0.217 C 
HETATM   19  O1  UNL     1       5.098  -1.111  -1.996  1.00  0.00    -0.274 OA
ATOM     20  H2  UNL     1       3.272  -0.760   0.609  1.00  0.00     0.162 HD
BRANCH  18  21
HETATM   21  C16 UNL     1       5.565  -1.702   0.270  1.00  0.00     0.103 C 
BRANCH  21  22
HETATM   22  C17 UNL     1       6.555  -2.683  -0.393  1.00  0.00     0.019 C 
BRANCH  22  23
HETATM   23  C18 UNL     1       7.551  -3.267   0.563  1.00  0.00     0.120 C 
BRANCH  23  24
HETATM   24  C19 UNL     1       8.221  -1.978   1.191  1.00  0.00     0.294 C 
HETATM   25  O2  UNL     1       7.751  -1.717   2.358  1.00  0.00    -0.257 OA
HETATM   26  N3  UNL     1       9.115  -1.321   0.573  1.00  0.00    -0.332 NA
BRANCH  26  27
HETATM   27  C20 UNL     1       9.984  -0.654  -0.062  1.00  0.00     0.294 A 
HETATM   28  N4  UNL     1      11.328  -0.732   0.263  1.00  0.00    -0.242 N 
HETATM   29  N5  UNL     1      11.870   0.361  -0.227  1.00  0.00    -0.225 N 
ATOM     30  H4  UNL     1      11.798  -1.479   0.774  1.00  0.00     0.192 HD
HETATM   31  N6  UNL     1      11.007   1.099  -0.826  1.00  0.00    -0.225 N 
ATOM     32  H5  UNL     1      12.859   0.595  -0.141  1.00  0.00     0.210 HD
HETATM   33  N7  UNL     1       9.824   0.504  -0.763  1.00  0.00    -0.242 N 
ATOM     34  H6  UNL     1      11.200   1.994  -1.276  1.00  0.00     0.210 HD
ATOM     35  H7  UNL     1       8.953   0.850  -1.166  1.00  0.00     0.192 HD
ENDBRANCH  26  27
ENDBRANCH  23  24
ENDBRANCH  22  23
ENDBRANCH  21  22
ENDBRANCH  18  21
ENDBRANCH  10  17
BRANCH   1  36
HETATM   36  N1  UNL     1      -4.573  -0.551  -0.051  1.00  0.00    -0.392 N 
ATOM     37  H1  UNL     1      -4.223  -0.550  -1.009  1.00  0.00     0.159 HD
BRANCH  36  38
HETATM   38  C4  UNL     1      -5.947  -0.625   0.181  1.00  0.00    -0.013 C 
HETATM   39  C3  UNL     1      -6.700   0.584   0.619  1.00  0.00     0.083 C 
HETATM   40  C2  UNL     1      -7.606   1.142  -0.476  1.00  0.00     0.122 C 
HETATM   41  C1  UNL     1      -9.052   0.865  -0.171  1.00  0.00     0.040 C 
HETATM   42  O3  UNL     1      -7.197   0.818  -1.754  1.00  0.00    -0.386 OA
HETATM   43  C28 UNL     1      -7.124  -0.513  -2.030  1.00  0.00     0.173 C 
HETATM   44  C27 UNL     1      -6.744  -1.363  -0.870  1.00  0.00     0.078 C 
ENDBRANCH  36  38
ENDBRANCH   1  36
TORSDOF 8
