REMARK  11 active torsions:
REMARK  status: ('A' for Active; 'I' for Inactive)
REMARK    1  A    between atoms: C2_2  and  N1_3 
REMARK    2  A    between atoms: N1_3  and  C4_6 
REMARK    3  A    between atoms: C4_6  and  C5_7 
REMARK    4  A    between atoms: C5_7  and  N2_8 
REMARK       I    between atoms: N2_8  and  C6_10 
REMARK    5  A    between atoms: C6_10  and  C7_12 
REMARK    6  A    between atoms: C7_12  and  C8_13 
REMARK    7  A    between atoms: C8_13  and  O3_14 
REMARK    8  A    between atoms: O3_14  and  C9_15 
REMARK    9  A    between atoms: C13_19  and  O4_20 
REMARK   10  A    between atoms: C21_29  and  O5_30 
REMARK   11  A    between atoms: C28_38  and  O6_39 
ROOT
HETATM    1  C9  UNL     1      -0.072  -1.168   0.438  1.00  0.00     0.064 C 
HETATM    2  C10 UNL     1       0.418  -1.784   1.676  1.00  0.00     0.046 C 
HETATM    3  C11 UNL     1       0.110  -1.995  -0.813  1.00  0.00     0.041 C 
HETATM    4  C12 UNL     1      -1.170  -2.496  -1.407  1.00  0.00     0.035 C 
HETATM    5  C13 UNL     1      -2.111  -2.792  -0.261  1.00  0.00     0.127 C 
HETATM    6  C14 UNL     1      -2.576  -1.592   0.480  1.00  0.00    -0.005 C 
HETATM    7  C15 UNL     1      -2.809  -2.052   1.938  1.00  0.00     0.019 C 
HETATM    8  C16 UNL     1      -3.876  -0.989   0.079  1.00  0.00     0.005 C 
HETATM    9  C17 UNL     1      -4.983  -1.982  -0.158  1.00  0.00     0.033 C 
HETATM   10  C18 UNL     1      -6.273  -1.253  -0.020  1.00  0.00    -0.023 C 
HETATM   11  C19 UNL     1      -6.300   0.019  -0.363  1.00  0.00    -0.072 C 
HETATM   12  C20 UNL     1      -7.604   0.727  -0.216  1.00  0.00     0.066 C 
HETATM   13  C21 UNL     1      -7.414   2.115   0.343  1.00  0.00     0.122 C 
HETATM   14  C22 UNL     1      -6.085   2.142   1.055  1.00  0.00     0.033 C 
HETATM   15  C23 UNL     1      -4.923   1.920   0.123  1.00  0.00     0.016 C 
HETATM   16  C24 UNL     1      -5.160   0.812  -0.878  1.00  0.00    -0.017 C 
HETATM   17  C25 UNL     1      -5.440   1.417  -2.239  1.00  0.00     0.020 C 
HETATM   18  C26 UNL     1      -3.905  -0.055  -1.060  1.00  0.00     0.005 C 
HETATM   19  C27 UNL     1      -2.746   0.848  -1.226  1.00  0.00     0.038 C 
HETATM   20  C28 UNL     1      -1.492   0.455  -0.586  1.00  0.00     0.126 C 
HETATM   21  C29 UNL     1      -1.482  -0.577   0.489  1.00  0.00     0.059 C 
ENDROOT
BRANCH   1  22
HETATM   22  O3  UNL     1       0.773  -0.040   0.249  1.00  0.00    -0.380 OA
BRANCH  22  23
HETATM   23  C8  UNL     1       2.089  -0.380   0.129  1.00  0.00     0.178 C 
BRANCH  23  24
HETATM   24  C7  UNL     1       2.932   0.886  -0.082  1.00  0.00     0.129 C 
BRANCH  24  25
HETATM   25  C6  UNL     1       4.376   0.474  -0.211  1.00  0.00     0.219 C 
HETATM   26  N2  UNL     1       5.347   1.476  -0.412  1.00  0.00    -0.359 N 
ATOM     27  H2  UNL     1       5.035   2.446  -0.467  1.00  0.00     0.162 HD
HETATM   28  O2  UNL     1       4.703  -0.732  -0.140  1.00  0.00    -0.274 OA
BRANCH  26  29
HETATM   29  C5  UNL     1       6.760   1.204  -0.545  1.00  0.00     0.159 C 
BRANCH  29  30
HETATM   30  C4  UNL     1       7.304   0.551   0.696  1.00  0.00     0.331 C 
BRANCH  30  31
HETATM   31  N1  UNL     1       8.736   0.310   0.482  1.00  0.00     0.011 N 
HETATM   32  C3  UNL     1       9.324   0.097   1.789  1.00  0.00     0.356 C 
HETATM   33  O1  UNL     1       8.831  -0.840  -0.223  1.00  0.00    -0.065 OA
BRANCH  31  34
HETATM   34  C2  UNL     1       9.343   1.428  -0.190  1.00  0.00     0.307 C 
HETATM   35  C1  UNL     1      10.858   1.367  -0.011  1.00  0.00     0.043 C 
ENDBRANCH  31  34
ENDBRANCH  30  31
ENDBRANCH  29  30
ENDBRANCH  26  29
ENDBRANCH  24  25
ENDBRANCH  23  24
ENDBRANCH  22  23
ENDBRANCH   1  22
BRANCH  20  36
HETATM   36  O6  UNL     1      -0.891   1.621  -0.031  1.00  0.00    -0.395 OA
ATOM     37  H6  UNL     1      -0.076   1.366   0.385  1.00  0.00     0.210 HD
ENDBRANCH  20  36
BRANCH   5  38
HETATM   38  O4  UNL     1      -3.055  -3.682  -0.688  1.00  0.00    -0.395 OA
ATOM     39  H4  UNL     1      -3.646  -3.868   0.032  1.00  0.00     0.210 HD
ENDBRANCH   5  38
BRANCH  13  40
HETATM   40  O5  UNL     1      -8.398   2.415   1.285  1.00  0.00    -0.395 OA
ATOM     41  H5  UNL     1      -8.278   3.289   1.637  1.00  0.00     0.210 HD
ENDBRANCH  13  40
TORSDOF 11
