REMARK  11 active torsions:
REMARK  status: ('A' for Active; 'I' for Inactive)
REMARK    1  A    between atoms: C2_2  and  N1_3 
REMARK    2  A    between atoms: N1_3  and  C3_4 
REMARK    3  A    between atoms: N1_3  and  C26_38 
REMARK    4  A    between atoms: C5_6  and  C6_7 
REMARK    5  A    between atoms: C7_8  and  C8_9 
REMARK    6  A    between atoms: C8_9  and  N2_11 
REMARK    7  A    between atoms: C13_15  and  C14_16 
REMARK    8  A    between atoms: C14_16  and  O1_17 
REMARK    9  A    between atoms: C14_16  and  C15_19 
REMARK   10  A    between atoms: C15_19  and  O2_20 
REMARK   11  A    between atoms: N5_30  and  C20_32 
ROOT
HETATM    1  C3  UNL     1      -1.591  -0.405   0.026  1.00  0.00     0.076 C 
HETATM    2  C4  UNL     1      -0.292  -0.811   0.410  1.00  0.00     0.055 C 
HETATM    3  C5  UNL     1       0.671  -0.197   1.158  1.00  0.00     0.046 C 
HETATM    4  C16 UNL     1       0.445   0.835   2.065  1.00  0.00     0.131 C 
HETATM    5  C17 UNL     1       1.485   1.097   3.017  1.00  0.00     0.106 C 
HETATM    6  N3  UNL     1       2.313   1.288   3.786  1.00  0.00    -0.191 NA
HETATM    7  C18 UNL     1      -0.683   1.626   2.133  1.00  0.00     0.269 C 
HETATM    8  O3  UNL     1      -0.665   2.503   3.053  1.00  0.00    -0.266 OA
HETATM    9  N4  UNL     1      -1.810   1.639   1.396  1.00  0.00    -0.307 N 
ATOM     10  H4  UNL     1      -2.519   2.326   1.653  1.00  0.00     0.170 HD
HETATM   11  C19 UNL     1      -2.099   0.823   0.338  1.00  0.00     0.131 C 
HETATM   12  N5  UNL     1      -2.962   1.266  -0.461  1.00  0.00    -0.370 N 
ATOM     13  H5  UNL     1      -3.186   0.660  -1.251  1.00  0.00     0.161 HD
ENDROOT
BRANCH   3  14
HETATM   14  C6  UNL     1       2.034  -0.621   1.023  1.00  0.00    -0.063 C 
HETATM   15  C7  UNL     1       3.172  -0.980   0.887  1.00  0.00    -0.065 C 
BRANCH  15  16
HETATM   16  C8  UNL     1       4.556  -1.420   0.693  1.00  0.00     0.298 C 
HETATM   17  C9  UNL     1       4.519  -2.549  -0.347  1.00  0.00     0.057 C 
BRANCH  16  18
HETATM   18  N2  UNL     1       5.395  -0.400   0.155  1.00  0.00     0.111 N 
HETATM   19  C10 UNL     1       5.019   0.058  -1.141  1.00  0.00     0.275 C 
HETATM   20  C11 UNL     1       5.252   1.538  -1.159  1.00  0.00     0.033 C 
HETATM   21  C12 UNL     1       5.038   1.934   0.289  1.00  0.00     0.040 C 
HETATM   22  C13 UNL     1       5.623   0.726   1.006  1.00  0.00     0.255 C 
BRANCH  22  23
HETATM   23  C14 UNL     1       7.089   1.024   1.210  1.00  0.00     0.175 C 
BRANCH  23  24
HETATM   24  O1  UNL     1       7.205   2.129   2.050  1.00  0.00    -0.391 OA
ATOM     25  H1  UNL     1       8.127   2.317   2.178  1.00  0.00     0.210 HD
ENDBRANCH  23  24
BRANCH  23  26
HETATM   26  C15 UNL     1       7.855  -0.110   1.805  1.00  0.00     0.198 C 
BRANCH  26  27
HETATM   27  O2  UNL     1       7.789  -1.258   1.019  1.00  0.00    -0.398 OA
ATOM     28  H2  UNL     1       8.277  -1.980   1.398  1.00  0.00     0.209 HD
ENDBRANCH  26  27
ENDBRANCH  23  26
ENDBRANCH  22  23
ENDBRANCH  16  18
ENDBRANCH  15  16
ENDBRANCH   3  14
BRANCH   1  29
HETATM   29  N1  UNL     1      -2.321  -1.369  -0.707  1.00  0.00    -0.373 N 
BRANCH  29  30
HETATM   30  C2  UNL     1      -2.672  -1.121  -2.076  1.00  0.00     0.119 C 
HETATM   31  C1  UNL     1      -4.120  -1.025  -2.393  1.00  0.00     0.026 C 
ENDBRANCH  29  30
BRANCH  29  32
HETATM   32  C26 UNL     1      -2.640  -2.612  -0.046  1.00  0.00     0.084 C 
HETATM   33  C27 UNL     1      -1.988  -3.802  -0.711  1.00  0.00     0.025 C 
HETATM   34  C28 UNL     1      -2.909  -4.919  -1.018  1.00  0.00     0.002 C 
HETATM   35  C29 UNL     1      -3.953  -5.259  -0.027  1.00  0.00     0.000 C 
HETATM   36  C30 UNL     1      -4.251  -4.177   0.954  1.00  0.00     0.002 C 
HETATM   37  C31 UNL     1      -4.119  -2.852   0.171  1.00  0.00     0.025 C 
ENDBRANCH  29  32
ENDBRANCH   1  29
BRANCH  12  38
HETATM   38  C20 UNL     1      -3.666   2.495  -0.411  1.00  0.00     0.083 C 
HETATM   39  C21 UNL     1      -2.788   3.708  -0.619  1.00  0.00     0.025 C 
HETATM   40  C22 UNL     1      -3.506   4.866   0.043  1.00  0.00     0.002 C 
HETATM   41  C23 UNL     1      -4.842   5.028  -0.649  1.00  0.00     0.000 C 
HETATM   42  C24 UNL     1      -5.047   4.068  -1.780  1.00  0.00     0.002 C 
HETATM   43  C25 UNL     1      -4.797   2.625  -1.417  1.00  0.00     0.025 C 
ENDBRANCH  12  38
TORSDOF 11
