REMARK  10 active torsions:
REMARK  status: ('A' for Active; 'I' for Inactive)
REMARK    1  A    between atoms: C8_8  and  O1_9 
REMARK    2  A    between atoms: C10_12  and  C11_13 
REMARK    3  A    between atoms: C11_13  and  C12_14 
REMARK    4  A    between atoms: C12_14  and  C13_15 
REMARK    5  A    between atoms: C13_15  and  O2_16 
REMARK    6  A    between atoms: C13_15  and  C14_18 
REMARK    7  A    between atoms: C15_19  and  C16_20 
REMARK    8  A    between atoms: N1_23  and  C19_24 
REMARK    9  A    between atoms: C19_24  and  C20_25 
REMARK   10  A    between atoms: C31_39  and  O6_40 
ROOT
HETATM    1  C1  UNL     1      -6.795   1.101   0.727  1.00  0.00     0.018 C 
HETATM    2  C2  UNL     1      -5.434   1.277   1.412  1.00  0.00    -0.014 C 
HETATM    3  C3  UNL     1      -4.752   2.420   0.747  1.00  0.00     0.012 C 
HETATM    4  C4  UNL     1      -4.287   1.948  -0.640  1.00  0.00     0.007 C 
HETATM    5  C5  UNL     1      -3.231   0.939  -0.378  1.00  0.00    -0.001 C 
HETATM    6  C6  UNL     1      -3.768  -0.271   0.323  1.00  0.00    -0.003 C 
HETATM    7  C7  UNL     1      -2.659  -1.185   0.753  1.00  0.00     0.038 C 
HETATM    8  C8  UNL     1      -1.613  -1.444  -0.258  1.00  0.00     0.127 C 
HETATM    9  C9  UNL     1      -1.296  -0.279  -1.122  1.00  0.00     0.052 C 
HETATM   10  C10 UNL     1      -0.318  -0.600  -2.195  1.00  0.00    -0.069 C 
HETATM   11  C23 UNL     1      -0.447   0.007  -3.355  1.00  0.00     0.053 C 
HETATM   12  C24 UNL     1      -1.479   0.982  -3.689  1.00  0.00     0.150 C 
HETATM   13  O5  UNL     1      -1.804   1.246  -4.868  1.00  0.00    -0.293 OA
HETATM   14  C25 UNL     1      -2.109   1.635  -2.497  1.00  0.00     0.093 C 
HETATM   15  C26 UNL     1      -2.512   0.440  -1.610  1.00  0.00    -0.024 C 
HETATM   16  C27 UNL     1      -3.449  -0.376  -2.425  1.00  0.00     0.016 C 
HETATM   17  C28 UNL     1      -4.667   0.009   1.469  1.00  0.00     0.001 C 
HETATM   18  C29 UNL     1      -3.981   0.022   2.817  1.00  0.00     0.008 C 
HETATM   19  C30 UNL     1      -5.133   0.523   3.700  1.00  0.00     0.033 C 
HETATM   20  C31 UNL     1      -5.696   1.652   2.857  1.00  0.00     0.126 C 
ENDROOT
BRANCH  10  21
HETATM   21  C11 UNL     1       0.752  -1.571  -1.955  1.00  0.00     0.037 C 
BRANCH  21  22
HETATM   22  C12 UNL     1       1.669  -1.822  -3.096  1.00  0.00     0.040 C 
BRANCH  22  23
HETATM   23  C13 UNL     1       2.712  -2.846  -2.689  1.00  0.00     0.141 C 
BRANCH  23  24
HETATM   24  O2  UNL     1       3.590  -3.103  -3.748  1.00  0.00    -0.392 OA
ATOM     25  H2  UNL     1       4.243  -3.744  -3.493  1.00  0.00     0.210 HD
ENDBRANCH  23  24
BRANCH  23  26
HETATM   26  C14 UNL     1       3.527  -2.326  -1.537  1.00  0.00     0.001 C 
HETATM   27  C15 UNL     1       4.539  -1.490  -1.720  1.00  0.00    -0.023 C 
BRANCH  27  28
HETATM   28  C16 UNL     1       5.370  -0.949  -0.641  1.00  0.00     0.014 C 
HETATM   29  C17 UNL     1       5.309   0.560  -0.553  1.00  0.00     0.052 C 
HETATM   30  C18 UNL     1       6.272   1.058   0.451  1.00  0.00     0.059 C 
HETATM   31  N1  UNL     1       6.463   0.308   1.611  1.00  0.00    -0.383 N 
HETATM   32  C21 UNL     1       5.958  -1.008   1.716  1.00  0.00     0.123 C 
HETATM   33  C22 UNL     1       4.951  -1.447   0.724  1.00  0.00     0.028 C 
BRANCH  31  34
HETATM   34  C19 UNL     1       7.565   0.624   2.432  1.00  0.00     0.234 C 
BRANCH  34  35
HETATM   35  C20 UNL     1       7.524   1.905   3.138  1.00  0.00     0.191 C 
HETATM   36  O3  UNL     1       6.523   2.657   3.017  1.00  0.00    -0.647 OA
HETATM   37  O4  UNL     1       8.582   2.305   3.945  1.00  0.00    -0.647 OA
ENDBRANCH  34  35
ENDBRANCH  31  34
ENDBRANCH  27  28
ENDBRANCH  23  26
ENDBRANCH  22  23
ENDBRANCH  21  22
ENDBRANCH  10  21
BRANCH   8  38
HETATM   38  O1  UNL     1      -0.459  -1.785   0.504  1.00  0.00    -0.395 OA
ATOM     39  H1  UNL     1       0.214  -1.952  -0.146  1.00  0.00     0.210 HD
ENDBRANCH   8  38
BRANCH  20  40
HETATM   40  O6  UNL     1      -5.029   2.813   3.220  1.00  0.00    -0.395 OA
ATOM     41  H6  UNL     1      -5.193   3.048   4.126  1.00  0.00     0.210 HD
ENDBRANCH  20  40
TORSDOF 10
