REMARK  10 active torsions:
REMARK  status: ('A' for Active; 'I' for Inactive)
REMARK    1  A    between atoms: C2_2  and  C3_3 
REMARK    2  A    between atoms: C3_3  and  C5_5 
REMARK    3  A    between atoms: C5_5  and  N1_6 
REMARK    4  A    between atoms: C5_5  and  C12_14 
REMARK    5  A    between atoms: C12_14  and  O1_15 
REMARK    6  A    between atoms: C12_14  and  C13_17 
REMARK    7  A    between atoms: C13_17  and  C14_18 
REMARK    8  A    between atoms: C18_22  and  C19_23 
REMARK    9  A    between atoms: C23_32  and  C24_33 
REMARK   10  A    between atoms: C24_33  and  C25_34 
ROOT
HETATM    1  C14 UNL     1      -0.691   0.404  -0.185  1.00  0.00     0.080 C 
HETATM    2  C15 UNL     1      -0.307   1.846  -0.341  1.00  0.00     0.014 C 
HETATM    3  C16 UNL     1      -1.044   2.691   0.708  1.00  0.00     0.003 C 
HETATM    4  C17 UNL     1      -1.973   3.665   0.009  1.00  0.00     0.034 C 
HETATM    5  C18 UNL     1      -3.106   4.087   0.865  1.00  0.00     0.174 C 
HETATM    6  N3  UNL     1      -4.144   3.132   1.134  1.00  0.00    -0.344 N 
ATOM      7  H3  UNL     1      -4.989   3.539   1.535  1.00  0.00     0.163 HD
HETATM    8  C20 UNL     1      -4.211   1.754   0.949  1.00  0.00     0.246 C 
HETATM    9  O3  UNL     1      -4.219   1.036   2.018  1.00  0.00    -0.268 OA
HETATM   10  C21 UNL     1      -4.278   0.939  -0.292  1.00  0.00     0.007 C 
HETATM   11  C22 UNL     1      -5.559   1.177  -1.075  1.00  0.00     0.051 C 
HETATM   12  C23 UNL     1      -3.832  -0.446  -0.148  1.00  0.00     0.134 C 
HETATM   13  N5  UNL     1      -2.791  -0.705  -1.177  1.00  0.00    -0.351 N 
ATOM     14  H5  UNL     1      -2.970  -1.455  -1.845  1.00  0.00     0.163 HD
HETATM   15  C30 UNL     1      -1.597  -0.011  -1.304  1.00  0.00     0.222 C 
HETATM   16  O4  UNL     1      -1.188   0.330  -2.466  1.00  0.00    -0.273 OA
ENDROOT
BRANCH   1  17
HETATM   17  C13 UNL     1       0.460  -0.543  -0.029  1.00  0.00     0.052 C 
BRANCH  17  18
HETATM   18  C12 UNL     1       1.427  -0.605  -1.144  1.00  0.00     0.164 C 
BRANCH  18  19
HETATM   19  C5  UNL     1       2.536  -1.609  -0.792  1.00  0.00     0.019 C 
BRANCH  19  20
HETATM   20  C3  UNL     1       2.974  -2.383  -2.002  1.00  0.00     0.029 C 
HETATM   21  C4  UNL     1       3.515  -3.758  -1.562  1.00  0.00     0.016 C 
BRANCH  20  22
HETATM   22  C2  UNL     1       3.926  -1.726  -2.925  1.00  0.00     0.006 C 
HETATM   23  C1  UNL     1       5.299  -1.477  -2.308  1.00  0.00     0.006 C 
ENDBRANCH  20  22
ENDBRANCH  19  20
BRANCH  19  24
HETATM   24  N1  UNL     1       3.471  -1.211   0.092  1.00  0.00    -0.367 N 
HETATM   25  C6  UNL     1       4.058  -0.510   0.842  1.00  0.00    -0.014 C 
HETATM   26  C7  UNL     1       5.296  -1.037   1.554  1.00  0.00     0.052 C 
HETATM   27  C11 UNL     1       3.721   0.890   1.193  1.00  0.00     0.052 C 
HETATM   28  C8  UNL     1       6.417  -0.052   1.298  1.00  0.00     0.006 C 
HETATM   29  C9  UNL     1       6.076   1.338   1.784  1.00  0.00     0.001 C 
HETATM   30  C10 UNL     1       4.662   1.441   2.268  1.00  0.00     0.006 C 
ATOM     31  H1  UNL     1       4.035  -2.059   0.155  1.00  0.00     0.165 HD
ENDBRANCH  19  24
ENDBRANCH  18  19
BRANCH  18  32
HETATM   32  O1  UNL     1       1.974   0.523  -1.626  1.00  0.00    -0.390 OA
ATOM     33  H1  UNL     1       1.288   1.144  -1.844  1.00  0.00     0.210 HD
ENDBRANCH  18  32
ENDBRANCH  17  18
ENDBRANCH   1  17
BRANCH  12  34
HETATM   34  C24 UNL     1      -4.689  -1.618  -0.103  1.00  0.00     0.033 A 
HETATM   35  C28 UNL     1      -6.001  -1.880  -0.659  1.00  0.00     0.020 A 
HETATM   36  C29 UNL     1      -5.926  -1.603   0.799  1.00  0.00     0.020 A 
BRANCH  34  37
HETATM   37  C25 UNL     1      -3.882  -2.903   0.129  1.00  0.00     0.061 A 
HETATM   38  N4  UNL     1      -3.840  -3.982  -0.607  1.00  0.00    -0.362 N 
HETATM   39  C26 UNL     1      -3.094  -4.985  -0.252  1.00  0.00     0.096 A 
ATOM     40  H4  UNL     1      -4.394  -4.037  -1.462  1.00  0.00     0.165 HD
HETATM   41  C27 UNL     1      -2.372  -4.851   0.908  1.00  0.00     0.068 A 
HETATM   42  S1  UNL     1      -2.820  -3.280   1.411  1.00  0.00    -0.086 SA
ENDBRANCH  34  37
ENDBRANCH  12  34
BRANCH   5  43
HETATM   43  C19 UNL     1      -2.510   4.623   2.131  1.00  0.00     0.254 C 
HETATM   44  N2  UNL     1      -1.471   5.570   2.150  1.00  0.00    -0.060 NA
HETATM   45  O2  UNL     1      -2.988   4.183   3.232  1.00  0.00    -0.275 OA
ENDBRANCH   5  43
TORSDOF 10
