REMARK  11 active torsions:
REMARK  status: ('A' for Active; 'I' for Inactive)
REMARK    1  A    between atoms: C2_2  and  C3_3 
REMARK    2  A    between atoms: C3_3  and  C4_4 
REMARK    3  A    between atoms: C4_4  and  C5_5 
REMARK    4  A    between atoms: C6_8  and  O1_9 
REMARK    5  A    between atoms: C7_11  and  C8_12 
REMARK    6  A    between atoms: C8_12  and  C9_13 
REMARK    7  A    between atoms: C13_20  and  C14_21 
REMARK    8  A    between atoms: C14_21  and  C16_23 
REMARK    9  A    between atoms: C23_31  and  O4_32 
REMARK   10  A    between atoms: C24_34  and  C25_35 
REMARK   11  A    between atoms: C25_35  and  N3_36 
ROOT
HETATM    1  C5  UNL     1      -1.677   2.113   0.222  1.00  0.00     0.175 C 
HETATM    2  N1  UNL     1      -1.235   2.272  -1.136  1.00  0.00    -0.359 N 
ATOM      3  H1  UNL     1      -1.991   2.291  -1.820  1.00  0.00     0.162 HD
HETATM    4  C6  UNL     1       0.033   2.405  -1.689  1.00  0.00     0.135 C 
HETATM    5  C7  UNL     1       1.209   3.121  -1.236  1.00  0.00     0.159 C 
HETATM    6  N2  UNL     1       2.153   2.413  -0.414  1.00  0.00    -0.344 N 
ATOM      7  H2  UNL     1       3.124   2.648  -0.619  1.00  0.00     0.163 HD
HETATM    8  C12 UNL     1       2.016   1.480   0.597  1.00  0.00     0.271 C 
HETATM    9  O2  UNL     1       2.310   1.882   1.795  1.00  0.00    -0.266 OA
HETATM   10  C13 UNL     1       1.594   0.068   0.607  1.00  0.00     0.121 C 
HETATM   11  O3  UNL     1       0.901  -0.406  -0.471  1.00  0.00    -0.316 OA
HETATM   12  C23 UNL     1       0.074  -1.394  -0.095  1.00  0.00     0.290 C 
HETATM   13  C24 UNL     1      -1.337  -1.448  -0.544  1.00  0.00     0.178 C 
HETATM   14  N4  UNL     1      -2.243  -0.411  -0.189  1.00  0.00    -0.345 N 
ATOM     15  H4  UNL     1      -3.178  -0.555  -0.571  1.00  0.00     0.163 HD
HETATM   16  C32 UNL     1      -2.142   0.754   0.561  1.00  0.00     0.241 C 
HETATM   17  O5  UNL     1      -2.520   0.659   1.789  1.00  0.00    -0.271 OA
ENDROOT
BRANCH  10  18
HETATM   18  C14 UNL     1       2.623  -0.852   1.193  1.00  0.00     0.048 C 
HETATM   19  C15 UNL     1       2.845  -0.462   2.669  1.00  0.00     0.017 C 
BRANCH  18  20
HETATM   20  C16 UNL     1       3.957  -0.847   0.490  1.00  0.00    -0.004 C 
HETATM   21  C17 UNL     1       4.917  -1.828   1.182  1.00  0.00     0.005 C 
HETATM   22  C18 UNL     1       6.154  -1.938   0.318  1.00  0.00     0.005 C 
HETATM   23  C19 UNL     1       5.827  -2.740  -0.913  1.00  0.00    -0.019 C 
HETATM   24  C20 UNL     1       6.366  -4.148  -0.840  1.00  0.00     0.010 C 
HETATM   25  C21 UNL     1       4.356  -2.676  -1.173  1.00  0.00     0.005 C 
HETATM   26  C22 UNL     1       3.926  -1.221  -0.954  1.00  0.00     0.005 C 
ENDBRANCH  18  20
ENDBRANCH  10  18
BRANCH  12  27
HETATM   27  O4  UNL     1       0.638  -2.605  -0.592  1.00  0.00    -0.368 OA
ATOM     28  H4  UNL     1       0.053  -3.304  -0.326  1.00  0.00     0.212 HD
ENDBRANCH  12  27
BRANCH   5  29
HETATM   29  C8  UNL     1       0.856   4.488  -0.619  1.00  0.00     0.037 C 
BRANCH  29  30
HETATM   30  C9  UNL     1       2.088   5.241  -0.176  1.00  0.00    -0.020 C 
HETATM   31  C10 UNL     1       3.041   5.531  -1.328  1.00  0.00     0.009 C 
HETATM   32  C11 UNL     1       1.629   6.583   0.352  1.00  0.00     0.009 C 
ENDBRANCH  29  30
ENDBRANCH   5  29
BRANCH  13  33
HETATM   33  C25 UNL     1      -1.791  -2.849  -0.166  1.00  0.00     0.088 C 
BRANCH  33  34
HETATM   34  N3  UNL     1      -3.088  -3.254  -0.402  1.00  0.00    -0.391 N 
HETATM   35  C26 UNL     1      -4.171  -2.777   0.373  1.00  0.00     0.122 C 
HETATM   36  C27 UNL     1      -4.845  -3.847   1.209  1.00  0.00     0.020 C 
HETATM   37  C28 UNL     1      -5.596  -4.756   0.269  1.00  0.00     0.002 C 
HETATM   38  C29 UNL     1      -4.546  -5.527  -0.512  1.00  0.00     0.002 C 
HETATM   39  C30 UNL     1      -4.286  -4.863  -1.841  1.00  0.00     0.020 C 
HETATM   40  C31 UNL     1      -3.426  -3.648  -1.737  1.00  0.00     0.122 C 
ENDBRANCH  33  34
ENDBRANCH  13  33
BRANCH   4  41
HETATM   41  O1  UNL     1       0.172   1.766  -2.819  1.00  0.00    -0.348 OA
ATOM     42  H1  UNL     1       1.039   1.857  -3.197  1.00  0.00     0.219 HD
ENDBRANCH   4  41
BRANCH   1  43
HETATM   43  C4  UNL     1      -2.789   3.125   0.404  1.00  0.00     0.035 C 
BRANCH  43  44
HETATM   44  C3  UNL     1      -3.448   3.195   1.721  1.00  0.00     0.002 C 
BRANCH  44  45
HETATM   45  C2  UNL     1      -4.486   4.350   1.622  1.00  0.00    -0.004 C 
HETATM   46  C1  UNL     1      -5.470   4.032   0.534  1.00  0.00     0.005 C 
ENDBRANCH  44  45
ENDBRANCH  43  44
ENDBRANCH   1  43
TORSDOF 11
