REMARK  12 active torsions:
REMARK  status: ('A' for Active; 'I' for Inactive)
REMARK    1  A    between atoms: C2_2  and  C3_3 
REMARK    2  A    between atoms: C12_12  and  O1_13 
REMARK    3  A    between atoms: O1_13  and  C13_14 
REMARK    4  A    between atoms: C16_17  and  C17_18 
REMARK    5  A    between atoms: C17_18  and  N1_19 
REMARK    6  A    between atoms: C18_23  and  O2_24 
REMARK    7  A    between atoms: C26_33  and  N2_34 
REMARK       I    between atoms: N2_34  and  C27_36 
REMARK    8  A    between atoms: C27_36  and  C28_38 
REMARK    9  A    between atoms: C28_38  and  N3_39 
REMARK   10  A    between atoms: N3_39  and  C30_41 
REMARK   11  A    between atoms: C30_41  and  C31_42 
REMARK   12  A    between atoms: C31_42  and  O4_43 
ROOT
HETATM    1  C3  UNL     1       0.345   1.480  -3.004  1.00  0.00     0.025 C 
HETATM    2  C4  UNL     1      -1.087   1.662  -3.158  1.00  0.00    -0.029 C 
HETATM    3  C5  UNL     1      -1.642   1.331  -4.560  1.00  0.00     0.016 C 
HETATM    4  C6  UNL     1      -1.355   3.180  -3.051  1.00  0.00     0.037 C 
HETATM    5  C7  UNL     1      -0.862   3.760  -1.803  1.00  0.00    -0.029 C 
HETATM    6  C8  UNL     1      -0.537   3.259  -0.621  1.00  0.00    -0.025 C 
HETATM    7  C9  UNL     1      -0.636   1.772  -0.306  1.00  0.00     0.021 C 
HETATM    8  C10 UNL     1      -1.905   1.306  -0.799  1.00  0.00     0.001 C 
HETATM    9  C11 UNL     1      -2.586   0.140  -0.083  1.00  0.00     0.037 C 
HETATM   10  C12 UNL     1      -4.116   0.357  -0.288  1.00  0.00     0.122 C 
HETATM   11  C19 UNL     1      -4.387   0.440  -1.737  1.00  0.00     0.032 C 
HETATM   12  C20 UNL     1      -3.512   1.352  -2.566  1.00  0.00     0.008 C 
HETATM   13  C21 UNL     1      -2.049   1.002  -2.243  1.00  0.00    -0.001 C 
HETATM   14  C22 UNL     1       0.641   1.077  -0.561  1.00  0.00    -0.029 C 
HETATM   15  C23 UNL     1       1.694   2.166  -0.242  1.00  0.00     0.016 C 
HETATM   16  C24 UNL     1       0.840   0.035   0.495  1.00  0.00     0.012 C 
HETATM   17  C25 UNL     1       2.243  -0.265   0.849  1.00  0.00     0.026 C 
HETATM   18  C26 UNL     1       3.145  -0.861  -0.144  1.00  0.00     0.084 C 
HETATM   19  C32 UNL     1       3.257  -0.435  -1.515  1.00  0.00     0.026 C 
HETATM   20  C33 UNL     1       2.386   0.485  -2.236  1.00  0.00     0.012 C 
HETATM   21  C34 UNL     1       0.900   0.537  -1.950  1.00  0.00    -0.029 C 
HETATM   22  C35 UNL     1       0.429  -0.850  -2.228  1.00  0.00     0.016 C 
ENDROOT
BRANCH  10  23
HETATM   23  O1  UNL     1      -4.690  -0.729   0.231  1.00  0.00    -0.378 OA
BRANCH  23  24
HETATM   24  C13 UNL     1      -5.334  -0.767   1.413  1.00  0.00     0.151 C 
HETATM   25  C14 UNL     1      -4.653  -1.617   2.462  1.00  0.00     0.035 C 
HETATM   26  C15 UNL     1      -5.730  -2.381   3.194  1.00  0.00     0.011 C 
HETATM   27  C16 UNL     1      -7.006  -1.735   2.783  1.00  0.00     0.042 C 
HETATM   28  C18 UNL     1      -6.764  -1.073   1.452  1.00  0.00     0.152 C 
BRANCH  27  29
HETATM   29  C17 UNL     1      -7.601  -0.821   3.806  1.00  0.00     0.236 C 
BRANCH  29  30
HETATM   30  N1  UNL     1      -6.818   0.283   4.213  1.00  0.00    -0.079 N 
ATOM     31  H13 UNL     1      -5.909  -0.046   4.538  1.00  0.00     0.274 HD
ATOM     32  H12 UNL     1      -6.541   0.824   3.394  1.00  0.00     0.274 HD
ATOM     33  H11 UNL     1      -7.224   0.906   4.911  1.00  0.00     0.274 HD
ENDBRANCH  29  30
ENDBRANCH  27  29
BRANCH  28  34
HETATM   34  O2  UNL     1      -7.225  -1.956   0.485  1.00  0.00    -0.393 OA
ATOM     35  H2  UNL     1      -8.154  -2.155   0.510  1.00  0.00     0.210 HD
ENDBRANCH  28  34
ENDBRANCH  23  24
ENDBRANCH  10  23
BRANCH   1  36
HETATM   36  C2  UNL     1       0.946   1.159  -4.337  1.00  0.00    -0.031 C 
HETATM   37  C1  UNL     1       1.647   2.029  -5.048  1.00  0.00     0.007 C 
ENDBRANCH   1  36
BRANCH  18  38
HETATM   38  N2  UNL     1       4.498  -0.645   0.443  1.00  0.00    -0.355 N 
HETATM   39  C27 UNL     1       5.215  -1.675   1.094  1.00  0.00     0.246 C 
HETATM   40  O3  UNL     1       4.669  -2.818   1.162  1.00  0.00    -0.272 OA
ATOM     41  H2  UNL     1       4.922   0.280   0.372  1.00  0.00     0.162 HD
BRANCH  39  42
HETATM   42  C28 UNL     1       6.536  -1.419   1.666  1.00  0.00     0.374 C 
BRANCH  42  43
HETATM   43  N3  UNL     1       7.139  -2.550   2.318  1.00  0.00     0.095 N 
HETATM   44  C29 UNL     1       6.440  -2.910   3.521  1.00  0.00     0.310 C 
BRANCH  43  45
HETATM   45  C30 UNL     1       8.480  -2.108   2.733  1.00  0.00     0.298 C 
BRANCH  45  46
HETATM   46  C31 UNL     1       9.200  -3.218   3.458  1.00  0.00     0.194 C 
BRANCH  46  47
HETATM   47  O4  UNL     1      10.454  -2.731   3.818  1.00  0.00    -0.399 OA
ATOM     48  H4  UNL     1      10.907  -3.430   4.275  1.00  0.00     0.209 HD
ENDBRANCH  46  47
ENDBRANCH  45  46
ENDBRANCH  43  45
ENDBRANCH  42  43
ENDBRANCH  39  42
ENDBRANCH  18  38
TORSDOF 12
