REMARK  13 active torsions:
REMARK  status: ('A' for Active; 'I' for Inactive)
REMARK    1  A    between atoms: C5_8  and  C6_9 
REMARK    2  A    between atoms: C6_9  and  C7_10 
REMARK    3  A    between atoms: C6_9  and  N2_22 
REMARK    4  A    between atoms: C7_10  and  C8_11 
REMARK    5  A    between atoms: C8_11  and  C9_12 
REMARK    6  A    between atoms: N2_22  and  C19_24 
REMARK    7  A    between atoms: C19_24  and  O1_25 
REMARK    8  A    between atoms: C19_24  and  C20_27 
REMARK    9  A    between atoms: C20_27  and  N3_28 
REMARK   10  A    between atoms: C20_27  and  C28_42 
REMARK       I    between atoms: N3_28  and  C21_30 
REMARK   11  A    between atoms: C21_30  and  O3_32 
REMARK   12  A    between atoms: O3_32  and  C22_33 
REMARK   13  A    between atoms: C26_38  and  C27_39 
ROOT
HETATM    1  C19 UNL     1      -0.745  -0.932  -0.801  1.00  0.00     0.139 C 
ENDROOT
BRANCH   1   2
HETATM    2  N2  UNL     1       0.351  -1.569  -0.212  1.00  0.00    -0.346 N 
ATOM      3  H2  UNL     1       0.198  -2.097   0.647  1.00  0.00     0.167 HD
BRANCH   2   4
HETATM    4  C6  UNL     1       1.707  -1.519  -0.762  1.00  0.00    -0.005 C 
BRANCH   4   5
HETATM    5  C5  UNL     1       2.435  -2.748  -0.938  1.00  0.00     0.062 C 
HETATM    6  C2  UNL     1       1.645  -3.943  -1.453  1.00  0.00     0.018 C 
HETATM    7  C1  UNL     1       0.993  -4.750  -0.360  1.00  0.00     0.012 C 
HETATM    8  C3  UNL     1       2.928  -4.791  -1.737  1.00  0.00     0.237 C 
HETATM    9  N1  UNL     1       3.502  -4.757  -0.399  1.00  0.00    -0.074 N 
HETATM   10  C4  UNL     1       3.270  -3.384   0.091  1.00  0.00     0.243 C 
ATOM     11  H12 UNL     1       3.141  -5.481   0.222  1.00  0.00     0.277 HD
ATOM     12  H11 UNL     1       4.479  -5.046  -0.364  1.00  0.00     0.277 HD
ENDBRANCH   4   5
BRANCH   4  13
HETATM   13  C7  UNL     1       2.411  -0.294  -0.240  1.00  0.00     0.054 C 
BRANCH  13  14
HETATM   14  C8  UNL     1       2.991  -0.337   1.109  1.00  0.00     0.015 C 
BRANCH  14  15
HETATM   15  C9  UNL     1       3.667   0.950   1.527  1.00  0.00    -0.039 C 
HETATM   16  C10 UNL     1       4.223   0.775   2.938  1.00  0.00     0.014 C 
HETATM   17  C11 UNL     1       4.875   2.023   3.430  1.00  0.00    -0.013 C 
HETATM   18  C12 UNL     1       5.973   2.419   2.487  1.00  0.00     0.009 C 
HETATM   19  C16 UNL     1       3.848   3.130   3.518  1.00  0.00     0.009 C 
HETATM   20  C13 UNL     1       5.345   2.670   1.117  1.00  0.00    -0.013 C 
HETATM   21  C14 UNL     1       4.323   3.754   1.207  1.00  0.00     0.009 C 
HETATM   22  C18 UNL     1       4.794   1.347   0.644  1.00  0.00     0.014 C 
HETATM   23  C15 UNL     1       3.233   3.320   2.171  1.00  0.00    -0.013 C 
HETATM   24  C17 UNL     1       2.632   2.047   1.606  1.00  0.00     0.014 C 
ENDBRANCH  14  15
ENDBRANCH  13  14
ENDBRANCH   4  13
ENDBRANCH   2   4
ENDBRANCH   1   2
BRANCH   1  25
HETATM   25  O1  UNL     1      -0.443  -0.279  -1.884  1.00  0.00    -0.348 OA
ATOM     26  H1  UNL     1      -1.188   0.154  -2.284  1.00  0.00     0.219 HD
ENDBRANCH   1  25
BRANCH   1  27
HETATM   27  C20 UNL     1      -2.147  -0.845  -0.448  1.00  0.00     0.165 C 
BRANCH  27  28
HETATM   28  N3  UNL     1      -2.799   0.317  -1.066  1.00  0.00    -0.324 N 
HETATM   29  C21 UNL     1      -3.551   1.185  -0.269  1.00  0.00     0.361 C 
HETATM   30  O2  UNL     1      -3.722   1.027   0.975  1.00  0.00    -0.238 OA
ATOM     31  H3  UNL     1      -2.704   0.489  -2.067  1.00  0.00     0.165 HD
BRANCH  29  32
HETATM   32  O3  UNL     1      -4.163   2.297  -0.831  1.00  0.00    -0.296 OA
BRANCH  32  33
HETATM   33  C22 UNL     1      -4.953   3.223  -0.106  1.00  0.00     0.166 C 
HETATM   34  C23 UNL     1      -6.237   3.551  -0.853  1.00  0.00     0.068 C 
HETATM   35  C24 UNL     1      -5.867   4.970  -1.271  1.00  0.00     0.141 C 
HETATM   36  O4  UNL     1      -4.519   4.775  -1.659  1.00  0.00    -0.376 OA
HETATM   37  C26 UNL     1      -5.316   5.628  -0.036  1.00  0.00     0.147 C 
HETATM   38  C25 UNL     1      -4.281   4.587  -0.283  1.00  0.00     0.168 C 
BRANCH  37  39
HETATM   39  C27 UNL     1      -6.128   5.550   1.174  1.00  0.00     0.182 C 
HETATM   40  O5  UNL     1      -5.695   4.997   2.212  1.00  0.00    -0.648 OA
HETATM   41  O6  UNL     1      -7.389   6.093   1.178  1.00  0.00    -0.648 OA
ENDBRANCH  37  39
ENDBRANCH  32  33
ENDBRANCH  29  32
ENDBRANCH  27  28
BRANCH  27  42
HETATM   42  C28 UNL     1      -2.952  -2.091  -0.811  1.00  0.00     0.016 C 
HETATM   43  C29 UNL     1      -2.922  -2.430  -2.250  1.00  0.00     0.007 C 
HETATM   44  C30 UNL     1      -2.710  -3.907  -2.501  1.00  0.00     0.000 C 
HETATM   45  C31 UNL     1      -3.752  -4.648  -1.696  1.00  0.00     0.000 C 
HETATM   46  C32 UNL     1      -3.451  -4.476  -0.246  1.00  0.00     0.000 C 
HETATM   47  C33 UNL     1      -2.723  -3.229   0.125  1.00  0.00     0.007 C 
ENDBRANCH  27  42
ENDBRANCH   1  27
TORSDOF 13
