REMARK  9 active torsions:
REMARK  status: ('A' for Active; 'I' for Inactive)
REMARK    1  A    between atoms: N1_4  and  C3_5 
REMARK    2  A    between atoms: C3_5  and  C4_6 
REMARK    3  A    between atoms: C4_6  and  C5_7 
REMARK    4  A    between atoms: C5_7  and  C6_8 
REMARK    5  A    between atoms: C6_8  and  C7_9 
REMARK    6  A    between atoms: C7_9  and  S1_10 
REMARK    7  A    between atoms: C9_16  and  C10_17 
REMARK    8  A    between atoms: C29_38  and  C30_39 
REMARK    9  A    between atoms: C30_39  and  O6_40 
ROOT
HETATM    1  O1  UNL     1       1.575  -0.665  -2.250  1.00  0.00    -0.272 OA
HETATM    2  C1  UNL     1       0.546  -1.155  -1.717  1.00  0.00     0.235 C 
HETATM    3  C2  UNL     1      -0.131  -0.300  -0.685  1.00  0.00     0.228 C 
HETATM    4  N1  UNL     1       0.757   0.056   0.406  1.00  0.00    -0.342 N 
HETATM    5  C8  UNL     1       1.140   1.374   0.622  1.00  0.00     0.243 C 
HETATM    6  O5  UNL     1       1.960   1.603   1.579  1.00  0.00    -0.271 OA
HETATM    7  C9  UNL     1       0.726   2.593  -0.115  1.00  0.00     0.178 C 
HETATM    8  N2  UNL     1      -0.256   3.360   0.644  1.00  0.00    -0.376 N 
ATOM      9  H2  UNL     1       0.056   4.293   0.914  1.00  0.00     0.160 HD
HETATM   10  C15 UNL     1      -1.573   3.035   1.074  1.00  0.00     0.029 A 
HETATM   11  C16 UNL     1      -1.727   3.446   2.423  1.00  0.00     0.029 A 
HETATM   12  C17 UNL     1      -2.874   3.283   3.151  1.00  0.00     0.003 A 
HETATM   13  C18 UNL     1      -3.898   2.680   2.475  1.00  0.00     0.007 A 
HETATM   14  C19 UNL     1      -3.813   2.246   1.130  1.00  0.00    -0.056 A 
HETATM   15  C20 UNL     1      -2.641   2.432   0.443  1.00  0.00     0.036 A 
HETATM   16  C21 UNL     1      -5.098   1.627   0.703  1.00  0.00     0.038 C 
HETATM   17  C22 UNL     1      -5.061   0.138   0.460  1.00  0.00     0.005 C 
HETATM   18  C23 UNL     1      -5.073  -0.676   1.715  1.00  0.00     0.000 C 
HETATM   19  C24 UNL     1      -5.003  -2.137   1.314  1.00  0.00     0.000 C 
HETATM   20  C25 UNL     1      -3.564  -2.592   1.219  1.00  0.00     0.000 C 
HETATM   21  C26 UNL     1      -3.407  -3.674   0.170  1.00  0.00     0.000 C 
HETATM   22  C27 UNL     1      -1.945  -3.961  -0.085  1.00  0.00     0.002 C 
HETATM   23  C28 UNL     1      -1.629  -4.105  -1.548  1.00  0.00     0.027 C 
HETATM   24  C29 UNL     1      -1.363  -2.753  -2.142  1.00  0.00     0.108 C 
HETATM   25  N3  UNL     1       0.056  -2.439  -2.072  1.00  0.00    -0.353 N 
ATOM     26  H3  UNL     1       0.729  -3.175  -2.288  1.00  0.00     0.163 HD
ENDROOT
BRANCH   4  27
HETATM   27  C3  UNL     1       1.216  -1.005   1.246  1.00  0.00     0.126 C 
BRANCH  27  28
HETATM   28  C4  UNL     1       2.437  -1.725   0.864  1.00  0.00     0.020 C 
BRANCH  28  29
HETATM   29  C5  UNL     1       3.706  -0.899   0.770  1.00  0.00     0.002 C 
BRANCH  29  30
HETATM   30  C6  UNL     1       4.779  -1.876   0.354  1.00  0.00     0.018 C 
BRANCH  30  31
HETATM   31  C7  UNL     1       6.135  -1.327   0.159  1.00  0.00     0.165 C 
BRANCH  31  32
HETATM   32  S1  UNL     1       6.837  -0.583   1.597  1.00  0.00     0.101 S 
HETATM   33  O2  UNL     1       6.892  -1.548   2.741  1.00  0.00    -0.595 OA
HETATM   34  O3  UNL     1       6.027   0.613   2.027  1.00  0.00    -0.595 OA
HETATM   35  O4  UNL     1       8.395  -0.047   1.191  1.00  0.00    -0.595 OA
ENDBRANCH  31  32
ENDBRANCH  30  31
ENDBRANCH  29  30
ENDBRANCH  28  29
ENDBRANCH  27  28
ENDBRANCH   4  27
BRANCH   7  36
HETATM   36  C10 UNL     1       1.972   3.407  -0.373  1.00  0.00     0.017 C 
HETATM   37  C11 UNL     1       2.978   2.693  -1.194  1.00  0.00     0.007 C 
HETATM   38  C12 UNL     1       3.731   3.850  -1.868  1.00  0.00     0.000 C 
HETATM   39  C13 UNL     1       2.579   4.731  -2.311  1.00  0.00     0.000 C 
HETATM   40  C14 UNL     1       1.664   4.702  -1.084  1.00  0.00     0.007 C 
ENDBRANCH   7  36
BRANCH  24  41
HETATM   41  C30 UNL     1      -1.770  -2.843  -3.619  1.00  0.00     0.189 C 
BRANCH  41  42
HETATM   42  O6  UNL     1      -3.104  -3.137  -3.756  1.00  0.00    -0.399 OA
ATOM     43  H6  UNL     1      -3.356  -3.193  -4.670  1.00  0.00     0.209 HD
ENDBRANCH  41  42
ENDBRANCH  24  41
TORSDOF 9
