REMARK  12 active torsions:
REMARK  status: ('A' for Active; 'I' for Inactive)
REMARK    1  A    between atoms: C7_9  and  N2_10 
REMARK    2  A    between atoms: N2_10  and  C8_12 
REMARK    3  A    between atoms: C8_12  and  C9_14 
REMARK    4  A    between atoms: C11_17  and  N3_18 
REMARK       I    between atoms: N3_18  and  C12_20 
REMARK    5  A    between atoms: C12_20  and  C13_22 
REMARK       I    between atoms: C13_22  and  N4_24 
REMARK    6  A    between atoms: N4_24  and  C14_26 
REMARK    7  A    between atoms: C14_26  and  C15_27 
REMARK    8  A    between atoms: C15_27  and  N5_28 
REMARK    9  A    between atoms: N6_31  and  C18_32 
REMARK   10  A    between atoms: C18_32  and  C19_33 
REMARK   11  A    between atoms: C19_33  and  C20_34 
REMARK   12  A    between atoms: C20_34  and  O3_35 
ROOT
HETATM    1  C9  UNL     1      -4.682  -1.167   0.606  1.00  0.00     0.093 A 
HETATM    2  C10 UNL     1      -3.493  -1.249   1.290  1.00  0.00     0.070 A 
HETATM    3  S2  UNL     1      -3.329  -1.675   3.012  1.00  0.00    -0.048 SA
HETATM    4  C11 UNL     1      -2.416  -0.946   0.433  1.00  0.00     0.071 A 
HETATM    5  C25 UNL     1      -3.023  -0.685  -0.774  1.00  0.00     0.121 A 
HETATM    6  N7  UNL     1      -4.378  -0.823  -0.648  1.00  0.00    -0.355 N 
HETATM    7  C26 UNL     1      -5.289  -0.618  -1.733  1.00  0.00     0.156 C 
ENDROOT
BRANCH   4   8
HETATM    8  N3  UNL     1      -1.052  -0.940   0.820  1.00  0.00    -0.316 N 
HETATM    9  C12 UNL     1      -0.031  -0.633  -0.081  1.00  0.00     0.314 C 
HETATM   10  O1  UNL     1      -0.228  -0.345  -1.276  1.00  0.00    -0.262 OA
ATOM     11  H3  UNL     1      -0.810  -1.167   1.785  1.00  0.00     0.169 HD
BRANCH   9  12
HETATM   12  C13 UNL     1       1.366  -0.655   0.422  1.00  0.00     0.309 C 
HETATM   13  O2  UNL     1       1.597  -0.943   1.639  1.00  0.00    -0.262 OA
HETATM   14  N4  UNL     1       2.420  -0.351  -0.475  1.00  0.00    -0.351 N 
ATOM     15  H4  UNL     1       2.238  -0.120  -1.452  1.00  0.00     0.162 HD
BRANCH  14  16
HETATM   16  C14 UNL     1       3.789  -0.383   0.064  1.00  0.00     0.151 C 
BRANCH  16  17
HETATM   17  C15 UNL     1       4.784  -0.039  -1.002  1.00  0.00     0.257 C 
BRANCH  17  18
HETATM   18  N5  UNL     1       6.153  -0.058  -0.604  1.00  0.00    -0.061 N 
HETATM   19  C16 UNL     1       6.414  -0.293   0.778  1.00  0.00     0.265 C 
HETATM   20  C17 UNL     1       7.850   0.189   1.064  1.00  0.00     0.265 C 
HETATM   21  N6  UNL     1       8.667   0.052  -0.127  1.00  0.00    -0.062 N 
HETATM   22  C21 UNL     1       8.281   1.050  -1.076  1.00  0.00     0.265 C 
HETATM   23  C23 UNL     1       8.253  -1.234  -0.755  1.00  0.00     0.265 C 
HETATM   24  C22 UNL     1       6.762   1.230  -0.955  1.00  0.00     0.265 C 
HETATM   25  C24 UNL     1       6.886  -1.062  -1.372  1.00  0.00     0.265 C 
BRANCH  21  26
HETATM   26  C18 UNL     1      10.047  -0.070   0.157  1.00  0.00     0.239 C 
BRANCH  26  27
HETATM   27  C19 UNL     1      10.895   1.133   0.209  1.00  0.00     0.054 C 
BRANCH  27  28
HETATM   28  C20 UNL     1      10.529   2.142   1.258  1.00  0.00     0.165 C 
BRANCH  28  29
HETATM   29  O3  UNL     1      10.576   1.583   2.540  1.00  0.00    -0.401 OA
ATOM     30  H3  UNL     1      10.344   2.222   3.204  1.00  0.00     0.209 HD
ENDBRANCH  28  29
ENDBRANCH  27  28
ENDBRANCH  26  27
ENDBRANCH  21  26
ENDBRANCH  17  18
ENDBRANCH  16  17
ENDBRANCH  14  16
ENDBRANCH   9  12
ENDBRANCH   4   8
BRANCH   1  31
HETATM   31  C8  UNL     1      -6.021  -1.419   1.177  1.00  0.00     0.144 C 
HETATM   32  S1  UNL     1      -6.598  -2.928   1.284  1.00  0.00    -0.057 SA
BRANCH  31  33
HETATM   33  N2  UNL     1      -6.770  -0.332   1.633  1.00  0.00    -0.179 N 
ATOM     34  H2  UNL     1      -6.368   0.278   2.345  1.00  0.00     0.185 HD
BRANCH  33  35
HETATM   35  C7  UNL     1      -7.932  -0.077   1.193  1.00  0.00     0.684 A 
HETATM   36  N1  UNL     1      -8.609  -0.760   0.269  1.00  0.00    -0.189 N 
HETATM   37  C6  UNL     1      -9.828  -0.183   0.060  1.00  0.00     0.082 A 
ATOM     38  H1  UNL     1      -8.266  -1.592  -0.211  1.00  0.00     0.184 HD
HETATM   39  C4  UNL     1     -10.889  -0.483  -0.767  1.00  0.00    -0.032 A 
HETATM   40  C27 UNL     1      -9.867   0.900   0.909  1.00  0.00     0.077 A 
HETATM   41  C3  UNL     1     -12.019   0.324  -0.743  1.00  0.00     0.015 A 
HETATM   42  C5  UNL     1     -10.793  -1.664  -1.663  1.00  0.00     0.050 C 
HETATM   43  C2  UNL     1     -12.101   1.416   0.090  1.00  0.00    -0.059 A 
HETATM   44  C1  UNL     1     -13.329   2.276   0.103  1.00  0.00     0.048 C 
HETATM   45  C28 UNL     1     -11.014   1.673   0.896  1.00  0.00     0.039 A 
HETATM   46  N8  UNL     1      -8.709   0.943   1.583  1.00  0.00    -0.189 N 
ATOM     47  H8  UNL     1      -8.459   1.642   2.282  1.00  0.00     0.184 HD
ENDBRANCH  33  35
ENDBRANCH  31  33
ENDBRANCH   1  31
TORSDOF 12
