REMARK  13 active torsions:
REMARK  status: ('A' for Active; 'I' for Inactive)
REMARK    1  A    between atoms: C2_2  and  N1_4 
REMARK    2  A    between atoms: N1_4  and  C4_6 
REMARK    3  A    between atoms: C8_10  and  C9_11 
REMARK       I    between atoms: C9_11  and  N2_13 
REMARK    4  A    between atoms: N2_13  and  C10_15 
REMARK    5  A    between atoms: C10_15  and  C11_16 
REMARK    6  A    between atoms: N3_20  and  C15_21 
REMARK    7  A    between atoms: C15_21  and  O2_22 
REMARK    8  A    between atoms: C15_21  and  C16_24 
REMARK    9  A    between atoms: C16_24  and  C17_25 
REMARK       I    between atoms: C17_25  and  N4_27 
REMARK   10  A    between atoms: N4_27  and  C18_29 
REMARK   11  A    between atoms: C18_29  and  C19_30 
REMARK       I    between atoms: C19_30  and  N5_32 
REMARK   12  A    between atoms: N5_32  and  C20_34 
REMARK   13  A    between atoms: C31_45  and  O5_46 
ROOT
HETATM    1  C11 UNL     1       1.952  -1.036   0.737  1.00  0.00     0.073 C 
HETATM    2  C12 UNL     1       1.747  -2.501   0.580  1.00  0.00     0.016 C 
HETATM    3  C13 UNL     1       0.361  -2.786   1.201  1.00  0.00     0.021 C 
HETATM    4  C14 UNL     1      -0.645  -2.164   0.198  1.00  0.00     0.127 C 
HETATM    5  N3  UNL     1      -0.483  -0.757   0.273  1.00  0.00    -0.337 N 
HETATM    6  C31 UNL     1       0.890  -0.293  -0.004  1.00  0.00     0.230 C 
ENDROOT
BRANCH   5   7
HETATM    7  C15 UNL     1      -1.380   0.302   0.410  1.00  0.00     0.134 C 
BRANCH   7   8
HETATM    8  O2  UNL     1      -0.728   1.508   0.588  1.00  0.00    -0.348 OA
ATOM      9  H2  UNL     1      -1.339   2.229   0.681  1.00  0.00     0.219 HD
ENDBRANCH   7   8
BRANCH   7  10
HETATM   10  C16 UNL     1      -2.787   0.545   0.415  1.00  0.00     0.105 A 
HETATM   11  C29 UNL     1      -3.256   1.939   0.865  1.00  0.00     0.029 A 
HETATM   12  C30 UNL     1      -3.078   1.720  -0.570  1.00  0.00     0.029 A 
BRANCH  10  13
HETATM   13  C17 UNL     1      -3.907  -0.461   0.468  1.00  0.00     0.235 C 
HETATM   14  O3  UNL     1      -3.810  -1.594   0.875  1.00  0.00    -0.272 OA
HETATM   15  N4  UNL     1      -5.173  -0.016   0.005  1.00  0.00    -0.342 N 
ATOM     16  H4  UNL     1      -5.183   0.943  -0.343  1.00  0.00     0.163 HD
BRANCH  15  17
HETATM   17  C18 UNL     1      -6.431  -0.679  -0.056  1.00  0.00     0.114 C 
HETATM   18  C24 UNL     1      -6.401  -1.872  -1.007  1.00  0.00     0.041 C 
HETATM   19  C25 UNL     1      -6.694  -3.179  -0.329  1.00  0.00     0.003 C 
HETATM   20  C26 UNL     1      -8.050  -3.229   0.335  1.00  0.00     0.000 C 
HETATM   21  C27 UNL     1      -8.379  -1.841   0.790  1.00  0.00     0.003 C 
HETATM   22  C28 UNL     1      -7.059  -1.142   1.200  1.00  0.00     0.041 C 
BRANCH  17  23
HETATM   23  C19 UNL     1      -7.328   0.410  -0.686  1.00  0.00     0.246 C 
HETATM   24  O4  UNL     1      -7.644   0.254  -1.863  1.00  0.00    -0.271 OA
HETATM   25  N5  UNL     1      -7.658   1.471   0.169  1.00  0.00    -0.351 N 
ATOM     26  H5  UNL     1      -7.301   1.401   1.122  1.00  0.00     0.163 HD
BRANCH  25  27
HETATM   27  C20 UNL     1      -8.429   2.636  -0.122  1.00  0.00     0.022 C 
HETATM   28  C21 UNL     1      -7.950   3.343  -1.382  1.00  0.00     0.037 C 
HETATM   29  C22 UNL     1      -9.882   2.355  -0.176  1.00  0.00     0.037 C 
HETATM   30  C23 UNL     1      -8.130   3.652   1.006  1.00  0.00     0.037 C 
ENDBRANCH  25  27
ENDBRANCH  17  23
ENDBRANCH  15  17
ENDBRANCH  10  13
ENDBRANCH   7  10
ENDBRANCH   5   7
BRANCH   6  31
HETATM   31  O5  UNL     1       1.038  -0.511  -1.391  1.00  0.00    -0.376 OA
ATOM     32  H5  UNL     1       0.362  -0.038  -1.863  1.00  0.00     0.212 HD
ENDBRANCH   6  31
BRANCH   1  33
HETATM   33  C10 UNL     1       3.214  -0.459   0.175  1.00  0.00     0.073 C 
BRANCH  33  34
HETATM   34  N2  UNL     1       4.485  -0.866   0.584  1.00  0.00    -0.340 N 
HETATM   35  C9  UNL     1       5.580  -0.154  -0.019  1.00  0.00     0.225 C 
HETATM   36  O1  UNL     1       5.305   0.780  -0.849  1.00  0.00    -0.273 OA
ATOM     37  H2  UNL     1       4.627  -1.615   1.262  1.00  0.00     0.167 HD
BRANCH  35  38
HETATM   38  C8  UNL     1       7.011  -0.418   0.242  1.00  0.00     0.080 C 
HETATM   39  C7  UNL     1       7.181  -1.908   0.040  1.00  0.00     0.014 C 
HETATM   40  C6  UNL     1       8.421  -2.231  -0.764  1.00  0.00     0.003 C 
HETATM   41  C5  UNL     1       9.494  -1.321  -0.215  1.00  0.00     0.024 C 
HETATM   42  C4  UNL     1       9.208   0.037  -0.962  1.00  0.00     0.077 C 
HETATM   43  C32 UNL     1       7.812   0.423  -0.758  1.00  0.00     0.038 C 
BRANCH  42  44
HETATM   44  N1  UNL     1      10.301   0.883  -0.763  1.00  0.00    -0.414 N 
ATOM     45  H1  UNL     1      10.899   1.106  -1.558  1.00  0.00     0.153 HD
BRANCH  44  46
HETATM   46  C2  UNL     1      10.608   1.437   0.486  1.00  0.00     0.068 C 
HETATM   47  C1  UNL     1       9.764   2.652   0.786  1.00  0.00     0.031 C 
HETATM   48  C3  UNL     1      12.046   1.729   0.807  1.00  0.00     0.031 C 
ENDBRANCH  44  46
ENDBRANCH  42  44
ENDBRANCH  35  38
ENDBRANCH  33  34
ENDBRANCH   1  33
TORSDOF 13
