REMARK  8 active torsions:
REMARK  status: ('A' for Active; 'I' for Inactive)
REMARK       I    between atoms: N1_2  and  C2_4 
REMARK    1  A    between atoms: C2_4  and  C3_6 
REMARK    2  A    between atoms: C3_6  and  C4_7 
REMARK    3  A    between atoms: C3_6  and  N2_11 
REMARK    4  A    between atoms: C3_6  and  C29_45 
REMARK       I    between atoms: N2_11  and  C8_13 
REMARK       I    between atoms: C8_13  and  N3_15 
REMARK       I    between atoms: N4_18  and  C11_19 
REMARK    5  A    between atoms: C11_19  and  C12_21 
REMARK    6  A    between atoms: C12_21  and  C13_22 
REMARK    7  A    between atoms: C12_21  and  N5_29 
REMARK    8  A    between atoms: C13_22  and  C14_23 
REMARK       I    between atoms: N5_29  and  C20_31 
REMARK       I    between atoms: C20_31  and  N6_33 
ROOT
HETATM    1  N2  UNL     1       4.049   0.320  -0.135  1.00  0.00    -0.314 N 
ATOM      2  H2  UNL     1       3.622   0.586   0.753  1.00  0.00     0.166 HD
HETATM    3  C8  UNL     1       3.183  -0.013  -1.165  1.00  0.00     0.320 C 
HETATM    4  O2  UNL     1       3.543  -0.350  -2.308  1.00  0.00    -0.247 OA
HETATM    5  N3  UNL     1       1.780   0.021  -0.962  1.00  0.00    -0.331 N 
HETATM    6  C9  UNL     1       0.807  -0.212  -2.014  1.00  0.00     0.147 C 
HETATM    7  C10 UNL     1      -0.396   0.743  -1.782  1.00  0.00     0.145 C 
HETATM    8  N4  UNL     1      -1.011   0.356  -0.512  1.00  0.00    -0.347 N 
HETATM    9  C11 UNL     1      -2.365   0.616  -0.286  1.00  0.00     0.242 C 
HETATM   10  O3  UNL     1      -3.032   1.216  -1.181  1.00  0.00    -0.271 OA
HETATM   11  C27 UNL     1      -0.153  -0.319   0.437  1.00  0.00     0.145 C 
HETATM   12  C28 UNL     1       1.251   0.270   0.359  1.00  0.00     0.147 C 
ENDROOT
BRANCH   9  13
HETATM   13  C12 UNL     1      -3.078   0.210   0.950  1.00  0.00     0.179 C 
BRANCH  13  14
HETATM   14  C13 UNL     1      -3.414   1.211   1.956  1.00  0.00     0.039 C 
BRANCH  14  15
HETATM   15  C14 UNL     1      -2.364   2.050   2.644  1.00  0.00    -0.012 C 
HETATM   16  C15 UNL     1      -1.601   2.948   1.770  1.00  0.00     0.005 C 
HETATM   17  C16 UNL     1      -1.319   4.296   2.329  1.00  0.00     0.000 C 
HETATM   18  C17 UNL     1      -2.543   4.863   3.008  1.00  0.00     0.000 C 
HETATM   19  C18 UNL     1      -2.754   3.990   4.230  1.00  0.00     0.000 C 
HETATM   20  C19 UNL     1      -2.951   2.569   3.910  1.00  0.00     0.005 C 
ENDBRANCH  14  15
ENDBRANCH  13  14
BRANCH  13  21
HETATM   21  N5  UNL     1      -4.385  -0.397   0.478  1.00  0.00    -0.330 N 
HETATM   22  C20 UNL     1      -4.443  -1.672  -0.073  1.00  0.00     0.321 C 
HETATM   23  O4  UNL     1      -3.375  -2.318  -0.190  1.00  0.00    -0.247 OA
HETATM   24  N6  UNL     1      -5.659  -2.257  -0.508  1.00  0.00    -0.301 N 
HETATM   25  C21 UNL     1      -6.898  -1.519  -0.238  1.00  0.00     0.361 C 
HETATM   26  C24 UNL     1      -5.714  -3.487  -1.238  1.00  0.00     0.033 C 
HETATM   27  N7  UNL     1      -8.040  -2.412  -0.050  1.00  0.00    -0.059 N 
HETATM   28  C22 UNL     1      -8.174  -3.212  -1.274  1.00  0.00     0.236 C 
ATOM     29  H72 UNL     1      -7.967  -2.982   0.793  1.00  0.00     0.279 HD
ATOM     30  H71 UNL     1      -8.897  -1.917   0.199  1.00  0.00     0.279 HD
HETATM   31  C23 UNL     1      -7.032  -4.180  -1.237  1.00  0.00     0.058 C 
HETATM   32  C25 UNL     1      -5.251  -3.200  -2.664  1.00  0.00     0.038 C 
HETATM   33  C26 UNL     1      -4.717  -4.492  -0.643  1.00  0.00     0.038 C 
ATOM     34  H5  UNL     1      -5.245   0.145   0.567  1.00  0.00     0.165 HD
ENDBRANCH  13  21
ENDBRANCH   9  13
BRANCH   1  35
HETATM   35  C3  UNL     1       5.557   0.330  -0.190  1.00  0.00     0.213 C 
BRANCH  35  36
HETATM   36  C2  UNL     1       5.897  -1.073  -0.418  1.00  0.00     0.259 C 
HETATM   37  N1  UNL     1       7.184  -1.672  -0.377  1.00  0.00    -0.363 N 
HETATM   38  C1  UNL     1       7.445  -3.077  -0.609  1.00  0.00     0.149 C 
ATOM     39  H1  UNL     1       7.981  -1.070  -0.169  1.00  0.00     0.162 HD
HETATM   40  O1  UNL     1       4.975  -1.910  -0.680  1.00  0.00    -0.270 OA
ENDBRANCH  35  36
BRANCH  35  41
HETATM   41  C4  UNL     1       5.879   1.242  -1.282  1.00  0.00     0.025 C 
HETATM   42  C5  UNL     1       7.129   1.532  -1.936  1.00  0.00    -0.088 C 
HETATM   43  C6  UNL     1       7.881   0.476  -2.677  1.00  0.00     0.042 C 
HETATM   44  C7  UNL     1       8.105   2.438  -1.161  1.00  0.00     0.042 C 
ENDBRANCH  35  41
BRANCH  35  45
HETATM   45  C29 UNL     1       5.961   0.798   1.162  1.00  0.00     0.273 C 
HETATM   46  N8  UNL     1       7.267   0.969   1.656  1.00  0.00    -0.059 NA
HETATM   47  O5  UNL     1       5.072   1.086   1.996  1.00  0.00    -0.273 OA
ENDBRANCH  35  45
ENDBRANCH   1  35
TORSDOF 8
