REMARK  9 active torsions:
REMARK  status: ('A' for Active; 'I' for Inactive)
REMARK    1  A    between atoms: C2_2  and  O1_3 
REMARK    2  A    between atoms: O1_3  and  C3_4 
REMARK    3  A    between atoms: C3_4  and  C4_5 
REMARK    4  A    between atoms: C4_5  and  O2_6 
REMARK    5  A    between atoms: C4_5  and  C5_8 
REMARK    6  A    between atoms: C6_11  and  N1_12 
REMARK    7  A    between atoms: C7_13  and  C8_14 
REMARK    8  A    between atoms: C8_14  and  C9_15 
REMARK    9  A    between atoms: C9_15  and  C10_16 
ROOT
HETATM    1  N1  UNL     1      -0.697  -0.070   1.076  1.00  0.00    -0.274 N 
HETATM    2  C7  UNL     1      -1.275   1.112   0.822  1.00  0.00     0.045 A 
HETATM    3  C14 UNL     1      -2.172   1.649   1.767  1.00  0.00     0.135 A 
HETATM    4  C15 UNL     1      -2.798   2.930   1.553  1.00  0.00     0.107 C 
HETATM    5  N2  UNL     1      -3.300   3.971   1.410  1.00  0.00    -0.191 NA
HETATM    6  C16 UNL     1      -2.405   0.917   2.909  1.00  0.00     0.272 A 
HETATM    7  O4  UNL     1      -3.218   1.407   3.759  1.00  0.00    -0.266 OA
HETATM    8  N3  UNL     1      -1.798  -0.263   3.115  1.00  0.00    -0.274 N 
ATOM      9  H3  UNL     1      -1.991  -0.781   3.972  1.00  0.00     0.173 HD
HETATM   10  C17 UNL     1      -0.948  -0.772   2.222  1.00  0.00     0.331 A 
HETATM   11  O5  UNL     1      -0.366  -1.891   2.410  1.00  0.00    -0.246 OA
ENDROOT
BRANCH   2  12
HETATM   12  C8  UNL     1      -1.077   1.953  -0.370  1.00  0.00     0.063 C 
BRANCH  12  13
HETATM   13  C9  UNL     1      -2.191   1.880  -1.393  1.00  0.00     0.033 C 
BRANCH  13  14
HETATM   14  C10 UNL     1      -2.408   0.517  -1.942  1.00  0.00    -0.024 C 
HETATM   15  C11 UNL     1      -3.573  -0.063  -1.798  1.00  0.00    -0.091 C 
HETATM   16  C12 UNL     1      -3.794  -1.449  -2.357  1.00  0.00     0.042 C 
HETATM   17  C13 UNL     1      -4.734   0.556  -1.109  1.00  0.00     0.042 C 
ENDBRANCH  13  14
ENDBRANCH  12  13
ENDBRANCH   2  12
BRANCH   1  18
HETATM   18  C6  UNL     1       0.231  -0.659   0.154  1.00  0.00     0.242 C 
HETATM   19  O3  UNL     1       1.453  -0.784   0.824  1.00  0.00    -0.319 OA
HETATM   20  C5  UNL     1       2.197  -1.732   0.151  1.00  0.00     0.301 C 
HETATM   21  F1  UNL     1       3.080  -2.418   0.940  1.00  0.00    -0.202 F 
HETATM   22  C19 UNL     1       1.253  -2.699  -0.472  1.00  0.00     0.310 C 
HETATM   23  C18 UNL     1      -0.062  -2.020  -0.333  1.00  0.00     0.139 C 
HETATM   24  F2  UNL     1       1.288  -3.927   0.201  1.00  0.00    -0.200 F 
HETATM   25  F3  UNL     1       1.611  -2.955  -1.789  1.00  0.00    -0.200 F 
BRANCH  20  26
HETATM   26  C4  UNL     1       3.003  -0.962  -0.903  1.00  0.00     0.215 C 
BRANCH  26  27
HETATM   27  C3  UNL     1       3.751   0.116  -0.161  1.00  0.00     0.205 C 
BRANCH  27  28
HETATM   28  O1  UNL     1       4.687  -0.446   0.705  1.00  0.00    -0.389 OA
BRANCH  28  29
HETATM   29  C2  UNL     1       5.368   0.565   1.383  1.00  0.00     0.163 C 
HETATM   30  C1  UNL     1       4.406   1.418   2.196  1.00  0.00     0.033 C 
ENDBRANCH  28  29
ENDBRANCH  27  28
ENDBRANCH  26  27
BRANCH  26  31
HETATM   31  O2  UNL     1       3.800  -1.769  -1.660  1.00  0.00    -0.387 OA
ATOM     32  H2  UNL     1       3.329  -2.448  -2.128  1.00  0.00     0.210 HD
ENDBRANCH  26  31
ENDBRANCH  20  26
ENDBRANCH   1  18
TORSDOF 9
