REMARK  8 active torsions:
REMARK  status: ('A' for Active; 'I' for Inactive)
REMARK    1  A    between atoms: O1_2  and  C2_3 
REMARK    2  A    between atoms: C4_5  and  O2_6 
REMARK    3  A    between atoms: O2_6  and  C5_7 
REMARK    4  A    between atoms: C8_13  and  N1_14 
REMARK    5  A    between atoms: C10_19  and  N3_20 
REMARK    6  A    between atoms: N3_20  and  C12_22 
REMARK    7  A    between atoms: C12_22  and  C13_23 
REMARK    8  A    between atoms: C13_23  and  N4_24 
ROOT
HETATM    1  N1  UNL     1      -2.192  -0.260  -1.044  1.00  0.00    -0.187 N 
ATOM      2  H1  UNL     1      -2.240  -0.618  -1.998  1.00  0.00     0.184 HD
HETATM    3  C9  UNL     1      -1.067  -0.468  -0.507  1.00  0.00     0.712 A 
HETATM    4  N2  UNL     1      -0.036  -1.116  -1.171  1.00  0.00    -0.019 N 
ATOM      5  H2  UNL     1      -0.094  -1.472  -2.125  1.00  0.00     0.203 HD
HETATM    6  C10 UNL     1       1.046  -1.210  -0.388  1.00  0.00     0.709 A 
HETATM    7  N5  UNL     1       0.715  -0.632   0.763  1.00  0.00    -0.117 N 
ATOM      8  H5  UNL     1       1.328  -0.542   1.573  1.00  0.00     0.206 HD
HETATM    9  N6  UNL     1      -0.540  -0.189   0.697  1.00  0.00    -0.117 N 
ATOM     10  H6  UNL     1      -1.030   0.292   1.451  1.00  0.00     0.206 HD
ENDROOT
BRANCH   1  11
HETATM   11  C8  UNL     1      -3.363   0.333  -0.648  1.00  0.00     0.084 A 
HETATM   12  C2  UNL     1      -4.399  -0.532  -0.244  1.00  0.00     0.098 A 
HETATM   13  C3  UNL     1      -5.605   0.002   0.071  1.00  0.00     0.077 A 
HETATM   14  C4  UNL     1      -5.853   1.413   0.011  1.00  0.00     0.099 A 
HETATM   15  C6  UNL     1      -4.832   2.236  -0.381  1.00  0.00     0.070 A 
HETATM   16 CL1  UNL     1      -5.030   3.977  -0.502  1.00  0.00    -0.081 Cl
HETATM   17  C7  UNL     1      -3.592   1.687  -0.708  1.00  0.00     0.059 A 
BRANCH  12  18
HETATM   18  O1  UNL     1      -4.109  -1.861  -0.188  1.00  0.00    -0.354 OA
HETATM   19  C1  UNL     1      -5.021  -2.898   0.147  1.00  0.00     0.210 C 
ENDBRANCH  12  18
BRANCH  14  20
HETATM   20  O2  UNL     1      -7.078   1.849   0.341  1.00  0.00    -0.288 OA
BRANCH  20  21
HETATM   21  C5  UNL     1      -7.810   2.954   0.502  1.00  0.00     0.505 C 
HETATM   22  F1  UNL     1      -8.556   2.876   1.691  1.00  0.00    -0.184 F 
HETATM   23  F2  UNL     1      -8.787   3.147  -0.499  1.00  0.00    -0.184 F 
ENDBRANCH  20  21
ENDBRANCH  14  20
ENDBRANCH   1  11
BRANCH   6  24
HETATM   24  N3  UNL     1       2.263  -1.863  -0.811  1.00  0.00    -0.216 N 
HETATM   25  C11 UNL     1       2.546  -3.165  -0.243  1.00  0.00     0.169 C 
BRANCH  24  26
HETATM   26  C12 UNL     1       3.062  -1.225  -1.790  1.00  0.00     0.185 C 
BRANCH  26  27
HETATM   27  C13 UNL     1       4.422  -0.763  -1.455  1.00  0.00     0.078 C 
BRANCH  27  28
HETATM   28  N4  UNL     1       4.652   0.193  -0.492  1.00  0.00    -0.388 N 
HETATM   29  C14 UNL     1       4.474  -0.013   0.874  1.00  0.00     0.148 C 
HETATM   30  C15 UNL     1       5.790   0.375   1.562  1.00  0.00     0.187 C 
HETATM   31  O3  UNL     1       6.421   1.433   0.968  1.00  0.00    -0.388 OA
HETATM   32  C16 UNL     1       5.621   2.251   0.201  1.00  0.00     0.187 C 
HETATM   33  C17 UNL     1       4.899   1.533  -0.919  1.00  0.00     0.148 C 
ENDBRANCH  27  28
ENDBRANCH  26  27
ENDBRANCH  24  26
ENDBRANCH   6  24
TORSDOF 8
