REMARK  10 active torsions:
REMARK  status: ('A' for Active; 'I' for Inactive)
REMARK    1  A    between atoms: C2_2  and  N1_3 
REMARK    2  A    between atoms: C2_2  and  C10_18 
REMARK    3  A    between atoms: N1_3  and  C3_5 
REMARK    4  A    between atoms: C3_5  and  C4_7 
REMARK    5  A    between atoms: C4_7  and  O1_8 
REMARK    6  A    between atoms: O1_8  and  C5_9 
REMARK    7  A    between atoms: C5_9  and  C6_11 
REMARK    8  A    between atoms: C10_18  and  O5_20 
REMARK    9  A    between atoms: O5_20  and  C11_21 
REMARK   10  A    between atoms: C11_21  and  C12_22 
ROOT
HETATM    1  C3  UNL     1       0.446   0.851   0.473  1.00  0.00     0.199 C 
HETATM    2 CL1  UNL     1       1.117   2.519   0.531  1.00  0.00    -0.101 Cl
ENDROOT
BRANCH   1   3
HETATM    3  N1  UNL     1      -0.949   0.971   0.280  1.00  0.00    -0.391 N 
ATOM      4  H1  UNL     1      -1.391   1.886   0.198  1.00  0.00     0.155 HD
BRANCH   3   5
HETATM    5  C2  UNL     1      -1.709  -0.211   0.205  1.00  0.00     0.174 C 
HETATM    6  C1  UNL     1      -1.695  -1.060   1.449  1.00  0.00     0.042 C 
BRANCH   5   7
HETATM    7  C10 UNL     1      -3.134   0.099  -0.089  1.00  0.00     0.281 C 
HETATM    8  O4  UNL     1      -3.484   1.288  -0.231  1.00  0.00    -0.263 OA
BRANCH   7   9
HETATM    9  O5  UNL     1      -4.080  -0.898  -0.208  1.00  0.00    -0.309 OA
BRANCH   9  10
HETATM   10  C11 UNL     1      -5.435  -0.677  -0.480  1.00  0.00     0.291 C 
BRANCH  10  11
HETATM   11  C12 UNL     1      -6.113   0.131   0.555  1.00  0.00     0.198 C 
HETATM   12  O6  UNL     1      -5.573   0.565   1.583  1.00  0.00    -0.646 OA
HETATM   13  O7  UNL     1      -7.465   0.438   0.375  1.00  0.00    -0.646 OA
ENDBRANCH  10  11
ENDBRANCH   9  10
ENDBRANCH   7   9
ENDBRANCH   5   7
ENDBRANCH   3   5
ENDBRANCH   1   3
BRANCH   1  14
HETATM   14  C4  UNL     1       1.167   0.140  -0.640  1.00  0.00     0.220 C 
BRANCH  14  15
HETATM   15  O1  UNL     1       2.559   0.092  -0.310  1.00  0.00    -0.313 OA
BRANCH  15  16
HETATM   16  C5  UNL     1       3.520  -0.478  -1.093  1.00  0.00     0.317 C 
HETATM   17  O2  UNL     1       3.199  -1.000  -2.171  1.00  0.00    -0.257 OA
BRANCH  16  18
HETATM   18  C6  UNL     1       4.910  -0.459  -0.636  1.00  0.00     0.153 A 
HETATM   19  C7  UNL     1       5.990  -0.992  -1.314  1.00  0.00     0.071 A 
HETATM   20  C8  UNL     1       7.094  -0.757  -0.537  1.00  0.00     0.078 A 
HETATM   21 CL2  UNL     1       8.732  -1.229  -0.933  1.00  0.00    -0.081 Cl
HETATM   22  C9  UNL     1       6.660  -0.092   0.583  1.00  0.00     0.144 A 
HETATM   23 BR1  UNL     1       7.813   0.475   2.001  1.00  0.00    -0.021 Br
HETATM   24  O3  UNL     1       5.381   0.050   0.463  1.00  0.00    -0.295 OA
ENDBRANCH  16  18
ENDBRANCH  15  16
ENDBRANCH  14  15
ENDBRANCH   1  14
TORSDOF 10
