REMARK  10 active torsions:
REMARK  status: ('A' for Active; 'I' for Inactive)
REMARK    1  A    between atoms: O1_2  and  C2_3 
REMARK    2  A    between atoms: C5_7  and  N1_8 
REMARK    3  A    between atoms: C7_13  and  C8_14 
REMARK    4  A    between atoms: C8_14  and  O4_15 
REMARK    5  A    between atoms: C8_14  and  N2_17 
REMARK    6  A    between atoms: C14_23  and  C15_24 
REMARK    7  A    between atoms: C14_23  and  O6_27 
REMARK    8  A    between atoms: C15_24  and  O5_25 
REMARK    9  A    between atoms: O6_27  and  C16_28 
REMARK   10  A    between atoms: C16_28  and  C17_29 
ROOT
HETATM    1  C8  UNL     1       1.403  -0.354  -1.435  1.00  0.00     0.398 C 
ENDROOT
BRANCH   1   2
HETATM    2  C7  UNL     1       2.441   0.313  -0.661  1.00  0.00     0.075 A 
HETATM    3  C2  UNL     1       3.304  -0.428   0.116  1.00  0.00     0.083 A 
HETATM    4  C3  UNL     1       4.306   0.167   0.870  1.00  0.00     0.064 A 
HETATM    5  C4  UNL     1       4.467   1.534   0.860  1.00  0.00     0.072 A 
HETATM    6 CL1  UNL     1       5.731   2.323   1.806  1.00  0.00    -0.082 Cl
HETATM    7  C5  UNL     1       3.613   2.292   0.088  1.00  0.00     0.163 A 
HETATM    8  C6  UNL     1       2.607   1.678  -0.667  1.00  0.00     0.164 A 
HETATM    9  F1  UNL     1       1.781   2.471  -1.419  1.00  0.00    -0.203 F 
BRANCH   3  10
HETATM   10  O1  UNL     1       3.170  -1.790   0.148  1.00  0.00    -0.355 OA
HETATM   11  C1  UNL     1       3.956  -2.682   0.878  1.00  0.00     0.210 C 
ENDBRANCH   3  10
BRANCH   7  12
HETATM   12  N1  UNL     1       3.791   3.691   0.089  1.00  0.00    -0.111 N 
HETATM   13  O2  UNL     1       3.456   4.346   1.082  1.00  0.00    -0.532 OA
HETATM   14  O3  UNL     1       4.327   4.328  -0.990  1.00  0.00    -0.532 OA
ENDBRANCH   7  12
ENDBRANCH   1   2
BRANCH   1  15
HETATM   15  O4  UNL     1       1.354   0.177  -2.750  1.00  0.00    -0.364 OA
ATOM     16  H4  UNL     1       0.677  -0.258  -3.255  1.00  0.00     0.212 HD
ENDBRANCH   1  15
BRANCH   1  17
HETATM   17  N2  UNL     1       0.084  -0.235  -0.916  1.00  0.00     0.131 N 
HETATM   18  C9  UNL     1      -0.880  -0.916  -1.728  1.00  0.00     0.230 C 
HETATM   19  C10 UNL     1      -0.763  -2.378  -1.280  1.00  0.00     0.038 C 
HETATM   20  C18 UNL     1      -2.276  -0.466  -1.413  1.00  0.00     0.076 C 
HETATM   21  C11 UNL     1      -0.568  -2.217   0.206  1.00  0.00     0.038 C 
HETATM   22  C12 UNL     1      -0.164  -0.752   0.380  1.00  0.00     0.230 C 
HETATM   23  C13 UNL     1      -1.402  -0.049   0.918  1.00  0.00     0.076 C 
HETATM   24  C14 UNL     1      -2.416   0.251  -0.113  1.00  0.00     0.086 C 
BRANCH  24  25
HETATM   25  C15 UNL     1      -2.342   1.754  -0.424  1.00  0.00     0.202 C 
BRANCH  25  26
HETATM   26  O5  UNL     1      -3.303   2.101  -1.368  1.00  0.00    -0.398 OA
ATOM     27  H5  UNL     1      -3.257   3.030  -1.560  1.00  0.00     0.209 HD
ENDBRANCH  25  26
ENDBRANCH  24  25
BRANCH  24  28
HETATM   28  O6  UNL     1      -3.681  -0.071   0.393  1.00  0.00    -0.376 OA
BRANCH  28  29
HETATM   29  C16 UNL     1      -4.018   0.630   1.520  1.00  0.00     0.200 C 
BRANCH  29  30
HETATM   30  C17 UNL     1      -5.402   0.176   1.942  1.00  0.00     0.248 C 
HETATM   31  F2  UNL     1      -6.341   0.415   0.951  1.00  0.00    -0.253 F 
ENDBRANCH  29  30
ENDBRANCH  28  29
ENDBRANCH  24  28
ENDBRANCH   1  17
TORSDOF 10
