REMARK  8 active torsions:
REMARK  status: ('A' for Active; 'I' for Inactive)
REMARK    1  A    between atoms: O1_2  and  C2_3 
REMARK    2  A    between atoms: C2_3  and  C3_4 
REMARK    3  A    between atoms: C3_4  and  O2_5 
REMARK    4  A    between atoms: O2_5  and  C4_6 
REMARK    5  A    between atoms: C5_9  and  O3_10 
REMARK    6  A    between atoms: O3_10  and  C6_11 
REMARK    7  A    between atoms: C6_11  and  C7_12 
REMARK    8  A    between atoms: C13_25  and  C14_26 
ROOT
HETATM    1  C7  UNL     1       5.026  -0.985  -0.342  1.00  0.00     0.408 C 
HETATM    2  N2  UNL     1       5.406  -0.587  -1.653  1.00  0.00    -0.041 N 
ATOM      3  H21 UNL     1       4.832   0.169  -2.025  1.00  0.00     0.279 HD
ATOM      4  H22 UNL     1       5.181  -1.283  -2.364  1.00  0.00     0.279 HD
HETATM    5  C8  UNL     1       6.788  -0.266  -1.604  1.00  0.00     0.283 C 
HETATM    6  C9  UNL     1       7.218  -0.314  -0.174  1.00  0.00     0.319 C 
HETATM    7  C10 UNL     1       7.992   0.898   0.182  1.00  0.00     0.094 C 
HETATM    8  N3  UNL     1       8.612   1.836   0.471  1.00  0.00    -0.195 NA
HETATM    9  N4  UNL     1       5.969  -0.329   0.568  1.00  0.00    -0.026 N 
ATOM     10  H41 UNL     1       6.033  -0.762   1.489  1.00  0.00     0.281 HD
ATOM     11  H42 UNL     1       5.666   0.587   0.898  1.00  0.00     0.281 HD
ENDROOT
BRANCH   1  12
HETATM   12  C6  UNL     1       3.599  -0.531  -0.083  1.00  0.00     0.240 C 
BRANCH  12  13
HETATM   13  O3  UNL     1       2.787  -1.144  -1.059  1.00  0.00    -0.332 OA
BRANCH  13  14
HETATM   14  C5  UNL     1       1.416  -0.940  -1.103  1.00  0.00     0.144 A 
HETATM   15  N1  UNL     1       0.790  -0.155  -0.221  1.00  0.00    -0.317 N 
HETATM   16  C4  UNL     1      -0.539   0.053  -0.250  1.00  0.00     0.150 A 
ATOM     17  H1  UNL     1       1.342   0.305   0.503  1.00  0.00     0.170 HD
HETATM   18  C13 UNL     1      -1.350  -0.532  -1.196  1.00  0.00    -0.003 A 
HETATM   19  C12 UNL     1      -0.727  -1.349  -2.120  1.00  0.00     0.016 A 
HETATM   20  C11 UNL     1       0.658  -1.557  -2.077  1.00  0.00     0.057 A 
BRANCH  16  21
HETATM   21  O2  UNL     1      -1.107   0.872   0.692  1.00  0.00    -0.333 OA
BRANCH  21  22
HETATM   22  C3  UNL     1      -0.261   1.467   1.655  1.00  0.00     0.203 C 
BRANCH  22  23
HETATM   23  C2  UNL     1      -1.006   2.343   2.636  1.00  0.00     0.193 C 
BRANCH  23  24
HETATM   24  O1  UNL     1      -0.074   2.865   3.521  1.00  0.00    -0.394 OA
HETATM   25  C1  UNL     1      -0.614   3.687   4.480  1.00  0.00     0.201 C 
ENDBRANCH  23  24
ENDBRANCH  22  23
ENDBRANCH  21  22
ENDBRANCH  16  21
BRANCH  18  26
HETATM   26  C14 UNL     1      -2.783  -0.259  -1.159  1.00  0.00     0.026 C 
HETATM   27  C15 UNL     1      -3.542  -0.752  -2.361  1.00  0.00     0.015 C 
HETATM   28  C16 UNL     1      -4.905  -0.087  -2.266  1.00  0.00     0.083 C 
HETATM   29  C17 UNL     1      -5.616  -0.644  -1.094  1.00  0.00     0.278 C 
HETATM   30  F1  UNL     1      -6.670  -1.432  -1.563  1.00  0.00    -0.203 F 
HETATM   31  F2  UNL     1      -6.208   0.420  -0.397  1.00  0.00    -0.203 F 
HETATM   32  C18 UNL     1      -4.796  -1.398  -0.108  1.00  0.00     0.165 C 
HETATM   33  C19 UNL     1      -5.421  -1.370   1.289  1.00  0.00     0.058 C 
HETATM   34  F3  UNL     1      -4.874  -2.750  -0.479  1.00  0.00    -0.237 F 
HETATM   35  C20 UNL     1      -3.372  -1.040   0.018  1.00  0.00     0.058 C 
ENDBRANCH  18  26
ENDBRANCH  13  14
ENDBRANCH  12  13
ENDBRANCH   1  12
TORSDOF 8
