REMARK  9 active torsions:
REMARK  status: ('A' for Active; 'I' for Inactive)
REMARK    1  A    between atoms: O1_2  and  C2_3 
REMARK    2  A    between atoms: C6_9  and  S1_10 
REMARK    3  A    between atoms: S1_10  and  N1_13 
REMARK    4  A    between atoms: N3_16  and  C7_17 
REMARK    5  A    between atoms: C7_17  and  C8_18 
REMARK    6  A    between atoms: C8_18  and  C9_19 
REMARK    7  A    between atoms: C9_19  and  C10_20 
REMARK    8  A    between atoms: C10_20  and  N4_21 
REMARK    9  A    between atoms: C13_24  and  N5_25 
ROOT
HETATM    1  N1  UNL     1       0.664  -0.305   0.107  1.00  0.00     0.015 N 
HETATM    2  N2  UNL     1      -0.540  -0.002  -0.345  1.00  0.00    -0.195 N 
ATOM      3  H2  UNL     1      -1.093  -0.309  -1.145  1.00  0.00     0.211 HD
HETATM    4  N3  UNL     1      -0.749   0.851   0.638  1.00  0.00    -0.106 N 
HETATM    5  C13 UNL     1       0.490   0.543   1.108  1.00  0.00     0.726 A 
ENDROOT
BRANCH   1   6
HETATM    6  S1  UNL     1       1.869  -1.383  -0.472  1.00  0.00     0.301 S 
HETATM    7  O2  UNL     1       2.077  -2.423   0.594  1.00  0.00    -0.198 OA
HETATM    8  O3  UNL     1       1.378  -2.149  -1.691  1.00  0.00    -0.198 OA
BRANCH   6   9
HETATM    9  C6  UNL     1       3.352  -0.590  -0.901  1.00  0.00     0.128 A 
HETATM   10  C5  UNL     1       3.545  -0.035  -2.173  1.00  0.00     0.060 A 
HETATM   11  C4  UNL     1       4.721   0.588  -2.531  1.00  0.00     0.052 A 
HETATM   12 CL2  UNL     1       2.197  -0.180  -3.290  1.00  0.00    -0.083 Cl
HETATM   13  C3  UNL     1       5.765   0.691  -1.639  1.00  0.00     0.070 A 
HETATM   14  C2  UNL     1       5.597   0.154  -0.389  1.00  0.00     0.113 A 
HETATM   15 CL1  UNL     1       7.278   1.487  -2.083  1.00  0.00    -0.081 Cl
HETATM   16  C14 UNL     1       4.406  -0.478  -0.024  1.00  0.00     0.094 A 
HETATM   17 CL3  UNL     1       4.261  -1.157   1.575  1.00  0.00    -0.080 Cl
BRANCH  14  18
HETATM   18  O1  UNL     1       6.660   0.258   0.520  1.00  0.00    -0.352 OA
HETATM   19  C1  UNL     1       7.668  -0.700   0.640  1.00  0.00     0.210 C 
ENDBRANCH  14  18
ENDBRANCH   6   9
ENDBRANCH   1   6
BRANCH   5  20
HETATM   20  N5  UNL     1       1.176   0.953   2.139  1.00  0.00    -0.231 N 
ATOM     21  H52 UNL     1       2.105   0.722   2.491  1.00  0.00     0.174 HD
ATOM     22  H51 UNL     1       1.042   1.607   2.911  1.00  0.00     0.174 HD
ENDBRANCH   5  20
BRANCH   4  23
HETATM   23  C7  UNL     1      -1.831   1.709   1.009  1.00  0.00     0.170 C 
BRANCH  23  24
HETATM   24  C8  UNL     1      -2.834   1.084   1.923  1.00  0.00     0.024 C 
BRANCH  24  25
HETATM   25  C9  UNL     1      -3.510  -0.138   1.346  1.00  0.00     0.032 C 
BRANCH  25  26
HETATM   26  C10 UNL     1      -4.244   0.242   0.077  1.00  0.00     0.271 C 
BRANCH  26  27
HETATM   27  N4  UNL     1      -4.901  -0.922  -0.493  1.00  0.00     0.080 N 
HETATM   28  C11 UNL     1      -5.591  -0.518  -1.703  1.00  0.00     0.309 C 
HETATM   29  C12 UNL     1      -5.920  -1.388   0.436  1.00  0.00     0.309 C 
ENDBRANCH  26  27
ENDBRANCH  25  26
ENDBRANCH  24  25
ENDBRANCH  23  24
ENDBRANCH   4  23
TORSDOF 9
