REMARK  12 active torsions:
REMARK  status: ('A' for Active; 'I' for Inactive)
REMARK    1  A    between atoms: C2_2  and  O1_4 
REMARK    2  A    between atoms: O1_4  and  S1_5 
REMARK    3  A    between atoms: S1_5  and  C4_8 
REMARK    4  A    between atoms: C4_8  and  C5_9 
REMARK    5  A    between atoms: C5_9  and  N1_10 
REMARK    6  A    between atoms: N1_10  and  C6_12 
REMARK    7  A    between atoms: C6_12  and  N2_13 
REMARK    8  A    between atoms: C6_12  and  C13_25 
REMARK    9  A    between atoms: N2_13  and  C8_15 
REMARK   10  A    between atoms: C8_15  and  O4_16 
REMARK   11  A    between atoms: C8_15  and  C9_18 
REMARK   12  A    between atoms: C11_21  and  O6_22 
ROOT
HETATM    1  C6  UNL     1      -1.397  -1.137  -0.921  1.00  0.00     0.136 C 
ENDROOT
BRANCH   1   2
HETATM    2  N1  UNL     1      -0.093  -0.719  -0.574  1.00  0.00    -0.375 N 
ATOM      3  H1  UNL     1       0.126   0.271  -0.686  1.00  0.00     0.160 HD
BRANCH   2   4
HETATM    4  C5  UNL     1       0.906  -1.535  -0.098  1.00  0.00     0.138 C 
BRANCH   4   5
HETATM    5  C4  UNL     1       2.207  -0.714   0.060  1.00  0.00     0.190 C 
BRANCH   5   6
HETATM    6  S1  UNL     1       1.960   0.574   1.219  1.00  0.00     0.267 S 
HETATM    7  O2  UNL     1       0.900   1.501   0.702  1.00  0.00    -0.199 OA
HETATM    8  O3  UNL     1       1.450   0.013   2.529  1.00  0.00    -0.199 OA
BRANCH   6   9
HETATM    9  O1  UNL     1       3.343   1.485   1.451  1.00  0.00    -0.271 OA
BRANCH   9  10
HETATM   10  C2  UNL     1       4.403   1.130   0.657  1.00  0.00     0.134 C 
HETATM   11  C1  UNL     1       4.776   2.339  -0.188  1.00  0.00     0.040 C 
HETATM   12  C3  UNL     1       5.655   0.769   1.432  1.00  0.00     0.040 C 
ENDBRANCH   9  10
ENDBRANCH   6   9
ENDBRANCH   5   6
ENDBRANCH   4   5
ENDBRANCH   2   4
ENDBRANCH   1   2
BRANCH   1  13
HETATM   13  N2  UNL     1      -2.292  -1.499   0.132  1.00  0.00    -0.318 N 
HETATM   14  C7  UNL     1      -1.994  -2.781   0.817  1.00  0.00     0.159 C 
BRANCH  13  15
HETATM   15  C8  UNL     1      -3.423  -0.842   0.628  1.00  0.00     0.151 C 
BRANCH  15  16
HETATM   16  O4  UNL     1      -4.046  -1.500   1.583  1.00  0.00    -0.345 OA
ATOM     17  H4  UNL     1      -4.814  -1.054   1.920  1.00  0.00     0.219 HD
ENDBRANCH  15  16
BRANCH  15  18
HETATM   18  C9  UNL     1      -4.026   0.417   0.283  1.00  0.00     0.022 A 
HETATM   19  C10 UNL     1      -5.315   0.810   0.778  1.00  0.00     0.221 A 
HETATM   20  O5  UNL     1      -5.592   2.008   0.348  1.00  0.00    -0.326 OA
HETATM   21  C11 UNL     1      -4.636   2.483  -0.387  1.00  0.00     0.178 A 
HETATM   22  C12 UNL     1      -3.641   1.495  -0.438  1.00  0.00     0.077 A 
BRANCH  21  23
HETATM   23  O6  UNL     1      -4.618   3.728  -0.995  1.00  0.00    -0.341 OA
ATOM     24  H6  UNL     1      -3.917   4.076  -1.534  1.00  0.00     0.220 HD
ENDBRANCH  21  23
ENDBRANCH  15  18
ENDBRANCH  13  15
ENDBRANCH   1  13
BRANCH   1  25
HETATM   25  C13 UNL     1      -1.566  -2.077  -2.071  1.00  0.00     0.246 C 
HETATM   26 CL1  UNL     1      -0.768  -3.638  -1.955  1.00  0.00    -0.075 Cl
HETATM   27 CL2  UNL     1      -3.339  -2.435  -2.143  1.00  0.00    -0.075 Cl
HETATM   28 CL3  UNL     1      -1.218  -1.277  -3.633  1.00  0.00    -0.075 Cl
ENDBRANCH   1  25
TORSDOF 12
