REMARK  7 active torsions:
REMARK  status: ('A' for Active; 'I' for Inactive)
REMARK    1  A    between atoms: O1_2  and  C2_3 
REMARK    2  A    between atoms: C2_3  and  C3_4 
REMARK    3  A    between atoms: C6_7  and  O2_8 
REMARK    4  A    between atoms: C6_7  and  C19_27 
REMARK    5  A    between atoms: O2_8  and  C7_9 
REMARK    6  A    between atoms: C10_12  and  N1_13 
REMARK    7  A    between atoms: C15_21  and  O3_22 
ROOT
HETATM    1  C7  UNL     1       0.062   0.092   1.264  1.00  0.00     0.109 A 
HETATM    2  C8  UNL     1       0.578  -0.553   0.137  1.00  0.00     0.042 A 
HETATM    3  C9  UNL     1       1.925  -0.664  -0.048  1.00  0.00     0.032 A 
HETATM    4  C10 UNL     1       2.838  -0.152   0.855  1.00  0.00     0.033 A 
HETATM    5  C17 UNL     1       2.310   0.480   1.960  1.00  0.00     0.074 A 
HETATM    6  C18 UNL     1       0.949   0.604   2.170  1.00  0.00     0.151 A 
HETATM    7  F1  UNL     1       0.567   1.218   3.329  1.00  0.00    -0.203 F 
ENDROOT
BRANCH   1   8
HETATM    8  O2  UNL     1      -1.283   0.187   1.426  1.00  0.00    -0.327 OA
BRANCH   8   9
HETATM    9  C6  UNL     1      -2.251   1.064   1.006  1.00  0.00     0.153 C 
HETATM   10  C5  UNL     1      -2.291   1.089  -0.514  1.00  0.00     0.089 C 
HETATM   11  C3  UNL     1      -3.225   0.115  -1.127  1.00  0.00     0.147 C 
HETATM   12  C4  UNL     1      -2.572  -0.421  -2.407  1.00  0.00     0.049 C 
HETATM   13  N3  UNL     1      -3.536  -1.036  -0.322  1.00  0.00    -0.056 N 
HETATM   14  C21 UNL     1      -3.999  -0.738   0.994  1.00  0.00     0.123 C 
ATOM     15  H32 UNL     1      -4.206  -1.635  -0.805  1.00  0.00     0.279 HD
ATOM     16  H31 UNL     1      -2.734  -1.665  -0.281  1.00  0.00     0.279 HD
HETATM   17  C20 UNL     1      -3.592   0.564   1.551  1.00  0.00     0.086 C 
HETATM   18  C22 UNL     1      -3.480  -1.852   1.913  1.00  0.00     0.046 C 
HETATM   19  C23 UNL     1      -5.508  -0.845   1.021  1.00  0.00     0.046 C 
BRANCH  11  20
HETATM   20  C2  UNL     1      -4.490   0.812  -1.619  1.00  0.00     0.205 C 
BRANCH  20  21
HETATM   21  O1  UNL     1      -5.265  -0.045  -2.395  1.00  0.00    -0.393 OA
HETATM   22  C1  UNL     1      -6.388   0.676  -2.795  1.00  0.00     0.201 C 
ENDBRANCH  20  21
ENDBRANCH  11  20
BRANCH   9  23
HETATM   23  C19 UNL     1      -2.138   2.481   1.517  1.00  0.00     0.279 C 
HETATM   24  F2  UNL     1      -1.025   3.149   1.093  1.00  0.00    -0.174 F 
HETATM   25  F3  UNL     1      -2.448   2.631   2.840  1.00  0.00    -0.174 F 
ENDBRANCH   9  23
ENDBRANCH   8   9
ENDBRANCH   1   8
BRANCH   4  26
HETATM   26  N1  UNL     1       4.212  -0.279   0.639  1.00  0.00    -0.370 N 
HETATM   27  C11 UNL     1       5.264   0.223   1.538  1.00  0.00     0.159 C 
HETATM   28  C12 UNL     1       6.571  -0.054   0.783  1.00  0.00     0.234 C 
HETATM   29  N2  UNL     1       6.796  -1.466   0.859  1.00  0.00    -0.065 N 
HETATM   30  C15 UNL     1       6.063   0.094  -0.652  1.00  0.00     0.177 C 
HETATM   31  C13 UNL     1       5.686  -2.063   0.105  1.00  0.00     0.260 C 
ATOM     32  H22 UNL     1       7.719  -1.757   0.537  1.00  0.00     0.277 HD
ATOM     33  H21 UNL     1       6.889  -1.820   1.811  1.00  0.00     0.277 HD
HETATM   34  C14 UNL     1       4.894  -0.895  -0.450  1.00  0.00     0.141 C 
BRANCH  30  35
HETATM   35  O3  UNL     1       6.874  -0.470  -1.581  1.00  0.00    -0.386 OA
HETATM   36  C16 UNL     1       7.152   0.268  -2.696  1.00  0.00     0.202 C 
ENDBRANCH  30  35
ENDBRANCH   4  26
TORSDOF 7
