REMARK  11 active torsions:
REMARK  status: ('A' for Active; 'I' for Inactive)
REMARK    1  A    between atoms: C6_8  and  N2_9 
REMARK    2  A    between atoms: N2_9  and  C7_10 
REMARK    3  A    between atoms: C7_10  and  C8_11 
REMARK    4  A    between atoms: C8_11  and  N3_12 
REMARK    5  A    between atoms: C11_15  and  C12_16 
REMARK    6  A    between atoms: C11_15  and  C13_19 
REMARK    7  A    between atoms: C12_16  and  O1_17 
REMARK    8  A    between atoms: C15_21  and  N4_22 
REMARK    9  A    between atoms: N4_22  and  C16_24 
REMARK   10  A    between atoms: N5_28  and  C20_29 
REMARK   11  A    between atoms: C20_29  and  C21_30 
ROOT
HETATM    1  N1  UNL     1       4.624   3.555   2.195  1.00  0.00    -0.196 NA
HETATM    2  C1  UNL     1       5.239   2.961   1.434  1.00  0.00     0.071 C 
HETATM    3  C2  UNL     1       5.999   2.199   0.461  1.00  0.00     0.155 C 
HETATM    4  C3  UNL     1       7.364   1.865   1.004  1.00  0.00     0.064 C 
HETATM    5  C4  UNL     1       7.492   0.368   0.973  1.00  0.00     0.178 C 
HETATM    6  F1  UNL     1       7.042  -0.156   2.160  1.00  0.00    -0.249 F 
HETATM    7  C5  UNL     1       6.511  -0.031  -0.110  1.00  0.00     0.106 C 
HETATM    8  C6  UNL     1       5.352   0.857   0.197  1.00  0.00     0.081 C 
ENDROOT
BRANCH   8   9
HETATM    9  N2  UNL     1       4.203   0.605   0.225  1.00  0.00    -0.428 NA
BRANCH   9  10
HETATM   10  C7  UNL     1       2.912   0.307   0.253  1.00  0.00     0.184 C 
BRANCH  10  11
HETATM   11  C8  UNL     1       2.098   0.646  -0.986  1.00  0.00     0.331 C 
BRANCH  11  12
HETATM   12  N3  UNL     1       0.722   0.283  -0.805  1.00  0.00     0.095 N 
HETATM   13  C9  UNL     1      -0.087   0.603  -1.966  1.00  0.00     0.273 C 
HETATM   14  C10 UNL     1      -1.034  -0.575  -2.150  1.00  0.00     0.046 C 
HETATM   15  C11 UNL     1      -0.884  -1.446  -0.967  1.00  0.00     0.040 C 
HETATM   16  C22 UNL     1       0.552  -1.100  -0.529  1.00  0.00     0.286 C 
BRANCH  15  17
HETATM   17  C12 UNL     1      -0.823  -2.907  -1.377  1.00  0.00     0.177 C 
BRANCH  17  18
HETATM   18  O1  UNL     1      -1.958  -3.323  -2.051  1.00  0.00    -0.400 OA
ATOM     19  H1  UNL     1      -1.920  -4.237  -2.307  1.00  0.00     0.209 HD
ENDBRANCH  17  18
ENDBRANCH  15  17
BRANCH  15  20
HETATM   20  C13 UNL     1      -1.778  -1.271   0.187  1.00  0.00     0.237 C 
HETATM   21  C14 UNL     1      -1.801   0.054   0.865  1.00  0.00     0.063 C 
HETATM   22  C15 UNL     1      -3.258   0.193   1.261  1.00  0.00     0.107 C 
HETATM   23  C19 UNL     1      -3.910  -0.463   0.054  1.00  0.00     0.298 C 
HETATM   24  N5  UNL     1      -3.174  -1.685  -0.042  1.00  0.00     0.104 N 
BRANCH  22  25
HETATM   25  N4  UNL     1      -3.680   1.460   1.616  1.00  0.00    -0.411 N 
ATOM     26  H4  UNL     1      -4.000   1.594   2.575  1.00  0.00     0.154 HD
BRANCH  25  27
HETATM   27  C16 UNL     1      -3.705   2.562   0.779  1.00  0.00     0.077 A 
HETATM   28  C17 UNL     1      -4.660   2.583  -0.404  1.00  0.00     0.027 A 
HETATM   29  C18 UNL     1      -4.954   3.441   0.793  1.00  0.00     0.027 A 
ENDBRANCH  25  27
ENDBRANCH  22  25
BRANCH  24  30
HETATM   30  C20 UNL     1      -3.540  -2.757   0.803  1.00  0.00     0.389 C 
BRANCH  30  31
HETATM   31  C21 UNL     1      -4.867  -3.349   0.577  1.00  0.00     0.413 C 
HETATM   32  F2  UNL     1      -5.924  -2.504   0.744  1.00  0.00    -0.169 F 
HETATM   33  F3  UNL     1      -4.966  -4.049  -0.624  1.00  0.00    -0.169 F 
HETATM   34  F4  UNL     1      -5.041  -4.350   1.561  1.00  0.00    -0.169 F 
ENDBRANCH  30  31
ENDBRANCH  24  30
ENDBRANCH  15  20
ENDBRANCH  11  12
ENDBRANCH  10  11
ENDBRANCH   9  10
ENDBRANCH   8   9
TORSDOF 11
