REMARK  12 active torsions:
REMARK  status: ('A' for Active; 'I' for Inactive)
REMARK    1  A    between atoms: C2_2  and  O1_3 
REMARK    2  A    between atoms: C2_2  and  C3_5 
REMARK    3  A    between atoms: C5_7  and  O2_8 
REMARK    4  A    between atoms: O2_8  and  C6_9 
REMARK    5  A    between atoms: C6_9  and  C7_10 
REMARK    6  A    between atoms: C11_17  and  C12_18 
REMARK    7  A    between atoms: N2_21  and  C13_22 
REMARK    8  A    between atoms: C13_22  and  O4_23 
REMARK    9  A    between atoms: C13_22  and  C14_25 
REMARK   10  A    between atoms: C14_25  and  C15_26 
REMARK   11  A    between atoms: C15_26  and  C16_27 
REMARK   12  A    between atoms: C16_27  and  C17_28 
ROOT
HETATM    1  C3  UNL     1       0.041  -2.202   0.186  1.00  0.00     0.117 C 
HETATM    2  C4  UNL     1       1.500  -2.043   0.432  1.00  0.00     0.060 C 
HETATM    3  C5  UNL     1       2.013  -0.624   0.503  1.00  0.00     0.126 C 
HETATM    4  C10 UNL     1       1.194   0.300   1.345  1.00  0.00     0.066 C 
HETATM    5  C11 UNL     1      -0.001  -0.499   1.867  1.00  0.00     0.178 C 
HETATM    6  N2  UNL     1      -0.652  -0.986   0.703  1.00  0.00    -0.345 N 
ENDROOT
BRANCH   6   7
HETATM    7  C13 UNL     1      -1.720  -0.512  -0.036  1.00  0.00     0.114 C 
BRANCH   7   8
HETATM    8  O4  UNL     1      -1.994  -1.188  -1.115  1.00  0.00    -0.349 OA
ATOM      9  H4  UNL     1      -2.728  -0.862  -1.623  1.00  0.00     0.219 HD
ENDBRANCH   7   8
BRANCH   7  10
HETATM   10  C14 UNL     1      -2.633   0.604   0.125  1.00  0.00     0.084 C 
BRANCH  10  11
HETATM   11  C15 UNL     1      -3.174   1.058  -1.254  1.00  0.00     0.017 C 
BRANCH  11  12
HETATM   12  C16 UNL     1      -4.120   2.223  -1.031  1.00  0.00     0.118 C 
BRANCH  12  13
HETATM   13  C17 UNL     1      -4.692   2.726  -2.316  1.00  0.00     0.387 C 
HETATM   14  F2  UNL     1      -3.727   3.166  -3.187  1.00  0.00    -0.171 F 
HETATM   15  F3  UNL     1      -5.396   1.708  -2.972  1.00  0.00    -0.171 F 
HETATM   16  F4  UNL     1      -5.602   3.736  -2.100  1.00  0.00    -0.171 F 
ENDBRANCH  12  13
ENDBRANCH  11  12
ENDBRANCH  10  11
ENDBRANCH   7  10
ENDBRANCH   6   7
BRANCH   1  17
HETATM   17  C2  UNL     1      -0.447  -3.451   0.803  1.00  0.00     0.137 C 
HETATM   18  C1  UNL     1      -1.874  -3.825   0.465  1.00  0.00     0.041 C 
BRANCH  17  19
HETATM   19  O1  UNL     1      -0.324  -3.579   2.162  1.00  0.00    -0.394 OA
ATOM     20  H1  UNL     1       0.572  -3.344   2.374  1.00  0.00     0.210 HD
ENDBRANCH  17  19
ENDBRANCH   1  17
BRANCH   5  21
HETATM   21  C12 UNL     1      -0.717   0.075   2.961  1.00  0.00     0.254 C 
HETATM   22  N1  UNL     1      -2.076  -0.075   3.205  1.00  0.00    -0.060 NA
HETATM   23  O3  UNL     1      -0.046   0.787   3.789  1.00  0.00    -0.275 OA
ENDBRANCH   5  21
BRANCH   3  24
HETATM   24  O2  UNL     1       2.206  -0.074  -0.748  1.00  0.00    -0.384 OA
BRANCH  24  25
HETATM   25  C6  UNL     1       3.461   0.130  -1.180  1.00  0.00     0.187 C 
BRANCH  25  26
HETATM   26  C7  UNL     1       4.379   1.081  -0.539  1.00  0.00     0.117 C 
HETATM   27  S1  UNL     1       5.985   0.888  -1.504  1.00  0.00    -0.088 SA
HETATM   28  S2  UNL     1       5.345   2.228  -3.080  1.00  0.00    -0.094 SA
HETATM   29  C8  UNL     1       3.845   2.806  -2.187  1.00  0.00     0.124 C 
HETATM   30  C9  UNL     1       4.096   2.545  -0.741  1.00  0.00     0.196 C 
HETATM   31  F1  UNL     1       3.070   2.960   0.006  1.00  0.00    -0.247 F 
ENDBRANCH  25  26
ENDBRANCH  24  25
ENDBRANCH   3  24
TORSDOF 12
