REMARK  3 active torsions:
REMARK  status: ('A' for Active; 'I' for Inactive)
REMARK    1  A    between atoms: C2_2  and  C3_3 
REMARK       I    between atoms: C3_3  and  N1_5 
REMARK    2  A    between atoms: N1_5  and  C4_7 
REMARK    3  A    between atoms: C10_19  and  N4_20 
REMARK       I    between atoms: N4_20  and  C11_22 
ROOT
HETATM    1  C4  UNL     1      -0.055  -0.249   0.251  1.00  0.00     0.106 C 
HETATM    2  N2  UNL     1       0.494  -1.293   0.715  1.00  0.00    -0.368 N 
HETATM    3  C5  UNL     1      -0.255  -2.413   1.188  1.00  0.00     0.151 C 
HETATM    4  C6  UNL     1       1.970  -1.503   0.834  1.00  0.00     0.200 C 
HETATM    5  C7  UNL     1       2.451  -1.875  -0.526  1.00  0.00     0.307 C 
HETATM    6  F1  UNL     1       1.479  -2.643  -1.134  1.00  0.00    -0.207 F 
HETATM    7  C8  UNL     1       3.701  -2.659  -0.484  1.00  0.00     0.122 C 
HETATM    8  N3  UNL     1       4.690  -3.272  -0.464  1.00  0.00    -0.193 NA
HETATM    9  S1  UNL     1       2.766  -0.466  -1.555  1.00  0.00     0.200 S 
HETATM   10  O2  UNL     1       4.024   0.231  -1.121  1.00  0.00    -0.223 OA
HETATM   11  O3  UNL     1       2.937  -0.979  -2.965  1.00  0.00    -0.223 OA
HETATM   12  C9  UNL     1       1.415   0.666  -1.562  1.00  0.00     0.178 C 
HETATM   13  C10 UNL     1       0.805   0.915  -0.239  1.00  0.00     0.167 C 
ENDROOT
BRANCH   1  14
HETATM   14  N1  UNL     1      -1.406  -0.091   0.157  1.00  0.00    -0.311 N 
HETATM   15  C3  UNL     1      -2.663  -0.639   0.374  1.00  0.00     0.245 C 
HETATM   16  O1  UNL     1      -3.076  -1.716   0.837  1.00  0.00    -0.268 OA
ATOM     17  H1  UNL     1      -1.560   0.831  -0.250  1.00  0.00     0.170 HD
BRANCH  15  18
HETATM   18  C2  UNL     1      -3.821   0.272  -0.047  1.00  0.00     0.064 C 
HETATM   19  C1  UNL     1      -5.058  -0.128   0.105  1.00  0.00     0.017 C 
ENDBRANCH  15  18
ENDBRANCH   1  14
BRANCH  13  20
HETATM   20  N4  UNL     1       0.083   2.147  -0.268  1.00  0.00    -0.333 N 
HETATM   21  C11 UNL     1       0.178   3.134   0.742  1.00  0.00     0.329 C 
HETATM   22  N5  UNL     1      -0.575   4.325   0.630  1.00  0.00    -0.040 NA
HETATM   23  O4  UNL     1       0.930   2.951   1.737  1.00  0.00    -0.251 OA
ATOM     24  H4  UNL     1      -0.535   2.325  -1.060  1.00  0.00     0.164 HD
ENDBRANCH  13  20
TORSDOF 3
