REMARK  5 active torsions:
REMARK  status: ('A' for Active; 'I' for Inactive)
REMARK    1  A    between atoms: C2_5  and  N2_6 
REMARK    2  A    between atoms: N2_6  and  S1_8 
REMARK    3  A    between atoms: S1_8  and  N3_9 
REMARK    4  A    between atoms: S1_8  and  N4_13 
REMARK    5  A    between atoms: N5_26  and  O3_27 
ROOT
HETATM    1  N1  UNL     1      -1.129   3.730   0.536  1.00  0.00    -0.382 N 
ATOM      2  H11 UNL     1      -1.299   4.551   1.117  1.00  0.00     0.157 HD
ATOM      3  H12 UNL     1      -0.426   4.021  -0.144  1.00  0.00     0.157 HD
HETATM    4  C1  UNL     1      -1.685   2.548   0.631  1.00  0.00     0.155 A 
HETATM    5  C2  UNL     1      -1.441   1.371  -0.203  1.00  0.00     0.100 A 
HETATM    6  C7  UNL     1      -2.230   0.420   0.271  1.00  0.00     0.027 A 
HETATM    7  C8  UNL     1      -2.438  -0.893  -0.101  1.00  0.00     0.058 A 
HETATM    8  C9  UNL     1      -3.332  -1.722   0.551  1.00  0.00     0.117 A 
HETATM    9  F1  UNL     1      -3.535  -3.010   0.186  1.00  0.00    -0.206 F 
HETATM   10  C10 UNL     1      -4.031  -1.198   1.607  1.00  0.00     0.044 A 
HETATM   11  C11 UNL     1      -3.860   0.097   2.013  1.00  0.00     0.036 A 
HETATM   12  C12 UNL     1      -2.949   0.916   1.337  1.00  0.00     0.077 A 
HETATM   13  N5  UNL     1      -2.664   2.142   1.578  1.00  0.00    -0.205 N 
ENDROOT
BRANCH   5  14
HETATM   14  N2  UNL     1      -0.528   1.302  -1.295  1.00  0.00    -0.284 N 
ATOM     15  H2  UNL     1      -0.863   1.381  -2.255  1.00  0.00     0.178 HD
BRANCH  14  16
HETATM   16  S1  UNL     1       1.132   1.086  -0.972  1.00  0.00     0.176 S 
HETATM   17  O1  UNL     1       2.002   1.925  -1.871  1.00  0.00    -0.211 OA
BRANCH  16  18
HETATM   18  N3  UNL     1       1.431   1.537   0.484  1.00  0.00    -0.332 N 
ATOM     19  H32 UNL     1       0.733   1.903   1.132  1.00  0.00     0.168 HD
ATOM     20  H31 UNL     1       2.424   1.408   0.677  1.00  0.00     0.168 HD
ENDBRANCH  16  18
BRANCH  16  21
HETATM   21  N4  UNL     1       1.648  -0.545  -1.144  1.00  0.00    -0.207 NA
HETATM   22  C3  UNL     1       1.547  -1.311   0.058  1.00  0.00     0.133 C 
HETATM   23  C4  UNL     1       2.576  -2.427   0.009  1.00  0.00     0.183 C 
HETATM   24  O2  UNL     1       3.867  -1.946  -0.018  1.00  0.00    -0.389 OA
HETATM   25  C5  UNL     1       3.974  -0.722  -0.672  1.00  0.00     0.183 C 
HETATM   26  C6  UNL     1       2.934  -0.653  -1.798  1.00  0.00     0.133 C 
ENDBRANCH  16  21
ENDBRANCH  14  16
ENDBRANCH   5  14
BRANCH  13  27
HETATM   27  O3  UNL     1      -3.182   2.969   2.565  1.00  0.00    -0.281 OA
ATOM     28  H3  UNL     1      -3.836   2.698   3.198  1.00  0.00     0.245 HD
ENDBRANCH  13  27
TORSDOF 5
