REMARK  7 active torsions:
REMARK  status: ('A' for Active; 'I' for Inactive)
REMARK    1  A    between atoms: C2_2  and  N1_3 
REMARK    2  A    between atoms: C2_2  and  C10_21 
REMARK    3  A    between atoms: N1_3  and  C3_5 
REMARK    4  A    between atoms: C3_5  and  N2_7 
REMARK    5  A    between atoms: N2_7  and  N3_9 
REMARK    6  A    between atoms: N3_9  and  N4_10 
REMARK    7  A    between atoms: N3_9  and  C4_13 
REMARK       I    between atoms: C10_21  and  N6_23 
ROOT
HETATM    1  N2  UNL     1      -0.560   0.163   0.293  1.00  0.00    -0.276 N 
ATOM      2  H2  UNL     1      -0.639   0.447   1.269  1.00  0.00     0.185 HD
ENDROOT
BRANCH   1   3
HETATM    3  C3  UNL     1       0.707  -0.072  -0.297  1.00  0.00     0.184 C 
HETATM    4  S1  UNL     1       0.827  -0.525  -1.865  1.00  0.00    -0.040 SA
BRANCH   3   5
HETATM    5  N1  UNL     1       1.918   0.080   0.456  1.00  0.00    -0.353 N 
ATOM      6  H1  UNL     1       1.865   0.364   1.434  1.00  0.00     0.162 HD
BRANCH   5   7
HETATM    7  C2  UNL     1       3.209  -0.161  -0.141  1.00  0.00     0.172 C 
HETATM    8  C1  UNL     1       3.333  -1.596  -0.612  1.00  0.00     0.042 C 
BRANCH   7   9
HETATM    9  C10 UNL     1       4.261   0.227   0.815  1.00  0.00     0.241 C 
HETATM   10  O1  UNL     1       3.898   0.654   1.952  1.00  0.00    -0.271 OA
HETATM   11  N6  UNL     1       5.635   0.156   0.551  1.00  0.00    -0.359 N 
HETATM   12  C11 UNL     1       6.597   0.550   1.555  1.00  0.00     0.152 C 
HETATM   13  C12 UNL     1       6.112  -0.301  -0.720  1.00  0.00     0.152 C 
ENDBRANCH   7   9
ENDBRANCH   5   7
ENDBRANCH   3   5
ENDBRANCH   1   3
BRANCH   1  14
HETATM   14  N3  UNL     1      -1.698  -0.005  -0.499  1.00  0.00    -0.112 NA
BRANCH  14  15
HETATM   15  N4  UNL     1      -1.605   0.664  -1.696  1.00  0.00    -0.344 NA
ATOM     16  H42 UNL     1      -0.793   0.340  -2.222  1.00  0.00     0.172 HD
ATOM     17  H41 UNL     1      -2.436   0.541  -2.274  1.00  0.00     0.172 HD
ENDBRANCH  14  15
BRANCH  14  18
HETATM   18  C4  UNL     1      -2.841   0.451   0.241  1.00  0.00     0.307 C 
HETATM   19  C5  UNL     1      -3.021  -0.334   1.539  1.00  0.00     0.091 C 
HETATM   20  C6  UNL     1      -4.427   0.141   1.929  1.00  0.00     0.199 C 
HETATM   21  F1  UNL     1      -4.289   1.467   2.311  1.00  0.00    -0.248 F 
HETATM   22  C7  UNL     1      -5.118   0.117   0.596  1.00  0.00     0.275 C 
HETATM   23  N5  UNL     1      -4.094   0.182  -0.424  1.00  0.00    -0.052 N 
HETATM   24  C8  UNL     1      -4.109  -1.041  -1.166  1.00  0.00     0.274 C 
HETATM   25  C9  UNL     1      -4.462   1.272  -1.334  1.00  0.00     0.274 C 
ENDBRANCH  14  18
ENDBRANCH   1  14
TORSDOF 7
