REMARK  5 active torsions:
REMARK  status: ('A' for Active; 'I' for Inactive)
REMARK       I    between atoms: C2_5  and  N4_7 
REMARK    1  A    between atoms: N5_10  and  C5_11 
REMARK    2  A    between atoms: C5_11  and  O1_12 
REMARK    3  A    between atoms: C5_11  and  C6_14 
REMARK    4  A    between atoms: C6_14  and  C7_15 
REMARK    5  A    between atoms: C11_22  and  C12_23 
ROOT
HETATM    1  N1  UNL     1      -2.680   1.455   3.781  1.00  0.00    -0.172 NA
HETATM    2  C1  UNL     1      -3.150   1.451   2.709  1.00  0.00     0.184 C 
HETATM    3  N2  UNL     1      -3.714   1.469   1.496  1.00  0.00    -0.267 N 
ATOM      4  H2  UNL     1      -4.605   1.965   1.469  1.00  0.00     0.180 HD
HETATM    5  C2  UNL     1      -3.373   1.004   0.396  1.00  0.00     0.200 C 
HETATM    6  N3  UNL     1      -4.334   1.280  -0.681  1.00  0.00    -0.063 NA
HETATM    7  N4  UNL     1      -2.241   0.281   0.017  1.00  0.00    -0.339 N 
HETATM    8  C3  UNL     1      -1.824   0.381  -1.397  1.00  0.00     0.146 C 
HETATM    9  C4  UNL     1      -0.578   1.216  -1.361  1.00  0.00     0.144 C 
HETATM   10  N5  UNL     1       0.404   0.474  -0.548  1.00  0.00    -0.360 N 
HETATM   11  C10 UNL     1       0.077  -0.287   0.614  1.00  0.00     0.159 C 
HETATM   12  C11 UNL     1      -1.402  -0.553   0.818  1.00  0.00     0.194 C 
ENDROOT
BRANCH  12  13
HETATM   13  C12 UNL     1      -1.677  -1.973   0.405  1.00  0.00     0.255 C 
HETATM   14  N7  UNL     1      -0.908  -3.089   0.884  1.00  0.00    -0.060 NA
HETATM   15  O3  UNL     1      -2.618  -2.272  -0.398  1.00  0.00    -0.275 OA
ENDBRANCH  12  13
BRANCH  10  16
HETATM   16  C5  UNL     1       1.704   0.413  -1.090  1.00  0.00     0.134 C 
BRANCH  16  17
HETATM   17  O1  UNL     1       1.852   0.744  -2.346  1.00  0.00    -0.348 OA
ATOM     18  H1  UNL     1       2.728   0.703  -2.711  1.00  0.00     0.219 HD
ENDBRANCH  16  17
BRANCH  16  19
HETATM   19  C6  UNL     1       2.968   0.012  -0.459  1.00  0.00     0.136 A 
HETATM   20  C8  UNL     1       3.283  -1.462  -0.407  1.00  0.00     0.069 A 
HETATM   21  C9  UNL     1       4.030  -0.563  -1.381  1.00  0.00     0.197 A 
HETATM   22  F1  UNL     1       3.728  -0.788  -2.710  1.00  0.00    -0.248 F 
BRANCH  19  23
HETATM   23  C7  UNL     1       3.395   0.709   0.775  1.00  0.00     0.251 C 
HETATM   24  N6  UNL     1       2.660   1.800   1.257  1.00  0.00    -0.061 NA
HETATM   25  O2  UNL     1       4.429   0.350   1.426  1.00  0.00    -0.275 OA
ENDBRANCH  19  23
ENDBRANCH  16  19
ENDBRANCH  10  16
TORSDOF 5
