REMARK  4 active torsions:
REMARK  status: ('A' for Active; 'I' for Inactive)
REMARK       I    between atoms: C1_2  and  N2_4 
REMARK    1  A    between atoms: C5_10  and  C6_11 
REMARK       I    between atoms: C6_11  and  N3_13 
REMARK    2  A    between atoms: C9_16  and  N4_17 
REMARK    3  A    between atoms: N4_17  and  S1_19 
REMARK    4  A    between atoms: S1_19  and  N5_20 
ROOT
HETATM    1  C6  UNL     1      -0.805  -1.107  -0.319  1.00  0.00     0.248 C 
HETATM    2  O2  UNL     1      -1.196  -2.234   0.087  1.00  0.00    -0.271 OA
HETATM    3  N3  UNL     1       0.542  -1.097  -0.780  1.00  0.00    -0.348 N 
HETATM    4  C7  UNL     1       1.400  -2.288  -0.805  1.00  0.00     0.128 C 
HETATM    5  C8  UNL     1       2.809  -1.820  -0.848  1.00  0.00     0.047 C 
HETATM    6  C9  UNL     1       2.719  -0.350  -0.602  1.00  0.00     0.114 C 
HETATM    7  C10 UNL     1       1.375  -0.027  -1.284  1.00  0.00     0.151 C 
ENDROOT
BRANCH   1   8
HETATM    8  C5  UNL     1      -1.560   0.116  -0.355  1.00  0.00     0.253 C 
HETATM    9  N2  UNL     1      -2.757   0.280   0.388  1.00  0.00    -0.317 N 
HETATM   10  C1  UNL     1      -3.642  -0.491   1.137  1.00  0.00     0.331 C 
HETATM   11  C2  UNL     1      -2.979   1.724   0.209  1.00  0.00     0.134 C 
HETATM   12  N1  UNL     1      -4.818   0.064   1.780  1.00  0.00    -0.040 NA
HETATM   13  O1  UNL     1      -3.586  -1.728   1.376  1.00  0.00    -0.251 OA
HETATM   14  C3  UNL     1      -2.888   1.773  -1.315  1.00  0.00     0.101 C 
HETATM   15  C4  UNL     1      -2.122   0.495  -1.714  1.00  0.00     0.274 C 
HETATM   16  F1  UNL     1      -3.047  -0.428  -2.123  1.00  0.00    -0.203 F 
HETATM   17  F2  UNL     1      -1.233   0.870  -2.647  1.00  0.00    -0.203 F 
ENDBRANCH   1   8
BRANCH   6  18
HETATM   18  N4  UNL     1       2.535  -0.108   0.794  1.00  0.00    -0.297 N 
ATOM     19  H4  UNL     1       1.823  -0.582   1.350  1.00  0.00     0.174 HD
BRANCH  18  20
HETATM   20  S1  UNL     1       3.612   1.045   1.450  1.00  0.00     0.313 S 
HETATM   21  O3  UNL     1       2.994   1.878   2.522  1.00  0.00    -0.183 OA
HETATM   22  O4  UNL     1       3.997   1.997   0.327  1.00  0.00    -0.183 OA
BRANCH  20  23
HETATM   23  N5  UNL     1       5.062   0.361   2.045  1.00  0.00    -0.312 N 
ATOM     24  H52 UNL     1       5.251  -0.641   2.005  1.00  0.00     0.170 HD
ATOM     25  H51 UNL     1       5.705   1.049   2.437  1.00  0.00     0.170 HD
ENDBRANCH  20  23
ENDBRANCH  18  20
ENDBRANCH   6  18
TORSDOF 4
