REMARK  9 active torsions:
REMARK  status: ('A' for Active; 'I' for Inactive)
REMARK    1  A    between atoms: C2_2  and  C3_3 
REMARK    2  A    between atoms: C13_13  and  O1_14 
REMARK    3  A    between atoms: O1_14  and  C14_15 
REMARK    4  A    between atoms: C17_19  and  O3_20 
REMARK    5  A    between atoms: C22_26  and  C23_27 
REMARK    6  A    between atoms: C23_27  and  O5_29 
REMARK    7  A    between atoms: O5_29  and  C24_30 
REMARK    8  A    between atoms: C24_30  and  C25_31 
REMARK    9  A    between atoms: C25_31  and  N1_32 
ROOT
HETATM    1  C3  UNL     1      -1.416   1.611   0.732  1.00  0.00    -0.007 C 
HETATM    2  C4  UNL     1      -0.225   2.528   0.534  1.00  0.00     0.021 C 
HETATM    3  C5  UNL     1      -2.434   2.047  -0.261  1.00  0.00     0.017 C 
HETATM    4  C6  UNL     1      -2.282   3.571  -0.548  1.00  0.00     0.015 C 
HETATM    5  C7  UNL     1      -2.647   1.427  -1.547  1.00  0.00    -0.014 C 
HETATM    6  C8  UNL     1      -2.468   0.019  -1.892  1.00  0.00    -0.062 C 
HETATM    7  C9  UNL     1      -2.732  -0.142  -3.189  1.00  0.00     0.019 C 
HETATM    8  C10 UNL     1      -2.135  -1.339  -1.366  1.00  0.00    -0.007 C 
HETATM    9  C11 UNL     1      -2.709  -2.472  -2.193  1.00  0.00     0.021 C 
HETATM   10  C12 UNL     1      -3.037  -1.396  -0.143  1.00  0.00     0.048 C 
HETATM   11  C13 UNL     1      -2.484  -0.478   0.869  1.00  0.00     0.146 C 
HETATM   12  C16 UNL     1      -1.134   0.141   0.723  1.00  0.00     0.037 C 
HETATM   13  C17 UNL     1      -0.429  -0.471   1.891  1.00  0.00     0.131 C 
HETATM   14  C18 UNL     1      -0.313  -1.961   1.628  1.00  0.00     0.033 C 
HETATM   15  C19 UNL     1      -0.566  -2.471   0.278  1.00  0.00     0.014 C 
HETATM   16  C20 UNL     1      -0.762  -1.567  -0.888  1.00  0.00    -0.019 C 
HETATM   17  C21 UNL     1       0.133  -1.994  -2.062  1.00  0.00     0.017 C 
HETATM   18  C22 UNL     1      -0.271  -0.179  -0.421  1.00  0.00     0.109 C 
ENDROOT
BRANCH  18  19
HETATM   19  C23 UNL     1       1.200  -0.274  -0.280  1.00  0.00     0.264 C 
HETATM   20  O4  UNL     1       1.874  -1.353  -0.349  1.00  0.00    -0.265 OA
BRANCH  19  21
HETATM   21  O5  UNL     1       2.127   0.703  -0.057  1.00  0.00    -0.319 OA
BRANCH  21  22
HETATM   22  C24 UNL     1       3.483   0.712   0.084  1.00  0.00     0.206 C 
BRANCH  22  23
HETATM   23  C25 UNL     1       4.172   0.222  -1.162  1.00  0.00     0.262 C 
BRANCH  23  24
HETATM   24  N1  UNL     1       5.623   0.239  -1.000  1.00  0.00    -0.077 N 
HETATM   25  C26 UNL     1       5.972  -0.564   0.157  1.00  0.00     0.271 C 
HETATM   26  C27 UNL     1       6.139   1.579  -0.890  1.00  0.00     0.271 C 
HETATM   27  C28 UNL     1       6.195  -0.385  -2.154  1.00  0.00     0.271 C 
ENDBRANCH  23  24
ENDBRANCH  22  23
ENDBRANCH  21  22
ENDBRANCH  19  21
ENDBRANCH  18  19
BRANCH   1  28
HETATM   28  C2  UNL     1      -1.803   1.945   2.135  1.00  0.00    -0.026 C 
HETATM   29  C1  UNL     1      -2.780   2.647   2.588  1.00  0.00     0.008 C 
ENDBRANCH   1  28
BRANCH  11  30
HETATM   30  O1  UNL     1      -2.732  -1.181   2.080  1.00  0.00    -0.315 OA
BRANCH  30  31
HETATM   31  C14 UNL     1      -3.789  -1.061   2.883  1.00  0.00     0.255 C 
HETATM   32  C15 UNL     1      -3.967  -1.835   4.163  1.00  0.00     0.126 C 
HETATM   33  O2  UNL     1      -4.712  -0.262   2.588  1.00  0.00    -0.266 OA
ENDBRANCH  30  31
ENDBRANCH  11  30
BRANCH  13  34
HETATM   34  O3  UNL     1       0.727   0.113   2.325  1.00  0.00    -0.395 OA
ATOM     35  H3  UNL     1       1.175  -0.276   3.067  1.00  0.00     0.210 HD
ENDBRANCH  13  34
TORSDOF 9
