REMARK  6 active torsions:
REMARK  status: ('A' for Active; 'I' for Inactive)
REMARK       I    between atoms: C1_2  and  N1_3 
REMARK    1  A    between atoms: C1_2  and  C18_26 
REMARK    2  A    between atoms: N1_3  and  C2_5 
REMARK    3  A    between atoms: N2_8  and  C5_9 
REMARK    4  A    between atoms: C5_9  and  C6_10 
REMARK    5  A    between atoms: C6_10  and  C7_11 
REMARK    6  A    between atoms: C6_10  and  N4_18 
ROOT
HETATM    1  C2  UNL     1       0.471  -0.497   0.944  1.00  0.00     0.087 C 
HETATM    2  C3  UNL     1      -0.224   0.644   1.671  1.00  0.00     0.055 C 
HETATM    3  C4  UNL     1      -1.546   0.231   2.211  1.00  0.00     0.274 C 
HETATM    4  N2  UNL     1      -2.439  -0.394   1.249  1.00  0.00     0.091 N 
HETATM    5  C16 UNL     1      -1.727  -1.357   0.427  1.00  0.00     0.274 C 
HETATM    6  C17 UNL     1      -0.476  -0.850  -0.198  1.00  0.00     0.055 C 
ENDROOT
BRANCH   1   7
HETATM    7  N1  UNL     1       1.752  -0.073   0.472  1.00  0.00    -0.356 N 
HETATM    8  C1  UNL     1       2.930  -0.731   0.887  1.00  0.00     0.226 C 
HETATM    9  O1  UNL     1       2.844  -1.695   1.677  1.00  0.00    -0.273 OA
ATOM     10  H1  UNL     1       1.816   0.715  -0.173  1.00  0.00     0.162 HD
BRANCH   8  11
HETATM   11  C18 UNL     1       4.249  -0.289   0.395  1.00  0.00     0.042 C 
HETATM   12  C19 UNL     1       5.322  -1.147   1.015  1.00  0.00     0.024 C 
HETATM   13  C20 UNL     1       6.697  -0.599   0.953  1.00  0.00    -0.013 C 
HETATM   14  C21 UNL     1       7.462  -1.002  -0.284  1.00  0.00     0.005 C 
HETATM   15  C26 UNL     1       6.791   0.892   1.104  1.00  0.00     0.009 C 
HETATM   16  C22 UNL     1       6.572  -1.198  -1.478  1.00  0.00     0.005 C 
HETATM   17  C23 UNL     1       5.592  -0.094  -1.700  1.00  0.00    -0.013 C 
HETATM   18  C24 UNL     1       6.051   1.255  -1.261  1.00  0.00     0.009 C 
HETATM   19  C28 UNL     1       4.264  -0.493  -1.103  1.00  0.00     0.024 C 
HETATM   20  C25 UNL     1       5.803   1.570   0.174  1.00  0.00    -0.013 C 
HETATM   21  C27 UNL     1       4.423   1.170   0.658  1.00  0.00     0.024 C 
ENDBRANCH   8  11
ENDBRANCH   1   7
BRANCH   4  22
HETATM   22  C5  UNL     1      -3.159   0.562   0.486  1.00  0.00     0.313 C 
BRANCH  22  23
HETATM   23  C6  UNL     1      -4.233   0.076  -0.427  1.00  0.00     0.285 C 
BRANCH  23  24
HETATM   24  C7  UNL     1      -4.736   1.331  -1.108  1.00  0.00    -0.008 A 
HETATM   25  C8  UNL     1      -5.390   2.263  -0.351  1.00  0.00     0.012 A 
HETATM   26  C9  UNL     1      -5.876   3.442  -0.936  1.00  0.00     0.018 A 
HETATM   27  C10 UNL     1      -5.682   3.639  -2.276  1.00  0.00     0.087 A 
HETATM   28  N3  UNL     1      -5.039   2.718  -3.007  1.00  0.00    -0.375 N 
HETATM   29  C11 UNL     1      -4.563   1.566  -2.444  1.00  0.00     0.096 A 
ATOM     30  H3  UNL     1      -4.902   2.880  -4.005  1.00  0.00     0.164 HD
ENDBRANCH  23  24
BRANCH  23  31
HETATM   31  N4  UNL     1      -5.430  -0.413   0.279  1.00  0.00     0.103 N 
HETATM   32  C12 UNL     1      -5.179  -1.534   1.108  1.00  0.00     0.299 C 
HETATM   33  C13 UNL     1      -6.469  -2.227   1.544  1.00  0.00     0.198 C 
HETATM   34  O2  UNL     1      -7.007  -2.737   0.337  1.00  0.00    -0.388 OA
HETATM   35  C14 UNL     1      -7.502  -1.631  -0.342  1.00  0.00     0.198 C 
HETATM   36  C15 UNL     1      -6.416  -0.674  -0.751  1.00  0.00     0.299 C 
ENDBRANCH  23  31
ENDBRANCH  22  23
ENDBRANCH   4  22
TORSDOF 6
