REMARK  4 active torsions:
REMARK  status: ('A' for Active; 'I' for Inactive)
REMARK    1  A    between atoms: O1_2  and  C2_3 
REMARK    2  A    between atoms: C2_3  and  C3_5 
REMARK    3  A    between atoms: C5_7  and  O3_8 
REMARK    4  A    between atoms: C6_10  and  C7_11 
ROOT
HETATM    1  C3  UNL     1      -0.011   0.540   0.611  1.00  0.00     0.076 C 
HETATM    2  C4  UNL     1       0.083  -0.261   1.889  1.00  0.00     0.029 C 
HETATM    3  C5  UNL     1       1.402   0.485  -0.002  1.00  0.00     0.145 C 
HETATM    4  C6  UNL     1       2.295  -0.548   0.458  1.00  0.00     0.054 C 
HETATM    5  C8  UNL     1       2.261  -1.923  -0.050  1.00  0.00    -0.080 C 
HETATM    6  C9  UNL     1       3.425  -2.738   0.543  1.00  0.00     0.043 C 
HETATM    7  C10 UNL     1       1.485  -2.572  -0.871  1.00  0.00    -0.024 C 
HETATM    8  C11 UNL     1       0.283  -2.166  -1.648  1.00  0.00     0.028 C 
HETATM    9  C12 UNL     1      -0.998  -2.335  -0.949  1.00  0.00     0.013 C 
HETATM   10  C13 UNL     1      -1.658  -1.195  -0.267  1.00  0.00    -0.037 C 
HETATM   11  C14 UNL     1      -2.335  -1.725   0.954  1.00  0.00     0.015 C 
HETATM   12  C15 UNL     1      -2.786  -0.541  -1.104  1.00  0.00     0.018 C 
HETATM   13  C16 UNL     1      -2.302   0.825  -0.581  1.00  0.00    -0.041 C 
HETATM   14  C17 UNL     1      -3.056   1.395   0.534  1.00  0.00     0.015 C 
HETATM   15  C18 UNL     1      -2.370   1.761  -1.792  1.00  0.00     0.015 C 
HETATM   16  C19 UNL     1      -1.009   0.097  -0.361  1.00  0.00     0.022 C 
ENDROOT
BRANCH   1  17
HETATM   17  C2  UNL     1      -0.155   1.962   1.066  1.00  0.00     0.270 C 
HETATM   18  O2  UNL     1      -0.166   2.314   2.274  1.00  0.00    -0.264 OA
BRANCH  17  19
HETATM   19  O1  UNL     1      -0.290   3.018   0.172  1.00  0.00    -0.326 OA
HETATM   20  C1  UNL     1      -0.424   4.350   0.570  1.00  0.00     0.213 C 
ENDBRANCH  17  19
ENDBRANCH   1  17
BRANCH   3  21
HETATM   21  O3  UNL     1       2.056   1.741   0.211  1.00  0.00    -0.394 OA
ATOM     22  H3  UNL     1       2.927   1.707  -0.167  1.00  0.00     0.210 HD
ENDBRANCH   3  21
BRANCH   4  23
HETATM   23  C7  UNL     1       3.736  -0.014   0.166  1.00  0.00     0.098 C 
HETATM   24  S1  UNL     1       3.833   0.247  -1.608  1.00  0.00    -0.097 SA
ENDBRANCH   4  23
TORSDOF 4
