REMARK  3 active torsions:
REMARK  status: ('A' for Active; 'I' for Inactive)
REMARK    1  A    between atoms: N1_4  and  C3_5 
REMARK    2  A    between atoms: C9_13  and  S2_14 
REMARK    3  A    between atoms: S2_14  and  C10_15 
ROOT
HETATM    1  C1  UNL     1       1.835   5.095   0.375  1.00  0.00     0.037 C 
HETATM    2  C2  UNL     1       0.960   4.181   0.200  1.00  0.00     0.056 C 
HETATM    3  S1  UNL     1       0.742   2.798   1.383  1.00  0.00    -0.007 SA
HETATM    4  N1  UNL     1       0.523   1.433   0.211  1.00  0.00    -0.292 N 
HETATM    5  C9  UNL     1      -0.339   1.679  -0.878  1.00  0.00     0.155 C 
HETATM    6  N3  UNL     1      -0.529   2.879  -1.358  1.00  0.00    -0.322 N 
ATOM      7  H3  UNL     1      -1.167   2.945  -2.151  1.00  0.00     0.169 HD
HETATM    8  C16 UNL     1       0.028   4.077  -0.926  1.00  0.00     0.118 C 
HETATM    9  N4  UNL     1      -0.261   5.211  -1.521  1.00  0.00    -0.384 N 
ATOM     10  H41 UNL     1      -0.910   5.139  -2.305  1.00  0.00     0.157 HD
ATOM     11  H42 UNL     1       0.148   6.090  -1.204  1.00  0.00     0.157 HD
ENDROOT
BRANCH   4  12
HETATM   12  C3  UNL     1       1.295   0.262   0.453  1.00  0.00     0.104 C 
HETATM   13  C4  UNL     1       2.031   0.413   1.779  1.00  0.00     0.028 C 
HETATM   14  C5  UNL     1       2.994  -0.690   2.020  1.00  0.00     0.022 C 
HETATM   15  C6  UNL     1       2.589  -1.991   1.409  1.00  0.00     0.118 C 
HETATM   16  N2  UNL     1       3.021  -2.188   0.080  1.00  0.00    -0.402 N 
HETATM   17  C7  UNL     1       2.494  -1.380  -0.945  1.00  0.00     0.057 C 
ATOM     18  H2  UNL     1       3.709  -2.909  -0.136  1.00  0.00     0.158 HD
HETATM   19  C8  UNL     1       2.289   0.060  -0.677  1.00  0.00     0.070 C 
ENDBRANCH   4  12
BRANCH   5  20
HETATM   20  S2  UNL     1      -1.289   0.416  -1.608  1.00  0.00    -0.088 SA
BRANCH  20  21
HETATM   21  C10 UNL     1      -1.589  -1.104  -0.817  1.00  0.00     0.055 C 
HETATM   22  C11 UNL     1      -2.559  -1.909  -1.748  1.00  0.00     0.015 C 
HETATM   23  C12 UNL     1      -3.975  -1.457  -1.497  1.00  0.00     0.001 C 
HETATM   24  C13 UNL     1      -4.436  -2.168  -0.228  1.00  0.00     0.000 C 
HETATM   25  C14 UNL     1      -3.227  -2.211   0.683  1.00  0.00     0.001 C 
HETATM   26  C15 UNL     1      -2.338  -1.011   0.497  1.00  0.00     0.015 C 
ENDBRANCH  20  21
ENDBRANCH   5  20
TORSDOF 3
