REMARK  4 active torsions:
REMARK  status: ('A' for Active; 'I' for Inactive)
REMARK    1  A    between atoms: C13_13  and  O1_14 
REMARK    2  A    between atoms: C13_13  and  C14_16 
REMARK    3  A    between atoms: C14_16  and  C15_17 
REMARK    4  A    between atoms: C15_17  and  O2_18 
ROOT
HETATM    1  C1  UNL     1      -2.637   3.579  -0.805  1.00  0.00     0.043 C 
HETATM    2  C2  UNL     1      -2.707   2.102  -0.567  1.00  0.00    -0.086 C 
HETATM    3  C3  UNL     1      -2.894   1.351  -1.640  1.00  0.00    -0.024 C 
HETATM    4  C4  UNL     1      -3.001  -0.111  -1.701  1.00  0.00     0.030 C 
HETATM    5  C5  UNL     1      -3.061  -0.778  -0.354  1.00  0.00     0.043 C 
HETATM    6  C6  UNL     1      -1.751  -0.717   0.398  1.00  0.00     0.080 C 
HETATM    7  C7  UNL     1      -1.925  -1.668   1.583  1.00  0.00     0.043 C 
HETATM    8  C8  UNL     1      -1.780  -3.099   1.177  1.00  0.00     0.032 C 
HETATM    9  C9  UNL     1      -0.446  -3.264   0.552  1.00  0.00     0.005 C 
HETATM   10  C10 UNL     1       0.006  -2.298  -0.221  1.00  0.00     0.044 C 
HETATM   11  C11 UNL     1       1.346  -2.391  -0.888  1.00  0.00     0.067 C 
HETATM   12  C12 UNL     1       2.435  -1.719  -0.081  1.00  0.00     0.045 C 
HETATM   13  C13 UNL     1       2.332  -0.186  -0.241  1.00  0.00     0.072 C 
HETATM   14  C16 UNL     1       1.541   0.366   0.878  1.00  0.00     0.078 C 
HETATM   15  C17 UNL     1       2.228   1.144   1.927  1.00  0.00     0.024 C 
HETATM   16  S1  UNL     1       0.094   1.315   0.273  1.00  0.00    -0.153 SA
HETATM   17  C18 UNL     1      -1.461   0.633   0.965  1.00  0.00     0.086 C 
HETATM   18  C19 UNL     1      -2.564   1.638   0.828  1.00  0.00     0.051 C 
HETATM   19  O3  UNL     1      -0.742  -1.167  -0.440  1.00  0.00    -0.344 OA
ENDROOT
BRANCH  13  20
HETATM   20  O1  UNL     1       1.637   0.010  -1.456  1.00  0.00    -0.389 OA
ATOM     21  H1  UNL     1       1.574   0.953  -1.554  1.00  0.00     0.210 HD
ENDBRANCH  13  20
BRANCH  13  22
HETATM   22  C14 UNL     1       3.710   0.301  -0.457  1.00  0.00     0.065 C 
BRANCH  22  23
HETATM   23  C15 UNL     1       3.891   1.766  -0.686  1.00  0.00     0.167 C 
BRANCH  23  24
HETATM   24  O2  UNL     1       5.264   2.038  -0.869  1.00  0.00    -0.401 OA
ATOM     25  H2  UNL     1       5.379   2.970  -1.015  1.00  0.00     0.209 HD
ENDBRANCH  23  24
ENDBRANCH  22  23
ENDBRANCH  13  22
TORSDOF 4
