REMARK  4 active torsions:
REMARK  status: ('A' for Active; 'I' for Inactive)
REMARK    1  A    between atoms: C4_4  and  C5_5 
REMARK    2  A    between atoms: N1_8  and  C8_9 
REMARK    3  A    between atoms: C8_9  and  C9_10 
REMARK    4  A    between atoms: C9_10  and  O1_11 
ROOT
HETATM    1  C1  UNL     1       6.566   0.467  -0.984  1.00  0.00     0.027 C 
HETATM    2  C2  UNL     1       5.373   0.411  -0.800  1.00  0.00    -0.026 C 
HETATM    3  C3  UNL     1       3.975   0.327  -0.570  1.00  0.00    -0.010 C 
HETATM    4  C4  UNL     1       2.790   0.252  -0.355  1.00  0.00    -0.053 C 
ENDROOT
BRANCH   4   5
HETATM    5  C5  UNL     1       1.369   0.160  -0.073  1.00  0.00     0.021 A 
HETATM    6  C6  UNL     1       0.512   1.136  -0.555  1.00  0.00     0.038 A 
HETATM    7  C7  UNL     1      -0.858   1.075  -0.301  1.00  0.00     0.092 A 
HETATM    8  N1  UNL     1      -1.319   0.040   0.425  1.00  0.00    -0.364 N 
HETATM    9  C10 UNL     1      -0.514  -0.901   0.893  1.00  0.00     0.092 A 
HETATM   10  C11 UNL     1       0.856  -0.873   0.660  1.00  0.00     0.038 A 
BRANCH   8  11
HETATM   11  C8  UNL     1      -2.737  -0.049   0.705  1.00  0.00     0.153 C 
BRANCH  11  12
HETATM   12  C9  UNL     1      -3.397  -0.850  -0.424  1.00  0.00     0.184 C 
BRANCH  12  13
HETATM   13  O1  UNL     1      -3.193  -0.210  -1.631  1.00  0.00    -0.399 OA
ATOM     14  H1  UNL     1      -3.602  -0.706  -2.330  1.00  0.00     0.209 HD
ENDBRANCH  12  13
ENDBRANCH  11  12
ENDBRANCH   8  11
ENDBRANCH   4   5
TORSDOF 4
