REMARK  3 active torsions:
REMARK  status: ('A' for Active; 'I' for Inactive)
REMARK    1  A    between atoms: N1_1  and  N2_4 
REMARK    2  A    between atoms: C4_8  and  C5_9 
REMARK    3  A    between atoms: C5_9  and  N3_10 
ROOT
HETATM    1  N2  UNL     1      -2.832  -0.430   0.121  1.00  0.00    -0.285 N 
HETATM    2  C1  UNL     1      -2.879  -1.291   1.145  1.00  0.00     0.115 A 
HETATM    3  C2  UNL     1      -1.888  -1.361   2.107  1.00  0.00     0.020 A 
HETATM    4  C3  UNL     1      -0.808  -0.513   2.014  1.00  0.00     0.012 A 
HETATM    5  C4  UNL     1      -0.752   0.373   0.969  1.00  0.00    -0.022 A 
HETATM    6  C11 UNL     1      -1.773   0.388   0.047  1.00  0.00     0.123 A 
ENDROOT
BRANCH   5   7
HETATM    7  C5  UNL     1       0.362   1.322   0.782  1.00  0.00     0.167 C 
BRANCH   7   8
HETATM    8  N3  UNL     1       1.438   0.811  -0.009  1.00  0.00    -0.362 N 
HETATM    9  C6  UNL     1       1.499   0.944  -1.343  1.00  0.00     0.090 A 
HETATM   10  C7  UNL     1       2.568   0.426  -2.044  1.00  0.00     0.017 A 
HETATM   11  C8  UNL     1       3.597  -0.237  -1.417  1.00  0.00     0.003 A 
HETATM   12  C9  UNL     1       3.526  -0.370  -0.045  1.00  0.00     0.017 A 
HETATM   13  C10 UNL     1       2.439   0.164   0.617  1.00  0.00     0.090 A 
ENDBRANCH   7   8
ENDBRANCH   5   7
BRANCH   1  14
HETATM   14  N1  UNL     1      -3.847  -0.375  -0.845  1.00  0.00    -0.339 N 
ATOM     15  H12 UNL     1      -4.653  -0.998  -0.789  1.00  0.00     0.177 HD
ATOM     16  H11 UNL     1      -3.811   0.281  -1.625  1.00  0.00     0.177 HD
ENDBRANCH   1  14
TORSDOF 3
