REMARK  4 active torsions:
REMARK  status: ('A' for Active; 'I' for Inactive)
REMARK    1  A    between atoms: C4_4  and  C5_5 
REMARK    2  A    between atoms: N1_9  and  C9_10 
REMARK    3  A    between atoms: C9_10  and  C10_11 
REMARK    4  A    between atoms: C10_11  and  N2_12 
ROOT
HETATM    1  C1  UNL     1       5.697   2.572   1.076  1.00  0.00     0.027 C 
HETATM    2  C2  UNL     1       4.739   1.861   0.900  1.00  0.00    -0.026 C 
HETATM    3  C3  UNL     1       3.602   1.038   0.676  1.00  0.00    -0.010 C 
HETATM    4  C4  UNL     1       2.634   0.343   0.472  1.00  0.00    -0.051 C 
ENDROOT
BRANCH   4   5
HETATM    5  C5  UNL     1       1.492  -0.482   0.205  1.00  0.00     0.034 A 
HETATM    6  C6  UNL     1       1.594  -1.787  -0.245  1.00  0.00     0.023 A 
HETATM    7  C7  UNL     1       0.439  -2.527  -0.483  1.00  0.00     0.019 A 
HETATM    8  C8  UNL     1      -0.816  -1.976  -0.275  1.00  0.00     0.090 A 
HETATM    9  N1  UNL     1      -0.877  -0.706   0.162  1.00  0.00    -0.363 N 
HETATM   10  C11 UNL     1       0.229   0.038   0.402  1.00  0.00     0.111 A 
BRANCH   9  11
HETATM   11  C9  UNL     1      -2.163  -0.120   0.382  1.00  0.00     0.155 C 
BRANCH  11  12
HETATM   12  C10 UNL     1      -2.661   0.558  -0.876  1.00  0.00     0.249 C 
BRANCH  12  13
HETATM   13  N2  UNL     1      -3.948   1.162  -0.710  1.00  0.00    -0.078 N 
ATOM     14  H23 UNL     1      -4.628   0.483  -0.367  1.00  0.00     0.274 HD
ATOM     15  H22 UNL     1      -3.948   1.810   0.078  1.00  0.00     0.274 HD
ATOM     16  H21 UNL     1      -4.284   1.619  -1.558  1.00  0.00     0.274 HD
ENDBRANCH  12  13
ENDBRANCH  11  12
ENDBRANCH   9  11
ENDBRANCH   4   5
TORSDOF 4
