REMARK  3 active torsions:
REMARK  status: ('A' for Active; 'I' for Inactive)
REMARK    1  A    between atoms: C1_1  and  C2_2 
REMARK    2  A    between atoms: C2_2  and  C3_3 
REMARK    3  A    between atoms: N1_8  and  N2_10 
ROOT
HETATM    1  C1  UNL     1      -0.338   0.192   0.639  1.00  0.00     0.085 C 
HETATM    2  N1  UNL     1       0.603  -0.656   0.932  1.00  0.00    -0.310 N 
ATOM      3  H1  UNL     1       0.496  -1.335   1.686  1.00  0.00     0.186 HD
ENDROOT
BRANCH   2   4
HETATM    4  N2  UNL     1       1.761  -0.592   0.169  1.00  0.00    -0.279 N 
HETATM    5  C7  UNL     1       2.741   0.228   0.547  1.00  0.00     0.115 A 
HETATM    6  C8  UNL     1       3.899   0.315  -0.186  1.00  0.00     0.019 A 
HETATM    7  C9  UNL     1       4.063  -0.439  -1.312  1.00  0.00     0.003 A 
HETATM    8  C10 UNL     1       3.033  -1.275  -1.673  1.00  0.00     0.019 A 
HETATM    9  C11 UNL     1       1.881  -1.344  -0.923  1.00  0.00     0.115 A 
ENDBRANCH   2   4
BRANCH   1  10
HETATM   10  C2  UNL     1      -1.598   0.161   1.428  1.00  0.00     0.086 C 
BRANCH  10  11
HETATM   11  C3  UNL     1      -2.739   0.589   0.601  1.00  0.00    -0.029 A 
HETATM   12  C4  UNL     1      -3.541  -0.223  -0.169  1.00  0.00     0.034 A 
HETATM   13  C5  UNL     1      -4.480   0.567  -0.775  1.00  0.00     0.142 A 
HETATM   14  O1  UNL     1      -4.251   1.790  -0.389  1.00  0.00    -0.334 OA
HETATM   15  C6  UNL     1      -3.232   1.877   0.429  1.00  0.00     0.148 A 
ENDBRANCH  10  11
ENDBRANCH   1  10
TORSDOF 3
