REMARK  3 active torsions:
REMARK  status: ('A' for Active; 'I' for Inactive)
REMARK    1  A    between atoms: N1_1  and  N2_4 
REMARK    2  A    between atoms: N3_8  and  C4_9 
REMARK    3  A    between atoms: C4_9  and  C5_10 
ROOT
HETATM    1  N2  UNL     1      -2.785   0.527  -0.066  1.00  0.00    -0.269 N 
HETATM    2  C1  UNL     1      -3.205  -0.682  -0.448  1.00  0.00     0.118 A 
HETATM    3  C2  UNL     1      -2.459  -1.808  -0.185  1.00  0.00     0.036 A 
HETATM    4  C3  UNL     1      -1.262  -1.695   0.482  1.00  0.00     0.093 A 
HETATM    5  N3  UNL     1      -0.847  -0.486   0.861  1.00  0.00    -0.347 N 
HETATM    6  C11 UNL     1      -1.605   0.584   0.585  1.00  0.00     0.208 A 
ENDROOT
BRANCH   5   7
HETATM    7  C4  UNL     1       0.396  -0.278   1.565  1.00  0.00     0.167 C 
BRANCH   7   8
HETATM    8  C5  UNL     1       1.544  -0.044   0.693  1.00  0.00    -0.040 A 
HETATM    9  C6  UNL     1       2.357  -1.052   0.201  1.00  0.00     0.009 A 
HETATM   10  C7  UNL     1       3.421  -0.760  -0.615  1.00  0.00     0.001 A 
HETATM   11  C8  UNL     1       3.721   0.545  -0.976  1.00  0.00     0.000 A 
HETATM   12  C9  UNL     1       2.931   1.544  -0.500  1.00  0.00     0.001 A 
HETATM   13  C10 UNL     1       1.846   1.251   0.331  1.00  0.00     0.009 A 
ENDBRANCH   7   8
ENDBRANCH   5   7
BRANCH   1  14
HETATM   14  N1  UNL     1      -3.525   1.692  -0.320  1.00  0.00    -0.338 N 
ATOM     15  H12 UNL     1      -4.417   1.649  -0.812  1.00  0.00     0.177 HD
ATOM     16  H11 UNL     1      -3.204   2.615  -0.028  1.00  0.00     0.177 HD
ENDBRANCH   1  14
TORSDOF 3
