REMARK  3 active torsions:
REMARK  status: ('A' for Active; 'I' for Inactive)
REMARK    1  A    between atoms: O1_1  and  N1_3 
REMARK    2  A    between atoms: N3_8  and  C3_9 
REMARK    3  A    between atoms: C3_9  and  C4_10 
ROOT
HETATM    1  N1  UNL     1       1.904  -1.427   0.301  1.00  0.00    -0.156 N 
HETATM    2  C1  UNL     1       3.028  -1.017   0.910  1.00  0.00     0.235 A 
HETATM    3  N2  UNL     1       3.308   0.229   0.498  1.00  0.00    -0.344 N 
ATOM      4  H2  UNL     1       4.096   0.812   0.779  1.00  0.00     0.167 HD
HETATM    5  C2  UNL     1       2.328   0.544  -0.364  1.00  0.00     0.204 A 
HETATM    6  N3  UNL     1       1.463  -0.467  -0.490  1.00  0.00    -0.257 N 
ENDROOT
BRANCH   6   7
HETATM    7  C3  UNL     1       0.258  -0.521  -1.333  1.00  0.00     0.191 C 
BRANCH   7   8
HETATM    8  C4  UNL     1      -0.930  -0.022  -0.579  1.00  0.00    -0.038 A 
HETATM    9  C5  UNL     1      -1.711  -0.882   0.161  1.00  0.00     0.009 A 
HETATM   10  C6  UNL     1      -2.802  -0.375   0.843  1.00  0.00     0.001 A 
HETATM   11  C7  UNL     1      -3.085   0.982   0.767  1.00  0.00     0.000 A 
HETATM   12  C8  UNL     1      -2.283   1.824   0.016  1.00  0.00     0.001 A 
HETATM   13  C9  UNL     1      -1.200   1.342  -0.665  1.00  0.00     0.009 A 
ENDBRANCH   7   8
ENDBRANCH   6   7
BRANCH   1  14
HETATM   14  O1  UNL     1       1.295  -2.652   0.466  1.00  0.00    -0.267 OA
ATOM     15  H1  UNL     1       0.500  -2.942   0.035  1.00  0.00     0.247 HD
ENDBRANCH   1  14
TORSDOF 3
