REMARK  9 active torsions:
REMARK  status: ('A' for Active; 'I' for Inactive)
REMARK    1  A    between atoms: N1_1  and  C1_4 
REMARK    2  A    between atoms: C4_9  and  N3_10 
REMARK    3  A    between atoms: N3_10  and  C5_12 
REMARK    4  A    between atoms: C5_12  and  C6_13 
REMARK    5  A    between atoms: C6_13  and  S1_14 
REMARK    6  A    between atoms: S1_14  and  C7_15 
REMARK    7  A    between atoms: S1_14  and  C8_18 
REMARK    8  A    between atoms: C7_15  and  O1_16 
REMARK    9  A    between atoms: C8_18  and  C9_19 
ROOT
HETATM    1  C5  UNL     1       0.743   1.377   0.284  1.00  0.00     0.130 C 
ENDROOT
BRANCH   1   2
HETATM    2  N3  UNL     1       1.906   0.997  -0.429  1.00  0.00    -0.375 N 
ATOM      3  H3  UNL     1       2.253   1.685  -1.097  1.00  0.00     0.161 HD
BRANCH   2   4
HETATM    4  C4  UNL     1       2.569  -0.063  -0.356  1.00  0.00     0.118 A 
HETATM    5  C3  UNL     1       2.196  -1.062   0.511  1.00  0.00     0.066 A 
HETATM    6  C2  UNL     1       2.941  -2.243   0.588  1.00  0.00     0.110 A 
HETATM    7  N2  UNL     1       4.018  -2.382  -0.195  1.00  0.00    -0.202 N 
HETATM    8  C1  UNL     1       4.383  -1.406  -1.042  1.00  0.00     0.677 A 
ATOM      9  H2  UNL     1       4.568  -3.240  -0.148  1.00  0.00     0.183 HD
HETATM   10  N8  UNL     1       3.656  -0.257  -1.115  1.00  0.00    -0.177 N 
ATOM     11  H8  UNL     1       3.946   0.475  -1.764  1.00  0.00     0.185 HD
BRANCH   8  12
HETATM   12  N1  UNL     1       5.440  -1.556  -1.802  1.00  0.00    -0.234 N 
ATOM     13  H12 UNL     1       5.985  -2.417  -1.747  1.00  0.00     0.174 HD
ATOM     14  H11 UNL     1       5.717  -0.815  -2.445  1.00  0.00     0.174 HD
ENDBRANCH   8  12
ENDBRANCH   2   4
ENDBRANCH   1   2
BRANCH   1  15
HETATM   15  C6  UNL     1      -0.546   0.847  -0.291  1.00  0.00     0.085 C 
BRANCH  15  16
HETATM   16  S1  UNL     1      -1.868   1.439   0.747  1.00  0.00    -0.188 SA
BRANCH  16  17
HETATM   17  C7  UNL     1      -1.848   3.233   0.735  1.00  0.00     0.228 C 
BRANCH  17  18
HETATM   18  O1  UNL     1      -2.875   3.690   1.542  1.00  0.00    -0.392 OA
ATOM     19  H1  UNL     1      -2.864   4.640   1.536  1.00  0.00     0.210 HD
ENDBRANCH  17  18
ENDBRANCH  16  17
BRANCH  16  20
HETATM   20  C8  UNL     1      -3.450   0.940   0.126  1.00  0.00     0.144 C 
BRANCH  20  21
HETATM   21  C9  UNL     1      -3.608  -0.516   0.041  1.00  0.00     0.115 A 
HETATM   22  N4  UNL     1      -4.074  -1.337   0.971  1.00  0.00    -0.273 N 
HETATM   23  N5  UNL     1      -4.068  -2.595   0.531  1.00  0.00    -0.007 NA
ATOM     24  H4  UNL     1      -4.393  -1.046   1.895  1.00  0.00     0.185 HD
HETATM   25  N6  UNL     1      -3.584  -2.536  -0.706  1.00  0.00    -0.007 NA
HETATM   26  N7  UNL     1      -3.296  -1.267  -1.022  1.00  0.00    -0.273 N 
ATOM     27  H7  UNL     1      -2.911  -0.935  -1.906  1.00  0.00     0.185 HD
ENDBRANCH  20  21
ENDBRANCH  16  20
ENDBRANCH  15  16
ENDBRANCH   1  15
TORSDOF 9
