REMARK  10 active torsions:
REMARK  status: ('A' for Active; 'I' for Inactive)
REMARK    1  A    between atoms: N1_1  and  C1_4 
REMARK    2  A    between atoms: C3_8  and  N3_9 
REMARK    3  A    between atoms: N3_9  and  C4_11 
REMARK    4  A    between atoms: C4_11  and  N4_12 
REMARK    5  A    between atoms: N7_23  and  C7_24 
REMARK    6  A    between atoms: C7_24  and  O2_25 
REMARK    7  A    between atoms: O2_25  and  C8_26 
REMARK    8  A    between atoms: C8_26  and  C9_28 
REMARK    9  A    between atoms: C9_28  and  C10_29 
REMARK   10  A    between atoms: C10_29  and  N8_30 
ROOT
HETATM    1  C1  UNL     1      -0.395  -0.861   1.943  1.00  0.00     0.682 A 
HETATM    2  N2  UNL     1      -1.588  -1.187   1.423  1.00  0.00    -0.184 N 
ATOM      3  H2  UNL     1      -2.175  -1.964   1.728  1.00  0.00     0.184 HD
HETATM    4  C2  UNL     1      -1.888  -0.317   0.427  1.00  0.00     0.138 A 
HETATM    5  C3  UNL     1      -2.956  -0.172  -0.435  1.00  0.00     0.138 A 
HETATM    6  N5  UNL     1      -2.931   0.832  -1.331  1.00  0.00    -0.293 N 
ATOM      7  H5  UNL     1      -3.718   0.944  -1.970  1.00  0.00     0.172 HD
HETATM    8  C5  UNL     1      -1.889   1.702  -1.410  1.00  0.00     0.327 A 
HETATM    9  O1  UNL     1      -1.912   2.625  -2.266  1.00  0.00    -0.247 OA
HETATM   10  N6  UNL     1      -0.870   1.523  -0.551  1.00  0.00    -0.292 N 
ATOM     11  H6  UNL     1      -0.084   2.171  -0.603  1.00  0.00     0.172 HD
HETATM   12  C6  UNL     1      -0.819   0.554   0.365  1.00  0.00     0.161 A 
HETATM   13  N7  UNL     1       0.106   0.215   1.306  1.00  0.00    -0.144 N 
ENDROOT
BRANCH  13  14
HETATM   14  C7  UNL     1       1.366   0.891   1.552  1.00  0.00     0.330 C 
BRANCH  14  15
HETATM   15  O2  UNL     1       2.415   0.363   0.789  1.00  0.00    -0.300 OA
BRANCH  15  16
HETATM   16  C8  UNL     1       3.683   0.907   0.915  1.00  0.00     0.262 C 
HETATM   17  O3  UNL     1       3.834   1.861   1.719  1.00  0.00    -0.265 OA
BRANCH  16  18
HETATM   18  C9  UNL     1       4.852   0.423   0.156  1.00  0.00     0.138 C 
BRANCH  18  19
HETATM   19  C10 UNL     1       4.382  -0.733  -0.737  1.00  0.00     0.239 C 
BRANCH  19  20
HETATM   20  N8  UNL     1       5.547  -1.184  -1.466  1.00  0.00    -0.079 N 
ATOM     21  H83 UNL     1       6.015  -0.439  -1.982  1.00  0.00     0.274 HD
ATOM     22  H82 UNL     1       6.331  -1.432  -0.863  1.00  0.00     0.274 HD
ATOM     23  H81 UNL     1       5.235  -1.952  -2.060  1.00  0.00     0.274 HD
ENDBRANCH  19  20
ENDBRANCH  18  19
ENDBRANCH  16  18
ENDBRANCH  15  16
ENDBRANCH  14  15
ENDBRANCH  13  14
BRANCH   1  24
HETATM   24  N1  UNL     1       0.187  -1.492   2.914  1.00  0.00    -0.234 N 
ATOM     25  H12 UNL     1      -0.192  -2.307   3.396  1.00  0.00     0.174 HD
ATOM     26  H11 UNL     1       1.094  -1.244   3.309  1.00  0.00     0.174 HD
ENDBRANCH   1  24
BRANCH   5  27
HETATM   27  N3  UNL     1      -3.929  -0.997  -0.349  1.00  0.00    -0.351 N 
ATOM     28  H3  UNL     1      -3.867  -1.728   0.359  1.00  0.00     0.162 HD
BRANCH  27  29
HETATM   29  C4  UNL     1      -5.102  -0.970  -1.175  1.00  0.00     0.353 C 
BRANCH  29  30
HETATM   30  N4  UNL     1      -6.144  -0.126  -0.616  1.00  0.00    -0.064 N 
ATOM     31  H43 UNL     1      -6.371  -0.402   0.339  1.00  0.00     0.276 HD
ATOM     32  H42 UNL     1      -5.798   0.816  -0.434  1.00  0.00     0.276 HD
ATOM     33  H41 UNL     1      -6.978  -0.107  -1.203  1.00  0.00     0.276 HD
ENDBRANCH  29  30
ENDBRANCH  27  29
ENDBRANCH   5  27
TORSDOF 10
