REMARK  7 active torsions:
REMARK  status: ('A' for Active; 'I' for Inactive)
REMARK    1  A    between atoms: N1_1  and  C1_4 
REMARK    2  A    between atoms: C4_12  and  N4_13 
REMARK    3  A    between atoms: N4_13  and  C5_15 
REMARK    4  A    between atoms: C5_15  and  C6_16 
REMARK    5  A    between atoms: C6_16  and  C7_17 
REMARK    6  A    between atoms: C7_17  and  O2_18 
REMARK    7  A    between atoms: O2_18  and  C8_19 
ROOT
HETATM    1  C1  UNL     1       5.386   0.957   0.282  1.00  0.00     0.681 C 
HETATM    2  N2  UNL     1       4.984  -0.260  -0.150  1.00  0.00    -0.154 N 
ATOM      3  H2  UNL     1       5.726  -0.835  -0.549  1.00  0.00     0.187 HD
HETATM    4  C2  UNL     1       3.760  -0.843  -0.141  1.00  0.00     0.289 C 
HETATM    5  O1  UNL     1       3.715  -2.087  -0.320  1.00  0.00    -0.265 OA
HETATM    6  C3  UNL     1       2.529  -0.234   0.042  1.00  0.00     0.150 A 
HETATM    7  N3  UNL     1       1.322  -0.791  -0.168  1.00  0.00    -0.184 N 
ATOM      8  H3  UNL     1       1.170  -1.746  -0.493  1.00  0.00     0.184 HD
HETATM    9  C4  UNL     1       0.350   0.085   0.110  1.00  0.00     0.679 A 
HETATM   10  N6  UNL     1       0.953   1.216   0.504  1.00  0.00    -0.184 N 
ATOM     11  H6  UNL     1       0.472   2.071   0.784  1.00  0.00     0.184 HD
HETATM   12  C9  UNL     1       2.289   1.054   0.474  1.00  0.00     0.150 A 
HETATM   13  C10 UNL     1       3.234   2.005   0.813  1.00  0.00     0.289 C 
HETATM   14  O4  UNL     1       2.715   3.079   1.216  1.00  0.00    -0.265 OA
HETATM   15  N7  UNL     1       4.576   1.915   0.762  1.00  0.00    -0.154 N 
ATOM     16  H7  UNL     1       5.065   2.717   1.159  1.00  0.00     0.187 HD
ENDROOT
BRANCH   9  17
HETATM   17  N4  UNL     1      -0.906  -0.129   0.015  1.00  0.00    -0.226 N 
ATOM     18  H4  UNL     1      -1.562   0.614   0.255  1.00  0.00     0.177 HD
BRANCH  17  19
HETATM   19  C5  UNL     1      -1.413  -1.412  -0.429  1.00  0.00     0.140 C 
BRANCH  19  20
HETATM   20  C6  UNL     1      -2.899  -1.323  -0.728  1.00  0.00     0.047 C 
BRANCH  20  21
HETATM   21  C7  UNL     1      -3.641  -0.909   0.521  1.00  0.00     0.182 C 
BRANCH  21  22
HETATM   22  O2  UNL     1      -5.029  -0.801   0.357  1.00  0.00    -0.306 OA
BRANCH  22  23
HETATM   23  C8  UNL     1      -5.670   0.049  -0.501  1.00  0.00     0.372 C 
HETATM   24  N5  UNL     1      -7.089   0.109  -0.625  1.00  0.00    -0.032 NA
HETATM   25  O3  UNL     1      -4.999   0.826  -1.224  1.00  0.00    -0.242 OA
ENDBRANCH  22  23
ENDBRANCH  21  22
ENDBRANCH  20  21
ENDBRANCH  19  20
ENDBRANCH  17  19
ENDBRANCH   9  17
BRANCH   1  26
HETATM   26  N1  UNL     1       6.660   1.193   0.215  1.00  0.00    -0.234 N 
ATOM     27  H12 UNL     1       7.275   0.466  -0.149  1.00  0.00     0.174 HD
ATOM     28  H11 UNL     1       6.963   2.111   0.541  1.00  0.00     0.174 HD
ENDBRANCH   1  26
TORSDOF 7
