REMARK  5 active torsions:
REMARK  status: ('A' for Active; 'I' for Inactive)
REMARK    1  A    between atoms: C3_3  and  N1_4 
REMARK    2  A    between atoms: C3_3  and  C10_13 
REMARK       I    between atoms: N1_4  and  C4_6 
REMARK    3  A    between atoms: C4_6  and  C5_8 
REMARK    4  A    between atoms: C10_13  and  O2_14 
REMARK    5  A    between atoms: N2_16  and  O3_18 
ROOT
HETATM    1  C1  UNL     1       2.591   2.891   0.294  1.00  0.00     0.015 C 
HETATM    2  C2  UNL     1       2.297   1.821  -0.198  1.00  0.00    -0.083 C 
HETATM    3  C3  UNL     1       1.915   0.531  -0.799  1.00  0.00     0.240 C 
ENDROOT
BRANCH   3   4
HETATM    4  N1  UNL     1       0.816  -0.074  -0.055  1.00  0.00    -0.339 N 
HETATM    5  C4  UNL     1      -0.438  -0.353  -0.628  1.00  0.00     0.223 C 
HETATM    6  O1  UNL     1      -0.640  -0.079  -1.822  1.00  0.00    -0.273 OA
ATOM      7  H1  UNL     1       0.964  -0.306   0.927  1.00  0.00     0.164 HD
BRANCH   5   8
HETATM    8  C5  UNL     1      -1.495  -0.963   0.185  1.00  0.00     0.078 C 
HETATM    9  C6  UNL     1      -1.787  -0.019   1.345  1.00  0.00     0.014 C 
HETATM   10  C7  UNL     1      -2.886   0.890   0.886  1.00  0.00     0.001 C 
HETATM   11  C8  UNL     1      -3.412   0.323  -0.407  1.00  0.00     0.001 C 
HETATM   12  C9  UNL     1      -2.819  -1.050  -0.513  1.00  0.00     0.014 C 
ENDBRANCH   5   8
ENDBRANCH   3   4
BRANCH   3  13
HETATM   13  C10 UNL     1       3.053  -0.411  -0.711  1.00  0.00     0.171 C 
HETATM   14  N2  UNL     1       4.171  -0.088  -0.180  1.00  0.00    -0.248 N 
ATOM     15  H2  UNL     1       4.261   0.858   0.191  1.00  0.00     0.196 HD
BRANCH  13  16
HETATM   16  O2  UNL     1       2.893  -1.685  -1.222  1.00  0.00    -0.346 OA
ATOM     17  H2  UNL     1       3.624  -2.290  -1.166  1.00  0.00     0.219 HD
ENDBRANCH  13  16
BRANCH  14  18
HETATM   18  O3  UNL     1       5.244  -0.908  -0.073  1.00  0.00    -0.288 OA
ATOM     19  H3  UNL     1       6.074  -0.668   0.321  1.00  0.00     0.244 HD
ENDBRANCH  14  18
ENDBRANCH   3  13
TORSDOF 5
