REMARK  6 active torsions:
REMARK  status: ('A' for Active; 'I' for Inactive)
REMARK    1  A    between atoms: C3_3  and  C4_4 
REMARK    2  A    between atoms: C4_4  and  O1_5 
REMARK    3  A    between atoms: C6_8  and  C7_9 
REMARK    4  A    between atoms: C7_9  and  O2_10 
REMARK    5  A    between atoms: C7_9  and  O3_12 
REMARK    6  A    between atoms: C8_14  and  C9_15 
ROOT
HETATM    1  C4  UNL     1       0.703  -0.159  -0.509  1.00  0.00     0.080 C 
HETATM    2  C5  UNL     1       0.625   1.370  -0.638  1.00  0.00     0.052 C 
HETATM    3  C6  UNL     1      -0.882   1.149  -0.834  1.00  0.00     0.051 C 
HETATM    4  C8  UNL     1      -0.709  -0.089   0.030  1.00  0.00     0.036 C 
ENDROOT
BRANCH   1   5
HETATM    5  C3  UNL     1       1.742  -0.519   0.451  1.00  0.00     0.007 C 
HETATM    6  C2  UNL     1       2.988  -0.149   0.230  1.00  0.00    -0.032 C 
HETATM    7  C1  UNL     1       4.125  -0.460   1.137  1.00  0.00     0.036 C 
ENDBRANCH   1   5
BRANCH   1   8
HETATM    8  O1  UNL     1       0.840  -0.805  -1.732  1.00  0.00    -0.385 OA
ATOM      9  H1  UNL     1       0.164  -0.571  -2.357  1.00  0.00     0.211 HD
ENDBRANCH   1   8
BRANCH   4  10
HETATM   10  C9  UNL     1      -1.510  -1.286  -0.391  1.00  0.00    -0.015 C 
HETATM   11  C10 UNL     1      -0.815  -2.514   0.160  1.00  0.00     0.010 C 
HETATM   12  C11 UNL     1      -2.909  -1.279   0.156  1.00  0.00     0.010 C 
ENDBRANCH   4  10
BRANCH   3  13
HETATM   13  C7  UNL     1      -1.658   2.263  -0.204  1.00  0.00     0.258 C 
BRANCH  13  14
HETATM   14  O2  UNL     1      -1.337   3.497  -0.754  1.00  0.00    -0.371 OA
ATOM     15  H2  UNL     1      -1.830   4.204  -0.354  1.00  0.00     0.212 HD
ENDBRANCH  13  14
BRANCH  13  16
HETATM   16  O3  UNL     1      -1.571   2.303   1.164  1.00  0.00    -0.371 OA
ATOM     17  H3  UNL     1      -2.064   3.010   1.564  1.00  0.00     0.212 HD
ENDBRANCH  13  16
ENDBRANCH   3  13
TORSDOF 6
