REMARK  8 active torsions:
REMARK  status: ('A' for Active; 'I' for Inactive)
REMARK    1  A    between atoms: C2_2  and  N1_3 
REMARK    2  A    between atoms: N1_3  and  C3_5 
REMARK    3  A    between atoms: C3_5  and  N2_7 
REMARK    4  A    between atoms: N2_7  and  N3_9 
REMARK       I    between atoms: N3_9  and  C4_11 
REMARK    5  A    between atoms: C4_11  and  C5_13 
REMARK    6  A    between atoms: C5_13  and  N4_15 
REMARK    7  A    between atoms: N4_15  and  S2_17 
REMARK    8  A    between atoms: S2_17  and  N5_18 
ROOT
HETATM    1  N3  UNL     1       0.406  -0.498   0.806  1.00  0.00    -0.266 N 
ATOM      2  H3  UNL     1       0.329  -1.269   1.469  1.00  0.00     0.190 HD
HETATM    3  C4  UNL     1      -0.697   0.327   0.518  1.00  0.00     0.259 C 
HETATM    4  O1  UNL     1      -0.520   1.265  -0.311  1.00  0.00    -0.269 OA
ENDROOT
BRANCH   3   5
HETATM    5  C5  UNL     1      -2.035   0.166   1.117  1.00  0.00     0.184 C 
HETATM    6  C6  UNL     1      -2.049   0.236   2.621  1.00  0.00     0.043 C 
BRANCH   5   7
HETATM    7  N4  UNL     1      -2.917   1.150   0.596  1.00  0.00    -0.289 N 
ATOM      8  H4  UNL     1      -2.785   2.149   0.754  1.00  0.00     0.174 HD
BRANCH   7   9
HETATM    9  S2  UNL     1      -4.209   0.526  -0.312  1.00  0.00     0.313 S 
HETATM   10  O2  UNL     1      -4.385  -0.925   0.078  1.00  0.00    -0.183 OA
HETATM   11  O3  UNL     1      -5.469   1.271  -0.080  1.00  0.00    -0.183 OA
BRANCH   9  12
HETATM   12  N5  UNL     1      -3.753   0.586  -1.998  1.00  0.00    -0.312 N 
ATOM     13  H52 UNL     1      -2.865   0.936  -2.357  1.00  0.00     0.170 HD
ATOM     14  H51 UNL     1      -4.529   0.211  -2.543  1.00  0.00     0.170 HD
ENDBRANCH   9  12
ENDBRANCH   7   9
ENDBRANCH   5   7
ENDBRANCH   3   5
BRANCH   1  15
HETATM   15  N2  UNL     1       1.632  -0.220   0.142  1.00  0.00    -0.274 N 
ATOM     16  H2  UNL     1       2.410   0.181   0.665  1.00  0.00     0.189 HD
BRANCH  15  17
HETATM   17  C3  UNL     1       1.782  -0.495  -1.237  1.00  0.00     0.186 C 
HETATM   18  S1  UNL     1       0.558  -1.139  -2.125  1.00  0.00    -0.040 SA
BRANCH  17  19
HETATM   19  N1  UNL     1       2.988  -0.223  -1.893  1.00  0.00    -0.366 N 
ATOM     20  H1  UNL     1       3.077  -0.425  -2.889  1.00  0.00     0.161 HD
BRANCH  19  21
HETATM   21  C2  UNL     1       4.104   0.339  -1.178  1.00  0.00     0.117 C 
HETATM   22  C1  UNL     1       4.706  -0.615  -0.187  1.00  0.00     0.026 C 
ENDBRANCH  19  21
ENDBRANCH  17  19
ENDBRANCH  15  17
ENDBRANCH   1  15
TORSDOF 8
