REMARK  9 active torsions:
REMARK  status: ('A' for Active; 'I' for Inactive)
REMARK    1  A    between atoms: C2_2  and  O1_3 
REMARK    2  A    between atoms: C2_2  and  N1_5 
REMARK    3  A    between atoms: N1_5  and  N2_6 
REMARK       I    between atoms: N2_6  and  C3_7 
REMARK       I    between atoms: C3_7  and  N4_9 
REMARK    4  A    between atoms: N4_9  and  C4_11 
REMARK    5  A    between atoms: C4_11  and  C5_12 
REMARK       I    between atoms: C5_12  and  N5_14 
REMARK    6  A    between atoms: N5_14  and  N6_15 
REMARK    7  A    between atoms: N6_15  and  C6_17 
REMARK    8  A    between atoms: C6_17  and  O3_18 
REMARK    9  A    between atoms: C6_17  and  N7_20 
ROOT
HETATM    1  C5  UNL     1       0.976   0.648   0.077  1.00  0.00     0.330 C 
HETATM    2  O2  UNL     1       2.015   0.796  -0.074  1.00  0.00    -0.253 OA
HETATM    3  N5  UNL     1      -0.343   0.521   0.200  1.00  0.00    -0.282 NA
ENDROOT
BRANCH   1   4
HETATM    4  C4  UNL     1       1.237  -0.594   1.489  1.00  0.00     0.244 C 
BRANCH   4   5
HETATM    5  N4  UNL     1       2.631  -0.443   1.335  1.00  0.00    -0.342 N 
HETATM    6  C3  UNL     1       3.258  -1.347   0.512  1.00  0.00     0.281 C 
HETATM    7  N2  UNL     1       4.567  -1.056   0.453  1.00  0.00    -0.296 NA
HETATM    8  N3  UNL     1       2.502  -2.365  -0.046  1.00  0.00    -0.048 NA
ATOM      9  H4  UNL     1       3.146   0.298   1.810  1.00  0.00     0.163 HD
BRANCH   7  10
HETATM   10  N1  UNL     1       5.839  -0.643   0.519  1.00  0.00    -0.028 NA
BRANCH  10  11
HETATM   11  C2  UNL     1       6.025   0.633  -0.134  1.00  0.00     0.242 C 
HETATM   12  C1  UNL     1       7.162   1.467  -0.368  1.00  0.00     0.061 C 
BRANCH  11  13
HETATM   13  O1  UNL     1       4.922   1.184  -0.636  1.00  0.00    -0.377 OA
ATOM     14  H1  UNL     1       4.166   0.630  -0.480  1.00  0.00     0.211 HD
ENDBRANCH  11  13
ENDBRANCH  10  11
ENDBRANCH   7  10
ENDBRANCH   4   5
ENDBRANCH   1   4
BRANCH   3  15
HETATM   15  N6  UNL     1      -1.654   0.403   0.314  1.00  0.00    -0.195 N 
ATOM     16  H6  UNL     1      -1.968   0.024   1.207  1.00  0.00     0.205 HD
BRANCH  15  17
HETATM   17  C6  UNL     1      -2.666   0.703  -0.563  1.00  0.00     0.245 C 
BRANCH  17  18
HETATM   18  O3  UNL     1      -2.313   1.312  -1.688  1.00  0.00    -0.331 OA
ATOM     19  H3  UNL     1      -3.014   1.520  -2.295  1.00  0.00     0.221 HD
ENDBRANCH  17  18
BRANCH  17  20
HETATM   20  N7  UNL     1      -3.989   0.375  -0.360  1.00  0.00    -0.346 N 
HETATM   21  C7  UNL     1      -4.923   0.386  -1.505  1.00  0.00     0.126 C 
HETATM   22  C8  UNL     1      -6.261   0.422  -0.925  1.00  0.00     0.021 C 
HETATM   23  C9  UNL     1      -6.129   0.174   0.555  1.00  0.00     0.021 C 
HETATM   24  C10 UNL     1      -4.677  -0.113   0.795  1.00  0.00     0.126 C 
ENDBRANCH  17  20
ENDBRANCH  15  17
ENDBRANCH   3  15
TORSDOF 9
