REMARK  6 active torsions:
REMARK  status: ('A' for Active; 'I' for Inactive)
REMARK    1  A    between atoms: C4_4  and  C5_5 
REMARK    2  A    between atoms: C9_10  and  O2_11 
REMARK    3  A    between atoms: C9_10  and  C10_13 
REMARK    4  A    between atoms: C10_13  and  C11_15 
REMARK    5  A    between atoms: C11_15  and  C12_16 
REMARK    6  A    between atoms: C15_19  and  O4_20 
ROOT
HETATM    1  C5  UNL     1       1.452  -0.873   0.293  1.00  0.00     0.005 A 
HETATM    2  C6  UNL     1       1.834  -2.051   0.932  1.00  0.00     0.154 A 
HETATM    3  O1  UNL     1       1.005  -3.023   0.700  1.00  0.00    -0.326 OA
HETATM    4  C7  UNL     1       0.053  -2.581  -0.075  1.00  0.00     0.063 A 
HETATM    5  C8  UNL     1       0.272  -1.234  -0.369  1.00  0.00     0.028 A 
HETATM    6  C9  UNL     1      -0.624  -0.480  -1.212  1.00  0.00     0.174 C 
HETATM    7  C15 UNL     1      -1.783  -1.408  -1.695  1.00  0.00     0.165 C 
HETATM    8  C16 UNL     1      -1.324  -2.788  -1.994  1.00  0.00     0.042 C 
HETATM    9  C17 UNL     1      -1.095  -3.360  -0.582  1.00  0.00     0.068 C 
ENDROOT
BRANCH   6  10
HETATM   10  O2  UNL     1      -0.140  -0.082  -2.456  1.00  0.00    -0.374 OA
ATOM     11  H2  UNL     1      -0.730   0.414  -3.011  1.00  0.00     0.211 HD
ENDBRANCH   6  10
BRANCH   6  12
HETATM   12  C10 UNL     1      -1.459   0.569  -0.533  1.00  0.00     0.169 C 
HETATM   13  O3  UNL     1      -1.676   1.621  -1.083  1.00  0.00    -0.294 OA
BRANCH  12  14
HETATM   14  C11 UNL     1      -2.016   0.298   0.810  1.00  0.00     0.086 C 
BRANCH  14  15
HETATM   15  C12 UNL     1      -3.437   0.734   0.966  1.00  0.00    -0.007 A 
HETATM   16  C13 UNL     1      -3.884   2.134   0.786  1.00  0.00     0.005 A 
HETATM   17  C14 UNL     1      -3.708   1.647   2.158  1.00  0.00     0.005 A 
ENDBRANCH  14  15
ENDBRANCH  12  14
ENDBRANCH   6  12
BRANCH   7  18
HETATM   18  O4  UNL     1      -2.406  -0.866  -2.801  1.00  0.00    -0.392 OA
ATOM     19  H4  UNL     1      -3.111  -1.431  -3.095  1.00  0.00     0.210 HD
ENDBRANCH   7  18
BRANCH   1  20
HETATM   20  C4  UNL     1       2.163   0.392   0.346  1.00  0.00    -0.038 C 
HETATM   21  C3  UNL     1       3.289   0.387   1.099  1.00  0.00    -0.003 C 
HETATM   22  C2  UNL     1       4.212   1.478   1.356  1.00  0.00     0.077 C 
HETATM   23  C1  UNL     1       5.201   1.693   0.265  1.00  0.00     0.026 C 
HETATM   24  S2  UNL     1       3.443   3.010   1.986  1.00  0.00    -0.089 SA
HETATM   25  S1  UNL     1       1.503   2.923   1.021  1.00  0.00    -0.092 SA
HETATM   26  C18 UNL     1       1.883   1.656  -0.276  1.00  0.00     0.125 C 
ENDBRANCH   1  20
TORSDOF 6
