REMARK  6 active torsions:
REMARK  status: ('A' for Active; 'I' for Inactive)
REMARK    1  A    between atoms: S1_2  and  C2_3 
REMARK    2  A    between atoms: C3_8  and  C4_9 
REMARK    3  A    between atoms: C4_9  and  N3_10 
REMARK    4  A    between atoms: N3_10  and  C5_12 
REMARK    5  A    between atoms: C7_18  and  O1_19 
REMARK    6  A    between atoms: C7_18  and  C8_21 
ROOT
HETATM    1  C5  UNL     1       1.316   1.002   0.939  1.00  0.00     0.124 A 
HETATM    2  N4  UNL     1       1.180   2.297   1.213  1.00  0.00    -0.285 N 
ATOM      3  H4  UNL     1       1.931   2.937   1.473  1.00  0.00     0.188 HD
HETATM    4  N5  UNL     1      -0.094   2.607   1.090  1.00  0.00    -0.296 N 
ATOM      5  H5  UNL     1      -0.478   3.539   1.243  1.00  0.00     0.187 HD
HETATM    6  C6  UNL     1      -0.837   1.513   0.729  1.00  0.00     0.087 A 
HETATM    7  C7  UNL     1      -2.243   1.568   0.516  1.00  0.00     0.080 C 
HETATM    8  C16 UNL     1       0.050   0.478   0.627  1.00  0.00     0.014 A 
HETATM    9  C17 UNL     1      -0.135  -0.929   0.273  1.00  0.00     0.055 C 
ENDROOT
BRANCH   1  10
HETATM   10  N3  UNL     1       2.422   0.354   0.960  1.00  0.00    -0.369 N 
ATOM     11  H3  UNL     1       2.407  -0.640   0.732  1.00  0.00     0.161 HD
BRANCH  10  12
HETATM   12  C4  UNL     1       3.691   0.966   1.292  1.00  0.00     0.187 C 
BRANCH  12  13
HETATM   13  C3  UNL     1       4.814   0.270   0.565  1.00  0.00     0.086 A 
HETATM   14  N2  UNL     1       5.536  -0.772   0.968  1.00  0.00    -0.295 N 
HETATM   15  N1  UNL     1       6.447  -1.230   0.222  1.00  0.00    -0.287 N 
ATOM     16  H2  UNL     1       5.355  -1.200   1.876  1.00  0.00     0.187 HD
HETATM   17  C2  UNL     1       6.677  -0.669  -0.961  1.00  0.00     0.128 A 
ATOM     18  H1  UNL     1       7.004  -2.028   0.527  1.00  0.00     0.188 HD
HETATM   19  S2  UNL     1       5.505   0.580  -0.968  1.00  0.00    -0.048 SA
BRANCH  17  20
HETATM   20  S1  UNL     1       7.906  -1.129  -2.202  1.00  0.00    -0.108 SA
HETATM   21  C1  UNL     1       8.819  -2.534  -1.562  1.00  0.00     0.097 C 
ENDBRANCH  17  20
ENDBRANCH  12  13
ENDBRANCH  10  12
ENDBRANCH   1  10
BRANCH   7  22
HETATM   22  O1  UNL     1      -2.747   2.779   0.680  1.00  0.00    -0.362 OA
ATOM     23  H1  UNL     1      -3.686   2.816   0.538  1.00  0.00     0.217 HD
ENDBRANCH   7  22
BRANCH   7  24
HETATM   24  C8  UNL     1      -3.271   0.615   0.162  1.00  0.00     0.012 C 
HETATM   25  C9  UNL     1      -3.553  -0.526   1.054  1.00  0.00     0.021 C 
HETATM   26  C10 UNL     1      -4.966  -0.962   0.608  1.00  0.00    -0.009 C 
HETATM   27  C11 UNL     1      -4.797  -1.704  -0.724  1.00  0.00     0.010 C 
HETATM   28  C14 UNL     1      -5.510   0.175  -0.163  1.00  0.00    -0.005 C 
HETATM   29  C12 UNL     1      -4.796  -0.325  -1.368  1.00  0.00    -0.009 C 
HETATM   30  C13 UNL     1      -3.384   0.268  -1.301  1.00  0.00     0.021 C 
HETATM   31  C15 UNL     1      -4.683   1.326   0.281  1.00  0.00     0.021 C 
ENDBRANCH   7  24
TORSDOF 6
