REMARK  6 active torsions:
REMARK  status: ('A' for Active; 'I' for Inactive)
REMARK    1  A    between atoms: O1_2  and  C2_3 
REMARK    2  A    between atoms: C2_3  and  C3_5 
REMARK    3  A    between atoms: C3_5  and  N1_6 
REMARK    4  A    between atoms: N1_6  and  C4_8 
REMARK    5  A    between atoms: C4_8  and  O3_9 
REMARK    6  A    between atoms: C4_8  and  C5_11 
ROOT
HETATM    1  C5  UNL     1       1.696  -0.401   0.043  1.00  0.00     0.043 C 
HETATM    2  C6  UNL     1       1.419  -1.795   0.569  1.00  0.00     0.009 C 
HETATM    3  C7  UNL     1      -0.031  -2.140   0.675  1.00  0.00     0.001 C 
HETATM    4  C8  UNL     1      -0.708  -2.240  -0.673  1.00  0.00     0.000 C 
HETATM    5  C9  UNL     1      -1.784  -3.298  -0.575  1.00  0.00     0.000 C 
HETATM    6  C10 UNL     1      -2.969  -2.856   0.253  1.00  0.00     0.000 C 
HETATM    7  C11 UNL     1      -4.014  -2.133  -0.570  1.00  0.00     0.000 C 
HETATM    8  C12 UNL     1      -4.587  -1.018   0.305  1.00  0.00     0.000 C 
HETATM    9  C13 UNL     1      -4.555   0.311  -0.400  1.00  0.00     0.000 C 
HETATM   10  C14 UNL     1      -4.484   1.493   0.517  1.00  0.00     0.004 C 
HETATM   11  C15 UNL     1      -3.103   2.148   0.492  1.00  0.00    -0.017 C 
HETATM   12  C16 UNL     1      -2.683   2.385  -0.932  1.00  0.00     0.010 C 
HETATM   13  C17 UNL     1      -2.181   1.210   1.207  1.00  0.00     0.031 C 
HETATM   14  C18 UNL     1      -0.787   1.755   1.419  1.00  0.00     0.179 C 
HETATM   15  O4  UNL     1      -0.101   1.073   2.435  1.00  0.00    -0.321 OA
HETATM   16  C19 UNL     1       1.084   0.395   2.341  1.00  0.00     0.259 C 
HETATM   17  O5  UNL     1       1.470  -0.377   3.227  1.00  0.00    -0.265 OA
HETATM   18  C20 UNL     1       1.941   0.599   1.122  1.00  0.00     0.120 C 
ENDROOT
BRANCH   1  19
HETATM   19  C4  UNL     1       2.917  -0.559  -0.836  1.00  0.00     0.222 C 
BRANCH  19  20
HETATM   20  N1  UNL     1       3.461   0.519  -1.493  1.00  0.00    -0.368 N 
ATOM     21  H1  UNL     1       3.374   0.502  -2.509  1.00  0.00     0.161 HD
BRANCH  20  22
HETATM   22  C3  UNL     1       4.108   1.621  -0.973  1.00  0.00     0.168 C 
BRANCH  22  23
HETATM   23  C2  UNL     1       5.480   1.410  -0.402  1.00  0.00     0.297 C 
HETATM   24  O2  UNL     1       6.085   0.322  -0.447  1.00  0.00    -0.259 OA
BRANCH  23  25
HETATM   25  O1  UNL     1       6.101   2.489   0.204  1.00  0.00    -0.322 OA
HETATM   26  C1  UNL     1       7.394   2.409   0.772  1.00  0.00     0.213 C 
ENDBRANCH  23  25
ENDBRANCH  22  23
ENDBRANCH  20  22
ENDBRANCH  19  20
BRANCH  19  27
HETATM   27  O3  UNL     1       3.882  -1.278  -0.067  1.00  0.00    -0.377 OA
ATOM     28  H3  UNL     1       3.506  -2.023   0.387  1.00  0.00     0.212 HD
ENDBRANCH  19  27
ENDBRANCH   1  19
TORSDOF 6
