REMARK  5 active torsions:
REMARK  status: ('A' for Active; 'I' for Inactive)
REMARK    1  A    between atoms: C4_4  and  O1_5 
REMARK    2  A    between atoms: O1_5  and  C5_6 
REMARK    3  A    between atoms: C5_6  and  C6_7 
REMARK    4  A    between atoms: C6_7  and  C7_8 
REMARK    5  A    between atoms: C7_8  and  C8_9 
ROOT
HETATM    1  C8  UNL     1      -1.461  -1.011   0.321  1.00  0.00    -0.029 A 
HETATM    2  C9  UNL     1      -1.434  -2.360   0.706  1.00  0.00     0.096 A 
HETATM    3  N1  UNL     1      -2.689  -2.801   0.815  1.00  0.00    -0.365 N 
ATOM      4  H1  UNL     1      -2.952  -3.750   1.081  1.00  0.00     0.165 HD
HETATM    5  C10 UNL     1      -3.557  -1.818   0.525  1.00  0.00     0.043 A 
HETATM    6  C11 UNL     1      -4.921  -1.794   0.501  1.00  0.00     0.031 A 
HETATM    7  C12 UNL     1      -5.574  -0.646   0.166  1.00  0.00     0.014 A 
HETATM    8  C13 UNL     1      -4.863   0.480  -0.146  1.00  0.00    -0.025 A 
HETATM    9  C14 UNL     1      -5.505   1.648  -0.486  1.00  0.00     0.012 A 
HETATM   10  C15 UNL     1      -4.782   2.773  -0.797  1.00  0.00     0.001 A 
HETATM   11  C16 UNL     1      -3.408   2.786  -0.783  1.00  0.00     0.001 A 
HETATM   12  C17 UNL     1      -2.754   1.588  -0.434  1.00  0.00     0.013 A 
HETATM   13  C18 UNL     1      -3.476   0.465  -0.124  1.00  0.00    -0.013 A 
HETATM   14  C19 UNL     1      -2.771  -0.693   0.215  1.00  0.00     0.009 A 
ENDROOT
BRANCH   1  15
HETATM   15  C7  UNL     1      -0.269  -0.236   0.116  1.00  0.00     0.043 C 
BRANCH  15  16
HETATM   16  C6  UNL     1       1.008  -1.069   0.368  1.00  0.00     0.031 C 
BRANCH  16  17
HETATM   17  C5  UNL     1       2.228  -0.166   0.127  1.00  0.00     0.176 C 
BRANCH  17  18
HETATM   18  O1  UNL     1       3.371  -0.921   0.355  1.00  0.00    -0.351 OA
BRANCH  18  19
HETATM   19  C4  UNL     1       4.620  -0.291   0.192  1.00  0.00     0.068 A 
HETATM   20  C3  UNL     1       4.725   1.031  -0.182  1.00  0.00     0.037 A 
HETATM   21  C2  UNL     1       5.939   1.666  -0.348  1.00  0.00     0.003 A 
HETATM   22  C1  UNL     1       7.108   0.970  -0.136  1.00  0.00     0.000 A 
HETATM   23  C21 UNL     1       7.013  -0.353   0.238  1.00  0.00     0.003 A 
HETATM   24  C20 UNL     1       5.794  -0.986   0.403  1.00  0.00     0.037 A 
ENDBRANCH  18  19
ENDBRANCH  17  18
ENDBRANCH  16  17
ENDBRANCH  15  16
ENDBRANCH   1  15
TORSDOF 5
