REMARK  5 active torsions:
REMARK  status: ('A' for Active; 'I' for Inactive)
REMARK    1  A    between atoms: C5_8  and  C6_9 
REMARK    2  A    between atoms: C6_9  and  C7_10 
REMARK    3  A    between atoms: C6_9  and  C15_18 
REMARK    4  A    between atoms: C7_10  and  C8_11 
REMARK    5  A    between atoms: C8_11  and  C9_12 
ROOT
HETATM    1  C6  UNL     1      -0.831  -0.504   0.519  1.00  0.00     0.055 C 
ENDROOT
BRANCH   1   2
HETATM    2  C5  UNL     1      -1.479   0.805   0.596  1.00  0.00    -0.011 A 
HETATM    3  C1  UNL     1      -2.355   1.129   1.581  1.00  0.00     0.107 A 
HETATM    4  S1  UNL     1      -2.741   0.112   2.778  1.00  0.00    -0.060 SA
HETATM    5  N1  UNL     1      -2.978   2.348   1.642  1.00  0.00    -0.357 N 
HETATM    6  C2  UNL     1      -2.737   3.282   0.709  1.00  0.00     0.089 A 
ATOM      7  H1  UNL     1      -3.629   2.547   2.402  1.00  0.00     0.166 HD
HETATM    8  C3  UNL     1      -1.848   2.981  -0.307  1.00  0.00     0.018 A 
HETATM    9  C4  UNL     1      -1.215   1.762  -0.381  1.00  0.00     0.012 A 
ENDBRANCH   1   2
BRANCH   1  10
HETATM   10  C7  UNL     1       0.548  -0.488  -0.100  1.00  0.00     0.019 C 
BRANCH  10  11
HETATM   11  C8  UNL     1       1.445   0.378   0.718  1.00  0.00     0.039 C 
BRANCH  11  12
HETATM   12  C9  UNL     1       2.818   0.467   0.202  1.00  0.00    -0.058 A 
HETATM   13  C10 UNL     1       3.824  -0.395   0.571  1.00  0.00     0.007 A 
HETATM   14  C11 UNL     1       5.113  -0.281   0.062  1.00  0.00     0.001 A 
HETATM   15  C12 UNL     1       5.375   0.727  -0.834  1.00  0.00     0.000 A 
HETATM   16  C13 UNL     1       4.397   1.611  -1.230  1.00  0.00     0.001 A 
HETATM   17  C14 UNL     1       3.127   1.461  -0.698  1.00  0.00     0.007 A 
ENDBRANCH  11  12
ENDBRANCH  10  11
ENDBRANCH   1  10
BRANCH   1  18
HETATM   18  C15 UNL     1      -1.646  -1.554  -0.129  1.00  0.00    -0.050 A 
HETATM   19  C16 UNL     1      -1.870  -1.470  -1.485  1.00  0.00     0.008 A 
HETATM   20  C17 UNL     1      -2.612  -2.420  -2.150  1.00  0.00     0.001 A 
HETATM   21  C18 UNL     1      -3.159  -3.493  -1.482  1.00  0.00     0.000 A 
HETATM   22  C19 UNL     1      -2.923  -3.558  -0.126  1.00  0.00     0.001 A 
HETATM   23  C20 UNL     1      -2.180  -2.610   0.555  1.00  0.00     0.008 A 
ENDBRANCH   1  18
TORSDOF 5
