REMARK  5 active torsions:
REMARK  status: ('A' for Active; 'I' for Inactive)
REMARK    1  A    between atoms: C9_11  and  C10_12 
REMARK    2  A    between atoms: C10_12  and  C11_13 
REMARK    3  A    between atoms: C11_13  and  C12_14 
REMARK    4  A    between atoms: C12_14  and  C13_15 
REMARK    5  A    between atoms: C13_15  and  C14_16 
ROOT
HETATM    1  C1  UNL     1      -5.303   2.756   0.605  1.00  0.00     0.002 A 
HETATM    2  C2  UNL     1      -5.759   1.504   0.948  1.00  0.00     0.001 A 
HETATM    3  C3  UNL     1      -4.985   0.372   0.727  1.00  0.00     0.014 A 
HETATM    4  C4  UNL     1      -3.740   0.490   0.156  1.00  0.00     0.003 A 
HETATM    5  C5  UNL     1      -3.281   1.742  -0.189  1.00  0.00     0.043 A 
HETATM    6  C6  UNL     1      -4.053   2.879   0.031  1.00  0.00     0.030 A 
HETATM    7  N1  UNL     1      -2.060   1.572  -0.717  1.00  0.00    -0.355 N 
ATOM      8  H1  UNL     1      -1.467   2.325  -1.066  1.00  0.00     0.166 HD
HETATM    9  C7  UNL     1      -1.728   0.269  -0.721  1.00  0.00     0.044 A 
HETATM   10  C8  UNL     1      -0.608  -0.436  -1.145  1.00  0.00     0.037 A 
HETATM   11  C9  UNL     1      -0.481  -1.801  -1.051  1.00  0.00    -0.056 A 
HETATM   12  C19 UNL     1      -1.575  -2.475  -0.486  1.00  0.00     0.008 A 
HETATM   13  C20 UNL     1      -2.707  -1.825  -0.051  1.00  0.00     0.015 A 
HETATM   14  C21 UNL     1      -2.784  -0.442  -0.170  1.00  0.00     0.003 A 
ENDROOT
BRANCH  11  15
HETATM   15  C10 UNL     1       0.713  -2.572  -1.496  1.00  0.00     0.038 C 
BRANCH  15  16
HETATM   16  C11 UNL     1       1.736  -2.778  -0.446  1.00  0.00     0.005 C 
BRANCH  16  17
HETATM   17  C12 UNL     1       2.374  -1.587   0.147  1.00  0.00     0.005 C 
BRANCH  17  18
HETATM   18  C13 UNL     1       3.140  -0.719  -0.805  1.00  0.00     0.038 C 
BRANCH  18  19
HETATM   19  C14 UNL     1       3.709   0.425  -0.063  1.00  0.00    -0.056 A 
HETATM   20  C15 UNL     1       3.031   1.617   0.097  1.00  0.00     0.024 A 
HETATM   21  C16 UNL     1       3.557   2.683   0.787  1.00  0.00     0.088 A 
HETATM   22  N2  UNL     1       4.771   2.569   1.325  1.00  0.00    -0.375 N 
HETATM   23  C17 UNL     1       5.485   1.438   1.207  1.00  0.00     0.088 A 
ATOM     24  H2  UNL     1       5.166   3.358   1.837  1.00  0.00     0.164 HD
HETATM   25  C18 UNL     1       4.960   0.345   0.507  1.00  0.00     0.024 A 
ENDBRANCH  18  19
ENDBRANCH  17  18
ENDBRANCH  16  17
ENDBRANCH  15  16
ENDBRANCH  11  15
TORSDOF 5
