REMARK  5 active torsions:
REMARK  status: ('A' for Active; 'I' for Inactive)
REMARK    1  A    between atoms: C3_5  and  C4_6 
REMARK    2  A    between atoms: C4_6  and  C5_7 
REMARK    3  A    between atoms: C5_7  and  C6_8 
REMARK    4  A    between atoms: C6_8  and  C7_9 
REMARK    5  A    between atoms: C7_9  and  C8_10 
ROOT
HETATM    1  C8  UNL     1      -1.312  -0.345  -0.784  1.00  0.00    -0.045 A 
HETATM    2  C9  UNL     1      -2.015  -1.489  -0.482  1.00  0.00     0.020 A 
HETATM    3  C10 UNL     1      -3.316  -1.412   0.025  1.00  0.00    -0.023 A 
HETATM    4  C11 UNL     1      -3.995  -2.599   0.320  1.00  0.00     0.012 A 
HETATM    5  C12 UNL     1      -5.278  -2.572   0.822  1.00  0.00     0.001 A 
HETATM    6  C13 UNL     1      -5.857  -1.335   1.018  1.00  0.00     0.001 A 
HETATM    7  C14 UNL     1      -5.223  -0.143   0.740  1.00  0.00     0.014 A 
HETATM    8  C15 UNL     1      -3.921  -0.200   0.232  1.00  0.00     0.002 A 
HETATM    9  C16 UNL     1      -3.224   0.950  -0.069  1.00  0.00     0.054 A 
HETATM   10  N2  UNL     1      -3.829   2.130   0.132  1.00  0.00    -0.365 N 
ATOM     11  H2  UNL     1      -4.779   2.156   0.504  1.00  0.00     0.165 HD
HETATM   12  C17 UNL     1      -3.192   3.276  -0.153  1.00  0.00     0.088 A 
HETATM   13  C18 UNL     1      -1.910   3.257  -0.655  1.00  0.00     0.018 A 
HETATM   14  C19 UNL     1      -1.290   2.024  -0.859  1.00  0.00     0.015 A 
HETATM   15  C20 UNL     1      -1.938   0.858  -0.569  1.00  0.00    -0.002 A 
ENDROOT
BRANCH   1  16
HETATM   16  C7  UNL     1       0.046  -0.425  -1.281  1.00  0.00     0.039 C 
BRANCH  16  17
HETATM   17  C6  UNL     1       0.989  -0.168  -0.133  1.00  0.00     0.005 C 
BRANCH  17  18
HETATM   18  C5  UNL     1       2.455  -0.233  -0.554  1.00  0.00     0.006 C 
BRANCH  18  19
HETATM   19  C4  UNL     1       3.251   0.030   0.692  1.00  0.00     0.057 C 
BRANCH  19  20
HETATM   20  C3  UNL     1       4.709   0.007   0.505  1.00  0.00     0.009 A 
HETATM   21  N1  UNL     1       5.373  -0.213  -0.630  1.00  0.00    -0.369 N 
HETATM   22  C2  UNL     1       6.693  -0.159  -0.404  1.00  0.00     0.088 A 
ATOM     23  H1  UNL     1       4.941  -0.395  -1.536  1.00  0.00     0.165 HD
HETATM   24  C1  UNL     1       6.876   0.108   0.935  1.00  0.00     0.019 A 
HETATM   25  C21 UNL     1       5.634   0.210   1.496  1.00  0.00     0.026 A 
ENDBRANCH  19  20
ENDBRANCH  18  19
ENDBRANCH  17  18
ENDBRANCH  16  17
ENDBRANCH   1  16
TORSDOF 5
