REMARK  5 active torsions:
REMARK  status: ('A' for Active; 'I' for Inactive)
REMARK    1  A    between atoms: C10_11  and  C11_12 
REMARK    2  A    between atoms: C11_12  and  C12_13 
REMARK    3  A    between atoms: C12_13  and  C13_14 
REMARK    4  A    between atoms: C13_14  and  C14_15 
REMARK    5  A    between atoms: C14_15  and  C15_16 
ROOT
HETATM    1  C1  UNL     1      -6.275   1.257   1.230  1.00  0.00     0.001 A 
HETATM    2  C2  UNL     1      -5.174   1.022   2.019  1.00  0.00     0.001 A 
HETATM    3  C3  UNL     1      -4.001   0.507   1.546  1.00  0.00     0.013 A 
HETATM    4  C4  UNL     1      -3.924   0.207   0.195  1.00  0.00    -0.014 A 
HETATM    5  C5  UNL     1      -5.012   0.434  -0.612  1.00  0.00    -0.025 A 
HETATM    6  C6  UNL     1      -6.194   0.959  -0.105  1.00  0.00     0.012 A 
HETATM    7  C7  UNL     1      -5.048   0.173  -1.971  1.00  0.00     0.013 A 
HETATM    8  C8  UNL     1      -3.894  -0.348  -2.506  1.00  0.00     0.021 A 
HETATM    9  C9  UNL     1      -2.778  -0.582  -1.690  1.00  0.00     0.016 A 
HETATM   10  S1  UNL     1      -1.205  -1.209  -2.007  1.00  0.00    -0.094 SA
HETATM   11  C10 UNL     1      -0.563  -1.122  -0.437  1.00  0.00    -0.016 A 
HETATM   12  C18 UNL     1      -1.591  -0.607   0.298  1.00  0.00     0.028 A 
HETATM   13  C19 UNL     1      -2.738  -0.327  -0.353  1.00  0.00    -0.007 A 
ENDROOT
BRANCH  11  14
HETATM   14  C11 UNL     1       0.804  -1.522   0.005  1.00  0.00     0.046 C 
BRANCH  14  15
HETATM   15  C12 UNL     1       1.686  -0.309  -0.132  1.00  0.00     0.005 C 
BRANCH  15  16
HETATM   16  C13 UNL     1       3.112  -0.580   0.287  1.00  0.00     0.006 C 
BRANCH  16  17
HETATM   17  C14 UNL     1       3.878   0.711   0.100  1.00  0.00     0.058 C 
BRANCH  17  18
HETATM   18  C15 UNL     1       5.306   0.550   0.488  1.00  0.00     0.025 A 
HETATM   19  C16 UNL     1       5.935  -0.579   0.963  1.00  0.00     0.113 A 
HETATM   20  N1  UNL     1       7.245  -0.307   1.198  1.00  0.00    -0.360 N 
HETATM   21  C17 UNL     1       7.401   0.990   0.863  1.00  0.00     0.180 A 
ATOM     22  H1  UNL     1       7.957  -0.946   1.552  1.00  0.00     0.166 HD
HETATM   23  N2  UNL     1       6.241   1.512   0.436  1.00  0.00    -0.355 N 
ATOM     24  H2  UNL     1       6.095   2.473   0.126  1.00  0.00     0.166 HD
ENDBRANCH  17  18
ENDBRANCH  16  17
ENDBRANCH  15  16
ENDBRANCH  14  15
ENDBRANCH  11  14
TORSDOF 5
