REMARK  5 active torsions:
REMARK  status: ('A' for Active; 'I' for Inactive)
REMARK    1  A    between atoms: C2_2  and  C3_3 
REMARK    2  A    between atoms: C3_3  and  C4_4 
REMARK    3  A    between atoms: C4_4  and  C5_5 
REMARK    4  A    between atoms: C5_5  and  C6_6 
REMARK    5  A    between atoms: C6_6  and  C7_7 
ROOT
HETATM    1  C7  UNL     1      -0.048   0.447  -0.687  1.00  0.00    -0.030 A 
HETATM    2  C8  UNL     1      -0.274   1.743  -1.063  1.00  0.00     0.021 A 
HETATM    3  C9  UNL     1      -1.505   2.331  -1.110  1.00  0.00    -0.024 A 
HETATM    4  C10 UNL     1      -1.670   3.649  -1.501  1.00  0.00     0.012 A 
HETATM    5  C11 UNL     1      -2.904   4.247  -1.550  1.00  0.00     0.001 A 
HETATM    6  C12 UNL     1      -4.005   3.521  -1.204  1.00  0.00     0.001 A 
HETATM    7  C13 UNL     1      -3.842   2.177  -0.806  1.00  0.00     0.013 A 
HETATM    8  C14 UNL     1      -2.614   1.568  -0.752  1.00  0.00    -0.012 A 
HETATM    9  C15 UNL     1      -2.457   0.253  -0.362  1.00  0.00     0.016 A 
HETATM   10  C16 UNL     1      -1.166  -0.291  -0.335  1.00  0.00     0.051 A 
HETATM   11  N1  UNL     1      -1.282  -1.567   0.071  1.00  0.00    -0.354 N 
ATOM     12  H1  UNL     1      -0.506  -2.218   0.187  1.00  0.00     0.166 HD
HETATM   13  C17 UNL     1      -2.571  -1.856   0.301  1.00  0.00     0.046 A 
HETATM   14  C18 UNL     1      -3.121  -3.055   0.730  1.00  0.00     0.047 A 
HETATM   15  C19 UNL     1      -4.487  -3.066   0.883  1.00  0.00     0.090 A 
HETATM   16  N2  UNL     1      -5.223  -1.982   0.629  1.00  0.00    -0.374 N 
ATOM     17  H2  UNL     1      -6.233  -2.044   0.758  1.00  0.00     0.164 HD
HETATM   18  C20 UNL     1      -4.698  -0.797   0.207  1.00  0.00     0.102 A 
HETATM   19  C21 UNL     1      -3.341  -0.738   0.040  1.00  0.00     0.019 A 
ENDROOT
BRANCH   1  20
HETATM   20  C6  UNL     1       1.324  -0.136  -0.649  1.00  0.00     0.041 C 
BRANCH  20  21
HETATM   21  C5  UNL     1       1.754  -0.180   0.781  1.00  0.00     0.005 C 
BRANCH  21  22
HETATM   22  C4  UNL     1       3.098  -0.736   1.030  1.00  0.00     0.000 C 
BRANCH  22  23
HETATM   23  C3  UNL     1       4.228  -0.009   0.369  1.00  0.00    -0.000 C 
BRANCH  23  24
HETATM   24  C2  UNL     1       5.558  -0.658   0.689  1.00  0.00    -0.005 C 
HETATM   25  C1  UNL     1       5.638  -2.087   0.237  1.00  0.00     0.005 C 
ENDBRANCH  23  24
ENDBRANCH  22  23
ENDBRANCH  21  22
ENDBRANCH  20  21
ENDBRANCH   1  20
TORSDOF 5
