REMARK  16 active torsions:
REMARK  status: ('A' for Active; 'I' for Inactive)
REMARK    1  A    between atoms: C1_4  and  N2_5 
REMARK    2  A    between atoms: C1_4  and  C7_30 
REMARK    3  A    between atoms: N2_5  and  O1_7 
REMARK    4  A    between atoms: O1_7  and  C2_8 
REMARK    5  A    between atoms: C3_10  and  N3_11 
REMARK    6  A    between atoms: C4_16  and  N6_17 
REMARK    7  A    between atoms: N7_20  and  N8_21 
REMARK    8  A    between atoms: C5_24  and  O3_25 
REMARK    9  A    between atoms: C6_27  and  O4_28 
REMARK   10  A    between atoms: C8_35  and  N11_36 
REMARK   11  A    between atoms: N11_36  and  C9_38 
REMARK   12  A    between atoms: C9_38  and  C10_39 
REMARK   13  A    between atoms: C10_39  and  C11_40 
REMARK   14  A    between atoms: C11_40  and  O5_41 
REMARK   15  A    between atoms: N12_43  and  N13_45 
REMARK   16  A    between atoms: N13_45  and  N14_47 
ROOT
HETATM    1  N1  UNL     1      -0.223   3.329   0.010  1.00  0.00    -0.381 N 
ATOM      2  H11 UNL     1       0.510   3.994  -0.238  1.00  0.00     0.157 HD
ATOM      3  H12 UNL     1      -1.194   3.639   0.046  1.00  0.00     0.157 HD
HETATM    4  C1  UNL     1       0.114   2.112   0.270  1.00  0.00     0.166 C 
ENDROOT
BRANCH   4   5
HETATM    5  N2  UNL     1      -0.905   1.187   0.615  1.00  0.00    -0.245 N 
ATOM      6  H2  UNL     1      -0.743   0.560   1.403  1.00  0.00     0.196 HD
BRANCH   5   7
HETATM    7  O1  UNL     1      -2.062   1.095  -0.037  1.00  0.00    -0.243 OA
BRANCH   7   8
HETATM    8  C2  UNL     1      -2.722  -0.091   0.125  1.00  0.00     0.322 C 
HETATM    9  O2  UNL     1      -3.953   0.203   0.756  1.00  0.00    -0.326 OA
HETATM   10  C3  UNL     1      -4.621  -1.015   0.551  1.00  0.00     0.301 C 
HETATM   11  C5  UNL     1      -4.528  -1.160  -0.934  1.00  0.00     0.204 C 
HETATM   12  C6  UNL     1      -3.045  -0.806  -1.148  1.00  0.00     0.208 C 
BRANCH  10  13
HETATM   13  N3  UNL     1      -5.918  -1.056   1.101  1.00  0.00    -0.150 N 
HETATM   14  N4  UNL     1      -6.239  -1.845   2.141  1.00  0.00    -0.207 N 
HETATM   15  N5  UNL     1      -7.496  -1.689   2.447  1.00  0.00    -0.113 N 
ATOM     16  H4  UNL     1      -5.594  -2.473   2.620  1.00  0.00     0.211 HD
HETATM   17  C4  UNL     1      -8.024  -0.788   1.607  1.00  0.00     0.729 A 
ATOM     18  H5  UNL     1      -7.993  -2.170   3.197  1.00  0.00     0.207 HD
HETATM   19  N7  UNL     1      -7.034  -0.417   0.792  1.00  0.00    -0.005 N 
BRANCH  17  20
HETATM   20  N6  UNL     1      -9.220  -0.359   1.572  1.00  0.00    -0.230 N 
ATOM     21  H62 UNL     1      -9.976  -0.642   2.195  1.00  0.00     0.174 HD
ATOM     22  H61 UNL     1      -9.622   0.327   0.933  1.00  0.00     0.174 HD
ENDBRANCH  17  20
BRANCH  19  23
HETATM   23  N8  UNL     1      -7.120   0.500  -0.237  1.00  0.00    -0.308 N 
ATOM     24  H82 UNL     1      -6.364   0.783  -0.860  1.00  0.00     0.179 HD
ATOM     25  H81 UNL     1      -7.981   0.993  -0.475  1.00  0.00     0.179 HD
ENDBRANCH  19  23
ENDBRANCH  10  13
BRANCH  11  26
HETATM   26  O3  UNL     1      -4.674  -2.476  -1.346  1.00  0.00    -0.388 OA
ATOM     27  H3  UNL     1      -4.615  -2.568  -2.290  1.00  0.00     0.210 HD
ENDBRANCH  11  26
BRANCH  12  28
HETATM   28  O4  UNL     1      -2.283  -1.973  -1.307  1.00  0.00    -0.388 OA
ATOM     29  H4  UNL     1      -2.488  -2.427  -2.116  1.00  0.00     0.210 HD
ENDBRANCH  12  28
ENDBRANCH   7   8
ENDBRANCH   5   7
ENDBRANCH   4   5
BRANCH   4  30
HETATM   30  C7  UNL     1       1.503   1.668   0.219  1.00  0.00     0.181 A 
HETATM   31  N9  UNL     1       1.942   0.425   0.473  1.00  0.00    -0.268 N 
HETATM   32  N10 UNL     1       3.270   0.381   0.330  1.00  0.00    -0.130 N 
ATOM     33  H9  UNL     1       1.352  -0.365   0.735  1.00  0.00     0.189 HD
HETATM   34  C8  UNL     1       3.709   1.613  -0.024  1.00  0.00     0.700 A 
ATOM     35  H10 UNL     1       3.856  -0.443   0.465  1.00  0.00     0.205 HD
HETATM   36  N15 UNL     1       2.604   2.377  -0.084  1.00  0.00    -0.170 N 
ATOM     37  H15 UNL     1       2.602   3.367  -0.328  1.00  0.00     0.186 HD
BRANCH  34  38
HETATM   38  N11 UNL     1       4.927   1.997  -0.260  1.00  0.00    -0.178 N 
ATOM     39  H11 UNL     1       5.101   2.968  -0.518  1.00  0.00     0.185 HD
BRANCH  38  40
HETATM   40  C9  UNL     1       6.009   1.110  -0.169  1.00  0.00     0.115 C 
HETATM   41  N12 UNL     1       6.451   0.825   1.027  1.00  0.00    -0.274 N 
ATOM     42  H12 UNL     1       5.998   1.252   1.835  1.00  0.00     0.189 HD
BRANCH  40  43
HETATM   43  C10 UNL     1       6.642   0.507  -1.354  1.00  0.00     0.104 C 
BRANCH  43  44
HETATM   44  C11 UNL     1       5.666  -0.319  -2.168  1.00  0.00     0.171 C 
BRANCH  44  45
HETATM   45  O5  UNL     1       6.321  -0.851  -3.257  1.00  0.00    -0.400 OA
ATOM     46  H5  UNL     1       5.709  -1.369  -3.767  1.00  0.00     0.209 HD
ENDBRANCH  44  45
ENDBRANCH  43  44
ENDBRANCH  40  43
BRANCH  41  47
HETATM   47  N13 UNL     1       7.513  -0.037   1.235  1.00  0.00    -0.248 N 
ATOM     48  H13 UNL     1       8.389   0.163   0.752  1.00  0.00     0.207 HD
BRANCH  47  49
HETATM   49  N14 UNL     1       7.467  -1.164   2.062  1.00  0.00    -0.331 N 
ATOM     50 2H14 UNL     1       6.583  -1.348   2.536  1.00  0.00     0.178 HD
ATOM     51 1H14 UNL     1       8.250  -1.800   2.215  1.00  0.00     0.178 HD
ENDBRANCH  47  49
ENDBRANCH  41  47
ENDBRANCH  38  40
ENDBRANCH  34  38
ENDBRANCH   4  30
TORSDOF 16
