REMARK  12 active torsions:
REMARK  status: ('A' for Active; 'I' for Inactive)
REMARK    1  A    between atoms: C2_2  and  O1_3 
REMARK    2  A    between atoms: C2_2  and  C3_5 
REMARK    3  A    between atoms: C3_5  and  S1_6 
REMARK    4  A    between atoms: C3_5  and  C12_41 
REMARK    5  A    between atoms: S1_6  and  C4_7 
REMARK    6  A    between atoms: C5_11  and  O3_12 
REMARK    7  A    between atoms: C5_11  and  O4_14 
REMARK    8  A    between atoms: C6_16  and  N2_17 
REMARK    9  A    between atoms: C8_23  and  N5_24 
REMARK   10  A    between atoms: C9_29  and  N7_30 
REMARK   11  A    between atoms: C11_36  and  O5_37 
REMARK   12  A    between atoms: C11_36  and  O6_39 
ROOT
HETATM    1  C4  UNL     1       1.555   0.112  -0.288  1.00  0.00     0.279 C 
HETATM    2  O2  UNL     1       1.564  -0.861  -1.283  1.00  0.00    -0.259 OA
HETATM    3  N1  UNL     1       0.919  -1.944  -0.887  1.00  0.00    -0.240 N 
ATOM      4  H1  UNL     1       1.346  -2.866  -0.978  1.00  0.00     0.193 HD
HETATM    5  C5  UNL     1      -0.376  -1.799  -0.334  1.00  0.00     0.293 C 
HETATM    6  C6  UNL     1      -0.654  -0.532   0.404  1.00  0.00     0.279 C 
HETATM    7  C11 UNL     1       0.118   0.591  -0.231  1.00  0.00     0.230 C 
ENDROOT
BRANCH   6   8
HETATM    8  N2  UNL     1      -2.075  -0.278   0.445  1.00  0.00    -0.214 N 
HETATM    9  N3  UNL     1      -2.816  -0.100   1.525  1.00  0.00    -0.265 N 
HETATM   10  C7  UNL     1      -4.104   0.114   1.208  1.00  0.00     0.169 A 
ATOM     11  H3  UNL     1      -2.455  -0.122   2.479  1.00  0.00     0.190 HD
HETATM   12  N4  UNL     1      -5.234   0.345   1.919  1.00  0.00    -0.173 N 
HETATM   13  C10 UNL     1      -4.153   0.063  -0.177  1.00  0.00     0.140 A 
HETATM   14  C8  UNL     1      -6.412   0.527   1.298  1.00  0.00     0.679 A 
ATOM     15  H4  UNL     1      -5.190   0.381   2.937  1.00  0.00     0.186 HD
HETATM   16  N6  UNL     1      -6.448   0.474  -0.058  1.00  0.00    -0.175 N 
HETATM   17  C9  UNL     1      -5.358   0.249  -0.800  1.00  0.00     0.147 A 
ATOM     18  H6  UNL     1      -7.342   0.611  -0.530  1.00  0.00     0.186 HD
HETATM   19  N8  UNL     1      -2.891  -0.179  -0.587  1.00  0.00    -0.276 N 
ATOM     20  H8  UNL     1      -2.606  -0.273  -1.562  1.00  0.00     0.189 HD
BRANCH  14  21
HETATM   21  N5  UNL     1      -7.492   0.748   1.972  1.00  0.00    -0.234 N 
ATOM     22  H52 UNL     1      -7.465   0.788   2.991  1.00  0.00     0.174 HD
ATOM     23  H51 UNL     1      -8.386   0.886   1.501  1.00  0.00     0.174 HD
ENDBRANCH  14  21
BRANCH  17  24
HETATM   24  N7  UNL     1      -5.420   0.205  -2.087  1.00  0.00    -0.383 N 
ATOM     25  H72 UNL     1      -6.318   0.344  -2.551  1.00  0.00     0.157 HD
ATOM     26  H71 UNL     1      -4.589   0.033  -2.653  1.00  0.00     0.157 HD
ENDBRANCH  17  24
ENDBRANCH   6   8
BRANCH   5  27
HETATM   27  O3  UNL     1      -0.599  -2.853   0.586  1.00  0.00    -0.346 OA
ATOM     28  H3  UNL     1      -1.468  -2.756   0.957  1.00  0.00     0.215 HD
ENDBRANCH   5  27
BRANCH   5  29
HETATM   29  O4  UNL     1      -1.313  -1.960  -1.352  1.00  0.00    -0.346 OA
ATOM     30  H4  UNL     1      -2.182  -1.863  -0.981  1.00  0.00     0.215 HD
ENDBRANCH   5  29
BRANCH   7  31
HETATM   31  O5  UNL     1      -0.016   1.792   0.446  1.00  0.00    -0.361 OA
ATOM     32  H5  UNL     1      -0.917   2.092   0.482  1.00  0.00     0.213 HD
ENDBRANCH   7  31
BRANCH   7  33
HETATM   33  O6  UNL     1      -0.315   0.687  -1.572  1.00  0.00    -0.361 OA
ATOM     34  H6  UNL     1      -1.216   0.987  -1.536  1.00  0.00     0.213 HD
ENDBRANCH   7  33
BRANCH   1  35
HETATM   35  S1  UNL     1       2.671   1.477  -0.573  1.00  0.00    -0.111 SA
BRANCH  35  36
HETATM   36  C3  UNL     1       4.404   1.030  -0.534  1.00  0.00     0.179 C 
BRANCH  36  37
HETATM   37  C2  UNL     1       4.872   0.578   0.826  1.00  0.00     0.138 C 
HETATM   38  C1  UNL     1       6.338   0.227   0.761  1.00  0.00     0.041 C 
BRANCH  37  39
HETATM   39  O1  UNL     1       4.695   1.585   1.747  1.00  0.00    -0.394 OA
ATOM     40  H1  UNL     1       3.772   1.806   1.788  1.00  0.00     0.210 HD
ENDBRANCH  37  39
ENDBRANCH  36  37
BRANCH  36  41
HETATM   41  C12 UNL     1       4.697  -0.001  -1.559  1.00  0.00     0.189 C 
HETATM   42  O7  UNL     1       5.234  -1.064  -1.210  1.00  0.00    -0.647 OA
HETATM   43  O8  UNL     1       4.371   0.230  -2.880  1.00  0.00    -0.647 OA
ENDBRANCH  36  41
ENDBRANCH  35  36
ENDBRANCH   1  35
TORSDOF 12
