REMARK  13 active torsions:
REMARK  status: ('A' for Active; 'I' for Inactive)
REMARK    1  A    between atoms: N1_1  and  C1_4 
REMARK    2  A    between atoms: C2_7  and  N3_8 
REMARK    3  A    between atoms: N5_15  and  C5_16 
REMARK    4  A    between atoms: C6_17  and  C7_18 
REMARK    5  A    between atoms: C7_18  and  O1_19 
REMARK    6  A    between atoms: C8_22  and  N6_23 
REMARK    7  A    between atoms: C9_24  and  N7_25 
REMARK    8  A    between atoms: C10_30  and  N9_31 
REMARK    9  A    between atoms: N10_34  and  C11_35 
REMARK   10  A    between atoms: C11_35  and  O3_36 
REMARK   11  A    between atoms: O3_36  and  N11_37 
REMARK   12  A    between atoms: C12_40  and  O4_41 
REMARK   13  A    between atoms: C12_40  and  O5_43 
ROOT
HETATM    1  C5  UNL     1       0.479   0.057  -0.979  1.00  0.00     0.094 C 
HETATM    2  C6  UNL     1      -0.252  -1.181  -0.708  1.00  0.00     0.200 C 
HETATM    3  O2  UNL     1      -1.122  -0.763   0.335  1.00  0.00    -0.345 OA
HETATM    4  C8  UNL     1      -1.483   0.566  -0.065  1.00  0.00     0.332 C 
HETATM    5  C12 UNL     1      -0.051   1.104   0.001  1.00  0.00     0.251 C 
ENDROOT
BRANCH   1   6
HETATM    6  N5  UNL     1       1.772   0.118  -1.466  1.00  0.00    -0.291 N 
HETATM    7  C4  UNL     1       2.154   0.470  -2.741  1.00  0.00     0.190 A 
HETATM    8  N4  UNL     1       3.459   0.441  -2.917  1.00  0.00    -0.346 N 
HETATM    9  C3  UNL     1       3.988   0.064  -1.746  1.00  0.00     0.123 A 
ATOM     10  H4  UNL     1       3.966   0.662  -3.774  1.00  0.00     0.167 HD
HETATM   11  C2  UNL     1       5.313  -0.133  -1.350  1.00  0.00     0.145 A 
HETATM   12  C13 UNL     1       2.958  -0.136  -0.850  1.00  0.00     0.159 A 
HETATM   13  N2  UNL     1       5.528  -0.519  -0.085  1.00  0.00    -0.175 N 
HETATM   14  C1  UNL     1       4.513  -0.710   0.776  1.00  0.00     0.679 A 
ATOM     15  H2  UNL     1       6.485  -0.672   0.233  1.00  0.00     0.186 HD
HETATM   16  N12 UNL     1       3.232  -0.524   0.411  1.00  0.00    -0.174 N 
ATOM     17  H12 UNL     1       2.477  -0.675   1.080  1.00  0.00     0.186 HD
BRANCH  11  18
HETATM   18  N3  UNL     1       6.230   0.070  -2.232  1.00  0.00    -0.383 N 
ATOM     19  H32 UNL     1       7.198  -0.074  -1.943  1.00  0.00     0.157 HD
ATOM     20  H31 UNL     1       6.066   0.364  -3.195  1.00  0.00     0.157 HD
ENDBRANCH  11  18
BRANCH  14  21
HETATM   21  N1  UNL     1       4.757  -1.081   1.984  1.00  0.00    -0.234 N 
ATOM     22  H12 UNL     1       5.729  -1.222   2.261  1.00  0.00     0.174 HD
ATOM     23  H11 UNL     1       3.987  -1.226   2.637  1.00  0.00     0.174 HD
ENDBRANCH  14  21
ENDBRANCH   1   6
BRANCH   2  24
HETATM   24  C7  UNL     1       0.452  -2.443  -0.437  1.00  0.00     0.202 C 
BRANCH  24  25
HETATM   25  O1  UNL     1       1.259  -2.755  -1.504  1.00  0.00    -0.398 OA
ATOM     26  H1  UNL     1       1.714  -3.570  -1.329  1.00  0.00     0.209 HD
ENDBRANCH  24  25
ENDBRANCH   2  24
BRANCH   5  27
HETATM   27  O4  UNL     1       0.144   2.314  -0.610  1.00  0.00    -0.357 OA
ATOM     28  H4  UNL     1      -0.185   2.965  -0.001  1.00  0.00     0.213 HD
ENDBRANCH   5  27
BRANCH   5  29
HETATM   29  O5  UNL     1       0.306   1.018   1.285  1.00  0.00    -0.357 OA
ATOM     30  H5  UNL     1      -0.023   1.669   1.894  1.00  0.00     0.213 HD
ENDBRANCH   5  29
BRANCH   4  31
HETATM   31  N6  UNL     1      -2.414   1.035   0.877  1.00  0.00    -0.069 N 
HETATM   32  C9  UNL     1      -2.467   2.185   1.585  1.00  0.00     0.710 A 
HETATM   33  N8  UNL     1      -3.531   2.210   2.408  1.00  0.00    -0.020 N 
HETATM   34  C10 UNL     1      -4.147   1.055   2.204  1.00  0.00     0.710 A 
ATOM     35  H8  UNL     1      -3.804   2.955   3.049  1.00  0.00     0.203 HD
HETATM   36  N10 UNL     1      -3.466   0.331   1.264  1.00  0.00    -0.078 N 
BRANCH  32  37
HETATM   37  N7  UNL     1      -1.653   3.150   1.506  1.00  0.00    -0.233 N 
ATOM     38  H72 UNL     1      -0.846   3.131   0.882  1.00  0.00     0.174 HD
ATOM     39  H71 UNL     1      -1.693   4.018   2.040  1.00  0.00     0.174 HD
ENDBRANCH  32  37
BRANCH  34  40
HETATM   40  N9  UNL     1      -5.230   0.703   2.824  1.00  0.00    -0.233 N 
ATOM     41  H92 UNL     1      -5.738   1.243   3.525  1.00  0.00     0.174 HD
ATOM     42  H91 UNL     1      -5.704  -0.186   2.667  1.00  0.00     0.174 HD
ENDBRANCH  34  40
BRANCH  36  43
HETATM   43  C11 UNL     1      -3.990  -0.980   0.904  1.00  0.00     0.369 C 
BRANCH  43  44
HETATM   44  O3  UNL     1      -4.983  -0.937  -0.070  1.00  0.00    -0.265 OA
BRANCH  44  45
HETATM   45  N11 UNL     1      -4.594  -0.405  -1.223  1.00  0.00    -0.309 N 
ATOM     46 2H11 UNL     1      -3.644  -0.062  -1.367  1.00  0.00     0.184 HD
ATOM     47 1H11 UNL     1      -5.322  -0.373  -1.937  1.00  0.00     0.184 HD
ENDBRANCH  44  45
ENDBRANCH  43  44
ENDBRANCH  36  43
ENDBRANCH   4  31
TORSDOF 13
