REMARK  7 active torsions:
REMARK  status: ('A' for Active; 'I' for Inactive)
REMARK    1  A    between atoms: C4_4  and  C5_5 
REMARK       I    between atoms: C5_5  and  N1_7 
REMARK    2  A    between atoms: N1_7  and  C6_9 
REMARK    3  A    between atoms: C6_9  and  C7_10 
REMARK    4  A    between atoms: C6_9  and  C11_14 
REMARK    5  A    between atoms: C7_10  and  C8_11 
REMARK    6  A    between atoms: C16_19  and  C17_20 
REMARK       I    between atoms: C17_20  and  N2_22 
REMARK    7  A    between atoms: N2_22  and  C18_24 
ROOT
HETATM    1  C1  UNL     1      -1.207  -0.277  -2.537  1.00  0.00     0.049 C 
HETATM    2  C2  UNL     1      -0.348  -0.350  -1.348  1.00  0.00    -0.045 A 
HETATM    3  C3  UNL     1       1.011  -0.278  -1.561  1.00  0.00     0.024 A 
HETATM    4  C4  UNL     1       1.925  -0.376  -0.527  1.00  0.00     0.032 A 
HETATM    5  C14 UNL     1       1.424  -0.553   0.735  1.00  0.00     0.018 A 
HETATM    6  C15 UNL     1       0.056  -0.623   0.935  1.00  0.00     0.018 A 
HETATM    7  C16 UNL     1      -0.877  -0.522  -0.102  1.00  0.00     0.037 A 
ENDROOT
BRANCH   7   8
HETATM    8  C17 UNL     1      -2.267  -0.521   0.278  1.00  0.00     0.252 C 
HETATM    9  O2  UNL     1      -2.581  -1.316   1.234  1.00  0.00    -0.268 OA
HETATM   10  N2  UNL     1      -3.236   0.297  -0.342  1.00  0.00    -0.348 N 
ATOM     11  H2  UNL     1      -2.921   0.918  -1.087  1.00  0.00     0.163 HD
BRANCH  10  12
HETATM   12  C18 UNL     1      -4.646   0.323  -0.001  1.00  0.00     0.034 C 
HETATM   13  C19 UNL     1      -4.845   0.694   1.444  1.00  0.00     0.035 C 
HETATM   14  C20 UNL     1      -6.310   0.963   1.719  1.00  0.00    -0.012 C 
HETATM   15  C21 UNL     1      -6.865   2.057   0.823  1.00  0.00     0.009 C 
HETATM   16  C25 UNL     1      -7.042  -0.341   1.491  1.00  0.00     0.009 C 
HETATM   17  C22 UNL     1      -6.761   1.567  -0.596  1.00  0.00    -0.012 C 
HETATM   18  C23 UNL     1      -7.479   0.254  -0.826  1.00  0.00     0.009 C 
HETATM   19  C27 UNL     1      -5.323   1.354  -0.920  1.00  0.00     0.035 C 
HETATM   20  C24 UNL     1      -6.822  -0.778   0.055  1.00  0.00    -0.012 C 
HETATM   21  C26 UNL     1      -5.352  -0.978  -0.260  1.00  0.00     0.035 C 
ENDBRANCH  10  12
ENDBRANCH   7   8
BRANCH   4  22
HETATM   22  C5  UNL     1       3.347  -0.271  -0.756  1.00  0.00     0.252 C 
HETATM   23  O1  UNL     1       3.731  -0.122  -1.940  1.00  0.00    -0.268 OA
HETATM   24  N1  UNL     1       4.278  -0.328   0.280  1.00  0.00    -0.352 N 
ATOM     25  H1  UNL     1       3.981  -0.457   1.247  1.00  0.00     0.163 HD
BRANCH  24  26
HETATM   26  C6  UNL     1       5.696  -0.197  -0.063  1.00  0.00     0.089 C 
BRANCH  26  27
HETATM   27  C7  UNL     1       6.440  -1.419   0.421  1.00  0.00     0.030 C 
BRANCH  27  28
HETATM   28  C8  UNL     1       7.899  -1.290   0.075  1.00  0.00    -0.013 A 
HETATM   29  C9  UNL     1       8.822  -2.391   0.463  1.00  0.00     0.005 A 
HETATM   30  C10 UNL     1       8.501  -2.134  -0.973  1.00  0.00     0.005 A 
ENDBRANCH  27  28
ENDBRANCH  26  27
BRANCH  26  31
HETATM   31  C11 UNL     1       6.291   1.010   0.643  1.00  0.00     0.008 A 
HETATM   32  C12 UNL     1       5.700   2.329   0.359  1.00  0.00     0.007 A 
HETATM   33  C13 UNL     1       7.036   1.984  -0.219  1.00  0.00     0.007 A 
ENDBRANCH  26  31
ENDBRANCH  24  26
ENDBRANCH   4  22
TORSDOF 7
