REMARK  8 active torsions:
REMARK  status: ('A' for Active; 'I' for Inactive)
REMARK    1  A    between atoms: C2_2  and  C3_3 
REMARK    2  A    between atoms: C3_3  and  C11_14 
REMARK    3  A    between atoms: C4_4  and  C5_5 
REMARK       I    between atoms: C5_5  and  N1_7 
REMARK    4  A    between atoms: N1_7  and  C6_9 
REMARK    5  A    between atoms: C6_9  and  C7_10 
REMARK    6  A    between atoms: C7_10  and  C9_12 
REMARK    7  A    between atoms: C15_18  and  C16_19 
REMARK    8  A    between atoms: N2_23  and  C20_25 
ROOT
HETATM    1  C11 UNL     1      -0.760  -0.754  -1.252  1.00  0.00     0.023 C 
HETATM    2  C12 UNL     1      -1.369  -0.480  -2.607  1.00  0.00     0.010 C 
HETATM    3  C13 UNL     1      -2.852  -0.456  -2.139  1.00  0.00     0.007 C 
HETATM    4  C14 UNL     1      -2.754   0.380  -0.894  1.00  0.00     0.004 C 
HETATM    5  C15 UNL     1      -3.845   0.331   0.073  1.00  0.00     0.039 C 
HETATM    6  C19 UNL     1      -3.402   0.610   1.468  1.00  0.00    -0.006 C 
HETATM    7  N2  UNL     1      -3.845   1.485   2.256  1.00  0.00    -0.342 N 
ATOM      8  H2  UNL     1      -3.379   1.481   3.163  1.00  0.00     0.167 HD
HETATM    9  C21 UNL     1      -2.267  -0.225   1.943  1.00  0.00     0.054 C 
HETATM   10  C22 UNL     1      -1.129  -0.009   1.037  1.00  0.00     0.016 C 
HETATM   11  C23 UNL     1      -1.320   0.284  -0.385  1.00  0.00    -0.032 C 
HETATM   12  C24 UNL     1      -0.622   1.649  -0.622  1.00  0.00     0.016 C 
ENDROOT
BRANCH   1  13
HETATM   13  C3  UNL     1       0.674  -1.080  -1.273  1.00  0.00    -0.070 C 
HETATM   14  C4  UNL     1       1.620  -0.569  -0.590  1.00  0.00     0.077 C 
BRANCH  13  15
HETATM   15  C2  UNL     1       0.958  -2.191  -2.256  1.00  0.00     0.030 C 
HETATM   16  C1  UNL     1       0.158  -3.431  -1.870  1.00  0.00     0.010 C 
ENDBRANCH  13  15
BRANCH  14  17
HETATM   17  C5  UNL     1       3.037  -0.843  -0.543  1.00  0.00     0.241 C 
HETATM   18  O1  UNL     1       3.663  -1.702  -1.212  1.00  0.00    -0.269 OA
HETATM   19  N1  UNL     1       3.892  -0.086   0.346  1.00  0.00    -0.357 N 
ATOM     20  H1  UNL     1       3.496   0.642   0.941  1.00  0.00     0.162 HD
BRANCH  19  21
HETATM   21  C6  UNL     1       5.285  -0.360   0.387  1.00  0.00     0.127 C 
BRANCH  21  22
HETATM   22  C7  UNL     1       6.038   0.509   1.359  1.00  0.00    -0.001 C 
HETATM   23  C8  UNL     1       7.502   0.090   1.281  1.00  0.00     0.011 C 
BRANCH  22  24
HETATM   24  C9  UNL     1       5.999   1.964   0.895  1.00  0.00     0.001 C 
HETATM   25  C10 UNL     1       6.765   2.803   1.896  1.00  0.00     0.005 C 
ENDBRANCH  22  24
ENDBRANCH  21  22
ENDBRANCH  19  21
ENDBRANCH  14  17
ENDBRANCH   1  13
BRANCH   5  26
HETATM   26  C16 UNL     1      -4.781  -0.841   0.071  1.00  0.00    -0.013 C 
HETATM   27  C17 UNL     1      -5.861  -0.640   1.165  1.00  0.00     0.010 C 
HETATM   28  C18 UNL     1      -4.222  -2.178   0.364  1.00  0.00     0.010 C 
ENDBRANCH   5  26
BRANCH   7  29
HETATM   29  C20 UNL     1      -4.829   2.451   2.154  1.00  0.00     0.185 C 
HETATM   30  N3  UNL     1      -5.040   3.366   1.106  1.00  0.00    -0.070 NA
HETATM   31  S1  UNL     1      -5.897   2.568   3.421  1.00  0.00    -0.044 SA
ENDBRANCH   7  29
TORSDOF 8
