REMARK  5 active torsions:
REMARK  status: ('A' for Active; 'I' for Inactive)
REMARK    1  A    between atoms: N1_2  and  C2_4 
REMARK    2  A    between atoms: C4_8  and  C5_9 
REMARK    3  A    between atoms: C5_9  and  O2_11 
REMARK    4  A    between atoms: C10_20  and  C11_21 
REMARK    5  A    between atoms: C11_21  and  O5_23 
ROOT
HETATM    1  C2  UNL     1      -1.271   0.495   0.088  1.00  0.00     0.124 A 
HETATM    2  N2  UNL     1       0.094   0.374   0.196  1.00  0.00    -0.325 N 
ATOM      3  H2  UNL     1       0.615   1.121   0.655  1.00  0.00     0.169 HD
HETATM    4  C3  UNL     1       0.770  -0.682  -0.275  1.00  0.00     0.150 A 
HETATM    5  C4  UNL     1       2.119  -0.982  -0.263  1.00  0.00     0.109 A 
HETATM    6  C7  UNL     1       2.239  -2.203  -0.890  1.00  0.00     0.043 A 
HETATM    7  C8  UNL     1       3.512  -2.922  -1.109  1.00  0.00     0.071 C 
HETATM    8  N3  UNL     1       1.017  -2.608  -1.257  1.00  0.00    -0.293 N 
ATOM      9  H3  UNL     1       0.809  -3.481  -1.742  1.00  0.00     0.187 HD
HETATM   10  N4  UNL     1       0.109  -1.693  -0.890  1.00  0.00    -0.202 N 
HETATM   11  C9  UNL     1      -1.207  -1.592  -1.003  1.00  0.00     0.288 A 
HETATM   12  O3  UNL     1      -1.832  -2.525  -1.572  1.00  0.00    -0.265 OA
HETATM   13  C10 UNL     1      -1.964  -0.500  -0.523  1.00  0.00     0.152 A 
ENDROOT
BRANCH   5  14
HETATM   14  C5  UNL     1       3.205  -0.169   0.301  1.00  0.00     0.298 C 
HETATM   15  O1  UNL     1       4.389  -0.589   0.229  1.00  0.00    -0.259 OA
BRANCH  14  16
HETATM   16  O2  UNL     1       3.022   1.049   0.920  1.00  0.00    -0.322 OA
HETATM   17  C6  UNL     1       4.124   1.790   1.448  1.00  0.00     0.213 C 
ENDBRANCH  14  16
ENDBRANCH   5  14
BRANCH   1  18
HETATM   18  N1  UNL     1      -1.861   1.645   0.618  1.00  0.00    -0.380 N 
HETATM   19  C1  UNL     1      -1.042   2.684   1.269  1.00  0.00     0.147 C 
ATOM     20  H1  UNL     1      -2.872   1.768   0.554  1.00  0.00     0.160 HD
ENDBRANCH   1  18
BRANCH  13  21
HETATM   21  C11 UNL     1      -3.393  -0.485  -0.695  1.00  0.00     0.302 C 
HETATM   22  O4  UNL     1      -3.899  -1.497  -1.291  1.00  0.00    -0.259 OA
BRANCH  21  23
HETATM   23  O5  UNL     1      -4.263   0.461  -0.306  1.00  0.00    -0.322 OA
HETATM   24  C12 UNL     1      -5.664   0.438  -0.494  1.00  0.00     0.213 C 
ENDBRANCH  21  23
ENDBRANCH  13  21
TORSDOF 5
