REMARK  3 active torsions:
REMARK  status: ('A' for Active; 'I' for Inactive)
REMARK    1  A    between atoms: C2_5  and  C3_6 
REMARK    2  A    between atoms: C6_17  and  N5_18 
REMARK    3  A    between atoms: C11_24  and  N6_25 
ROOT
HETATM    1  N1  UNL     1       2.375  -1.926   0.013  1.00  0.00    -0.396 N 
ATOM      2  H11 UNL     1       1.929  -2.841   0.071  1.00  0.00     0.156 HD
ATOM      3  H12 UNL     1       3.394  -1.874   0.016  1.00  0.00     0.156 HD
HETATM    4  C1  UNL     1       1.664  -0.859  -0.055  1.00  0.00     0.079 A 
HETATM    5  C2  UNL     1       2.260   0.364  -0.132  1.00  0.00     0.061 A 
HETATM    6  C5  UNL     1       1.460   1.479  -0.214  1.00  0.00     0.108 A 
HETATM    7  N4  UNL     1       0.116   1.381  -0.216  1.00  0.00    -0.349 N 
ATOM      8  H4  UNL     1      -0.439   2.235  -0.278  1.00  0.00     0.166 HD
HETATM    9  C6  UNL     1      -0.530   0.182  -0.138  1.00  0.00     0.139 A 
HETATM   10  C11 UNL     1       0.264  -0.930  -0.059  1.00  0.00     0.173 A 
ENDROOT
BRANCH   5  11
HETATM   11  C3  UNL     1       3.734   0.502  -0.100  1.00  0.00     0.181 A 
HETATM   12  N2  UNL     1       4.672  -0.445   0.001  1.00  0.00    -0.274 N 
HETATM   13  N3  UNL     1       5.860   0.131  -0.007  1.00  0.00    -0.243 N 
ATOM     14  H2  UNL     1       4.499  -1.448   0.072  1.00  0.00     0.189 HD
HETATM   15  C4  UNL     1       5.671   1.473  -0.113  1.00  0.00     0.386 A 
ATOM     16  H3  UNL     1       6.759  -0.346   0.055  1.00  0.00     0.192 HD
HETATM   17  O1  UNL     1       6.591   2.356  -0.151  1.00  0.00    -0.236 OA
HETATM   18  O2  UNL     1       4.370   1.643  -0.166  1.00  0.00    -0.240 OA
ENDBRANCH   5  11
BRANCH  10  19
HETATM   19  N6  UNL     1      -0.330  -2.203   0.033  1.00  0.00    -0.109 N 
HETATM   20  O4  UNL     1      -0.303  -2.960  -0.937  1.00  0.00    -0.532 OA
HETATM   21  O5  UNL     1      -0.929  -2.588   1.192  1.00  0.00    -0.532 OA
ENDBRANCH  10  19
BRANCH   9  22
HETATM   22  N5  UNL     1      -1.925   0.159  -0.129  1.00  0.00    -0.361 N 
HETATM   23  C7  UNL     1      -2.650   0.699   1.043  1.00  0.00     0.150 C 
HETATM   24  C8  UNL     1      -4.101   0.888   0.785  1.00  0.00     0.187 C 
HETATM   25  O3  UNL     1      -4.744  -0.199   0.225  1.00  0.00    -0.388 OA
HETATM   26  C9  UNL     1      -3.933  -1.065  -0.442  1.00  0.00     0.187 C 
HETATM   27  C10 UNL     1      -2.783  -0.361  -1.172  1.00  0.00     0.150 C 
ENDBRANCH   9  22
TORSDOF 3
