REMARK  5 active torsions:
REMARK  status: ('A' for Active; 'I' for Inactive)
REMARK    1  A    between atoms: N1_2  and  C2_4 
REMARK    2  A    between atoms: C3_7  and  N3_8 
REMARK    3  A    between atoms: C10_19  and  N6_20 
REMARK    4  A    between atoms: C11_23  and  C12_24 
REMARK    5  A    between atoms: C12_24  and  O2_26 
ROOT
HETATM    1  C2  UNL     1       2.029   0.164   0.343  1.00  0.00     0.136 A 
HETATM    2  N2  UNL     1       0.689   0.293   0.626  1.00  0.00    -0.175 N 
ATOM      3  H2  UNL     1       0.409   0.654   1.538  1.00  0.00     0.186 HD
HETATM    4  C3  UNL     1      -0.252  -0.038  -0.253  1.00  0.00     0.689 A 
HETATM    5  N5  UNL     1       0.145  -0.510  -1.444  1.00  0.00    -0.175 N 
ATOM      6  H5  UNL     1      -0.562  -0.770  -2.131  1.00  0.00     0.186 HD
HETATM    7  C10 UNL     1       1.436  -0.651  -1.761  1.00  0.00     0.135 A 
HETATM    8  C11 UNL     1       2.456  -0.313  -0.860  1.00  0.00     0.127 A 
ENDROOT
BRANCH   4   9
HETATM    9  N3  UNL     1      -1.654   0.118   0.048  1.00  0.00    -0.170 N 
HETATM   10  C4  UNL     1      -2.467  -0.764   0.855  1.00  0.00     0.179 C 
HETATM   11  C5  UNL     1      -3.862  -0.359   0.508  1.00  0.00     0.041 C 
HETATM   12  C6  UNL     1      -4.712  -0.101   1.736  1.00  0.00     0.039 C 
HETATM   13  C7  UNL     1      -4.461  -1.436  -0.336  1.00  0.00     0.039 C 
HETATM   14  N4  UNL     1      -3.725   0.915  -0.162  1.00  0.00    -0.369 N 
HETATM   15  C8  UNL     1      -2.490   1.169  -0.412  1.00  0.00     0.092 C 
ATOM     16  H4  UNL     1      -4.503   1.529  -0.404  1.00  0.00     0.161 HD
HETATM   17  C9  UNL     1      -1.946   2.401  -1.104  1.00  0.00     0.089 C 
ENDBRANCH   4   9
BRANCH   1  18
HETATM   18  N1  UNL     1       2.973   0.535   1.328  1.00  0.00    -0.379 N 
HETATM   19  C1  UNL     1       2.463   1.034   2.598  1.00  0.00     0.147 C 
ATOM     20  H1  UNL     1       3.975   0.456   1.156  1.00  0.00     0.160 HD
ENDBRANCH   1  18
BRANCH   7  21
HETATM   21  N6  UNL     1       1.789  -1.114  -2.934  1.00  0.00    -0.384 N 
ATOM     22  H62 UNL     1       1.047  -1.360  -3.589  1.00  0.00     0.157 HD
ATOM     23  H61 UNL     1       2.774  -1.222  -3.176  1.00  0.00     0.157 HD
ENDBRANCH   7  21
BRANCH   8  24
HETATM   24  C12 UNL     1       3.826  -0.509  -1.293  1.00  0.00     0.300 C 
HETATM   25  O1  UNL     1       4.051  -0.966  -2.475  1.00  0.00    -0.259 OA
BRANCH  24  26
HETATM   26  O2  UNL     1       4.964  -0.261  -0.575  1.00  0.00    -0.322 OA
HETATM   27  C13 UNL     1       6.249  -0.495  -1.116  1.00  0.00     0.213 C 
ENDBRANCH  24  26
ENDBRANCH   8  24
TORSDOF 5
