REMARK  4 active torsions:
REMARK  status: ('A' for Active; 'I' for Inactive)
REMARK    1  A    between atoms: C2_2  and  O1_3 
REMARK    2  A    between atoms: O1_3  and  C3_4 
REMARK    3  A    between atoms: C3_4  and  C4_6 
REMARK    4  A    between atoms: C7_14  and  C8_15 
ROOT
HETATM    1  C4  UNL     1      -1.840  -0.777   0.023  1.00  0.00     0.153 A 
HETATM    2  N1  UNL     1      -1.009  -0.059   0.739  1.00  0.00    -0.339 N 
ATOM      3  H1  UNL     1      -1.293   0.264   1.664  1.00  0.00     0.167 HD
HETATM    4  C5  UNL     1       0.171   0.248   0.288  1.00  0.00     0.136 A 
HETATM    5  C6  UNL     1       1.158   1.008   0.945  1.00  0.00     0.276 A 
HETATM    6  O3  UNL     1       0.966   1.480   2.096  1.00  0.00    -0.266 OA
HETATM    7  N2  UNL     1       2.328   1.246   0.360  1.00  0.00    -0.304 N 
ATOM      8  H2  UNL     1       3.019   1.800   0.866  1.00  0.00     0.171 HD
HETATM    9  C7  UNL     1       2.650   0.785  -0.886  1.00  0.00     0.155 A 
HETATM   10  N6  UNL     1       1.711   0.059  -1.519  1.00  0.00    -0.332 N 
ATOM     11  H6  UNL     1       1.913  -0.303  -2.451  1.00  0.00     0.168 HD
HETATM   12  C10 UNL     1       0.509  -0.207  -0.962  1.00  0.00     0.110 A 
HETATM   13  S1  UNL     1      -0.912  -1.054  -1.401  1.00  0.00    -0.046 SA
ENDROOT
BRANCH   9  14
HETATM   14  C8  UNL     1       3.943   1.069  -1.490  1.00  0.00     0.169 A 
HETATM   15  N3  UNL     1       4.960   1.768  -0.986  1.00  0.00    -0.289 N 
HETATM   16  C9  UNL     1       5.987   1.793  -1.879  1.00  0.00     0.340 A 
ATOM     17  H3  UNL     1       4.967   2.216  -0.070  1.00  0.00     0.172 HD
HETATM   18  O4  UNL     1       7.108   2.340  -1.784  1.00  0.00    -0.245 OA
HETATM   19  N4  UNL     1       5.563   1.093  -2.932  1.00  0.00    -0.250 N 
HETATM   20  N5  UNL     1       4.317   0.650  -2.699  1.00  0.00    -0.278 N 
ATOM     21  H4  UNL     1       6.101   0.921  -3.781  1.00  0.00     0.192 HD
ATOM     22  H5  UNL     1       3.753   0.089  -3.338  1.00  0.00     0.189 HD
ENDBRANCH   9  14
BRANCH   1  23
HETATM   23  C3  UNL     1      -3.208  -1.243   0.322  1.00  0.00     0.317 C 
HETATM   24  O2  UNL     1      -3.790  -1.927  -0.552  1.00  0.00    -0.257 OA
BRANCH  23  25
HETATM   25  O1  UNL     1      -3.855  -0.963   1.494  1.00  0.00    -0.316 OA
BRANCH  25  26
HETATM   26  C2  UNL     1      -5.157  -1.387   1.818  1.00  0.00     0.175 C 
HETATM   27  C1  UNL     1      -5.483  -0.861   3.202  1.00  0.00     0.034 C 
ENDBRANCH  25  26
ENDBRANCH  23  25
ENDBRANCH   1  23
TORSDOF 4
