REMARK  5 active torsions:
REMARK  status: ('A' for Active; 'I' for Inactive)
REMARK    1  A    between atoms: O1_2  and  C2_3 
REMARK    2  A    between atoms: C2_3  and  C3_4 
REMARK    3  A    between atoms: C3_4  and  O3_6 
REMARK    4  A    between atoms: O3_6  and  N1_7 
REMARK       I    between atoms: N1_7  and  C4_9 
REMARK    5  A    between atoms: C4_9  and  C5_11 
ROOT
HETATM    1  C5  UNL     1      -0.814  -0.301  -0.549  1.00  0.00     0.083 A 
HETATM    2  S1  UNL     1      -1.777   0.402  -1.819  1.00  0.00    -0.076 SA
HETATM    3  C6  UNL     1      -3.316   0.211  -1.142  1.00  0.00     0.100 A 
HETATM    4  C7  UNL     1      -3.059  -0.395   0.058  1.00  0.00     0.059 A 
HETATM    5  C8  UNL     1      -1.769  -0.656   0.360  1.00  0.00    -0.011 A 
HETATM    6  C9  UNL     1      -1.380  -1.336   1.673  1.00  0.00     0.052 C 
HETATM    7  N2  UNL     1      -4.276  -0.660   0.818  1.00  0.00    -0.372 N 
ATOM      8  H2  UNL     1      -4.269  -1.412   1.507  1.00  0.00     0.161 HD
HETATM    9  C10 UNL     1      -5.478   0.093   0.634  1.00  0.00     0.246 C 
HETATM   10  N3  UNL     1      -5.818   0.283  -0.783  1.00  0.00    -0.340 N 
ATOM     11  H3  UNL     1      -6.769   0.221  -1.147  1.00  0.00     0.164 HD
HETATM   12  C11 UNL     1      -4.682   0.563  -1.594  1.00  0.00     0.262 C 
HETATM   13  O5  UNL     1      -4.778   1.107  -2.703  1.00  0.00    -0.267 OA
ENDROOT
BRANCH   1  14
HETATM   14  C4  UNL     1       0.642  -0.427  -0.571  1.00  0.00     0.283 C 
HETATM   15  N1  UNL     1       1.453  -0.963   0.409  1.00  0.00    -0.221 N 
ATOM     16  H1  UNL     1       1.069  -1.333   1.278  1.00  0.00     0.198 HD
HETATM   17  O4  UNL     1       1.194   0.029  -1.656  1.00  0.00    -0.265 OA
BRANCH  15  18
HETATM   18  O3  UNL     1       2.843  -0.974   0.148  1.00  0.00    -0.194 OA
BRANCH  18  19
HETATM   19  C3  UNL     1       3.590   0.169   0.060  1.00  0.00     0.304 C 
HETATM   20  O2  UNL     1       2.989   1.269   0.225  1.00  0.00    -0.261 OA
BRANCH  19  21
HETATM   21  C2  UNL     1       5.040   0.197  -0.211  1.00  0.00     0.280 C 
BRANCH  21  22
HETATM   22  O1  UNL     1       5.476   1.495  -0.243  1.00  0.00    -0.386 OA
HETATM   23  C1  UNL     1       6.826   1.644  -0.482  1.00  0.00     0.202 C 
ENDBRANCH  21  22
ENDBRANCH  19  21
ENDBRANCH  18  19
ENDBRANCH  15  18
ENDBRANCH   1  14
TORSDOF 5
