REMARK  6 active torsions:
REMARK  status: ('A' for Active; 'I' for Inactive)
REMARK    1  A    between atoms: C2_2  and  O1_3 
REMARK    2  A    between atoms: C2_2  and  C3_5 
REMARK       I    between atoms: C3_5  and  N1_7 
REMARK    3  A    between atoms: N1_7  and  C4_8 
REMARK    4  A    between atoms: C5_9  and  N2_10 
REMARK    5  A    between atoms: C6_13  and  N3_14 
REMARK    6  A    between atoms: C8_18  and  O3_19 
ROOT
HETATM    1  C4  UNL     1       0.069  -1.166  -1.016  1.00  0.00     0.330 A 
HETATM    2  C5  UNL     1      -0.562  -0.420  -2.202  1.00  0.00     0.088 A 
HETATM    3  C6  UNL     1      -1.753   0.210  -1.687  1.00  0.00     0.085 A 
HETATM    4  C7  UNL     1      -1.839  -0.069  -0.257  1.00  0.00     0.121 A 
HETATM    5  C8  UNL     1      -2.553   0.138   0.909  1.00  0.00     0.176 A 
HETATM    6  N4  UNL     1      -1.948  -0.470   1.949  1.00  0.00    -0.282 N 
HETATM    7  C9  UNL     1      -2.399  -0.480   3.345  1.00  0.00     0.163 C 
HETATM    8  C10 UNL     1      -0.856  -1.057   1.436  1.00  0.00     0.334 A 
HETATM    9  O4  UNL     1      -0.051  -1.714   2.132  1.00  0.00    -0.246 OA
HETATM   10  N5  UNL     1      -0.792  -0.812   0.081  1.00  0.00    -0.254 N 
ENDROOT
BRANCH   1  11
HETATM   11  N1  UNL     1       1.397  -0.835  -0.887  1.00  0.00    -0.379 NA
HETATM   12  C3  UNL     1       2.676  -0.517  -0.764  1.00  0.00     0.317 C 
HETATM   13  O2  UNL     1       3.663  -1.101  -1.359  1.00  0.00    -0.255 OA
BRANCH  12  14
HETATM   14  C2  UNL     1       3.147   0.603   0.128  1.00  0.00     0.220 C 
HETATM   15  C1  UNL     1       2.451   1.858  -0.252  1.00  0.00     0.050 C 
BRANCH  14  16
HETATM   16  O1  UNL     1       4.522   0.667   0.049  1.00  0.00    -0.385 OA
ATOM     17  H1  UNL     1       4.967  -0.136   0.292  1.00  0.00     0.210 HD
ENDBRANCH  14  16
ENDBRANCH  12  14
ENDBRANCH   1  11
BRANCH   2  18
HETATM   18  N2  UNL     1      -0.054  -0.433  -3.357  1.00  0.00    -0.396 N 
ATOM     19  H22 UNL     1       0.788  -0.878  -3.721  1.00  0.00     0.156 HD
ATOM     20  H21 UNL     1      -0.473   0.062  -4.144  1.00  0.00     0.156 HD
ENDBRANCH   2  18
BRANCH   3  21
HETATM   21  N3  UNL     1      -2.600   0.911  -2.390  1.00  0.00    -0.395 N 
ATOM     22  H32 UNL     1      -2.540   1.106  -3.389  1.00  0.00     0.156 HD
ATOM     23  H31 UNL     1      -3.442   1.356  -2.026  1.00  0.00     0.156 HD
ENDBRANCH   3  21
BRANCH   5  24
HETATM   24  O3  UNL     1      -3.728   0.871   0.979  1.00  0.00    -0.344 OA
ATOM     25  H3  UNL     1      -4.219   1.013   1.780  1.00  0.00     0.219 HD
ENDBRANCH   5  24
TORSDOF 6
