REMARK  5 active torsions:
REMARK  status: ('A' for Active; 'I' for Inactive)
REMARK    1  A    between atoms: O1_2  and  C2_3 
REMARK    2  A    between atoms: C3_4  and  O2_5 
REMARK    3  A    between atoms: C5_7  and  O3_8 
REMARK    4  A    between atoms: C5_7  and  O4_10 
REMARK    5  A    between atoms: C6_12  and  O5_13 
ROOT
HETATM    1  C2  UNL     1       1.161   0.842  -0.020  1.00  0.00     0.114 C 
HETATM    2  C3  UNL     1       1.536  -0.390   0.265  1.00  0.00     0.145 C 
HETATM    3  C5  UNL     1       0.276  -1.212   0.421  1.00  0.00     0.268 C 
HETATM    4  C6  UNL     1      -0.699  -0.495  -0.451  1.00  0.00     0.232 C 
HETATM    5  N1  UNL     1      -2.072  -0.638   0.025  1.00  0.00    -0.339 N 
ATOM      6  H1  UNL     1      -2.509  -1.558   0.079  1.00  0.00     0.164 HD
HETATM    7  C8  UNL     1      -2.787   0.525   0.411  1.00  0.00     0.097 C 
HETATM    8  N2  UNL     1      -4.058   0.669   0.124  1.00  0.00    -0.387 N 
ATOM      9  H21 UNL     1      -4.572   1.505   0.402  1.00  0.00     0.157 HD
ATOM     10  H22 UNL     1      -4.521  -0.082  -0.389  1.00  0.00     0.157 HD
HETATM   11  C9  UNL     1      -2.105   1.632   1.167  1.00  0.00     0.244 C 
HETATM   12  O6  UNL     1      -0.749   1.267   1.195  1.00  0.00    -0.367 OA
HETATM   13  C10 UNL     1      -0.328   0.974  -0.081  1.00  0.00     0.242 C 
ENDROOT
BRANCH   3  14
HETATM   14  O3  UNL     1       0.472  -2.500   0.009  1.00  0.00    -0.356 OA
ATOM     15  H3  UNL     1      -0.319  -3.016   0.107  1.00  0.00     0.213 HD
ENDBRANCH   3  14
BRANCH   3  16
HETATM   16  O4  UNL     1      -0.076  -1.143   1.775  1.00  0.00    -0.356 OA
ATOM     17  H4  UNL     1      -0.867  -1.659   1.873  1.00  0.00     0.213 HD
ENDBRANCH   3  16
BRANCH   2  18
HETATM   18  O2  UNL     1       2.855  -0.786   0.384  1.00  0.00    -0.352 OA
HETATM   19  C4  UNL     1       3.374  -1.468   1.501  1.00  0.00     0.210 C 
ENDBRANCH   2  18
BRANCH   4  20
HETATM   20  O5  UNL     1      -0.572  -0.556  -1.782  1.00  0.00    -0.358 OA
HETATM   21  C7  UNL     1      -0.640  -1.694  -2.486  1.00  0.00     0.205 C 
ENDBRANCH   4  20
BRANCH   1  22
HETATM   22  O1  UNL     1       2.069   1.897  -0.237  1.00  0.00    -0.355 OA
HETATM   23  C1  UNL     1       1.628   3.043  -0.935  1.00  0.00     0.209 C 
ENDBRANCH   1  22
TORSDOF 5
