REMARK  4 active torsions:
REMARK  status: ('A' for Active; 'I' for Inactive)
REMARK    1  A    between atoms: O1_2  and  C2_3 
REMARK    2  A    between atoms: C3_6  and  N2_7 
REMARK    3  A    between atoms: N5_17  and  C6_18 
REMARK    4  A    between atoms: C7_22  and  N7_23 
ROOT
HETATM    1  C2  UNL     1      -1.250   0.090   0.160  1.00  0.00     0.189 A 
HETATM    2  N1  UNL     1      -2.575  -0.137   0.278  1.00  0.00    -0.168 N 
ATOM      3  H1  UNL     1      -3.219   0.619   0.512  1.00  0.00     0.186 HD
HETATM    4  C3  UNL     1      -3.020  -1.391   0.078  1.00  0.00     0.679 A 
HETATM    5  N3  UNL     1      -2.170  -2.406  -0.235  1.00  0.00    -0.174 N 
ATOM      6  H3  UNL     1      -2.547  -3.343  -0.380  1.00  0.00     0.186 HD
HETATM    7  C4  UNL     1      -0.840  -2.205  -0.359  1.00  0.00     0.157 A 
HETATM    8  N4  UNL     1       0.214  -2.990  -0.650  1.00  0.00    -0.291 N 
ATOM      9  H4  UNL     1       0.193  -3.990  -0.852  1.00  0.00     0.172 HD
HETATM   10  C5  UNL     1       1.289  -2.206  -0.623  1.00  0.00     0.347 A 
HETATM   11  O2  UNL     1       2.475  -2.614  -0.854  1.00  0.00    -0.245 OA
HETATM   12  N5  UNL     1       0.946  -0.934  -0.321  1.00  0.00    -0.086 N 
HETATM   13  C8  UNL     1      -0.381  -0.918  -0.153  1.00  0.00     0.158 A 
ENDROOT
BRANCH  12  14
HETATM   14  C6  UNL     1       1.877   0.131  -0.220  1.00  0.00     0.717 A 
HETATM   15  N6  UNL     1       1.896   1.180  -1.059  1.00  0.00    -0.087 N 
HETATM   16  O3  UNL     1       2.858   1.979  -0.708  1.00  0.00    -0.186 OA
ATOM     17  H6  UNL     1       1.260   1.325  -1.843  1.00  0.00     0.214 HD
HETATM   18  C7  UNL     1       3.498   1.518   0.339  1.00  0.00     0.256 A 
HETATM   19  N8  UNL     1       2.881   0.359   0.643  1.00  0.00    -0.151 N 
ATOM     20  H8  UNL     1       3.139  -0.255   1.415  1.00  0.00     0.188 HD
BRANCH  18  21
HETATM   21  N7  UNL     1       4.497   1.988   0.999  1.00  0.00    -0.363 N 
ATOM     22  H72 UNL     1       4.964   2.865   0.769  1.00  0.00     0.159 HD
ATOM     23  H71 UNL     1       4.995   1.629   1.814  1.00  0.00     0.159 HD
ENDBRANCH  18  21
ENDBRANCH  12  14
BRANCH   1  24
HETATM   24  O1  UNL     1      -0.765   1.364   0.360  1.00  0.00    -0.339 OA
HETATM   25  C1  UNL     1      -1.618   2.456   0.688  1.00  0.00     0.211 C 
ENDBRANCH   1  24
BRANCH   4  26
HETATM   26  N2  UNL     1      -4.254  -1.678   0.173  1.00  0.00    -0.234 N 
ATOM     27  H22 UNL     1      -4.891  -0.917   0.408  1.00  0.00     0.174 HD
ATOM     28  H21 UNL     1      -4.591  -2.629   0.021  1.00  0.00     0.174 HD
ENDBRANCH   4  26
TORSDOF 4
