REMARK  3 active torsions:
REMARK  status: ('A' for Active; 'I' for Inactive)
REMARK    1  A    between atoms: C3_5  and  N2_6 
REMARK    2  A    between atoms: N3_10  and  C5_11 
REMARK    3  A    between atoms: C7_15  and  O3_16 
ROOT
HETATM    1  C5  UNL     1      -0.711   0.390   0.163  1.00  0.00     0.239 C 
HETATM    2  C6  UNL     1      -1.284  -0.428   1.262  1.00  0.00     0.167 C 
HETATM    3  N4  UNL     1      -2.416  -1.222   0.949  1.00  0.00    -0.379 N 
ATOM      4  H4  UNL     1      -2.760  -1.918   1.611  1.00  0.00     0.157 HD
HETATM    5  C7  UNL     1      -3.055  -1.035  -0.287  1.00  0.00     0.334 C 
HETATM    6  N5  UNL     1      -2.011  -1.095  -1.325  1.00  0.00    -0.074 NA
HETATM    7  N6  UNL     1      -1.269   0.074  -1.140  1.00  0.00    -0.201 N 
HETATM    8  C8  UNL     1      -1.110   0.888  -2.265  1.00  0.00     0.199 C 
HETATM    9  N7  UNL     1      -0.962   1.572  -3.194  1.00  0.00    -0.171 NA
ENDROOT
BRANCH   1  10
HETATM   10  N3  UNL     1       0.732   0.363   0.142  1.00  0.00    -0.314 N 
HETATM   11  C2  UNL     1       1.650   0.777   1.110  1.00  0.00     0.101 A 
HETATM   12  C1  UNL     1       1.401   1.292   2.270  1.00  0.00     0.064 C 
HETATM   13  N1  UNL     1       2.968   0.533   0.600  1.00  0.00    -0.323 N 
HETATM   14  C3  UNL     1       2.789  -0.032  -0.688  1.00  0.00     0.191 A 
ATOM     15  H1  UNL     1       3.853   0.726   1.068  1.00  0.00     0.169 HD
HETATM   16  C4  UNL     1       1.497  -0.129  -0.951  1.00  0.00     0.149 A 
BRANCH  14  17
HETATM   17  N2  UNL     1       3.886  -0.421  -1.536  1.00  0.00    -0.096 N 
HETATM   18  O1  UNL     1       4.750  -1.196  -1.079  1.00  0.00    -0.530 OA
HETATM   19  O2  UNL     1       3.977   0.049  -2.815  1.00  0.00    -0.530 OA
ENDBRANCH  14  17
ENDBRANCH   1  10
BRANCH   5  20
HETATM   20  O3  UNL     1      -3.680   0.222  -0.431  1.00  0.00    -0.362 OA
ATOM     21  H3  UNL     1      -4.112   0.349  -1.267  1.00  0.00     0.213 HD
ENDBRANCH   5  20
TORSDOF 3
