REMARK  6 active torsions:
REMARK  status: ('A' for Active; 'I' for Inactive)
REMARK    1  A    between atoms: N1_1  and  C1_4 
REMARK    2  A    between atoms: C2_7  and  C3_8 
REMARK    3  A    between atoms: C3_8  and  S1_9 
REMARK    4  A    between atoms: S1_9  and  C4_10 
REMARK    5  A    between atoms: C10_16  and  C11_17 
REMARK    6  A    between atoms: C11_17  and  N3_18 
ROOT
HETATM    1  C1  UNL     1      -0.044  -3.147  -2.013  1.00  0.00     0.677 A 
HETATM    2  N2  UNL     1       0.678  -2.283  -1.268  1.00  0.00    -0.194 N 
ATOM      3  H2  UNL     1       1.692  -2.388  -1.248  1.00  0.00     0.184 HD
HETATM    4  C2  UNL     1       0.135  -1.313  -0.568  1.00  0.00     0.047 A 
HETATM    5  C10 UNL     1      -1.234  -1.102  -0.554  1.00  0.00     0.038 A 
HETATM    6  C17 UNL     1      -1.984  -1.953  -1.294  1.00  0.00     0.124 A 
HETATM    7  N5  UNL     1      -3.247  -1.805  -1.349  1.00  0.00    -0.385 N 
ATOM      8  H51 UNL     1      -3.812  -2.446  -1.906  1.00  0.00     0.157 HD
ATOM      9  H52 UNL     1      -3.688  -1.055  -0.816  1.00  0.00     0.157 HD
HETATM   10  N6  UNL     1      -1.388  -2.967  -2.015  1.00  0.00    -0.177 N 
ATOM     11  H6  UNL     1      -1.973  -3.597  -2.563  1.00  0.00     0.185 HD
ENDROOT
BRANCH   5  12
HETATM   12  C11 UNL     1      -1.745   0.152   0.103  1.00  0.00     0.317 C 
BRANCH  12  13
HETATM   13  N3  UNL     1      -3.153   0.320   0.173  1.00  0.00     0.101 N 
HETATM   14  C12 UNL     1      -3.382   1.707  -0.213  1.00  0.00     0.275 C 
HETATM   15  C13 UNL     1      -4.764   2.164   0.070  1.00  0.00     0.050 C 
HETATM   16  C14 UNL     1      -5.818   1.126  -0.262  1.00  0.00     0.124 C 
HETATM   17  N4  UNL     1      -5.932   0.230   0.887  1.00  0.00    -0.360 N 
HETATM   18  C15 UNL     1      -4.855  -0.188   1.765  1.00  0.00     0.246 C 
ATOM     19  H4  UNL     1      -6.861  -0.138   1.092  1.00  0.00     0.162 HD
HETATM   20  O1  UNL     1      -5.132  -0.998   2.659  1.00  0.00    -0.272 OA
HETATM   21  C16 UNL     1      -3.478   0.299   1.641  1.00  0.00     0.374 C 
ENDBRANCH  12  13
ENDBRANCH   5  12
BRANCH   4  22
HETATM   22  C3  UNL     1       0.950  -0.427   0.340  1.00  0.00     0.132 C 
BRANCH  22  23
HETATM   23  S1  UNL     1       2.098   0.401  -0.722  1.00  0.00    -0.158 SA
BRANCH  23  24
HETATM   24  C4  UNL     1       3.741   0.656  -0.167  1.00  0.00     0.047 C 
HETATM   25  C5  UNL     1       3.891   1.577   1.000  1.00  0.00     0.015 C 
HETATM   26  C6  UNL     1       5.292   2.207   0.778  1.00  0.00     0.001 C 
HETATM   27  C7  UNL     1       6.165   1.199   0.100  1.00  0.00     0.000 C 
HETATM   28  C8  UNL     1       5.838  -0.215   0.590  1.00  0.00     0.001 C 
HETATM   29  C9  UNL     1       4.456  -0.656   0.150  1.00  0.00     0.015 C 
ENDBRANCH  23  24
ENDBRANCH  22  23
ENDBRANCH   4  22
BRANCH   1  30
HETATM   30  N1  UNL     1       0.491  -4.137  -2.680  1.00  0.00    -0.234 N 
ATOM     31  H12 UNL     1       1.502  -4.272  -2.678  1.00  0.00     0.174 HD
ATOM     32  H11 UNL     1      -0.054  -4.790  -3.243  1.00  0.00     0.174 HD
ENDBRANCH   1  30
TORSDOF 6
