REMARK  9 active torsions:
REMARK  status: ('A' for Active; 'I' for Inactive)
REMARK    1  A    between atoms: N1_2  and  C2_5 
REMARK    2  A    between atoms: C9_12  and  C10_13 
REMARK    3  A    between atoms: C10_13  and  N2_15 
REMARK    4  A    between atoms: N2_15  and  C12_17 
REMARK    5  A    between atoms: C12_17  and  N3_19 
REMARK    6  A    between atoms: N3_19  and  C13_21 
REMARK    7  A    between atoms: C13_21  and  C14_22 
REMARK    8  A    between atoms: C14_22  and  O1_25 
REMARK    9  A    between atoms: C17_27  and  O2_28 
ROOT
HETATM    1  C2  UNL     1      -4.094   1.774   0.248  1.00  0.00     0.209 C 
HETATM    2  C3  UNL     1      -4.927   0.556   0.711  1.00  0.00     0.035 C 
HETATM    3  C4  UNL     1      -5.015  -0.550  -0.247  1.00  0.00     0.002 C 
HETATM    4  C5  UNL     1      -4.594  -1.909   0.116  1.00  0.00     0.000 C 
HETATM    5  C6  UNL     1      -3.407  -2.187   0.918  1.00  0.00     0.000 C 
HETATM    6  C7  UNL     1      -2.096  -2.392   0.160  1.00  0.00     0.001 C 
HETATM    7  C8  UNL     1      -0.993  -1.448   0.625  1.00  0.00     0.011 C 
HETATM    8  C9  UNL     1      -0.611  -0.384  -0.350  1.00  0.00     0.063 C 
HETATM    9  C17 UNL     1      -0.566   1.005   0.189  1.00  0.00     0.262 C 
HETATM   10  O3  UNL     1      -1.630   1.858  -0.190  1.00  0.00    -0.359 OA
HETATM   11  C18 UNL     1      -2.744   1.184   0.128  1.00  0.00     0.203 C 
ENDROOT
BRANCH   8  12
HETATM   12  C10 UNL     1       0.821  -0.629  -0.899  1.00  0.00     0.088 C 
HETATM   13  C11 UNL     1       0.887  -1.961  -1.589  1.00  0.00     0.032 C 
BRANCH  12  14
HETATM   14  N2  UNL     1       1.792  -0.559   0.122  1.00  0.00    -0.362 N 
ATOM     15  H2  UNL     1       1.517  -0.445   1.098  1.00  0.00     0.162 HD
BRANCH  14  16
HETATM   16  C12 UNL     1       3.185  -0.652  -0.247  1.00  0.00     0.168 C 
HETATM   17  S1  UNL     1       3.590  -0.859  -1.814  1.00  0.00    -0.041 SA
BRANCH  16  18
HETATM   18  N3  UNL     1       4.199  -0.590   0.719  1.00  0.00    -0.364 N 
ATOM     19  H3  UNL     1       3.867  -0.494   1.679  1.00  0.00     0.162 HD
BRANCH  18  20
HETATM   20  C13 UNL     1       5.604  -0.639   0.583  1.00  0.00     0.159 C 
BRANCH  20  21
HETATM   21  C14 UNL     1       6.308   0.530   0.001  1.00  0.00     0.066 C 
HETATM   22  C15 UNL     1       6.195   1.768   0.889  1.00  0.00     0.047 C 
HETATM   23  C16 UNL     1       7.815   0.210  -0.041  1.00  0.00     0.047 C 
BRANCH  21  24
HETATM   24  O1  UNL     1       5.963   0.877  -1.285  1.00  0.00    -0.389 OA
ATOM     25  H1  UNL     1       6.414   1.626  -1.658  1.00  0.00     0.210 HD
ENDBRANCH  21  24
ENDBRANCH  20  21
ENDBRANCH  18  20
ENDBRANCH  16  18
ENDBRANCH  14  16
ENDBRANCH  12  14
ENDBRANCH   8  12
BRANCH   9  26
HETATM   26  O2  UNL     1       0.589   1.708  -0.129  1.00  0.00    -0.371 OA
ATOM     27  H2  UNL     1       0.618   2.593   0.215  1.00  0.00     0.212 HD
ENDBRANCH   9  26
BRANCH   1  28
HETATM   28  N1  UNL     1      -4.607   2.350  -0.953  1.00  0.00    -0.073 N 
HETATM   29  C1  UNL     1      -5.935   2.869  -0.749  1.00  0.00     0.267 C 
ATOM     30  H12 UNL     1      -4.576   1.690  -1.730  1.00  0.00     0.277 HD
ATOM     31  H11 UNL     1      -3.979   3.061  -1.328  1.00  0.00     0.277 HD
ENDBRANCH   1  28
TORSDOF 9
