REMARK  11 active torsions:
REMARK  status: ('A' for Active; 'I' for Inactive)
REMARK    1  A    between atoms: C2_2  and  C3_3 
REMARK    2  A    between atoms: C2_2  and  C12_14 
REMARK    3  A    between atoms: C5_5  and  C6_6 
REMARK    4  A    between atoms: C6_6  and  O1_7 
REMARK    5  A    between atoms: C6_6  and  C7_9 
REMARK    6  A    between atoms: C7_9  and  C9_11 
REMARK    7  A    between atoms: C15_17  and  O2_18 
REMARK    8  A    between atoms: C16_20  and  O3_21 
REMARK    9  A    between atoms: C16_20  and  C17_23 
REMARK   10  A    between atoms: C17_23  and  O4_24 
REMARK   11  A    between atoms: C21_29  and  O5_30 
ROOT
HETATM    1  C12 UNL     1      -0.876   0.630  -2.282  1.00  0.00     0.077 A 
HETATM    2  C13 UNL     1      -1.408   0.134  -0.981  1.00  0.00    -0.064 A 
HETATM    3  C14 UNL     1      -1.946   0.466   0.163  1.00  0.00     0.011 C 
HETATM    4  C15 UNL     1      -2.402  -0.313   1.346  1.00  0.00     0.177 C 
HETATM    5  C16 UNL     1      -3.043  -1.579   0.793  1.00  0.00     0.108 C 
HETATM    6  C18 UNL     1      -3.413  -1.478  -0.651  1.00  0.00     0.044 C 
HETATM    7  C19 UNL     1      -2.348  -2.024  -1.594  1.00  0.00     0.015 C 
HETATM    8  C20 UNL     1      -1.074  -1.260  -1.464  1.00  0.00     0.045 A 
HETATM    9  C21 UNL     1      -0.446  -0.710  -2.708  1.00  0.00     0.139 A 
ENDROOT
BRANCH   1  10
HETATM   10  C2  UNL     1      -0.078   1.825  -2.336  1.00  0.00    -0.051 C 
HETATM   11  C1  UNL     1      -0.647   2.752  -3.196  1.00  0.00     0.020 C 
BRANCH  10  12
HETATM   12  C3  UNL     1       1.117   2.303  -1.724  1.00  0.00    -0.057 C 
HETATM   13  C4  UNL     1       1.607   3.728  -2.099  1.00  0.00     0.048 C 
HETATM   14  C5  UNL     1       1.937   1.777  -0.872  1.00  0.00     0.012 C 
BRANCH  14  15
HETATM   15  C6  UNL     1       2.125   0.565  -0.125  1.00  0.00     0.145 C 
BRANCH  15  16
HETATM   16  O1  UNL     1       3.470   0.144  -0.425  1.00  0.00    -0.391 OA
ATOM     17  H1  UNL     1       3.594  -0.658   0.069  1.00  0.00     0.210 HD
ENDBRANCH  15  16
BRANCH  15  18
HETATM   18  C7  UNL     1       2.133   0.721   1.375  1.00  0.00     0.017 C 
HETATM   19  C8  UNL     1       3.194   1.611   1.899  1.00  0.00     0.013 C 
BRANCH  18  20
HETATM   20  C9  UNL     1       2.255  -0.636   2.020  1.00  0.00    -0.016 C 
HETATM   21  C10 UNL     1       2.249  -0.446   3.541  1.00  0.00     0.010 C 
HETATM   22  C11 UNL     1       3.530  -1.365   1.682  1.00  0.00     0.010 C 
ENDBRANCH  18  20
ENDBRANCH  15  18
ENDBRANCH  14  15
ENDBRANCH  10  12
ENDBRANCH   1  10
BRANCH   9  23
HETATM   23  O5  UNL     1       0.846  -1.002  -3.007  1.00  0.00    -0.394 OA
ATOM     24  H5  UNL     1       1.124  -1.868  -3.282  1.00  0.00     0.210 HD
ENDBRANCH   9  23
BRANCH   4  25
HETATM   25  O2  UNL     1      -1.360  -0.550   2.201  1.00  0.00    -0.389 OA
ATOM     26  H2  UNL     1      -1.651  -1.047   2.956  1.00  0.00     0.210 HD
ENDBRANCH   4  25
BRANCH   5  27
HETATM   27  O3  UNL     1      -2.211  -2.659   1.041  1.00  0.00    -0.385 OA
ATOM     28  H3  UNL     1      -2.611  -3.449   0.696  1.00  0.00     0.210 HD
ENDBRANCH   5  27
BRANCH   5  29
HETATM   29  C17 UNL     1      -4.347  -1.827   1.565  1.00  0.00     0.204 C 
BRANCH  29  30
HETATM   30  O4  UNL     1      -4.137  -1.936   2.920  1.00  0.00    -0.398 OA
ATOM     31  H4  UNL     1      -4.944  -2.089   3.398  1.00  0.00     0.209 HD
ENDBRANCH  29  30
ENDBRANCH   5  29
TORSDOF 11
