REMARK  8 active torsions:
REMARK  status: ('A' for Active; 'I' for Inactive)
REMARK    1  A    between atoms: C2_2  and  S1_3 
REMARK    2  A    between atoms: S1_3  and  C3_5 
REMARK    3  A    between atoms: C3_5  and  C4_6 
REMARK    4  A    between atoms: C4_6  and  C5_7 
REMARK    5  A    between atoms: C5_7  and  N1_8 
REMARK    6  A    between atoms: C5_7  and  N2_12 
REMARK    7  A    between atoms: C5_7  and  C7_15 
REMARK    8  A    between atoms: N2_12  and  O2_13 
ROOT
HETATM    1  C5  UNL     1      -0.342   0.333   0.554  1.00  0.00     0.222 C 
ENDROOT
BRANCH   1   2
HETATM    2  C4  UNL     1       1.074  -0.049   0.419  1.00  0.00     0.072 C 
BRANCH   2   3
HETATM    3  C3  UNL     1       1.658  -0.318  -0.904  1.00  0.00     0.112 C 
BRANCH   3   4
HETATM    4  S1  UNL     1       3.389  -0.767  -0.799  1.00  0.00     0.014 S 
HETATM    5  O1  UNL     1       3.612  -2.226  -0.043  1.00  0.00    -0.258 OA
BRANCH   4   6
HETATM    6  C2  UNL     1       4.338   0.532  -0.059  1.00  0.00     0.104 C 
HETATM    7  C1  UNL     1       5.802   0.160  -0.151  1.00  0.00     0.018 C 
ENDBRANCH   4   6
ENDBRANCH   3   4
ENDBRANCH   2   3
ENDBRANCH   1   2
BRANCH   1   8
HETATM    8  N1  UNL     1      -0.490   0.603   2.045  1.00  0.00    -0.053 N 
ATOM      9  H13 UNL     1      -0.199  -0.168   2.646  1.00  0.00     0.276 HD
ATOM     10  H12 UNL     1       0.171   1.284   2.420  1.00  0.00     0.276 HD
ATOM     11  H11 UNL     1      -1.471   0.868   2.138  1.00  0.00     0.276 HD
ENDBRANCH   1   8
BRANCH   1  12
HETATM   12  N2  UNL     1      -0.719   1.532  -0.113  1.00  0.00    -0.061 NA
BRANCH  12  13
HETATM   13  O2  UNL     1       0.069   2.591   0.246  1.00  0.00    -0.289 OA
HETATM   14  C6  UNL     1      -0.594   3.794   0.162  1.00  0.00     0.231 C 
ENDBRANCH  12  13
ENDBRANCH   1  12
BRANCH   1  15
HETATM   15  C7  UNL     1      -1.380  -0.739   0.369  1.00  0.00     0.040 C 
HETATM   16  C8  UNL     1      -1.374  -1.418  -0.948  1.00  0.00     0.008 C 
HETATM   17  C9  UNL     1      -2.584  -2.216  -1.279  1.00  0.00     0.001 C 
HETATM   18  C10 UNL     1      -3.889  -1.766  -0.736  1.00  0.00     0.000 C 
HETATM   19  C11 UNL     1      -3.709  -1.304   0.706  1.00  0.00     0.001 C 
HETATM   20  C12 UNL     1      -2.757  -0.101   0.586  1.00  0.00     0.008 C 
ENDBRANCH   1  15
TORSDOF 8
