REMARK  8 active torsions:
REMARK  status: ('A' for Active; 'I' for Inactive)
REMARK    1  A    between atoms: O1_3  and  C2_4 
REMARK    2  A    between atoms: C2_4  and  C3_5 
REMARK    3  A    between atoms: C3_5  and  N2_6 
REMARK    4  A    between atoms: N2_6  and  C4_8 
REMARK    5  A    between atoms: C4_8  and  N3_10 
REMARK    6  A    between atoms: N3_10  and  C5_12 
REMARK    7  A    between atoms: C5_12  and  C6_13 
REMARK    8  A    between atoms: C6_13  and  C7_14 
ROOT
HETATM    1  N1  UNL     1       5.970   1.517  -1.951  1.00  0.00    -0.164 NA
HETATM    2  C1  UNL     1       5.953   1.247  -0.828  1.00  0.00     0.228 C 
HETATM    3  O1  UNL     1       5.958   0.955   0.491  1.00  0.00    -0.282 OA
ENDROOT
BRANCH   3   4
HETATM    4  C2  UNL     1       5.443  -0.152   1.146  1.00  0.00     0.209 C 
BRANCH   4   5
HETATM    5  C3  UNL     1       3.976  -0.373   1.056  1.00  0.00     0.149 C 
BRANCH   5   6
HETATM    6  N2  UNL     1       3.502  -0.563  -0.275  1.00  0.00    -0.365 N 
ATOM      7  H2  UNL     1       4.147  -0.618  -1.063  1.00  0.00     0.161 HD
BRANCH   6   8
HETATM    8  C4  UNL     1       2.080  -0.675  -0.465  1.00  0.00     0.167 C 
HETATM    9  S1  UNL     1       1.553  -0.925  -1.999  1.00  0.00    -0.041 SA
BRANCH   8  10
HETATM   10  N3  UNL     1       1.214  -0.593   0.648  1.00  0.00    -0.367 N 
ATOM     11  H3  UNL     1       1.621  -0.470   1.575  1.00  0.00     0.161 HD
BRANCH  10  12
HETATM   12  C5  UNL     1      -0.216  -0.675   0.531  1.00  0.00     0.124 C 
BRANCH  12  13
HETATM   13  C6  UNL     1      -0.744   0.557  -0.108  1.00  0.00     0.051 C 
BRANCH  13  14
HETATM   14  C7  UNL     1      -2.224   0.610  -0.290  1.00  0.00     0.123 C 
HETATM   15  C8  UNL     1      -2.828  -0.452  -1.124  1.00  0.00     0.032 C 
HETATM   16  C9  UNL     1      -4.219  -0.840  -0.710  1.00  0.00     0.004 C 
HETATM   17  C10 UNL     1      -4.976   0.238  -0.002  1.00  0.00     0.026 C 
HETATM   18  C11 UNL     1      -4.105   1.232   0.720  1.00  0.00     0.168 C 
HETATM   19  O2  UNL     1      -2.864   0.617   0.970  1.00  0.00    -0.386 OA
ENDBRANCH  13  14
ENDBRANCH  12  13
ENDBRANCH  10  12
ENDBRANCH   8  10
ENDBRANCH   6   8
ENDBRANCH   5   6
ENDBRANCH   4   5
ENDBRANCH   3   4
TORSDOF 8
