REMARK  6 active torsions:
REMARK  status: ('A' for Active; 'I' for Inactive)
REMARK    1  A    between atoms: C2_2  and  C3_3 
REMARK    2  A    between atoms: C3_3  and  C4_4 
REMARK    3  A    between atoms: C4_4  and  C5_5 
REMARK    4  A    between atoms: C5_5  and  C6_6 
REMARK    5  A    between atoms: C6_6  and  C7_7 
REMARK    6  A    between atoms: C7_7  and  C8_8 
ROOT
HETATM    1  C8  UNL     1       1.239   0.685  -0.424  1.00  0.00     0.383 C 
HETATM    2  N1  UNL     1       1.684  -0.604   0.070  1.00  0.00    -0.039 N 
ATOM      3  H11 UNL     1       1.147  -1.389  -0.298  1.00  0.00     0.280 HD
ATOM      4  H12 UNL     1       1.470  -0.759   1.055  1.00  0.00     0.280 HD
HETATM    5  C9  UNL     1       3.066  -0.677  -0.226  1.00  0.00     0.233 C 
HETATM    6  C10 UNL     1       3.960  -1.235   0.827  1.00  0.00     0.175 C 
HETATM    7  S1  UNL     1       5.524  -0.508   0.281  1.00  0.00     0.148 S 
HETATM    8  O1  UNL     1       6.245   0.067   1.440  1.00  0.00    -0.228 OA
HETATM    9  O2  UNL     1       6.309  -1.471  -0.522  1.00  0.00    -0.228 OA
HETATM   10  C11 UNL     1       4.821   0.793  -0.763  1.00  0.00     0.175 C 
HETATM   11  C12 UNL     1       3.443   0.817  -0.194  1.00  0.00     0.233 C 
HETATM   12  N2  UNL     1       2.414   1.308  -1.059  1.00  0.00    -0.039 N 
ATOM     13  H21 UNL     1       2.374   2.320  -1.176  1.00  0.00     0.280 HD
ATOM     14  H22 UNL     1       2.538   1.118  -2.053  1.00  0.00     0.280 HD
ENDROOT
BRANCH   1  15
HETATM   15  C7  UNL     1       0.094   0.576  -1.382  1.00  0.00     0.062 C 
BRANCH  15  16
HETATM   16  C6  UNL     1      -1.086  -0.080  -0.724  1.00  0.00     0.004 C 
BRANCH  16  17
HETATM   17  C5  UNL     1      -1.583   0.683   0.473  1.00  0.00     0.000 C 
BRANCH  17  18
HETATM   18  C4  UNL     1      -2.753  -0.026   1.076  1.00  0.00     0.000 C 
BRANCH  18  19
HETATM   19  C3  UNL     1      -3.925  -0.183   0.136  1.00  0.00    -0.000 C 
BRANCH  19  20
HETATM   20  C2  UNL     1      -5.005  -0.917   0.934  1.00  0.00    -0.005 C 
HETATM   21  C1  UNL     1      -6.188  -1.094   0.036  1.00  0.00     0.005 C 
ENDBRANCH  19  20
ENDBRANCH  18  19
ENDBRANCH  17  18
ENDBRANCH  16  17
ENDBRANCH  15  16
ENDBRANCH   1  15
TORSDOF 6
