REMARK  5 active torsions:
REMARK  status: ('A' for Active; 'I' for Inactive)
REMARK    1  A    between atoms: C1_2  and  C2_4 
REMARK       I    between atoms: C2_4  and  N1_6 
REMARK    2  A    between atoms: N1_6  and  C3_8 
REMARK    3  A    between atoms: C8_13  and  O3_14 
REMARK    4  A    between atoms: O3_14  and  C9_15 
REMARK    5  A    between atoms: C9_15  and  C10_16 
ROOT
HETATM    1  C3  UNL     1      -1.164  -0.296  -0.331  1.00  0.00     0.114 C 
HETATM    2  C4  UNL     1      -1.934  -0.525  -1.618  1.00  0.00     0.028 C 
HETATM    3  C5  UNL     1      -2.423  -1.934  -1.557  1.00  0.00     0.002 C 
HETATM    4  C6  UNL     1      -1.326  -2.926  -1.434  1.00  0.00     0.003 C 
HETATM    5  C7  UNL     1      -0.222  -2.603  -0.528  1.00  0.00     0.034 C 
HETATM    6  C8  UNL     1       0.057  -1.128  -0.307  1.00  0.00     0.144 C 
ENDROOT
BRANCH   1   7
HETATM    7  N1  UNL     1      -0.981   1.081  -0.052  1.00  0.00    -0.347 N 
HETATM    8  C2  UNL     1      -1.500   1.722   1.107  1.00  0.00     0.299 C 
HETATM    9  O2  UNL     1      -2.153   1.010   1.914  1.00  0.00    -0.263 OA
ATOM     10  H1  UNL     1      -0.449   1.642  -0.717  1.00  0.00     0.163 HD
BRANCH   8  11
HETATM   11  C1  UNL     1      -1.307   3.137   1.386  1.00  0.00     0.287 C 
HETATM   12  O1  UNL     1      -0.659   3.868   0.597  1.00  0.00    -0.274 OA
HETATM   13  S1  UNL     1      -1.992   3.863   2.864  1.00  0.00    -0.001 SA
ENDBRANCH   8  11
ENDBRANCH   1   7
BRANCH   6  14
HETATM   14  O3  UNL     1       0.690  -0.981   0.910  1.00  0.00    -0.383 OA
BRANCH  14  15
HETATM   15  C9  UNL     1       1.990  -0.610   0.922  1.00  0.00     0.172 C 
BRANCH  15  16
HETATM   16  C10 UNL     1       2.325   0.690   0.284  1.00  0.00     0.009 A 
HETATM   17  C11 UNL     1       3.825   1.013   0.371  1.00  0.00     0.007 A 
HETATM   18  C12 UNL     1       2.780   1.886   0.992  1.00  0.00     0.007 A 
ENDBRANCH  15  16
ENDBRANCH  14  15
ENDBRANCH   6  14
TORSDOF 5
