REMARK  15 active torsions:
REMARK  status: ('A' for Active; 'I' for Inactive)
REMARK    1  A    between atoms: C2_2  and  C3_3 
REMARK    2  A    between atoms: C3_3  and  C5_5 
REMARK    3  A    between atoms: C3_3  and  C7_7 
REMARK    4  A    between atoms: C10_10  and  O1_11 
REMARK    5  A    between atoms: O1_11  and  C11_12 
REMARK    6  A    between atoms: C11_12  and  C12_13 
REMARK    7  A    between atoms: C12_13  and  C13_14 
REMARK    8  A    between atoms: C13_14  and  O2_15 
REMARK    9  A    between atoms: O2_15  and  C14_16 
REMARK   10  A    between atoms: C18_20  and  O3_21 
REMARK   11  A    between atoms: O3_21  and  C19_22 
REMARK   12  A    between atoms: C21_25  and  O5_26 
REMARK   13  A    between atoms: C22_28  and  O6_29 
REMARK   14  A    between atoms: C23_31  and  O7_32 
REMARK   15  A    between atoms: C24_34  and  C25_35 
ROOT
HETATM    1  C13 UNL     1       1.513   0.764   0.757  1.00  0.00     0.170 C 
ENDROOT
BRANCH   1   2
HETATM    2  C12 UNL     1       0.862   0.373   2.092  1.00  0.00     0.053 C 
BRANCH   2   3
HETATM    3  C11 UNL     1      -0.134   1.389   2.531  1.00  0.00     0.178 C 
BRANCH   3   4
HETATM    4  O1  UNL     1      -1.197   1.651   1.710  1.00  0.00    -0.350 OA
BRANCH   4   5
HETATM    5  C10 UNL     1      -2.214   0.860   1.263  1.00  0.00     0.075 A 
HETATM    6  C9  UNL     1      -2.407  -0.459   1.576  1.00  0.00     0.038 A 
HETATM    7  C8  UNL     1      -3.457  -1.211   1.095  1.00  0.00     0.011 A 
HETATM    8  C7  UNL     1      -4.379  -0.632   0.252  1.00  0.00    -0.042 A 
HETATM    9  C29 UNL     1      -4.196   0.700  -0.072  1.00  0.00     0.019 A 
HETATM   10  C24 UNL     1      -3.149   1.450   0.408  1.00  0.00    -0.017 A 
BRANCH   8  11
HETATM   11  C3  UNL     1      -5.529  -1.400  -0.293  1.00  0.00     0.017 C 
HETATM   12  C4  UNL     1      -5.264  -2.877  -0.097  1.00  0.00     0.029 C 
BRANCH  11  13
HETATM   13  C2  UNL     1      -5.688  -1.133  -1.746  1.00  0.00    -0.019 C 
HETATM   14  C1  UNL     1      -5.396  -2.063  -2.645  1.00  0.00     0.008 C 
ENDBRANCH  11  13
BRANCH  11  15
HETATM   15  C5  UNL     1      -6.793  -1.083   0.389  1.00  0.00    -0.019 C 
HETATM   16  C6  UNL     1      -7.967  -1.027  -0.245  1.00  0.00     0.008 C 
ENDBRANCH  11  15
ENDBRANCH   8  11
BRANCH  10  17
HETATM   17  C25 UNL     1      -2.980   2.876   0.042  1.00  0.00    -0.021 C 
HETATM   18  C26 UNL     1      -1.665   3.124  -0.660  1.00  0.00     0.019 C 
HETATM   19  C27 UNL     1      -4.092   3.262  -0.909  1.00  0.00     0.019 C 
HETATM   20  C28 UNL     1      -3.118   3.786   1.244  1.00  0.00     0.019 C 
ENDBRANCH  10  17
ENDBRANCH   4   5
ENDBRANCH   3   4
ENDBRANCH   2   3
ENDBRANCH   1   2
BRANCH   1  21
HETATM   21  O2  UNL     1       2.413  -0.253   0.463  1.00  0.00    -0.379 OA
BRANCH  21  22
HETATM   22  C14 UNL     1       3.093  -0.042  -0.732  1.00  0.00     0.184 C 
HETATM   23  C15 UNL     1       4.545   0.086  -0.362  1.00  0.00    -0.021 C 
HETATM   24  C16 UNL     1       5.278   1.127  -0.736  1.00  0.00    -0.023 C 
HETATM   25  C18 UNL     1       5.112  -1.024   0.450  1.00  0.00     0.194 C 
HETATM   26  C17 UNL     1       4.763   2.247  -1.537  1.00  0.00     0.036 C 
HETATM   27  C21 UNL     1       4.488  -2.332  -0.001  1.00  0.00     0.183 C 
HETATM   28  C22 UNL     1       4.057  -2.249  -1.449  1.00  0.00     0.181 C 
HETATM   29  C23 UNL     1       2.999  -1.214  -1.674  1.00  0.00     0.182 C 
BRANCH  25  30
HETATM   30  O3  UNL     1       6.515  -1.151   0.267  1.00  0.00    -0.309 OA
BRANCH  30  31
HETATM   31  C19 UNL     1       7.398  -1.035   1.314  1.00  0.00     0.255 C 
HETATM   32  C20 UNL     1       8.871  -1.156   1.189  1.00  0.00     0.126 C 
HETATM   33  O4  UNL     1       6.925  -0.809   2.458  1.00  0.00    -0.266 OA
ENDBRANCH  30  31
ENDBRANCH  25  30
BRANCH  27  34
HETATM   34  O5  UNL     1       5.438  -3.348   0.092  1.00  0.00    -0.390 OA
ATOM     35  H5  UNL     1       5.047  -4.167  -0.190  1.00  0.00     0.210 HD
ENDBRANCH  27  34
BRANCH  28  36
HETATM   36  O6  UNL     1       3.662  -3.516  -1.841  1.00  0.00    -0.390 OA
ATOM     37  H6  UNL     1       3.391  -3.464  -2.750  1.00  0.00     0.210 HD
ENDBRANCH  28  36
BRANCH  29  38
HETATM   38  O7  UNL     1       1.722  -1.768  -1.703  1.00  0.00    -0.390 OA
ATOM     39  H7  UNL     1       1.663  -2.507  -2.297  1.00  0.00     0.210 HD
ENDBRANCH  29  38
ENDBRANCH  21  22
ENDBRANCH   1  21
TORSDOF 15
