REMARK  14 active torsions:
REMARK  status: ('A' for Active; 'I' for Inactive)
REMARK    1  A    between atoms: C4_4  and  C5_5 
REMARK    2  A    between atoms: C5_5  and  O1_6 
REMARK    3  A    between atoms: C5_5  and  C6_8 
REMARK    4  A    between atoms: C6_8  and  O2_9 
REMARK    5  A    between atoms: C6_8  and  C7_11 
REMARK    6  A    between atoms: C7_11  and  C8_13 
REMARK    7  A    between atoms: C8_13  and  O4_14 
REMARK    8  A    between atoms: C8_13  and  C9_16 
REMARK    9  A    between atoms: C13_22  and  C14_23 
REMARK   10  A    between atoms: C20_29  and  C21_30 
REMARK   11  A    between atoms: C21_30  and  C22_31 
REMARK   12  A    between atoms: C22_31  and  C23_32 
REMARK   13  A    between atoms: C25_34  and  C26_35 
REMARK   14  A    between atoms: C26_35  and  O8_37 
ROOT
HETATM    1  C5  UNL     1       0.240  -2.068  -1.560  1.00  0.00     0.158 C 
ENDROOT
BRANCH   1   2
HETATM    2  C4  UNL     1      -0.293  -0.958  -0.694  1.00  0.00     0.021 C 
HETATM    3  C3  UNL     1      -0.742  -1.429   0.672  1.00  0.00     0.040 C 
HETATM    4  C2  UNL     1      -1.967  -0.705   1.153  1.00  0.00    -0.088 C 
HETATM    5  C1  UNL     1      -2.936  -1.540   1.506  1.00  0.00     0.014 C 
HETATM    6  C28 UNL     1      -2.385   0.699   1.359  1.00  0.00     0.048 C 
HETATM    7  C25 UNL     1      -3.541   1.010   0.409  1.00  0.00     0.097 C 
HETATM    8  C20 UNL     1      -3.143   1.442  -0.928  1.00  0.00     0.022 C 
HETATM    9  C19 UNL     1      -1.652   1.103  -1.222  1.00  0.00     0.010 C 
HETATM   10  C18 UNL     1      -1.485  -0.362  -1.428  1.00  0.00     0.008 C 
BRANCH   7  11
HETATM   11  C26 UNL     1      -4.304   2.103   1.141  1.00  0.00     0.263 C 
HETATM   12  O7  UNL     1      -4.534   3.197   0.629  1.00  0.00    -0.265 OA
BRANCH  11  13
HETATM   13  O8  UNL     1      -4.723   1.799   2.412  1.00  0.00    -0.326 OA
HETATM   14  C27 UNL     1      -5.440   2.737   3.187  1.00  0.00     0.213 C 
ENDBRANCH  11  13
ENDBRANCH   7  11
BRANCH   8  15
HETATM   15  C21 UNL     1      -3.889   0.964  -2.106  1.00  0.00    -0.025 C 
BRANCH  15  16
HETATM   16  C22 UNL     1      -5.338   1.076  -2.257  1.00  0.00    -0.031 C 
BRANCH  16  17
HETATM   17  C23 UNL     1      -6.280   0.314  -1.410  1.00  0.00     0.022 C 
HETATM   18  C24 UNL     1      -6.102  -1.198  -1.547  1.00  0.00     0.009 C 
ENDBRANCH  16  17
ENDBRANCH  15  16
ENDBRANCH   8  15
ENDBRANCH   1   2
BRANCH   1  19
HETATM   19  O1  UNL     1      -0.844  -2.990  -1.624  1.00  0.00    -0.392 OA
ATOM     20  H1  UNL     1      -0.508  -3.690  -2.171  1.00  0.00     0.210 HD
ENDBRANCH   1  19
BRANCH   1  21
HETATM   21  C6  UNL     1       1.440  -2.794  -1.056  1.00  0.00     0.219 C 
BRANCH  21  22
HETATM   22  O2  UNL     1       1.577  -3.944  -1.931  1.00  0.00    -0.385 OA
ATOM     23  H2  UNL     1       2.342  -4.407  -1.610  1.00  0.00     0.210 HD
ENDBRANCH  21  22
BRANCH  21  24
HETATM   24  C7  UNL     1       2.709  -2.058  -1.300  1.00  0.00     0.188 C 
HETATM   25  O3  UNL     1       3.287  -2.322  -2.386  1.00  0.00    -0.292 OA
BRANCH  24  26
HETATM   26  C8  UNL     1       3.345  -1.076  -0.420  1.00  0.00     0.220 C 
BRANCH  26  27
HETATM   27  O4  UNL     1       2.767  -1.073   0.825  1.00  0.00    -0.385 OA
ATOM     28  H4  UNL     1       3.180  -0.436   1.396  1.00  0.00     0.210 HD
ENDBRANCH  26  27
BRANCH  26  29
HETATM   29  C9  UNL     1       4.843  -1.337  -0.357  1.00  0.00     0.180 C 
HETATM   30  O5  UNL     1       4.997  -2.613   0.249  1.00  0.00    -0.308 OA
HETATM   31  C10 UNL     1       4.909  -2.498   1.633  1.00  0.00     0.289 C 
HETATM   32  O6  UNL     1       4.713  -3.456   2.414  1.00  0.00    -0.260 OA
HETATM   33  C11 UNL     1       5.090  -1.068   1.931  1.00  0.00     0.018 C 
HETATM   34  C12 UNL     1       4.878  -0.526   3.100  1.00  0.00     0.026 C 
HETATM   35  C13 UNL     1       5.538  -0.472   0.653  1.00  0.00     0.079 C 
BRANCH  35  36
HETATM   36  C14 UNL     1       5.239   0.959   0.534  1.00  0.00    -0.013 C 
HETATM   37  C15 UNL     1       6.248   1.809   0.368  1.00  0.00    -0.091 C 
HETATM   38  C16 UNL     1       6.006   3.294   0.239  1.00  0.00     0.042 C 
HETATM   39  C17 UNL     1       7.673   1.315   0.303  1.00  0.00     0.042 C 
ENDBRANCH  35  36
ENDBRANCH  26  29
ENDBRANCH  24  26
ENDBRANCH  21  24
ENDBRANCH   1  21
TORSDOF 14
