REMARK  15 active torsions:
REMARK  status: ('A' for Active; 'I' for Inactive)
REMARK    1  A    between atoms: C2_2  and  C19_29 
REMARK    2  A    between atoms: C3_3  and  C4_4 
REMARK    3  A    between atoms: C4_4  and  O1_5 
REMARK    4  A    between atoms: C4_4  and  O4_18 
REMARK    5  A    between atoms: O1_5  and  C5_6 
REMARK    6  A    between atoms: C5_6  and  C6_8 
REMARK    7  A    between atoms: C7_9  and  C8_10 
REMARK    8  A    between atoms: C11_13  and  O3_14 
REMARK    9  A    between atoms: O4_18  and  C14_19 
REMARK   10  A    between atoms: C15_21  and  O6_22 
REMARK   11  A    between atoms: C16_24  and  O7_25 
REMARK   12  A    between atoms: C19_29  and  C20_30 
REMARK   13  A    between atoms: C20_30  and  C21_31 
REMARK   14  A    between atoms: C22_32  and  C24_34 
REMARK   15  A    between atoms: C24_34  and  C25_35 
ROOT
HETATM    1  C4  UNL     1      -1.302   0.476  -1.099  1.00  0.00     0.297 C 
ENDROOT
BRANCH   1   2
HETATM    2  C3  UNL     1      -0.126   1.364  -1.022  1.00  0.00     0.036 C 
HETATM    3  C2  UNL     1       0.951   1.118  -0.286  1.00  0.00    -0.083 C 
HETATM    4  C1  UNL     1       1.053  -0.119   0.546  1.00  0.00     0.043 C 
BRANCH   3   5
HETATM    5  C19 UNL     1       2.037   2.098  -0.255  1.00  0.00     0.037 C 
BRANCH   5   6
HETATM    6  C20 UNL     1       3.369   1.701  -0.767  1.00  0.00     0.031 C 
BRANCH   6   7
HETATM    7  C21 UNL     1       4.054   0.578  -0.111  1.00  0.00    -0.024 C 
HETATM    8  C22 UNL     1       5.202   0.659   0.555  1.00  0.00    -0.085 C 
HETATM    9  C23 UNL     1       5.864   1.972   0.659  1.00  0.00     0.043 C 
BRANCH   8  10
HETATM   10  C24 UNL     1       5.750  -0.524   1.182  1.00  0.00     0.068 C 
BRANCH  10  11
HETATM   11  C25 UNL     1       7.071  -1.033   0.769  1.00  0.00     0.160 A 
HETATM   12  O8  UNL     1       8.171  -0.129   0.926  1.00  0.00    -0.370 OA
HETATM   13  C26 UNL     1       7.861  -0.842  -0.367  1.00  0.00     0.080 A 
HETATM   14  C27 UNL     1       9.034  -1.822  -0.600  1.00  0.00     0.048 C 
HETATM   15  C28 UNL     1       7.702   0.097  -1.510  1.00  0.00     0.048 C 
ENDBRANCH  10  11
ENDBRANCH   8  10
ENDBRANCH   6   7
ENDBRANCH   5   6
ENDBRANCH   3   5
ENDBRANCH   1   2
BRANCH   1  16
HETATM   16  O1  UNL     1      -2.334   0.853  -0.187  1.00  0.00    -0.283 OA
BRANCH  16  17
HETATM   17  C5  UNL     1      -3.583   1.251  -0.657  1.00  0.00     0.285 C 
HETATM   18  O2  UNL     1      -3.727   1.248  -1.915  1.00  0.00    -0.260 OA
BRANCH  17  19
HETATM   19  C6  UNL     1      -4.687   1.655   0.204  1.00  0.00     0.079 C 
HETATM   20  C7  UNL     1      -4.590   1.680   1.505  1.00  0.00    -0.012 C 
BRANCH  20  21
HETATM   21  C8  UNL     1      -5.646   2.072   2.461  1.00  0.00     0.030 C 
HETATM   22  C9  UNL     1      -6.876   2.530   1.790  1.00  0.00    -0.020 C 
HETATM   23  C10 UNL     1      -8.078   2.311   2.276  1.00  0.00     0.001 C 
HETATM   24  C11 UNL     1      -8.360   1.586   3.548  1.00  0.00     0.140 C 
HETATM   25  C12 UNL     1      -7.075   1.414   4.339  1.00  0.00     0.036 C 
HETATM   26  C13 UNL     1      -5.991   0.939   3.402  1.00  0.00     0.015 C 
BRANCH  24  27
HETATM   27  O3  UNL     1      -9.227   2.356   4.315  1.00  0.00    -0.392 OA
ATOM     28  H3  UNL     1      -9.407   1.894   5.125  1.00  0.00     0.210 HD
ENDBRANCH  24  27
ENDBRANCH  20  21
ENDBRANCH  17  19
ENDBRANCH  16  17
ENDBRANCH   1  16
BRANCH   1  29
HETATM   29  O4  UNL     1      -0.921  -0.836  -0.980  1.00  0.00    -0.327 OA
BRANCH  29  30
HETATM   30  C14 UNL     1      -1.127  -1.599  -2.128  1.00  0.00     0.272 A 
HETATM   31  O5  UNL     1       0.037  -2.076  -2.667  1.00  0.00    -0.329 OA
HETATM   32  C15 UNL     1      -0.031  -3.429  -2.840  1.00  0.00     0.289 A 
HETATM   33  C16 UNL     1      -1.338  -3.950  -2.356  1.00  0.00     0.181 A 
HETATM   34  C17 UNL     1      -2.094  -2.711  -1.926  1.00  0.00     0.071 A 
HETATM   35  C18 UNL     1      -3.341  -2.543  -2.786  1.00  0.00     0.017 C 
BRANCH  32  36
HETATM   36  O6  UNL     1       1.041  -4.123  -2.285  1.00  0.00    -0.369 OA
ATOM     37  H6  UNL     1       0.994  -5.064  -2.405  1.00  0.00     0.212 HD
ENDBRANCH  32  36
BRANCH  33  38
HETATM   38  O7  UNL     1      -2.045  -4.660  -3.325  1.00  0.00    -0.390 OA
ATOM     39  H7  UNL     1      -2.879  -4.993  -3.016  1.00  0.00     0.210 HD
ENDBRANCH  33  38
ENDBRANCH  29  30
ENDBRANCH   1  29
TORSDOF 15
