REMARK  14 active torsions:
REMARK  status: ('A' for Active; 'I' for Inactive)
REMARK    1  A    between atoms: C5_5  and  O1_6 
REMARK    2  A    between atoms: O1_6  and  C6_7 
REMARK    3  A    between atoms: C6_7  and  C7_9 
REMARK    4  A    between atoms: C7_9  and  C8_10 
REMARK    5  A    between atoms: C8_10  and  C9_11 
REMARK    6  A    between atoms: C13_15  and  O3_16 
REMARK    7  A    between atoms: O3_16  and  C14_17 
REMARK    8  A    between atoms: C14_17  and  C15_19 
REMARK    9  A    between atoms: C15_19  and  C16_20 
REMARK   10  A    between atoms: C16_20  and  C17_21 
REMARK   11  A    between atoms: C17_21  and  C18_22 
REMARK   12  A    between atoms: C18_22  and  C19_23 
REMARK   13  A    between atoms: C23_29  and  O7_30 
REMARK   14  A    between atoms: C27_36  and  O9_37 
ROOT
HETATM    1  C1  UNL     1      -2.976  -4.772   0.549  1.00  0.00     0.017 C 
HETATM    2  C2  UNL     1      -2.230  -3.760   0.953  1.00  0.00    -0.047 C 
HETATM    3  C3  UNL     1      -2.222  -3.329   2.377  1.00  0.00     0.039 C 
HETATM    4  C4  UNL     1      -2.745  -1.914   2.554  1.00  0.00     0.037 C 
HETATM    5  C5  UNL     1      -2.484  -1.193   1.257  1.00  0.00     0.140 C 
HETATM    6  C11 UNL     1      -1.125  -1.648   0.761  1.00  0.00     0.064 C 
HETATM    7  C12 UNL     1      -0.440  -0.616  -0.067  1.00  0.00     0.048 C 
HETATM    8  C13 UNL     1       0.941  -0.259   0.374  1.00  0.00     0.161 C 
HETATM    9  C20 UNL     1       1.768  -1.402   0.835  1.00  0.00    -0.056 C 
HETATM   10  C21 UNL     1       2.212  -1.395   2.270  1.00  0.00     0.046 C 
HETATM   11  C22 UNL     1       2.134  -2.411   0.073  1.00  0.00     0.010 C 
HETATM   12  C23 UNL     1       1.806  -2.609  -1.356  1.00  0.00     0.152 C 
HETATM   13  C24 UNL     1       0.747  -3.665  -1.441  1.00  0.00     0.087 C 
HETATM   14  C25 UNL     1      -0.105  -3.570  -2.681  1.00  0.00     0.021 C 
HETATM   15  C26 UNL     1      -0.088  -3.711  -0.186  1.00  0.00     0.172 C 
HETATM   16  O8  UNL     1       0.306  -4.418   0.737  1.00  0.00    -0.294 OA
HETATM   17  C27 UNL     1      -1.338  -2.976   0.017  1.00  0.00     0.147 C 
ENDROOT
BRANCH   8  18
HETATM   18  O3  UNL     1       1.570   0.433  -0.717  1.00  0.00    -0.311 OA
BRANCH  18  19
HETATM   19  C14 UNL     1       1.908   1.778  -0.638  1.00  0.00     0.259 C 
HETATM   20  O4  UNL     1       1.629   2.350   0.448  1.00  0.00    -0.265 OA
BRANCH  19  21
HETATM   21  C15 UNL     1       2.559   2.505  -1.755  1.00  0.00     0.111 C 
BRANCH  21  22
HETATM   22  C16 UNL     1       4.064   2.510  -1.606  1.00  0.00     0.010 C 
BRANCH  22  23
HETATM   23  C17 UNL     1       4.496   3.174  -0.339  1.00  0.00     0.011 C 
BRANCH  23  24
HETATM   24  C18 UNL     1       5.973   3.223  -0.114  1.00  0.00     0.113 C 
BRANCH  24  25
HETATM   25  C19 UNL     1       6.744   3.962  -1.118  1.00  0.00     0.172 C 
HETATM   26  O5  UNL     1       6.258   4.565  -2.095  1.00  0.00    -0.648 OA
HETATM   27  O6  UNL     1       8.126   3.996  -0.975  1.00  0.00    -0.648 OA
ENDBRANCH  24  25
ENDBRANCH  23  24
ENDBRANCH  22  23
ENDBRANCH  21  22
ENDBRANCH  19  21
ENDBRANCH  18  19
ENDBRANCH   8  18
BRANCH   5  28
HETATM   28  O1  UNL     1      -2.659   0.176   1.304  1.00  0.00    -0.316 OA
BRANCH  28  29
HETATM   29  C6  UNL     1      -3.606   0.873   0.593  1.00  0.00     0.259 C 
HETATM   30  O2  UNL     1      -4.351   0.171  -0.145  1.00  0.00    -0.265 OA
BRANCH  29  31
HETATM   31  C7  UNL     1      -3.764   2.359   0.671  1.00  0.00     0.111 C 
BRANCH  31  32
HETATM   32  C8  UNL     1      -4.885   2.809  -0.227  1.00  0.00     0.009 C 
BRANCH  32  33
HETATM   33  C9  UNL     1      -4.992   4.331  -0.102  1.00  0.00    -0.004 C 
HETATM   34  C10 UNL     1      -5.286   4.732   1.326  1.00  0.00     0.005 C 
ENDBRANCH  32  33
ENDBRANCH  31  32
ENDBRANCH  29  31
ENDBRANCH  28  29
ENDBRANCH   5  28
BRANCH  17  35
HETATM   35  O9  UNL     1      -2.074  -2.750  -1.122  1.00  0.00    -0.377 OA
ATOM     36  H9  UNL     1      -1.514  -2.257  -1.710  1.00  0.00     0.211 HD
ENDBRANCH  17  35
BRANCH  12  37
HETATM   37  O7  UNL     1       2.962  -3.121  -1.990  1.00  0.00    -0.391 OA
ATOM     38  H7  UNL     1       2.751  -3.248  -2.908  1.00  0.00     0.210 HD
ENDBRANCH  12  37
TORSDOF 14
