REMARK  14 active torsions:
REMARK  status: ('A' for Active; 'I' for Inactive)
REMARK    1  A    between atoms: C2_2  and  N1_3 
REMARK    2  A    between atoms: N1_3  and  C3_4 
REMARK    3  A    between atoms: N1_3  and  C4_7 
REMARK    4  A    between atoms: C3_4  and  O1_5 
REMARK    5  A    between atoms: C4_7  and  C5_8 
REMARK    6  A    between atoms: C5_8  and  O2_9 
REMARK    7  A    between atoms: C5_8  and  C6_11 
REMARK    8  A    between atoms: C6_11  and  O3_12 
REMARK    9  A    between atoms: O3_12  and  C7_13 
REMARK   10  A    between atoms: C11_18  and  C12_19 
REMARK   11  A    between atoms: C12_19  and  O5_22 
REMARK   12  A    between atoms: C23_32  and  C24_33 
REMARK   13  A    between atoms: C25_34  and  C26_35 
REMARK   14  A    between atoms: C26_35  and  O7_37 
ROOT
HETATM    1  C7  UNL     1      -0.065   1.372  -0.492  1.00  0.00     0.178 C 
HETATM    2  C8  UNL     1      -1.117   0.657  -1.366  1.00  0.00     0.205 C 
HETATM    3  O4  UNL     1      -1.405  -0.505  -0.729  1.00  0.00    -0.376 OA
HETATM    4  C9  UNL     1      -2.666  -0.755  -0.325  1.00  0.00     0.074 C 
HETATM    5  C10 UNL     1      -3.685  -0.514  -1.444  1.00  0.00     0.047 C 
HETATM    6  C11 UNL     1      -2.808  -2.098   0.278  1.00  0.00     0.054 C 
HETATM    7  C15 UNL     1      -4.207  -2.101   0.768  1.00  0.00     0.012 C 
HETATM    8  C16 UNL     1      -4.431  -0.701   1.202  1.00  0.00     0.017 C 
HETATM    9  C17 UNL     1      -3.150   0.114   0.846  1.00  0.00     0.005 C 
HETATM   10  C18 UNL     1      -2.334   0.047   2.073  1.00  0.00     0.022 C 
HETATM   11  C19 UNL     1      -3.525   1.451   0.363  1.00  0.00    -0.014 C 
HETATM   12  C20 UNL     1      -2.941   2.555   0.092  1.00  0.00     0.004 C 
HETATM   13  C21 UNL     1      -1.659   3.183   0.074  1.00  0.00    -0.053 C 
HETATM   14  C22 UNL     1      -1.696   4.683   0.416  1.00  0.00     0.049 C 
HETATM   15  C23 UNL     1      -0.401   2.740  -0.169  1.00  0.00    -0.021 C 
ENDROOT
BRANCH   1  16
HETATM   16  O3  UNL     1       1.160   1.079  -1.088  1.00  0.00    -0.377 OA
BRANCH  16  17
HETATM   17  C6  UNL     1       1.792   0.018  -0.389  1.00  0.00     0.202 C 
BRANCH  17  18
HETATM   18  C5  UNL     1       3.011  -0.427  -1.098  1.00  0.00     0.170 C 
BRANCH  18  19
HETATM   19  C4  UNL     1       3.576  -1.762  -0.737  1.00  0.00     0.308 C 
BRANCH  19  20
HETATM   20  N1  UNL     1       4.256  -1.890   0.508  1.00  0.00     0.113 N 
BRANCH  20  21
HETATM   21  C2  UNL     1       4.993  -3.188   0.519  1.00  0.00     0.270 C 
HETATM   22  C1  UNL     1       6.091  -3.177  -0.489  1.00  0.00     0.037 C 
ENDBRANCH  20  21
BRANCH  20  23
HETATM   23  C3  UNL     1       3.236  -2.147   1.554  1.00  0.00     0.437 C 
BRANCH  23  24
HETATM   24  O1  UNL     1       3.915  -2.487   2.754  1.00  0.00    -0.373 OA
ATOM     25  H1  UNL     1       3.262  -2.652   3.424  1.00  0.00     0.211 HD
ENDBRANCH  23  24
ENDBRANCH  20  23
ENDBRANCH  19  20
ENDBRANCH  18  19
BRANCH  18  26
HETATM   26  O2  UNL     1       3.969   0.574  -1.157  1.00  0.00    -0.392 OA
ATOM     27  H2  UNL     1       3.610   1.423  -1.387  1.00  0.00     0.210 HD
ENDBRANCH  18  26
ENDBRANCH  17  18
ENDBRANCH  16  17
ENDBRANCH   1  16
BRANCH  15  28
HETATM   28  C24 UNL     1       0.702   3.730  -0.109  1.00  0.00     0.016 C 
HETATM   29  C25 UNL     1       1.953   3.646  -0.289  1.00  0.00     0.083 C 
BRANCH  29  30
HETATM   30  C26 UNL     1       2.731   4.920  -0.126  1.00  0.00     0.282 C 
HETATM   31  O6  UNL     1       3.949   4.880  -0.297  1.00  0.00    -0.260 OA
BRANCH  30  32
HETATM   32  O7  UNL     1       2.139   6.109   0.199  1.00  0.00    -0.323 OA
HETATM   33  C27 UNL     1       2.778   7.337   0.368  1.00  0.00     0.213 C 
ENDBRANCH  30  32
ENDBRANCH  29  30
ENDBRANCH  15  28
BRANCH   6  34
HETATM   34  C12 UNL     1      -2.388  -3.259  -0.531  1.00  0.00     0.057 C 
HETATM   35  C13 UNL     1      -2.643  -4.519   0.311  1.00  0.00     0.045 C 
HETATM   36  C14 UNL     1      -2.976  -3.476  -1.858  1.00  0.00     0.045 C 
BRANCH  34  37
HETATM   37  O5  UNL     1      -0.981  -3.190  -0.677  1.00  0.00    -0.390 OA
ATOM     38  H5  UNL     1      -0.711  -3.937  -1.198  1.00  0.00     0.210 HD
ENDBRANCH  34  37
ENDBRANCH   6  34
TORSDOF 14
