REMARK  15 active torsions:
REMARK  status: ('A' for Active; 'I' for Inactive)
REMARK    1  A    between atoms: C4_4  and  N1_5 
REMARK    2  A    between atoms: N1_5  and  O1_6 
REMARK    3  A    between atoms: C5_8  and  O2_9 
REMARK    4  A    between atoms: C6_11  and  O3_12 
REMARK    5  A    between atoms: O3_12  and  C7_13 
REMARK    6  A    between atoms: C11_17  and  O4_18 
REMARK    7  A    between atoms: O4_18  and  C12_19 
REMARK    8  A    between atoms: C12_19  and  O5_20 
REMARK    9  A    between atoms: C12_19  and  C13_22 
REMARK   10  A    between atoms: C13_22  and  O6_23 
REMARK   11  A    between atoms: C13_22  and  C14_25 
REMARK   12  A    between atoms: C14_25  and  O7_26 
REMARK   13  A    between atoms: C14_25  and  C15_28 
REMARK   14  A    between atoms: S1_31  and  N2_32 
REMARK   15  A    between atoms: C20_41  and  N4_42 
ROOT
HETATM    1  C7  UNL     1      -2.675  -0.005   0.665  1.00  0.00     0.155 C 
HETATM    2  C8  UNL     1      -1.538   0.758   0.082  1.00  0.00     0.041 C 
HETATM    3  C9  UNL     1      -0.324  -0.047  -0.257  1.00  0.00     0.013 C 
HETATM    4  C10 UNL     1      -0.548  -0.676  -1.621  1.00  0.00     0.012 C 
HETATM    5  C11 UNL     1       0.101  -1.028   0.780  1.00  0.00     0.130 C 
HETATM    6  C19 UNL     1      -0.984  -1.320   1.796  1.00  0.00     0.067 C 
HETATM    7  C20 UNL     1      -2.283  -1.432   0.983  1.00  0.00     0.214 C 
ENDROOT
BRANCH   5   8
HETATM    8  O4  UNL     1       1.311  -0.722   1.367  1.00  0.00    -0.353 OA
BRANCH   8   9
HETATM    9  C12 UNL     1       2.315  -1.630   1.180  1.00  0.00     0.288 C 
BRANCH   9  10
HETATM   10  O5  UNL     1       2.810  -2.121   2.411  1.00  0.00    -0.369 OA
ATOM     11  H5  UNL     1       3.508  -2.752   2.281  1.00  0.00     0.212 HD
ENDBRANCH   9  10
BRANCH   9  12
HETATM   12  C13 UNL     1       3.472  -0.973   0.472  1.00  0.00     0.203 C 
BRANCH  12  13
HETATM   13  O6  UNL     1       3.130  -0.483  -0.763  1.00  0.00    -0.388 OA
ATOM     14  H6  UNL     1       3.859  -0.069  -1.209  1.00  0.00     0.210 HD
ENDBRANCH  12  13
BRANCH  12  15
HETATM   15  C14 UNL     1       4.054   0.154   1.326  1.00  0.00     0.184 C 
BRANCH  15  16
HETATM   16  O7  UNL     1       4.396  -0.362   2.593  1.00  0.00    -0.391 OA
ATOM     17  H7  UNL     1       4.758   0.338   3.124  1.00  0.00     0.210 HD
ENDBRANCH  15  16
BRANCH  15  18
HETATM   18  C15 UNL     1       5.270   0.728   0.671  1.00  0.00     0.243 C 
HETATM   19  C16 UNL     1       4.886   1.469  -0.563  1.00  0.00     0.222 C 
HETATM   20  O8  UNL     1       5.672   2.638  -0.635  1.00  0.00    -0.309 OA
HETATM   21  S1  UNL     1       7.466   1.960  -0.720  1.00  0.00     0.033 SA
HETATM   22  C17 UNL     1       7.099  -0.071  -0.627  1.00  0.00     0.279 C 
HETATM   23  C18 UNL     1       8.459  -0.711  -0.439  1.00  0.00     0.055 C 
HETATM   24  N3  UNL     1       6.249  -0.301   0.501  1.00  0.00    -0.051 N 
ATOM     25  H32 UNL     1       6.796  -0.430   1.352  1.00  0.00     0.279 HD
ATOM     26  H31 UNL     1       5.809  -1.220   0.447  1.00  0.00     0.279 HD
BRANCH  21  27
HETATM   27  N2  UNL     1       8.611   2.549   0.837  1.00  0.00    -0.360 NA
ATOM     28  H22 UNL     1       8.792   3.552   0.791  1.00  0.00     0.165 HD
ATOM     29  H21 UNL     1       9.564   2.189   0.792  1.00  0.00     0.165 HD
ENDBRANCH  21  27
ENDBRANCH  15  18
ENDBRANCH  12  15
ENDBRANCH   9  12
ENDBRANCH   8   9
ENDBRANCH   5   8
BRANCH   7  30
HETATM   30  N4  UNL     1      -3.239  -2.103   1.809  1.00  0.00    -0.072 N 
ATOM     31  H43 UNL     1      -3.416  -1.575   2.663  1.00  0.00     0.274 HD
ATOM     32  H42 UNL     1      -4.170  -2.065   1.393  1.00  0.00     0.274 HD
ATOM     33  H41 UNL     1      -2.975  -3.065   2.023  1.00  0.00     0.274 HD
ENDBRANCH   7  30
BRANCH   1  34
HETATM   34  O3  UNL     1      -3.778   0.080  -0.168  1.00  0.00    -0.351 OA
BRANCH  34  35
HETATM   35  C6  UNL     1      -4.877   0.659   0.460  1.00  0.00     0.291 C 
HETATM   36  C5  UNL     1      -5.364   1.892  -0.211  1.00  0.00     0.195 C 
HETATM   37  C4  UNL     1      -6.358   1.690  -1.292  1.00  0.00     0.142 C 
HETATM   38  C3  UNL     1      -6.570   0.291  -1.731  1.00  0.00     0.058 C 
HETATM   39  C2  UNL     1      -5.999  -0.761  -0.850  1.00  0.00     0.122 C 
HETATM   40  C1  UNL     1      -6.928  -1.969  -0.802  1.00  0.00     0.040 C 
HETATM   41  O9  UNL     1      -5.892  -0.291   0.459  1.00  0.00    -0.354 OA
BRANCH  36  42
HETATM   42  O2  UNL     1      -5.871   2.758   0.776  1.00  0.00    -0.389 OA
ATOM     43  H2  UNL     1      -5.234   2.887   1.469  1.00  0.00     0.210 HD
ENDBRANCH  36  42
BRANCH  37  44
HETATM   44  N1  UNL     1      -7.656   2.207  -0.827  1.00  0.00    -0.096 NA
BRANCH  44  45
HETATM   45  O1  UNL     1      -8.146   1.497   0.192  1.00  0.00    -0.296 OA
ATOM     46  H1  UNL     1      -8.983   1.831   0.492  1.00  0.00     0.238 HD
ENDBRANCH  44  45
ENDBRANCH  37  44
ENDBRANCH  34  35
ENDBRANCH   1  34
TORSDOF 15
