REMARK  13 active torsions:
REMARK  status: ('A' for Active; 'I' for Inactive)
REMARK    1  A    between atoms: C12_18  and  C13_19 
REMARK    2  A    between atoms: C13_19  and  C14_20 
REMARK       I    between atoms: C14_20  and  N3_22 
REMARK    3  A    between atoms: N3_22  and  C15_24 
REMARK    4  A    between atoms: C15_24  and  O3_25 
REMARK    5  A    between atoms: C15_24  and  C16_28 
REMARK    6  A    between atoms: O3_25  and  O4_26 
REMARK    7  A    between atoms: C16_28  and  C17_30 
REMARK    8  A    between atoms: C17_30  and  C18_32 
REMARK    9  A    between atoms: C18_32  and  O6_33 
REMARK   10  A    between atoms: C18_32  and  C19_35 
REMARK   11  A    between atoms: C19_35  and  O7_36 
REMARK   12  A    between atoms: C19_35  and  C20_38 
REMARK   13  A    between atoms: C20_38  and  O8_39 
ROOT
HETATM    1  C13 UNL     1       0.477   0.160   1.000  1.00  0.00     0.117 C 
ENDROOT
BRANCH   1   2
HETATM    2  C12 UNL     1      -0.925  -0.391   1.090  1.00  0.00     0.096 C 
HETATM    3  C11 UNL     1      -1.594  -0.587  -0.216  1.00  0.00     0.042 C 
HETATM    4  C10 UNL     1      -2.310  -1.912  -0.374  1.00  0.00     0.233 C 
HETATM    5  N2  UNL     1      -3.256  -2.170   0.684  1.00  0.00    -0.074 N 
HETATM    6  C9  UNL     1      -4.319  -3.047   0.230  1.00  0.00     0.251 C 
ATOM      7  H22 UNL     1      -3.625  -1.304   1.078  1.00  0.00     0.277 HD
ATOM      8  H21 UNL     1      -2.797  -2.536   1.518  1.00  0.00     0.277 HD
HETATM    9  C8  UNL     1      -5.571  -2.178   0.068  1.00  0.00     0.150 C 
HETATM   10  N1  UNL     1      -5.473  -1.545  -1.228  1.00  0.00    -0.359 N 
HETATM   11  C7  UNL     1      -5.757  -0.180  -1.491  1.00  0.00     0.217 C 
ATOM     12  H1  UNL     1      -5.177  -2.124  -2.014  1.00  0.00     0.162 HD
HETATM   13  C6  UNL     1      -6.935   0.551  -1.007  1.00  0.00     0.103 C 
HETATM   14  O1  UNL     1      -4.916   0.454  -2.205  1.00  0.00    -0.274 OA
HETATM   15  C5  UNL     1      -6.717   1.331   0.260  1.00  0.00     0.009 C 
HETATM   16  C4  UNL     1      -5.515   2.220   0.246  1.00  0.00     0.003 C 
HETATM   17  C3  UNL     1      -4.520   1.664   1.261  1.00  0.00     0.032 C 
HETATM   18  C2  UNL     1      -3.217   2.380   1.280  1.00  0.00     0.127 C 
HETATM   19  C1  UNL     1      -3.015   3.215  -0.000  1.00  0.00     0.040 C 
HETATM   20  O10 UNL     1      -2.086   1.697   1.596  1.00  0.00    -0.316 OA
HETATM   21  C21 UNL     1      -1.663   0.517   2.042  1.00  0.00     0.263 C 
HETATM   22  O9  UNL     1      -1.770  -0.015   3.184  1.00  0.00    -0.265 OA
ENDBRANCH   1   2
BRANCH   1  23
HETATM   23  C14 UNL     1       1.426  -0.691   0.258  1.00  0.00     0.220 C 
HETATM   24  O2  UNL     1       1.009  -1.800  -0.163  1.00  0.00    -0.274 OA
HETATM   25  N3  UNL     1       2.742  -0.235   0.054  1.00  0.00    -0.331 N 
ATOM     26  H3  UNL     1       2.985   0.680   0.435  1.00  0.00     0.165 HD
BRANCH  25  27
HETATM   27  C15 UNL     1       3.771  -0.952  -0.646  1.00  0.00     0.283 C 
BRANCH  27  28
HETATM   28  O3  UNL     1       4.072  -0.249  -1.793  1.00  0.00    -0.215 OA
BRANCH  28  29
HETATM   29  O4  UNL     1       3.751  -0.873  -2.896  1.00  0.00    -0.248 OA
ATOM     30  H4  UNL     1       3.958  -0.389  -3.686  1.00  0.00     0.253 HD
ENDBRANCH  28  29
ENDBRANCH  27  28
BRANCH  27  31
HETATM   31  C16 UNL     1       4.975  -1.278   0.128  1.00  0.00     0.182 C 
HETATM   32  S1  UNL     1       4.588  -2.332   1.588  1.00  0.00    -0.080 SA
BRANCH  31  33
HETATM   33  C17 UNL     1       5.908  -0.226   0.482  1.00  0.00     0.176 C 
HETATM   34  O5  UNL     1       5.966   0.042   1.704  1.00  0.00    -0.294 OA
BRANCH  33  35
HETATM   35  C18 UNL     1       6.794   0.575  -0.377  1.00  0.00     0.219 C 
BRANCH  35  36
HETATM   36  O6  UNL     1       6.817   0.149  -1.694  1.00  0.00    -0.385 OA
ATOM     37  H6  UNL     1       7.389   0.666  -2.249  1.00  0.00     0.210 HD
ENDBRANCH  35  36
BRANCH  35  38
HETATM   38  C19 UNL     1       8.205   0.668   0.174  1.00  0.00     0.177 C 
BRANCH  38  39
HETATM   39  O7  UNL     1       8.773  -0.620   0.093  1.00  0.00    -0.390 OA
ATOM     40  H7  UNL     1       9.656  -0.562   0.438  1.00  0.00     0.210 HD
ENDBRANCH  38  39
BRANCH  38  41
HETATM   41  C20 UNL     1       9.057   1.556  -0.709  1.00  0.00     0.198 C 
BRANCH  41  42
HETATM   42  O8  UNL     1      10.367   1.540  -0.222  1.00  0.00    -0.398 OA
ATOM     43  H8  UNL     1      10.901   2.097  -0.776  1.00  0.00     0.209 HD
ENDBRANCH  41  42
ENDBRANCH  38  41
ENDBRANCH  35  38
ENDBRANCH  33  35
ENDBRANCH  31  33
ENDBRANCH  27  31
ENDBRANCH  25  27
ENDBRANCH   1  23
TORSDOF 13
