REMARK  17 active torsions:
REMARK  status: ('A' for Active; 'I' for Inactive)
REMARK    1  A    between atoms: C2_2  and  C3_3 
REMARK    2  A    between atoms: C3_3  and  C4_4 
REMARK    3  A    between atoms: C5_5  and  O1_6 
REMARK    4  A    between atoms: C7_8  and  N1_9 
REMARK    5  A    between atoms: C10_16  and  C11_17 
REMARK    6  A    between atoms: C10_16  and  O4_20 
REMARK    7  A    between atoms: C11_17  and  O3_18 
REMARK    8  A    between atoms: O4_20  and  C12_21 
REMARK    9  A    between atoms: C13_22  and  N2_23 
REMARK   10  A    between atoms: C15_28  and  N3_29 
REMARK   11  A    between atoms: C16_33  and  O5_34 
REMARK   12  A    between atoms: O5_34  and  C17_35 
REMARK   13  A    between atoms: C18_36  and  N4_37 
REMARK   14  A    between atoms: C20_42  and  N5_43 
REMARK   15  A    between atoms: C22_48  and  N6_49 
REMARK   16  A    between atoms: C23_53  and  O6_54 
REMARK   17  A    between atoms: C24_56  and  O7_57 
ROOT
HETATM    1  C12 UNL     1      -0.674   1.369  -0.583  1.00  0.00     0.187 C 
HETATM    2  C13 UNL     1      -0.265   2.776  -0.602  1.00  0.00     0.217 C 
HETATM    3  C14 UNL     1       0.137   3.264   0.760  1.00  0.00     0.071 C 
HETATM    4  C15 UNL     1       1.409   2.618   1.259  1.00  0.00     0.217 C 
HETATM    5  C16 UNL     1       1.514   1.183   0.744  1.00  0.00     0.183 C 
HETATM    6  C24 UNL     1       0.151   0.631   0.401  1.00  0.00     0.180 C 
ENDROOT
BRANCH   5   7
HETATM    7  O5  UNL     1       2.087   0.439   1.725  1.00  0.00    -0.371 OA
BRANCH   7   8
HETATM    8  C17 UNL     1       3.332  -0.065   1.653  1.00  0.00     0.183 C 
HETATM    9  C18 UNL     1       3.386  -1.567   1.442  1.00  0.00     0.216 C 
HETATM   10  C19 UNL     1       4.789  -2.121   1.465  1.00  0.00     0.068 C 
HETATM   11  C20 UNL     1       5.727  -1.260   0.676  1.00  0.00     0.187 C 
HETATM   12  C21 UNL     1       6.309  -0.157   1.519  1.00  0.00     0.068 C 
HETATM   13  C22 UNL     1       5.606   0.067   2.799  1.00  0.00     0.216 C 
HETATM   14  C23 UNL     1       4.173   0.402   2.780  1.00  0.00     0.179 C 
BRANCH   9  15
HETATM   15  N4  UNL     1       2.897  -1.876   0.084  1.00  0.00    -0.072 N 
ATOM     16  H43 UNL     1       1.969  -1.491  -0.092  1.00  0.00     0.274 HD
ATOM     17  H42 UNL     1       3.403  -1.363  -0.638  1.00  0.00     0.274 HD
ATOM     18  H41 UNL     1       2.933  -2.885  -0.058  1.00  0.00     0.274 HD
ENDBRANCH   9  15
BRANCH  11  19
HETATM   19  N5  UNL     1       6.782  -2.128   0.154  1.00  0.00    -0.075 N 
ATOM     20  H53 UNL     1       7.252  -2.666   0.882  1.00  0.00     0.274 HD
ATOM     21  H52 UNL     1       6.420  -2.917  -0.381  1.00  0.00     0.274 HD
ATOM     22  H51 UNL     1       7.421  -1.542  -0.383  1.00  0.00     0.274 HD
ENDBRANCH  11  19
BRANCH  13  23
HETATM   23  N6  UNL     1       6.371   1.122   3.507  1.00  0.00    -0.072 N 
ATOM     24  H63 UNL     1       7.360   0.901   3.620  1.00  0.00     0.274 HD
ATOM     25  H62 UNL     1       6.496   1.972   2.957  1.00  0.00     0.274 HD
ATOM     26  H61 UNL     1       5.886   1.277   4.391  1.00  0.00     0.274 HD
ENDBRANCH  13  23
BRANCH  14  27
HETATM   27  O6  UNL     1       3.625   0.053   4.038  1.00  0.00    -0.391 OA
ATOM     28  H6  UNL     1       4.164   0.352   4.761  1.00  0.00     0.210 HD
ENDBRANCH  14  27
ENDBRANCH   7   8
ENDBRANCH   5   7
BRANCH   4  29
HETATM   29  N3  UNL     1       2.574   3.422   0.959  1.00  0.00    -0.072 N 
ATOM     30  H33 UNL     1       2.632   3.635  -0.037  1.00  0.00     0.274 HD
ATOM     31  H32 UNL     1       2.473   4.371   1.320  1.00  0.00     0.274 HD
ATOM     32  H31 UNL     1       3.432   2.986   1.296  1.00  0.00     0.274 HD
ENDBRANCH   4  29
BRANCH   6  33
HETATM   33  O7  UNL     1      -0.560   0.692   1.634  1.00  0.00    -0.390 OA
ATOM     34  H7  UNL     1      -0.031   0.219   2.265  1.00  0.00     0.210 HD
ENDBRANCH   6  33
BRANCH   1  35
HETATM   35  O4  UNL     1      -1.998   1.080  -0.601  1.00  0.00    -0.343 OA
BRANCH  35  36
HETATM   36  C10 UNL     1      -2.539   0.366  -1.644  1.00  0.00     0.192 C 
HETATM   37  C4  UNL     1      -4.019   0.216  -1.329  1.00  0.00     0.085 C 
HETATM   38  C5  UNL     1      -4.684  -0.842  -2.113  1.00  0.00     0.163 C 
HETATM   39  C7  UNL     1      -3.953  -2.160  -2.134  1.00  0.00     0.241 C 
HETATM   40  C8  UNL     1      -2.473  -1.994  -1.969  1.00  0.00     0.154 C 
HETATM   41  C9  UNL     1      -2.046  -2.938  -0.828  1.00  0.00     0.042 C 
HETATM   42  O2  UNL     1      -1.962  -0.812  -1.715  1.00  0.00    -0.345 OA
BRANCH  37  43
HETATM   43  C3  UNL     1      -4.297   0.089   0.125  1.00  0.00     0.039 C 
BRANCH  43  44
HETATM   44  C2  UNL     1      -5.688   0.170   0.551  1.00  0.00    -0.036 C 
HETATM   45  C1  UNL     1      -6.249  -0.794   1.268  1.00  0.00     0.007 C 
ENDBRANCH  43  44
ENDBRANCH  37  43
BRANCH  38  46
HETATM   46  O1  UNL     1      -5.982  -1.049  -1.717  1.00  0.00    -0.388 OA
HETATM   47  C6  UNL     1      -6.933  -0.742  -2.666  1.00  0.00     0.202 C 
ENDBRANCH  38  46
BRANCH  39  48
HETATM   48  N1  UNL     1      -4.525  -3.108  -1.202  1.00  0.00    -0.070 N 
ATOM     49  H13 UNL     1      -4.567  -2.722  -0.259  1.00  0.00     0.274 HD
ATOM     50  H12 UNL     1      -5.523  -3.235  -1.368  1.00  0.00     0.274 HD
ATOM     51  H11 UNL     1      -4.030  -4.000  -1.216  1.00  0.00     0.274 HD
ENDBRANCH  39  48
BRANCH  36  52
HETATM   52  C11 UNL     1      -2.532   1.207  -2.913  1.00  0.00     0.233 C 
BRANCH  52  53
HETATM   53  O3  UNL     1      -3.197   2.406  -2.638  1.00  0.00    -0.395 OA
ATOM     54  H3  UNL     1      -3.193   2.931  -3.430  1.00  0.00     0.209 HD
ENDBRANCH  52  53
ENDBRANCH  36  52
ENDBRANCH  35  36
ENDBRANCH   1  35
BRANCH   2  55
HETATM   55  N2  UNL     1       0.813   3.109  -1.500  1.00  0.00    -0.072 N 
ATOM     56  H23 UNL     1       1.620   2.516  -1.306  1.00  0.00     0.274 HD
ATOM     57  H22 UNL     1       0.583   2.803  -2.445  1.00  0.00     0.274 HD
ATOM     58  H21 UNL     1       1.098   4.088  -1.513  1.00  0.00     0.274 HD
ENDBRANCH   2  55
TORSDOF 17
