REMARK  11 active torsions:
REMARK  status: ('A' for Active; 'I' for Inactive)
REMARK    1  A    between atoms: N1_3  and  C3_5 
REMARK    2  A    between atoms: C4_6  and  C5_7 
REMARK    3  A    between atoms: N2_8  and  N3_10 
REMARK       I    between atoms: N3_10  and  C6_12 
REMARK       I    between atoms: C6_12  and  N5_16 
REMARK    4  A    between atoms: N5_16  and  N6_18 
REMARK       I    between atoms: N6_18  and  C7_19 
REMARK    5  A    between atoms: C7_19  and  C8_21 
REMARK    6  A    between atoms: C9_24  and  O2_25 
REMARK    7  A    between atoms: C16_37  and  S1_38 
REMARK    8  A    between atoms: S1_38  and  C17_39 
REMARK    9  A    between atoms: C17_39  and  C18_40 
REMARK   10  A    between atoms: C18_40  and  C19_42 
REMARK   11  A    between atoms: N12_47  and  N13_48 
ROOT
HETATM    1  C1  UNL     1       0.864  -1.630  -1.646  1.00  0.00     0.123 C 
HETATM    2  C2  UNL     1       1.538  -1.687  -0.624  1.00  0.00    -0.074 C 
HETATM    3  N1  UNL     1       2.296  -1.805   0.455  1.00  0.00    -0.309 N 
ATOM      4  H1  UNL     1       2.171  -2.641   1.026  1.00  0.00     0.177 HD
ENDROOT
BRANCH   3   5
HETATM    5  C3  UNL     1       3.256  -0.875   0.877  1.00  0.00     0.164 A 
HETATM    6  C4  UNL     1       3.454   0.435   0.613  1.00  0.00     0.098 A 
HETATM    7  N9  UNL     1       4.683   0.781   1.060  1.00  0.00    -0.331 N 
HETATM    8  C16 UNL     1       5.260  -0.256   1.613  1.00  0.00     0.168 A 
ATOM      9  H9  UNL     1       5.097   1.709   0.979  1.00  0.00     0.168 HD
HETATM   10  N12 UNL     1       4.407  -1.278   1.518  1.00  0.00    -0.221 N 
BRANCH   6  11
HETATM   11  C5  UNL     1       2.472   1.455   0.153  1.00  0.00     0.140 C 
HETATM   12  N2  UNL     1       1.248   1.264   0.087  1.00  0.00    -0.307 N 
ATOM     13  H2  UNL     1       0.849   0.364   0.356  1.00  0.00     0.186 HD
BRANCH  12  14
HETATM   14  N3  UNL     1       0.424   2.299  -0.361  1.00  0.00    -0.270 N 
HETATM   15  C6  UNL     1      -0.887   2.239   0.108  1.00  0.00     0.217 C 
HETATM   16  N4  UNL     1      -1.527   2.699   1.061  1.00  0.00    -0.368 N 
HETATM   17  N5  UNL     1      -1.692   1.284  -0.727  1.00  0.00    -0.199 N 
ATOM     18  H42 UNL     1      -0.980   3.347   1.628  1.00  0.00     0.159 HD
ATOM     19  H41 UNL     1      -2.487   2.655   1.404  1.00  0.00     0.159 HD
ATOM     20  H5  UNL     1      -1.275   0.513  -1.248  1.00  0.00     0.205 HD
ATOM     21  H3  UNL     1       0.755   3.038  -0.981  1.00  0.00     0.190 HD
BRANCH  17  22
HETATM   22  N6  UNL     1      -3.029   1.542  -0.725  1.00  0.00    -0.277 NA
HETATM   23  C7  UNL     1      -4.329   1.806  -0.724  1.00  0.00     0.367 C 
HETATM   24  O1  UNL     1      -4.935   2.884  -0.805  1.00  0.00    -0.247 OA
BRANCH  23  25
HETATM   25  C8  UNL     1      -5.290   0.674  -0.571  1.00  0.00     0.188 A 
HETATM   26  N7  UNL     1      -4.982  -0.627  -0.712  1.00  0.00    -0.325 N 
HETATM   27  C9  UNL     1      -5.939  -1.574  -0.483  1.00  0.00     0.168 A 
ATOM     28  H7  UNL     1      -4.040  -0.905  -0.988  1.00  0.00     0.168 HD
HETATM   29  C10 UNL     1      -7.220  -1.194  -0.114  1.00  0.00     0.092 A 
HETATM   30  C11 UNL     1      -8.210  -2.159   0.070  1.00  0.00     0.034 A 
HETATM   31  N8  UNL     1      -7.560   0.086   0.044  1.00  0.00    -0.283 N 
HETATM   32  C12 UNL     1      -9.475  -1.794   0.408  1.00  0.00     0.004 A 
HETATM   33  C13 UNL     1      -9.816  -0.455   0.578  1.00  0.00     0.018 A 
HETATM   34  C14 UNL     1      -8.826   0.442   0.379  1.00  0.00     0.101 A 
HETATM   35  C15 UNL     1      -6.599   0.998  -0.180  1.00  0.00     0.286 A 
HETATM   36  O3  UNL     1      -6.913   2.195  -0.040  1.00  0.00    -0.265 OA
BRANCH  27  37
HETATM   37  O2  UNL     1      -5.711  -2.928  -0.593  1.00  0.00    -0.344 OA
ATOM     38  H2  UNL     1      -6.377  -3.587  -0.434  1.00  0.00     0.219 HD
ENDBRANCH  27  37
ENDBRANCH  23  25
ENDBRANCH  17  22
ENDBRANCH  12  14
ENDBRANCH   6  11
BRANCH   8  39
HETATM   39  S1  UNL     1       6.918  -0.404   2.352  1.00  0.00    -0.084 SA
BRANCH  39  40
HETATM   40  C17 UNL     1       7.785   1.148   1.979  1.00  0.00     0.169 C 
BRANCH  40  41
HETATM   41  C18 UNL     1       8.070   1.095   0.470  1.00  0.00     0.199 C 
HETATM   42  O4  UNL     1       7.819   2.071  -0.221  1.00  0.00    -0.289 OA
BRANCH  41  43
HETATM   43  C19 UNL     1       8.654  -0.126  -0.070  1.00  0.00     0.157 C 
HETATM   44  N10 UNL     1       8.840  -1.166   0.645  1.00  0.00    -0.385 N 
ATOM     45 2H10 UNL     1       8.576  -1.226   1.629  1.00  0.00     0.157 HD
ATOM     46 1H10 UNL     1       9.249  -2.021   0.267  1.00  0.00     0.157 HD
HETATM   47  N11 UNL     1       9.024  -0.042  -1.450  1.00  0.00    -0.079 NA
ENDBRANCH  41  43
ENDBRANCH  40  41
ENDBRANCH  39  40
ENDBRANCH   8  39
BRANCH  10  48
HETATM   48  N13 UNL     1       4.591  -2.592   1.962  1.00  0.00    -0.335 N 
ATOM     49 2H13 UNL     1       3.939  -3.373   1.889  1.00  0.00     0.177 HD
ATOM     50 1H13 UNL     1       5.443  -2.890   2.437  1.00  0.00     0.177 HD
ENDBRANCH  10  48
ENDBRANCH   3   5
TORSDOF 11
