REMARK  5 active torsions:
REMARK  status: ('A' for Active; 'I' for Inactive)
REMARK    1  A    between atoms: C3_5  and  N2_6 
REMARK    2  A    between atoms: N2_6  and  C4_8 
REMARK    3  A    between atoms: C4_8  and  C5_9 
REMARK    4  A    between atoms: C5_9  and  N3_10 
REMARK    5  A    between atoms: C8_15  and  N5_16 
ROOT
HETATM    1  C1  UNL     1      -4.515   1.507  -0.498  1.00  0.00     0.070 C 
HETATM    2  C2  UNL     1      -3.353   0.612  -0.257  1.00  0.00     0.047 A 
HETATM    3  N1  UNL     1      -2.097   1.149  -0.249  1.00  0.00    -0.194 N 
ATOM      4  H1  UNL     1      -1.971   2.149  -0.407  1.00  0.00     0.184 HD
HETATM    5  C3  UNL     1      -1.032   0.368  -0.035  1.00  0.00     0.679 A 
HETATM    6  N4  UNL     1      -1.190  -0.943   0.172  1.00  0.00    -0.176 N 
ATOM      7  H4  UNL     1      -0.363  -1.518   0.332  1.00  0.00     0.186 HD
HETATM    8  C8  UNL     1      -2.405  -1.536   0.177  1.00  0.00     0.137 A 
HETATM    9  C9  UNL     1      -3.523  -0.737  -0.044  1.00  0.00     0.111 A 
HETATM   10  C10 UNL     1      -4.830  -1.328  -0.049  1.00  0.00     0.105 C 
HETATM   11  N6  UNL     1      -5.885  -1.807  -0.073  1.00  0.00    -0.191 NA
ENDROOT
BRANCH   8  12
HETATM   12  N5  UNL     1      -2.503  -2.782   0.377  1.00  0.00    -0.384 N 
ATOM     13  H52 UNL     1      -1.684  -3.368   0.539  1.00  0.00     0.157 HD
ATOM     14  H51 UNL     1      -3.420  -3.229   0.381  1.00  0.00     0.157 HD
ENDBRANCH   8  12
BRANCH   5  15
HETATM   15  N2  UNL     1       0.129   0.891  -0.030  1.00  0.00    -0.224 N 
ATOM     16  H2  UNL     1       0.243   1.892  -0.187  1.00  0.00     0.177 HD
BRANCH  15  17
HETATM   17  C4  UNL     1       1.284   0.054   0.200  1.00  0.00     0.168 C 
BRANCH  17  18
HETATM   18  C5  UNL     1       2.570   0.849   0.232  1.00  0.00     0.291 C 
BRANCH  18  19
HETATM   19  N3  UNL     1       3.691  -0.043   0.463  1.00  0.00     0.081 N 
HETATM   20  C6  UNL     1       3.881  -0.906  -0.703  1.00  0.00     0.309 C 
HETATM   21  C7  UNL     1       4.885   0.774   0.577  1.00  0.00     0.309 C 
ENDBRANCH  18  19
ENDBRANCH  17  18
ENDBRANCH  15  17
ENDBRANCH   5  15
TORSDOF 5
