REMARK  5 active torsions:
REMARK  status: ('A' for Active; 'I' for Inactive)
REMARK    1  A    between atoms: C2_2  and  C3_3 
REMARK    2  A    between atoms: C3_3  and  C4_4 
REMARK    3  A    between atoms: C4_4  and  N1_5 
REMARK    4  A    between atoms: C7_8  and  N2_9 
REMARK    5  A    between atoms: C9_14  and  N4_15 
ROOT
HETATM    1  N1  UNL     1       1.236   0.282  -1.129  1.00  0.00    -0.301 N 
HETATM    2  C5  UNL     1       0.496   1.288  -0.624  1.00  0.00     0.129 A 
HETATM    3  C6  UNL     1      -0.751   0.842  -0.298  1.00  0.00     0.071 A 
HETATM    4  C7  UNL     1      -1.898   1.404   0.240  1.00  0.00     0.132 A 
HETATM    5  N3  UNL     1      -3.015   0.691   0.455  1.00  0.00    -0.176 N 
ATOM      6  H3  UNL     1      -3.849   1.124   0.852  1.00  0.00     0.186 HD
HETATM    7  C9  UNL     1      -2.998  -0.610   0.131  1.00  0.00     0.680 A 
HETATM    8  N5  UNL     1      -1.904  -1.170  -0.389  1.00  0.00    -0.174 N 
ATOM      9  H5  UNL     1      -1.934  -2.162  -0.623  1.00  0.00     0.186 HD
HETATM   10  C11 UNL     1      -0.765  -0.497  -0.621  1.00  0.00     0.151 A 
HETATM   11  N6  UNL     1       0.446  -0.775  -1.113  1.00  0.00    -0.282 N 
ATOM     12  H6  UNL     1       0.728  -1.699  -1.439  1.00  0.00     0.189 HD
ENDROOT
BRANCH   1  13
HETATM   13  C4  UNL     1       2.591   0.435  -1.565  1.00  0.00     0.148 C 
BRANCH  13  14
HETATM   14  C3  UNL     1       3.611   0.193  -0.490  1.00  0.00     0.021 C 
BRANCH  14  15
HETATM   15  C2  UNL     1       3.553  -1.181   0.094  1.00  0.00    -0.003 C 
HETATM   16  C1  UNL     1       4.631  -1.281   1.158  1.00  0.00     0.005 C 
ENDBRANCH  14  15
ENDBRANCH  13  14
ENDBRANCH   1  13
BRANCH   4  17
HETATM   17  N2  UNL     1      -1.843   2.655   0.527  1.00  0.00    -0.379 N 
HETATM   18  C8  UNL     1      -2.947   3.401   1.096  1.00  0.00     0.147 C 
ATOM     19  H2  UNL     1      -0.971   3.152   0.344  1.00  0.00     0.160 HD
ENDBRANCH   4  17
BRANCH   7  20
HETATM   20  N4  UNL     1      -4.094  -1.295   0.345  1.00  0.00    -0.230 N 
HETATM   21  C10 UNL     1      -4.113  -2.708   0.006  1.00  0.00     0.165 C 
ATOM     22  H4  UNL     1      -4.919  -0.845   0.742  1.00  0.00     0.177 HD
ENDBRANCH   7  20
TORSDOF 5
