REMARK  8 active torsions:
REMARK  status: ('A' for Active; 'I' for Inactive)
REMARK    1  A    between atoms: N1_1  and  C1_5 
REMARK    2  A    between atoms: C1_5  and  C2_6 
REMARK    3  A    between atoms: C2_6  and  C3_7 
REMARK    4  A    between atoms: C3_7  and  C4_8 
REMARK    5  A    between atoms: C4_8  and  N2_9 
REMARK    6  A    between atoms: N5_19  and  C10_21 
REMARK    7  A    between atoms: C10_21  and  C11_22 
REMARK    8  A    between atoms: C11_22  and  N6_23 
ROOT
HETATM    1  N2  UNL     1      -0.727  -1.086   1.245  1.00  0.00    -0.338 N 
HETATM    2  C5  UNL     1      -1.374  -2.118   1.869  1.00  0.00     0.184 A 
HETATM    3  N3  UNL     1      -0.766  -3.276   1.604  1.00  0.00    -0.350 N 
ATOM      4  H3  UNL     1      -1.042  -4.197   1.943  1.00  0.00     0.166 HD
HETATM    5  C6  UNL     1       0.278  -2.999   0.807  1.00  0.00     0.065 A 
HETATM    6  C7  UNL     1       1.245  -3.807   0.230  1.00  0.00     0.049 A 
HETATM    7  C8  UNL     1       2.198  -3.205  -0.549  1.00  0.00     0.092 A 
HETATM    8  N4  UNL     1       2.211  -1.875  -0.759  1.00  0.00    -0.351 N 
ATOM      9  H4  UNL     1       2.941  -1.474  -1.347  1.00  0.00     0.166 HD
HETATM   10  C9  UNL     1       1.293  -1.062  -0.218  1.00  0.00     0.130 A 
HETATM   11  N5  UNL     1       1.342   0.178  -0.439  1.00  0.00    -0.373 N 
ATOM     12  H5  UNL     1       0.608   0.728   0.007  1.00  0.00     0.161 HD
HETATM   13  C12 UNL     1       0.306  -1.621   0.579  1.00  0.00     0.106 A 
ENDROOT
BRANCH   1  14
HETATM   14  C4  UNL     1      -1.126   0.313   1.320  1.00  0.00     0.130 C 
BRANCH  14  15
HETATM   15  C3  UNL     1      -2.097   0.574   0.189  1.00  0.00     0.022 C 
BRANCH  15  16
HETATM   16  C2  UNL     1      -2.566   2.017   0.187  1.00  0.00     0.029 C 
BRANCH  16  17
HETATM   17  C1  UNL     1      -3.528   2.160  -0.981  1.00  0.00     0.229 C 
BRANCH  17  18
HETATM   18  N1  UNL     1      -4.623   1.259  -0.787  1.00  0.00    -0.079 N 
ATOM     19  H13 UNL     1      -4.316   0.296  -0.650  1.00  0.00     0.274 HD
ATOM     20  H12 UNL     1      -5.082   1.391   0.115  1.00  0.00     0.274 HD
ATOM     21  H11 UNL     1      -5.269   1.355  -1.571  1.00  0.00     0.274 HD
ENDBRANCH  17  18
ENDBRANCH  16  17
ENDBRANCH  15  16
ENDBRANCH  14  15
ENDBRANCH   1  14
BRANCH  11  22
HETATM   22  C10 UNL     1       2.266   0.922  -1.216  1.00  0.00     0.148 C 
BRANCH  22  23
HETATM   23  C11 UNL     1       3.568   1.211  -0.492  1.00  0.00     0.249 C 
BRANCH  23  24
HETATM   24  N6  UNL     1       4.462   1.969  -1.334  1.00  0.00    -0.078 N 
ATOM     25  H63 UNL     1       4.622   1.507  -2.229  1.00  0.00     0.274 HD
ATOM     26  H62 UNL     1       4.024   2.823  -1.679  1.00  0.00     0.274 HD
ATOM     27  H61 UNL     1       5.337   2.163  -0.847  1.00  0.00     0.274 HD
ENDBRANCH  23  24
ENDBRANCH  22  23
ENDBRANCH  11  22
TORSDOF 8
