REMARK  7 active torsions:
REMARK  status: ('A' for Active; 'I' for Inactive)
REMARK    1  A    between atoms: C3_5  and  N2_6 
REMARK    2  A    between atoms: N2_6  and  C4_8 
REMARK    3  A    between atoms: C4_8  and  C5_9 
REMARK    4  A    between atoms: C5_9  and  N3_10 
REMARK    5  A    between atoms: N3_10  and  C6_13 
REMARK    6  A    between atoms: C6_13  and  C7_14 
REMARK    7  A    between atoms: C7_14  and  C8_15 
ROOT
HETATM    1  N3  UNL     1       0.161   0.257  -0.599  1.00  0.00    -0.073 N 
ATOM      2  H31 UNL     1       0.676   0.003   0.244  1.00  0.00     0.277 HD
ATOM      3  H32 UNL     1      -0.126   1.202  -0.344  1.00  0.00     0.277 HD
ENDROOT
BRANCH   1   4
HETATM    4  C5  UNL     1      -0.987  -0.595  -0.770  1.00  0.00     0.251 C 
BRANCH   4   5
HETATM    5  C4  UNL     1      -1.804  -0.507   0.525  1.00  0.00     0.148 C 
BRANCH   5   6
HETATM    6  N2  UNL     1      -2.977  -1.306   0.494  1.00  0.00    -0.374 N 
ATOM      7  H2  UNL     1      -2.951  -2.238   0.908  1.00  0.00     0.161 HD
BRANCH   6   8
HETATM    8  C3  UNL     1      -4.066  -0.895  -0.037  1.00  0.00     0.116 A 
HETATM    9  N1  UNL     1      -4.233   0.302  -0.613  1.00  0.00    -0.350 N 
HETATM   10  C2  UNL     1      -5.440   0.632  -1.147  1.00  0.00     0.106 A 
ATOM     11  H1  UNL     1      -3.458   0.964  -0.651  1.00  0.00     0.166 HD
HETATM   12  C1  UNL     1      -6.523  -0.217  -1.126  1.00  0.00     0.104 A 
HETATM   13  N6  UNL     1      -6.353  -1.413  -0.549  1.00  0.00    -0.371 N 
HETATM   14  C12 UNL     1      -5.153  -1.750  -0.015  1.00  0.00     0.136 A 
ATOM     15  H6  UNL     1      -7.129  -2.073  -0.511  1.00  0.00     0.164 HD
ENDBRANCH   6   8
ENDBRANCH   5   6
ENDBRANCH   4   5
ENDBRANCH   1   4
BRANCH   1  16
HETATM   16  C6  UNL     1       1.029   0.281  -1.734  1.00  0.00     0.239 C 
BRANCH  16  17
HETATM   17  C7  UNL     1       2.187   1.221  -1.400  1.00  0.00     0.103 C 
BRANCH  17  18
HETATM   18  C8  UNL     1       2.921   0.725  -0.200  1.00  0.00     0.074 C 
HETATM   19  N4  UNL     1       2.554  -0.357   0.395  1.00  0.00    -0.380 N 
HETATM   20  C9  UNL     1       3.294  -0.790   1.546  1.00  0.00     0.122 C 
ATOM     21  H4  UNL     1       1.756  -0.894   0.056  1.00  0.00     0.160 HD
HETATM   22  C10 UNL     1       4.771  -0.601   1.409  1.00  0.00     0.039 C 
HETATM   23  C11 UNL     1       5.155   0.775   0.952  1.00  0.00     0.122 C 
HETATM   24  N5  UNL     1       4.037   1.437   0.310  1.00  0.00    -0.380 N 
ATOM     25  H5  UNL     1       4.053   2.453   0.222  1.00  0.00     0.160 HD
ENDBRANCH  17  18
ENDBRANCH  16  17
ENDBRANCH   1  16
TORSDOF 7
