REMARK  7 active torsions:
REMARK  status: ('A' for Active; 'I' for Inactive)
REMARK    1  A    between atoms: C1_4  and  C2_5 
REMARK    2  A    between atoms: C1_4  and  N3_15 
REMARK    3  A    between atoms: C2_5  and  C3_6 
REMARK    4  A    between atoms: C3_6  and  C4_7 
REMARK    5  A    between atoms: C4_7  and  C5_8 
REMARK    6  A    between atoms: C5_8  and  N2_9 
REMARK    7  A    between atoms: N3_15  and  C10_17 
ROOT
HETATM    1  N1  UNL     1      -2.452   2.293   0.429  1.00  0.00    -0.389 N 
ATOM      2  H11 UNL     1      -3.334   2.632   0.813  1.00  0.00     0.157 HD
ATOM      3  H12 UNL     1      -1.692   2.948   0.246  1.00  0.00     0.157 HD
HETATM    4  C1  UNL     1      -2.299   1.056   0.177  1.00  0.00     0.071 C 
ENDROOT
BRANCH   4   5
HETATM    5  C2  UNL     1      -1.025   0.566  -0.377  1.00  0.00     0.075 C 
BRANCH   5   6
HETATM    6  C3  UNL     1      -0.401  -0.320   0.668  1.00  0.00     0.009 C 
BRANCH   6   7
HETATM    7  C4  UNL     1       0.883  -0.898   0.194  1.00  0.00     0.031 C 
BRANCH   7   8
HETATM    8  C5  UNL     1       1.871   0.158  -0.132  1.00  0.00     0.272 C 
BRANCH   8   9
HETATM    9  N2  UNL     1       3.118  -0.443  -0.560  1.00  0.00     0.092 N 
HETATM   10  C6  UNL     1       3.798  -1.075   0.488  1.00  0.00     0.298 C 
HETATM   11  C7  UNL     1       5.153  -0.549   0.831  1.00  0.00     0.198 C 
HETATM   12  O1  UNL     1       5.455   0.693   0.410  1.00  0.00    -0.388 OA
HETATM   13  C8  UNL     1       4.699   1.317  -0.514  1.00  0.00     0.198 C 
HETATM   14  C9  UNL     1       3.835   0.471  -1.386  1.00  0.00     0.298 C 
ENDBRANCH   8   9
ENDBRANCH   7   8
ENDBRANCH   6   7
ENDBRANCH   5   6
ENDBRANCH   4   5
BRANCH   4  15
HETATM   15  N3  UNL     1      -3.342   0.158   0.428  1.00  0.00    -0.364 N 
ATOM     16  H3  UNL     1      -3.529  -0.124   1.390  1.00  0.00     0.162 HD
BRANCH  15  17
HETATM   17  C10 UNL     1      -4.171  -0.388  -0.640  1.00  0.00     0.186 A 
HETATM   18  C11 UNL     1      -4.892   0.609  -1.427  1.00  0.00     0.094 A 
HETATM   19  N4  UNL     1      -6.066   0.143  -0.823  1.00  0.00    -0.357 N 
HETATM   20  C12 UNL     1      -5.491  -0.722  -0.132  1.00  0.00     0.120 A 
ATOM     21  H4  UNL     1      -7.045   0.415  -0.915  1.00  0.00     0.166 HD
HETATM   22  N5  UNL     1      -5.857  -1.739   0.844  1.00  0.00    -0.085 NA
ENDBRANCH  15  17
ENDBRANCH   4  15
TORSDOF 7
