REMARK  9 active torsions:
REMARK  status: ('A' for Active; 'I' for Inactive)
REMARK    1  A    between atoms: C2_3  and  C5_6 
REMARK    2  A    between atoms: C8_9  and  C9_11 
REMARK       I    between atoms: C9_11  and  N2_13 
REMARK    3  A    between atoms: C12_16  and  C13_17 
REMARK    4  A    between atoms: C13_17  and  N3_18 
REMARK    5  A    between atoms: C13_17  and  C14_22 
REMARK    6  A    between atoms: C14_22  and  C15_23 
REMARK       I    between atoms: C15_23  and  N4_25 
REMARK    7  A    between atoms: C19_29  and  C20_30 
REMARK    8  A    between atoms: C21_31  and  C22_32 
REMARK    9  A    between atoms: C22_32  and  N5_33 
ROOT
HETATM    1  C1  UNL     1      -8.901  -1.697   0.946  1.00  0.00     0.222 C 
HETATM    2  N1  UNL     1      -8.480  -0.652   0.677  1.00  0.00    -0.461 NA
HETATM    3  C2  UNL     1      -7.985   0.630   0.357  1.00  0.00     0.088 C 
HETATM    4  C3  UNL     1      -8.765   1.182  -0.797  1.00  0.00     0.054 C 
HETATM    5  C4  UNL     1      -8.130   1.587   1.524  1.00  0.00     0.054 C 
ENDROOT
BRANCH   3   6
HETATM    6  C5  UNL     1      -6.510   0.504   0.048  1.00  0.00     0.030 C 
HETATM    7  C6  UNL     1      -6.246  -0.419  -1.111  1.00  0.00     0.012 C 
HETATM    8  C7  UNL     1      -4.768  -0.781  -0.949  1.00  0.00     0.054 C 
HETATM    9  C8  UNL     1      -4.545  -0.819   0.562  1.00  0.00     0.184 C 
HETATM   10  F1  UNL     1      -4.459  -2.143   1.002  1.00  0.00    -0.233 F 
HETATM   11  C25 UNL     1      -5.737  -0.123   1.160  1.00  0.00     0.061 C 
BRANCH   9  12
HETATM   12  C9  UNL     1      -3.290  -0.084   0.854  1.00  0.00     0.260 C 
HETATM   13  O1  UNL     1      -3.389   0.922   1.633  1.00  0.00    -0.270 OA
HETATM   14  N2  UNL     1      -2.036  -0.471   0.300  1.00  0.00    -0.349 N 
HETATM   15  C10 UNL     1      -1.854  -1.590  -0.582  1.00  0.00     0.126 C 
HETATM   16  C24 UNL     1      -0.807   0.211   0.557  1.00  0.00     0.132 C 
HETATM   17  C11 UNL     1      -0.376  -1.747  -0.691  1.00  0.00     0.028 C 
HETATM   18  C12 UNL     1       0.311  -0.643   0.013  1.00  0.00     0.036 C 
BRANCH  18  19
HETATM   19  C13 UNL     1       1.214   0.189  -0.845  1.00  0.00     0.198 C 
BRANCH  19  20
HETATM   20  N3  UNL     1       0.432   0.787  -1.909  1.00  0.00    -0.074 N 
ATOM     21  H33 UNL     1      -0.086   0.093  -2.448  1.00  0.00     0.274 HD
ATOM     22  H32 UNL     1      -0.365   1.316  -1.555  1.00  0.00     0.274 HD
ATOM     23  H31 UNL     1       1.047   1.354  -2.493  1.00  0.00     0.274 HD
ENDBRANCH  19  20
BRANCH  19  24
HETATM   24  C14 UNL     1       2.349  -0.542  -1.451  1.00  0.00     0.136 C 
BRANCH  24  25
HETATM   25  C15 UNL     1       3.265  -1.165  -0.464  1.00  0.00     0.221 C 
HETATM   26  O2  UNL     1       2.908  -2.279  -0.003  1.00  0.00    -0.273 OA
HETATM   27  N4  UNL     1       4.464  -0.588  -0.038  1.00  0.00    -0.350 N 
HETATM   28  C16 UNL     1       5.038   0.691  -0.457  1.00  0.00     0.131 C 
HETATM   29  C23 UNL     1       5.388  -1.160   0.919  1.00  0.00     0.143 C 
HETATM   30  C17 UNL     1       5.532   1.204   0.904  1.00  0.00     0.017 C 
HETATM   31  C18 UNL     1       6.450   2.373   0.763  1.00  0.00     0.013 C 
HETATM   32  C19 UNL     1       6.284  -0.044   1.387  1.00  0.00     0.088 C 
BRANCH  32  33
HETATM   33  C20 UNL     1       7.568  -0.026   0.658  1.00  0.00    -0.098 C 
HETATM   34  C21 UNL     1       8.617   0.006   0.050  1.00  0.00    -0.079 C 
BRANCH  34  35
HETATM   35  C22 UNL     1       9.868   0.070  -0.681  1.00  0.00     0.323 C 
BRANCH  35  36
HETATM   36  N5  UNL     1      10.871  -0.734  -0.005  1.00  0.00    -0.069 N 
ATOM     37  H53 UNL     1      10.983  -0.466   0.973  1.00  0.00     0.275 HD
ATOM     38  H52 UNL     1      10.560  -1.694   0.140  1.00  0.00     0.275 HD
ATOM     39  H51 UNL     1      11.751  -0.689  -0.519  1.00  0.00     0.275 HD
ENDBRANCH  35  36
ENDBRANCH  34  35
ENDBRANCH  32  33
ENDBRANCH  24  25
ENDBRANCH  19  24
ENDBRANCH  18  19
ENDBRANCH   9  12
ENDBRANCH   3   6
TORSDOF 9
