REMARK  5 active torsions:
REMARK  status: ('A' for Active; 'I' for Inactive)
REMARK    1  A    between atoms: C2_2  and  C4_4 
REMARK    2  A    between atoms: C4_4  and  C5_6 
REMARK       I    between atoms: C5_6  and  N1_8 
REMARK    3  A    between atoms: N1_8  and  C6_10 
REMARK    4  A    between atoms: C7_11  and  C8_12 
REMARK       I    between atoms: N2_15  and  C9_16 
REMARK    5  A    between atoms: C9_16  and  C10_18 
ROOT
HETATM    1  C6  UNL     1      -0.644  -0.330   0.516  1.00  0.00     0.052 C 
HETATM    2  C7  UNL     1       0.339   0.583   0.507  1.00  0.00     0.138 C 
HETATM    3  N2  UNL     1       1.691   0.064   0.392  1.00  0.00    -0.309 N 
HETATM    4  C9  UNL     1       2.606   0.581  -0.533  1.00  0.00     0.228 C 
HETATM    5  O4  UNL     1       2.307   1.451  -1.366  1.00  0.00    -0.273 OA
HETATM    6  C14 UNL     1       2.098  -1.066   1.207  1.00  0.00     0.153 C 
HETATM    7  C15 UNL     1       0.997  -2.080   1.304  1.00  0.00     0.137 C 
HETATM    8  C16 UNL     1      -0.245  -1.768   0.544  1.00  0.00     0.072 C 
HETATM    9  C17 UNL     1       0.249  -2.378  -0.713  1.00  0.00     0.153 C 
HETATM   10  S1  UNL     1       1.244  -3.496   0.265  1.00  0.00     0.151 S 
HETATM   11  O5  UNL     1       0.530  -4.727   0.694  1.00  0.00    -0.227 OA
HETATM   12  O6  UNL     1       2.637  -3.680  -0.229  1.00  0.00    -0.227 OA
ENDROOT
BRANCH   1  13
HETATM   13  N1  UNL     1      -1.987   0.087   0.556  1.00  0.00    -0.327 N 
HETATM   14  C5  UNL     1      -3.149  -0.732   0.556  1.00  0.00     0.236 C 
HETATM   15  O1  UNL     1      -3.092  -1.960   0.517  1.00  0.00    -0.272 OA
ATOM     16  H1  UNL     1      -2.145   1.094   0.589  1.00  0.00     0.168 HD
BRANCH  14  17
HETATM   17  C4  UNL     1      -4.523  -0.132   0.603  1.00  0.00     0.153 C 
HETATM   18 BR1  UNL     1      -4.609   1.279   1.945  1.00  0.00    -0.081 Br
BRANCH  17  19
HETATM   19  C2  UNL     1      -4.962   0.476  -0.689  1.00  0.00     0.001 C 
HETATM   20  C1  UNL     1      -6.388   1.010  -0.589  1.00  0.00     0.011 C 
HETATM   21  C3  UNL     1      -4.114   1.608  -1.190  1.00  0.00     0.011 C 
ENDBRANCH  17  19
ENDBRANCH  14  17
ENDBRANCH   1  13
BRANCH   2  22
HETATM   22  C8  UNL     1       0.115   1.992   0.543  1.00  0.00     0.229 C 
HETATM   23  O2  UNL     1      -0.939   2.625   0.547  1.00  0.00    -0.643 OA
HETATM   24  O3  UNL     1       1.247   2.860   0.588  1.00  0.00    -0.643 OA
ENDBRANCH   2  22
BRANCH   4  25
HETATM   25  C10 UNL     1       4.030   0.120  -0.588  1.00  0.00     0.078 C 
HETATM   26  C11 UNL     1       4.833   0.416   0.674  1.00  0.00     0.014 C 
HETATM   27  C12 UNL     1       5.980   0.806  -0.237  1.00  0.00     0.002 C 
HETATM   28  C13 UNL     1       4.952   1.075  -1.314  1.00  0.00     0.014 C 
ENDBRANCH   4  25
TORSDOF 5
