REMARK  5 active torsions:
REMARK  status: ('A' for Active; 'I' for Inactive)
REMARK    1  A    between atoms: C2_2  and  C3_3 
REMARK    2  A    between atoms: N2_8  and  C6_9 
REMARK    3  A    between atoms: C6_9  and  C7_10 
REMARK    4  A    between atoms: C11_14  and  C12_16 
REMARK       I    between atoms: C12_16  and  N3_18 
REMARK    5  A    between atoms: N3_18  and  C13_20 
REMARK       I    between atoms: N5_26  and  C18_27 
ROOT
HETATM    1  C13 UNL     1       3.298  -0.104   1.354  1.00  0.00     0.123 C 
HETATM    2  C14 UNL     1       3.956   0.156   2.654  1.00  0.00     0.091 C 
HETATM    3  N4  UNL     1       4.450   0.359   3.673  1.00  0.00    -0.195 NA
HETATM    4  C15 UNL     1       3.802  -1.404   0.801  1.00  0.00     0.048 C 
HETATM    5  C16 UNL     1       4.765  -1.233  -0.343  1.00  0.00     0.023 C 
HETATM    6  C17 UNL     1       6.043  -0.552   0.080  1.00  0.00     0.126 C 
HETATM    7  N5  UNL     1       5.857   0.866  -0.057  1.00  0.00    -0.352 N 
HETATM    8  C18 UNL     1       6.730   1.508  -0.957  1.00  0.00     0.215 C 
HETATM    9  C19 UNL     1       7.764   0.737  -1.696  1.00  0.00     0.117 C 
HETATM   10  O2  UNL     1       6.684   2.759  -1.182  1.00  0.00    -0.274 OA
HETATM   11  C20 UNL     1       4.895   1.695   0.611  1.00  0.00     0.129 C 
HETATM   12  C21 UNL     1       3.535   1.072   0.466  1.00  0.00     0.066 C 
ENDROOT
BRANCH   1  13
HETATM   13  N3  UNL     1       1.864  -0.251   1.601  1.00  0.00    -0.337 N 
HETATM   14  C12 UNL     1       0.946  -0.501   0.554  1.00  0.00     0.243 C 
HETATM   15  O1  UNL     1       1.375  -0.599  -0.621  1.00  0.00    -0.271 OA
ATOM     16  H3  UNL     1       1.516  -0.171   2.556  1.00  0.00     0.164 HD
BRANCH  14  17
HETATM   17  C11 UNL     1      -0.499  -0.646   0.832  1.00  0.00     0.127 C 
HETATM   18  C10 UNL     1      -1.106   0.574   1.470  1.00  0.00     0.095 C 
HETATM   19  C5  UNL     1      -2.463   0.682   0.868  1.00  0.00     0.036 A 
HETATM   20  C4  UNL     1      -2.571  -0.178  -0.192  1.00  0.00    -0.007 A 
HETATM   21  N1  UNL     1      -3.628   1.318   0.984  1.00  0.00    -0.302 N 
HETATM   22  C3  UNL     1      -3.862   0.001  -0.677  1.00  0.00     0.036 A 
HETATM   23  C22 UNL     1      -1.300  -0.940  -0.398  1.00  0.00     0.078 C 
HETATM   24  N2  UNL     1      -4.495   0.927   0.063  1.00  0.00    -0.295 N 
ATOM     25  H1  UNL     1      -3.828   2.021   1.696  1.00  0.00     0.186 HD
HETATM   26 CL1  UNL     1      -0.694  -2.047   1.942  1.00  0.00    -0.108 Cl
BRANCH  22  27
HETATM   27  C2  UNL     1      -4.383  -0.764  -1.848  1.00  0.00     0.055 C 
HETATM   28  C1  UNL     1      -4.694  -2.178  -1.346  1.00  0.00     0.011 C 
ENDBRANCH  22  27
BRANCH  24  29
HETATM   29  C6  UNL     1      -5.856   1.395  -0.121  1.00  0.00     0.153 C 
BRANCH  29  30
HETATM   30  C7  UNL     1      -6.841   0.570   0.672  1.00  0.00     0.005 A 
HETATM   31  C8  UNL     1      -8.288   1.037   0.501  1.00  0.00     0.007 A 
HETATM   32  C9  UNL     1      -7.825  -0.310   0.037  1.00  0.00     0.007 A 
ENDBRANCH  29  30
ENDBRANCH  24  29
ENDBRANCH  14  17
ENDBRANCH   1  13
TORSDOF 5
