REMARK  8 active torsions:
REMARK  status: ('A' for Active; 'I' for Inactive)
REMARK    1  A    between atoms: C2_2  and  N1_3 
REMARK    2  A    between atoms: C2_2  and  C8_12 
REMARK       I    between atoms: N1_3  and  C3_5 
REMARK    3  A    between atoms: C3_5  and  O2_7 
REMARK    4  A    between atoms: O2_7  and  C4_8 
REMARK       I    between atoms: C8_12  and  N2_14 
REMARK    5  A    between atoms: C15_21  and  C16_22 
REMARK    6  A    between atoms: C16_22  and  O5_24 
REMARK    7  A    between atoms: O5_24  and  C17_25 
REMARK    8  A    between atoms: C17_25  and  C18_26 
ROOT
HETATM    1  C8  UNL     1      -1.150  -2.104   0.143  1.00  0.00     0.243 C 
HETATM    2  O3  UNL     1      -1.962  -3.033   0.446  1.00  0.00    -0.271 OA
HETATM    3  N2  UNL     1       0.178  -2.130   0.628  1.00  0.00    -0.330 N 
HETATM    4  C9  UNL     1       0.745  -3.187   1.435  1.00  0.00     0.093 A 
HETATM    5  C10 UNL     1       0.480  -3.159   2.895  1.00  0.00     0.033 A 
HETATM    6  C11 UNL     1       1.748  -2.560   2.342  1.00  0.00     0.021 A 
HETATM    7  C12 UNL     1       1.779  -1.112   1.908  1.00  0.00    -0.012 C 
HETATM    8  C13 UNL     1       3.210  -0.665   1.952  1.00  0.00     0.018 C 
HETATM    9  C14 UNL     1       0.947  -0.211   2.751  1.00  0.00     0.018 C 
HETATM   10  C15 UNL     1       1.206  -1.145   0.494  1.00  0.00     0.195 C 
ENDROOT
BRANCH   1  11
HETATM   11  C2  UNL     1      -1.669  -1.009  -0.727  1.00  0.00     0.175 C 
HETATM   12  C1  UNL     1      -1.325  -1.331  -2.189  1.00  0.00     0.042 C 
BRANCH  11  13
HETATM   13  N1  UNL     1      -3.117  -1.061  -0.676  1.00  0.00    -0.324 N 
HETATM   14  C3  UNL     1      -3.888   0.099  -0.419  1.00  0.00     0.362 C 
HETATM   15  O1  UNL     1      -3.262   1.173  -0.248  1.00  0.00    -0.238 OA
ATOM     16  H1  UNL     1      -3.590  -1.952  -0.828  1.00  0.00     0.165 HD
BRANCH  14  17
HETATM   17  O2  UNL     1      -5.264   0.138  -0.339  1.00  0.00    -0.294 OA
BRANCH  17  18
HETATM   18  C4  UNL     1      -5.887   1.382  -0.076  1.00  0.00     0.061 C 
HETATM   19  C5  UNL     1      -7.378   1.145   0.018  1.00  0.00     0.046 C 
HETATM   20  C6  UNL     1      -5.415   2.031   1.176  1.00  0.00     0.046 C 
HETATM   21  C7  UNL     1      -5.653   2.343  -1.230  1.00  0.00     0.046 C 
ENDBRANCH  17  18
ENDBRANCH  14  17
ENDBRANCH  11  13
ENDBRANCH   1  11
BRANCH  10  22
HETATM   22  C16 UNL     1       2.241  -1.424  -0.507  1.00  0.00     0.283 C 
HETATM   23  O4  UNL     1       2.353  -2.512  -1.115  1.00  0.00    -0.263 OA
BRANCH  22  24
HETATM   24  O5  UNL     1       3.141  -0.418  -0.792  1.00  0.00    -0.315 OA
BRANCH  24  25
HETATM   25  C17 UNL     1       4.201  -0.477  -1.707  1.00  0.00     0.217 C 
BRANCH  25  26
HETATM   26  C18 UNL     1       4.897   0.834  -1.700  1.00  0.00    -0.034 A 
HETATM   27  C19 UNL     1       4.422   1.833  -0.902  1.00  0.00     0.012 A 
HETATM   28  C20 UNL     1       5.023   3.049  -0.874  1.00  0.00     0.043 A 
HETATM   29  C21 UNL     1       6.135   3.329  -1.647  1.00  0.00     0.116 A 
HETATM   30  F1  UNL     1       6.722   4.546  -1.613  1.00  0.00    -0.206 F 
HETATM   31  C22 UNL     1       6.621   2.312  -2.461  1.00  0.00     0.043 A 
HETATM   32  C23 UNL     1       5.997   1.091  -2.473  1.00  0.00     0.012 A 
ENDBRANCH  25  26
ENDBRANCH  24  25
ENDBRANCH  22  24
ENDBRANCH  10  22
TORSDOF 8
