REMARK  6 active torsions:
REMARK  status: ('A' for Active; 'I' for Inactive)
REMARK    1  A    between atoms: N1_2  and  C2_3 
REMARK    2  A    between atoms: N1_2  and  C7_10 
REMARK    3  A    between atoms: C2_3  and  C3_4 
REMARK    4  A    between atoms: C15_18  and  C16_19 
REMARK       I    between atoms: C16_19  and  N2_21 
REMARK    5  A    between atoms: N2_21  and  C17_23 
REMARK    6  A    between atoms: C17_23  and  C18_24 
ROOT
HETATM    1  C7  UNL     1       3.014  -0.741   0.180  1.00  0.00     0.081 C 
HETATM    2  C8  UNL     1       2.588   0.084  -1.017  1.00  0.00     0.026 C 
HETATM    3  C9  UNL     1       1.250   0.700  -0.899  1.00  0.00     0.017 C 
HETATM    4  C10 UNL     1       0.396   0.202   0.232  1.00  0.00     0.017 C 
HETATM    5  C11 UNL     1       0.361   1.199   1.387  1.00  0.00     0.015 C 
HETATM    6  C12 UNL     1      -0.394   2.377   0.785  1.00  0.00     0.008 C 
HETATM    7  C13 UNL     1      -1.146   1.830  -0.410  1.00  0.00     0.018 C 
HETATM    8  C14 UNL     1      -2.615   2.060  -0.183  1.00  0.00     0.048 C 
HETATM    9  C15 UNL     1      -3.041   0.855   0.577  1.00  0.00     0.214 C 
HETATM   10  O4  UNL     1      -1.975  -0.010   0.729  1.00  0.00    -0.370 OA
HETATM   11  C22 UNL     1      -1.044   0.326  -0.241  1.00  0.00     0.138 C 
HETATM   12  C23 UNL     1       0.628  -1.195   0.658  1.00  0.00     0.183 C 
HETATM   13  F1  UNL     1      -0.353  -2.050   0.128  1.00  0.00    -0.248 F 
HETATM   14  C24 UNL     1       1.957  -1.789   0.379  1.00  0.00     0.063 C 
ENDROOT
BRANCH   1  15
HETATM   15  N1  UNL     1       4.316  -1.225  -0.013  1.00  0.00    -0.410 N 
HETATM   16  C1  UNL     1       4.611  -2.098  -1.063  1.00  0.00     0.143 C 
BRANCH  15  17
HETATM   17  C2  UNL     1       5.193  -1.205   1.093  1.00  0.00     0.150 C 
BRANCH  17  18
HETATM   18  C3  UNL     1       6.548  -0.644   0.816  1.00  0.00     0.162 C 
HETATM   19  C4  UNL     1       6.523   0.825   0.435  1.00  0.00     0.201 C 
HETATM   20  O1  UNL     1       7.837   1.265   0.577  1.00  0.00    -0.386 OA
HETATM   21  C5  UNL     1       8.627   0.659  -0.357  1.00  0.00     0.193 C 
HETATM   22  C6  UNL     1       8.410  -0.794  -0.561  1.00  0.00     0.194 C 
HETATM   23  O2  UNL     1       7.242  -1.324  -0.150  1.00  0.00    -0.380 OA
ENDBRANCH  17  18
ENDBRANCH  15  17
ENDBRANCH   1  15
BRANCH   9  24
HETATM   24  C16 UNL     1      -4.233   0.188  -0.083  1.00  0.00     0.250 C 
HETATM   25  O3  UNL     1      -4.068  -1.003  -0.335  1.00  0.00    -0.270 OA
HETATM   26  N2  UNL     1      -5.346   1.011  -0.314  1.00  0.00    -0.338 N 
ATOM     27  H2  UNL     1      -5.256   1.987  -0.031  1.00  0.00     0.167 HD
BRANCH  26  28
HETATM   28  C17 UNL     1      -6.569   0.637  -0.892  1.00  0.00     0.072 C 
BRANCH  28  29
HETATM   29  C18 UNL     1      -7.478  -0.304  -0.228  1.00  0.00    -0.019 C 
HETATM   30  C19 UNL     1      -7.023  -1.680   0.054  1.00  0.00     0.020 C 
HETATM   31  C20 UNL     1      -8.759  -0.451  -1.093  1.00  0.00     0.020 C 
HETATM   32  C21 UNL     1      -8.034   0.320   1.082  1.00  0.00     0.020 C 
ENDBRANCH  28  29
ENDBRANCH  26  28
ENDBRANCH   9  24
TORSDOF 6
