REMARK  6 active torsions:
REMARK  status: ('A' for Active; 'I' for Inactive)
REMARK    1  A    between atoms: O1_2  and  C2_3 
REMARK    2  A    between atoms: C14_15  and  C15_16 
REMARK    3  A    between atoms: C15_16  and  O2_17 
REMARK       I    between atoms: N1_20  and  C17_21 
REMARK    4  A    between atoms: C17_21  and  C18_23 
REMARK    5  A    between atoms: C18_23  and  C19_24 
REMARK    6  A    between atoms: C19_24  and  N2_25 
ROOT
HETATM    1  C2  UNL     1      -3.029   1.203  -2.263  1.00  0.00     0.069 A 
HETATM    2  C3  UNL     1      -2.065   2.157  -2.022  1.00  0.00     0.044 A 
HETATM    3  C4  UNL     1      -1.279   2.050  -0.857  1.00  0.00    -0.045 A 
HETATM    4  C5  UNL     1      -1.502   1.010  -0.015  1.00  0.00    -0.021 A 
HETATM    5  C6  UNL     1      -2.426   0.065  -0.213  1.00  0.00    -0.037 A 
HETATM    6  C7  UNL     1      -3.220   0.163  -1.379  1.00  0.00     0.045 A 
HETATM    7  C8  UNL     1      -2.366  -0.886   0.933  1.00  0.00    -0.005 C 
HETATM    8  C9  UNL     1      -2.392  -2.260   0.336  1.00  0.00     0.015 C 
HETATM    9  C10 UNL     1      -3.778  -2.835   0.487  1.00  0.00     0.001 C 
HETATM   10  C11 UNL     1      -3.970  -2.990   1.989  1.00  0.00     0.000 C 
HETATM   11  C12 UNL     1      -4.237  -1.601   2.512  1.00  0.00     0.001 C 
HETATM   12  C13 UNL     1      -3.458  -0.531   1.854  1.00  0.00     0.015 C 
HETATM   13  C14 UNL     1      -0.942  -0.645   1.416  1.00  0.00     0.050 C 
HETATM   14  C16 UNL     1      -0.701   0.764   1.252  1.00  0.00     0.128 C 
HETATM   15  N1  UNL     1       0.581   1.338   0.956  1.00  0.00    -0.342 N 
HETATM   16  C17 UNL     1       1.803   0.745   0.860  1.00  0.00     0.222 C 
HETATM   17  O3  UNL     1       2.028  -0.477   0.981  1.00  0.00    -0.273 OA
HETATM   18  C24 UNL     1       0.490   2.784   0.648  1.00  0.00     0.131 C 
HETATM   19  C25 UNL     1      -0.240   3.069  -0.639  1.00  0.00     0.059 C 
ENDROOT
BRANCH  16  20
HETATM   20  C18 UNL     1       3.038   1.575   0.586  1.00  0.00     0.122 C 
BRANCH  20  21
HETATM   21  C19 UNL     1       4.246   0.673   0.525  1.00  0.00     0.126 C 
BRANCH  21  22
HETATM   22  N2  UNL     1       4.164  -0.318  -0.496  1.00  0.00    -0.408 N 
HETATM   23  C20 UNL     1       4.221   0.144  -1.836  1.00  0.00     0.143 C 
HETATM   24  C21 UNL     1       5.573  -0.045  -2.485  1.00  0.00     0.187 C 
HETATM   25  O4  UNL     1       5.839  -1.418  -2.439  1.00  0.00    -0.388 OA
HETATM   26  C22 UNL     1       6.066  -1.750  -1.125  1.00  0.00     0.187 C 
HETATM   27  C23 UNL     1       4.891  -1.518  -0.223  1.00  0.00     0.143 C 
ENDBRANCH  21  22
ENDBRANCH  20  21
ENDBRANCH  16  20
BRANCH  13  28
HETATM   28  C15 UNL     1      -0.674  -1.275   2.735  1.00  0.00     0.172 C 
BRANCH  28  29
HETATM   29  O2  UNL     1      -1.415  -0.882   3.803  1.00  0.00    -0.400 OA
ATOM     30  H2  UNL     1      -1.244  -1.285   4.646  1.00  0.00     0.209 HD
ENDBRANCH  28  29
ENDBRANCH  13  28
BRANCH   1  31
HETATM   31  O1  UNL     1      -3.852   1.231  -3.391  1.00  0.00    -0.356 OA
HETATM   32  C1  UNL     1      -3.653   2.309  -4.304  1.00  0.00     0.210 C 
ENDBRANCH   1  31
TORSDOF 6
