REMARK  7 active torsions:
REMARK  status: ('A' for Active; 'I' for Inactive)
REMARK    1  A    between atoms: C3_3  and  C4_4 
REMARK    2  A    between atoms: C4_4  and  C6_7 
REMARK    3  A    between atoms: C6_7  and  C7_9 
REMARK    4  A    between atoms: C7_9  and  N1_10 
REMARK    5  A    between atoms: C7_9  and  C11_17 
REMARK       I    between atoms: N1_10  and  C8_12 
REMARK    6  A    between atoms: C8_12  and  O3_14 
REMARK    7  A    between atoms: O3_14  and  C9_15 
ROOT
HETATM    1  C1  UNL     1       0.828   4.257  -2.682  1.00  0.00     0.112 C 
HETATM    2  C2  UNL     1       0.089   3.590  -1.610  1.00  0.00    -0.109 C 
HETATM    3  C3  UNL     1      -0.525   3.055  -0.720  1.00  0.00    -0.077 C 
ENDROOT
BRANCH   3   4
HETATM    4  C4  UNL     1      -1.271   2.468   0.347  1.00  0.00     0.139 C 
HETATM    5  C5  UNL     1      -1.506   3.475   1.486  1.00  0.00     0.050 C 
HETATM    6 BR1  UNL     1      -3.094   2.160  -0.361  1.00  0.00    -0.063 Br
BRANCH   4   7
HETATM    7  C6  UNL     1      -0.853   1.178   0.872  1.00  0.00     0.183 C 
HETATM    8  O1  UNL     1      -0.471   1.189   2.041  1.00  0.00    -0.293 OA
BRANCH   7   9
HETATM    9  C7  UNL     1      -0.862  -0.072   0.150  1.00  0.00     0.188 C 
BRANCH   9  10
HETATM   10  N1  UNL     1      -1.392  -1.066   1.144  1.00  0.00    -0.323 N 
HETATM   11  C8  UNL     1      -2.556  -1.814   0.892  1.00  0.00     0.361 C 
HETATM   12  O2  UNL     1      -3.156  -1.633  -0.198  1.00  0.00    -0.238 OA
ATOM     13  H1  UNL     1      -0.895  -1.202   2.024  1.00  0.00     0.165 HD
BRANCH  11  14
HETATM   14  O3  UNL     1      -3.083  -2.740   1.774  1.00  0.00    -0.304 OA
BRANCH  14  15
HETATM   15  C9  UNL     1      -4.264  -3.461   1.455  1.00  0.00     0.176 C 
HETATM   16  C10 UNL     1      -5.444  -2.573   1.225  1.00  0.00     0.034 C 
ENDBRANCH  14  15
ENDBRANCH  11  14
ENDBRANCH   9  10
BRANCH   9  17
HETATM   17  C11 UNL     1       0.416  -0.619  -0.406  1.00  0.00     0.159 C 
HETATM   18  O4  UNL     1       0.937   0.247  -1.331  1.00  0.00    -0.350 OA
HETATM   19  C12 UNL     1       1.304  -0.446  -2.469  1.00  0.00     0.290 A 
HETATM   20  O5  UNL     1       1.678  -1.800  -2.355  1.00  0.00    -0.348 OA
HETATM   21  C13 UNL     1       2.697  -0.888  -2.326  1.00  0.00     0.188 A 
HETATM   22  C14 UNL     1       3.309  -0.386  -1.079  1.00  0.00     0.046 C 
HETATM   23  C15 UNL     1       3.290   1.076  -0.910  1.00  0.00    -0.023 C 
HETATM   24  C18 UNL     1       2.861  -0.915   0.198  1.00  0.00     0.005 C 
HETATM   25  C16 UNL     1       3.439   1.347   0.369  1.00  0.00    -0.030 C 
HETATM   26  C17 UNL     1       3.568   0.069   1.157  1.00  0.00     0.032 C 
HETATM   27  C19 UNL     1       1.460  -1.014   0.581  1.00  0.00     0.018 C 
HETATM   28  C20 UNL     1       1.225  -2.470   1.038  1.00  0.00     0.013 C 
ENDBRANCH   9  17
ENDBRANCH   7   9
ENDBRANCH   4   7
ENDBRANCH   3   4
TORSDOF 7
