REMARK  5 active torsions:
REMARK  status: ('A' for Active; 'I' for Inactive)
REMARK    1  A    between atoms: C2_2  and  N1_3 
REMARK       I    between atoms: N1_3  and  C3_5 
REMARK    2  A    between atoms: C3_5  and  C4_7 
REMARK    3  A    between atoms: C10_14  and  C11_15 
REMARK    4  A    between atoms: C11_15  and  C12_16 
REMARK    5  A    between atoms: C18_25  and  O5_26 
ROOT
HETATM    1  C4  UNL     1       2.926  -0.298  -0.667  1.00  0.00     0.063 C 
HETATM    2  C5  UNL     1       3.159  -0.927  -2.050  1.00  0.00     0.028 C 
HETATM    3  C6  UNL     1       3.001  -1.448   0.312  1.00  0.00     0.195 C 
HETATM    4  O2  UNL     1       1.813  -2.223   0.125  1.00  0.00    -0.346 OA
HETATM    5  C7  UNL     1       0.594  -1.545   0.251  1.00  0.00     0.109 A 
HETATM    6  C8  UNL     1       0.492  -0.215  -0.091  1.00  0.00    -0.020 A 
HETATM    7  C9  UNL     1      -0.732   0.446   0.043  1.00  0.00     0.018 A 
HETATM    8  C10 UNL     1      -1.867  -0.176   0.508  1.00  0.00    -0.036 A 
HETATM    9  C17 UNL     1      -1.761  -1.507   0.850  1.00  0.00     0.053 A 
HETATM   10 BR1  UNL     1      -3.267  -2.449   1.499  1.00  0.00    -0.047 Br
HETATM   11  C18 UNL     1      -0.541  -2.172   0.718  1.00  0.00     0.120 A 
HETATM   12  C20 UNL     1       1.681   0.505  -0.599  1.00  0.00     0.062 C 
ENDROOT
BRANCH   8  13
HETATM   13  C11 UNL     1      -3.136   0.587   0.626  1.00  0.00     0.055 C 
BRANCH  13  14
HETATM   14  C12 UNL     1      -4.125   0.286  -0.447  1.00  0.00     0.095 C 
HETATM   15  C13 UNL     1      -3.570   0.603  -1.789  1.00  0.00     0.263 C 
HETATM   16  O3  UNL     1      -2.900  -0.157  -2.553  1.00  0.00    -0.265 OA
HETATM   17  O4  UNL     1      -3.917   1.919  -2.082  1.00  0.00    -0.321 OA
HETATM   18  C14 UNL     1      -4.699   2.483  -1.074  1.00  0.00     0.183 C 
HETATM   19  C15 UNL     1      -5.249   1.294  -0.342  1.00  0.00     0.020 C 
HETATM   20  C16 UNL     1      -6.492   0.839  -1.060  1.00  0.00     0.013 C 
ENDBRANCH  13  14
ENDBRANCH   8  13
BRANCH  11  21
HETATM   21  O5  UNL     1      -0.434  -3.520   1.063  1.00  0.00    -0.352 OA
HETATM   22  C19 UNL     1      -0.691  -4.486   0.034  1.00  0.00     0.210 C 
ENDBRANCH  11  21
BRANCH   1  23
HETATM   23  C3  UNL     1       4.094   0.627  -0.429  1.00  0.00     0.228 C 
HETATM   24  N1  UNL     1       4.137   1.368   0.783  1.00  0.00    -0.361 N 
ATOM     25  H1  UNL     1       3.387   1.263   1.467  1.00  0.00     0.162 HD
HETATM   26  O1  UNL     1       5.022   0.766  -1.258  1.00  0.00    -0.273 OA
BRANCH  24  27
HETATM   27  C2  UNL     1       5.251   2.283   1.059  1.00  0.00     0.118 C 
HETATM   28  C1  UNL     1       6.571   1.548   1.078  1.00  0.00     0.026 C 
ENDBRANCH  24  27
ENDBRANCH   1  23
TORSDOF 5
