REMARK  6 active torsions:
REMARK  status: ('A' for Active; 'I' for Inactive)
REMARK    1  A    between atoms: C2_2  and  C3_4 
REMARK    2  A    between atoms: C3_4  and  N1_5 
REMARK    3  A    between atoms: C6_8  and  N2_9 
REMARK    4  A    between atoms: C9_16  and  N5_17 
REMARK       I    between atoms: N6_21  and  C13_22 
REMARK       I    between atoms: C13_22  and  N7_24 
REMARK    5  A    between atoms: N7_24  and  C14_26 
REMARK    6  A    between atoms: C18_30  and  N8_31 
ROOT
HETATM    1  N2  UNL     1      -4.458  -1.959   0.082  1.00  0.00    -0.271 N 
HETATM    2  N3  UNL     1      -4.459  -2.296   1.351  1.00  0.00    -0.239 N 
ATOM      3  H3  UNL     1      -5.298  -2.516   1.887  1.00  0.00     0.208 HD
HETATM    4  N4  UNL     1      -3.236  -2.313   1.844  1.00  0.00    -0.284 N 
ATOM      5  H4  UNL     1      -2.973  -2.542   2.802  1.00  0.00     0.188 HD
HETATM    6  C7  UNL     1      -2.404  -1.973   0.851  1.00  0.00     0.080 A 
HETATM    7  C8  UNL     1      -1.022  -1.847   0.858  1.00  0.00     0.062 A 
HETATM    8  C9  UNL     1      -0.359  -1.481  -0.289  1.00  0.00     0.033 A 
HETATM    9  C22 UNL     1      -1.137  -1.253  -1.424  1.00  0.00     0.032 A 
HETATM   10  C23 UNL     1      -2.507  -1.381  -1.420  1.00  0.00     0.036 A 
HETATM   11  C24 UNL     1      -3.170  -1.751  -0.254  1.00  0.00     0.081 A 
ENDROOT
BRANCH   8  12
HETATM   12  N5  UNL     1       1.056  -1.361  -0.349  1.00  0.00    -0.364 N 
HETATM   13  C10 UNL     1       1.959  -1.909   0.612  1.00  0.00     0.126 C 
HETATM   14  C11 UNL     1       3.076  -2.741   0.008  1.00  0.00     0.040 C 
HETATM   15  C12 UNL     1       3.615  -2.020  -1.225  1.00  0.00     0.131 C 
HETATM   16  N6  UNL     1       3.061  -0.695  -1.299  1.00  0.00    -0.318 N 
HETATM   17  C13 UNL     1       3.878   0.447  -1.213  1.00  0.00     0.320 C 
HETATM   18  C21 UNL     1       1.631  -0.603  -1.472  1.00  0.00     0.254 C 
HETATM   19  O1  UNL     1       3.305   1.601  -1.257  1.00  0.00    -0.247 OA
HETATM   20  N7  UNL     1       5.284   0.444  -1.083  1.00  0.00    -0.336 N 
ATOM     21  H7  UNL     1       5.795  -0.438  -1.048  1.00  0.00     0.164 HD
BRANCH  20  22
HETATM   22  C14 UNL     1       5.989   1.695  -1.001  1.00  0.00     0.119 C 
HETATM   23  C15 UNL     1       6.634   1.875  -2.396  1.00  0.00     0.027 C 
HETATM   24  C16 UNL     1       7.873   2.668  -2.155  1.00  0.00     0.004 C 
HETATM   25  C17 UNL     1       7.947   2.904  -0.682  1.00  0.00     0.038 C 
HETATM   26  C18 UNL     1       7.159   1.726  -0.085  1.00  0.00     0.244 C 
BRANCH  26  27
HETATM   27  N8  UNL     1       6.880   2.076   1.263  1.00  0.00     0.086 N 
HETATM   28  C19 UNL     1       8.102   1.993   2.034  1.00  0.00     0.310 C 
HETATM   29  C20 UNL     1       5.881   1.290   1.921  1.00  0.00     0.310 C 
ENDBRANCH  26  27
ENDBRANCH  20  22
ENDBRANCH   8  12
BRANCH   1  30
HETATM   30  C6  UNL     1      -5.554  -1.830  -0.844  1.00  0.00     0.113 C 
HETATM   31  C5  UNL     1      -6.824  -2.480  -0.365  1.00  0.00     0.057 C 
HETATM   32  C4  UNL     1      -7.522  -1.697   0.695  1.00  0.00     0.274 C 
HETATM   33  N1  UNL     1      -7.707  -0.302   0.350  1.00  0.00     0.091 N 
HETATM   34  C26 UNL     1      -6.560   0.326  -0.189  1.00  0.00     0.274 C 
HETATM   35  C25 UNL     1      -5.817  -0.433  -1.246  1.00  0.00     0.057 C 
BRANCH  33  36
HETATM   36  C3  UNL     1      -8.144   0.352   1.550  1.00  0.00     0.308 C 
BRANCH  36  37
HETATM   37  C2  UNL     1      -8.429   1.806   1.456  1.00  0.00     0.194 C 
HETATM   38  C1  UNL     1      -8.898   2.239   2.866  1.00  0.00     0.046 C 
HETATM   39  F1  UNL     1      -7.290   2.586   1.239  1.00  0.00    -0.248 F 
ENDBRANCH  36  37
ENDBRANCH  33  36
ENDBRANCH   1  30
TORSDOF 6
