REMARK  8 active torsions:
REMARK  status: ('A' for Active; 'I' for Inactive)
REMARK    1  A    between atoms: C2_2  and  C3_3 
REMARK    2  A    between atoms: C3_3  and  C4_4 
REMARK    3  A    between atoms: C4_4  and  C5_5 
REMARK    4  A    between atoms: C5_5  and  C6_6 
REMARK    5  A    between atoms: C6_6  and  O2_8 
REMARK    6  A    between atoms: C11_14  and  N1_15 
REMARK    7  A    between atoms: C19_27  and  O5_28 
REMARK    8  A    between atoms: O5_28  and  C20_29 
REMARK       I    between atoms: C20_29  and  N3_31 
ROOT
HETATM    1  C5  UNL     1      -1.173  -0.934   0.175  1.00  0.00     0.177 C 
HETATM    2  O3  UNL     1       0.088  -1.365   0.495  1.00  0.00    -0.352 OA
HETATM    3  C8  UNL     1       0.935  -1.124  -0.590  1.00  0.00     0.090 C 
HETATM    4  C9  UNL     1       1.208  -2.466  -1.311  1.00  0.00     0.051 C 
HETATM    5  C10 UNL     1       2.266  -0.740  -0.083  1.00  0.00     0.041 C 
HETATM    6  C11 UNL     1       2.930   0.312  -0.512  1.00  0.00     0.044 C 
HETATM    7  C16 UNL     1       2.297   1.174  -1.462  1.00  0.00     0.045 C 
HETATM    8  C17 UNL     1       1.084   0.958  -1.924  1.00  0.00     0.001 C 
HETATM    9 BR1  UNL     1       0.381   2.193  -3.187  1.00  0.00    -0.055 Br
HETATM   10  C18 UNL     1       0.273  -0.153  -1.496  1.00  0.00     0.097 C 
HETATM   11  C19 UNL     1      -0.991   0.225  -0.767  1.00  0.00     0.190 C 
ENDROOT
BRANCH   1  12
HETATM   12  C4  UNL     1      -2.004  -2.035  -0.457  1.00  0.00     0.051 C 
BRANCH  12  13
HETATM   13  C3  UNL     1      -2.171  -3.198   0.493  1.00  0.00     0.003 C 
BRANCH  13  14
HETATM   14  C2  UNL     1      -2.990  -4.306  -0.104  1.00  0.00    -0.004 C 
HETATM   15  C1  UNL     1      -3.121  -5.436   0.891  1.00  0.00     0.005 C 
ENDBRANCH  13  14
ENDBRANCH  12  13
ENDBRANCH   1  12
BRANCH   1  16
HETATM   16  C6  UNL     1      -1.953  -0.536   1.394  1.00  0.00     0.296 C 
HETATM   17  O1  UNL     1      -1.516  -0.585   2.551  1.00  0.00    -0.262 OA
BRANCH  16  18
HETATM   18  O2  UNL     1      -3.248  -0.088   1.182  1.00  0.00    -0.324 OA
HETATM   19  C7  UNL     1      -4.095   0.318   2.234  1.00  0.00     0.213 C 
ENDBRANCH  16  18
ENDBRANCH   1  16
BRANCH  11  20
HETATM   20  O5  UNL     1      -1.063   1.471  -0.216  1.00  0.00    -0.294 OA
BRANCH  20  21
HETATM   21  C20 UNL     1      -1.970   2.482  -0.441  1.00  0.00     0.362 C 
HETATM   22  O6  UNL     1      -2.871   2.227  -1.275  1.00  0.00    -0.238 OA
HETATM   23  N3  UNL     1      -1.950   3.735   0.182  1.00  0.00    -0.337 N 
HETATM   24  C21 UNL     1      -0.923   4.051   1.144  1.00  0.00     0.154 C 
HETATM   25  C22 UNL     1      -2.944   4.734  -0.117  1.00  0.00     0.154 C 
ENDBRANCH  20  21
ENDBRANCH  11  20
BRANCH   6  26
HETATM   26  N1  UNL     1       4.221   0.596   0.051  1.00  0.00    -0.267 N 
HETATM   27  C12 UNL     1       5.189   1.326  -0.469  1.00  0.00     0.033 A 
HETATM   28  C13 UNL     1       5.328   1.935  -1.812  1.00  0.00     0.070 C 
HETATM   29  C14 UNL     1       6.219   1.425   0.474  1.00  0.00     0.118 A 
HETATM   30  N2  UNL     1       5.849   0.749   1.546  1.00  0.00    -0.317 N 
HETATM   31  C15 UNL     1       4.631   0.236   1.304  1.00  0.00     0.331 A 
ATOM     32  H2  UNL     1       6.390   0.636   2.403  1.00  0.00     0.170 HD
HETATM   33  O4  UNL     1       4.012  -0.449   2.121  1.00  0.00    -0.246 OA
ENDBRANCH   6  26
TORSDOF 8
