REMARK  8 active torsions:
REMARK  status: ('A' for Active; 'I' for Inactive)
REMARK    1  A    between atoms: C4_4  and  C5_5 
REMARK    2  A    between atoms: C5_5  and  N1_6 
REMARK    3  A    between atoms: N1_6  and  C7_8 
REMARK    4  A    between atoms: C7_8  and  C8_9 
REMARK    5  A    between atoms: C8_9  and  C9_10 
REMARK    6  A    between atoms: C9_10  and  O2_12 
REMARK    7  A    between atoms: O2_12  and  C10_13 
REMARK    8  A    between atoms: C17_21  and  O3_22 
ROOT
HETATM    1  C10 UNL     1      -0.507   1.160   1.051  1.00  0.00     0.143 C 
HETATM    2  C11 UNL     1      -1.530   1.294   2.127  1.00  0.00     0.046 C 
HETATM    3  C12 UNL     1      -2.563   0.238   2.203  1.00  0.00     0.001 A 
HETATM    4  C13 UNL     1      -2.053  -0.965   2.740  1.00  0.00     0.020 A 
HETATM    5  C14 UNL     1      -2.336  -1.004   1.351  1.00  0.00     0.022 A 
HETATM    6  C15 UNL     1      -1.909  -0.562   0.071  1.00  0.00     0.054 C 
HETATM    7 CL1  UNL     1      -0.451  -1.611  -0.291  1.00  0.00    -0.118 Cl
HETATM    8  C16 UNL     1      -2.826  -0.912  -1.065  1.00  0.00     0.062 C 
HETATM    9  C17 UNL     1      -4.174  -0.436  -1.195  1.00  0.00     0.159 C 
HETATM   10  C18 UNL     1      -5.128  -0.377  -0.060  1.00  0.00     0.112 C 
HETATM   11  C19 UNL     1      -6.263   0.527  -0.362  1.00  0.00     0.018 C 
HETATM   12  C20 UNL     1      -7.287  -0.115  -0.891  1.00  0.00     0.049 C 
HETATM   13  C21 UNL     1      -7.003  -1.540  -1.025  1.00  0.00     0.152 C 
HETATM   14  O4  UNL     1      -7.503  -2.404  -1.759  1.00  0.00    -0.293 OA
HETATM   15  C22 UNL     1      -5.903  -1.724  -0.008  1.00  0.00     0.128 C 
HETATM   16  O5  UNL     1      -4.681  -0.189   1.168  1.00  0.00    -0.359 OA
HETATM   17  C23 UNL     1      -3.834   0.722   1.627  1.00  0.00     0.201 C 
HETATM   18  C24 UNL     1      -3.443   1.847   0.713  1.00  0.00     0.157 C 
HETATM   19  O6  UNL     1      -4.071   2.883   0.759  1.00  0.00    -0.295 OA
HETATM   20  C25 UNL     1      -2.349   1.921  -0.299  1.00  0.00     0.095 C 
HETATM   21  C26 UNL     1      -1.364   0.803  -0.163  1.00  0.00     0.011 C 
HETATM   22  C27 UNL     1      -0.422   0.883  -1.356  1.00  0.00     0.020 C 
ENDROOT
BRANCH   1  23
HETATM   23  O2  UNL     1       0.528   0.294   1.301  1.00  0.00    -0.315 OA
BRANCH  23  24
HETATM   24  C9  UNL     1       1.863   0.782   1.267  1.00  0.00     0.264 C 
HETATM   25  O1  UNL     1       1.958   1.996   1.003  1.00  0.00    -0.265 OA
BRANCH  24  26
HETATM   26  C8  UNL     1       2.993  -0.133   1.533  1.00  0.00     0.155 C 
BRANCH  26  27
HETATM   27  C7  UNL     1       4.315   0.528   1.385  1.00  0.00     0.072 C 
BRANCH  27  28
HETATM   28  N1  UNL     1       4.750   1.055   0.187  1.00  0.00    -0.374 N 
HETATM   29  C6  UNL     1       4.731   2.478  -0.012  1.00  0.00     0.154 C 
BRANCH  28  30
HETATM   30  C5  UNL     1       5.111   0.305  -0.933  1.00  0.00     0.089 C 
BRANCH  30  31
HETATM   31  C4  UNL     1       5.352  -1.125  -0.675  1.00  0.00     0.019 C 
HETATM   32  C2  UNL     1       6.559  -1.688  -0.912  1.00  0.00    -0.086 C 
HETATM   33  C1  UNL     1       7.658  -0.834  -1.442  1.00  0.00     0.043 C 
HETATM   34  C3  UNL     1       6.763  -3.120  -0.644  1.00  0.00     0.043 C 
ENDBRANCH  30  31
ENDBRANCH  28  30
ENDBRANCH  27  28
ENDBRANCH  26  27
ENDBRANCH  24  26
ENDBRANCH  23  24
ENDBRANCH   1  23
BRANCH   9  35
HETATM   35  O3  UNL     1      -4.768  -1.325  -2.157  1.00  0.00    -0.392 OA
ATOM     36  H3  UNL     1      -5.660  -1.010  -2.243  1.00  0.00     0.210 HD
ENDBRANCH   9  35
TORSDOF 8
