REMARK  7 active torsions:
REMARK  status: ('A' for Active; 'I' for Inactive)
REMARK       I    between atoms: C2_2  and  N1_4 
REMARK    1  A    between atoms: N1_4  and  C3_6 
REMARK    2  A    between atoms: C3_6  and  C4_7 
REMARK    3  A    between atoms: C3_6  and  C13_22 
REMARK    4  A    between atoms: C4_7  and  C5_8 
REMARK    5  A    between atoms: C7_10  and  O2_11 
REMARK    6  A    between atoms: O2_11  and  C8_12 
REMARK    7  A    between atoms: C8_12  and  C9_15 
ROOT
HETATM    1  C3  UNL     1       0.716  -0.372   0.039  1.00  0.00     0.093 C 
ENDROOT
BRANCH   1   2
HETATM    2  N1  UNL     1       0.625  -1.456  -0.871  1.00  0.00    -0.356 N 
HETATM    3  C2  UNL     1       0.987  -1.384  -2.243  1.00  0.00     0.213 C 
HETATM    4  C1  UNL     1       0.853  -2.572  -3.105  1.00  0.00     0.117 C 
HETATM    5  O1  UNL     1       1.423  -0.321  -2.743  1.00  0.00    -0.274 OA
ATOM      6  H1  UNL     1       0.276  -2.347  -0.517  1.00  0.00     0.162 HD
ENDBRANCH   1   2
BRANCH   1   7
HETATM    7  C4  UNL     1       1.806  -0.549   1.037  1.00  0.00     0.067 C 
BRANCH   7   8
HETATM    8  C5  UNL     1       3.172  -0.687   0.490  1.00  0.00    -0.015 A 
HETATM    9  C6  UNL     1       3.976   0.430   0.314  1.00  0.00     0.047 A 
HETATM   10  C7  UNL     1       5.257   0.373  -0.242  1.00  0.00     0.076 A 
HETATM   11  C10 UNL     1       5.699  -0.873  -0.618  1.00  0.00     0.040 A 
HETATM   12  C11 UNL     1       4.901  -1.987  -0.443  1.00  0.00     0.045 A 
HETATM   13  C12 UNL     1       3.624  -1.923   0.113  1.00  0.00     0.122 A 
HETATM   14  F5  UNL     1       2.911  -3.075   0.287  1.00  0.00    -0.206 F 
BRANCH  10  15
HETATM   15  O2  UNL     1       6.011   1.508  -0.399  1.00  0.00    -0.279 OA
BRANCH  15  16
HETATM   16  C8  UNL     1       7.289   1.706  -0.842  1.00  0.00     0.418 C 
HETATM   17  F1  UNL     1       7.601   1.223  -2.090  1.00  0.00    -0.169 F 
HETATM   18  F2  UNL     1       7.358   3.144  -1.040  1.00  0.00    -0.169 F 
BRANCH  16  19
HETATM   19  C9  UNL     1       8.396   1.472   0.143  1.00  0.00     0.455 C 
HETATM   20  F3  UNL     1       8.491   0.235   0.675  1.00  0.00    -0.205 F 
HETATM   21  F4  UNL     1       8.366   2.393   1.182  1.00  0.00    -0.205 F 
ENDBRANCH  16  19
ENDBRANCH  15  16
ENDBRANCH  10  15
ENDBRANCH   7   8
ENDBRANCH   1   7
BRANCH   1  22
HETATM   22  C13 UNL     1      -0.619  -0.044   0.733  1.00  0.00     0.017 C 
HETATM   23  C14 UNL     1      -1.122  -1.173   1.488  1.00  0.00    -0.007 C 
HETATM   24  C15 UNL     1      -1.487  -0.685   2.905  1.00  0.00     0.005 C 
HETATM   25  C25 UNL     1      -2.481  -1.750   1.052  1.00  0.00     0.015 C 
HETATM   26  C16 UNL     1      -2.406   0.463   2.692  1.00  0.00     0.006 C 
HETATM   27  C17 UNL     1      -3.113   0.568   1.400  1.00  0.00    -0.002 C 
HETATM   28  C18 UNL     1      -2.482   1.608   0.477  1.00  0.00    -0.005 C 
HETATM   29  C24 UNL     1      -3.215  -0.587   0.512  1.00  0.00    -0.036 C 
HETATM   30  C19 UNL     1      -3.503   2.124  -0.456  1.00  0.00     0.009 C 
HETATM   31  C27 UNL     1      -1.475   0.673  -0.241  1.00  0.00    -0.003 C 
HETATM   32  C20 UNL     1      -4.900   1.697  -0.339  1.00  0.00    -0.018 C 
HETATM   33  C21 UNL     1      -5.652   2.537  -1.410  1.00  0.00     0.010 C 
HETATM   34  C22 UNL     1      -5.336   0.332  -0.467  1.00  0.00     0.005 C 
HETATM   35  C23 UNL     1      -4.624  -0.819   0.092  1.00  0.00     0.010 C 
HETATM   36  C26 UNL     1      -2.456  -0.285  -0.792  1.00  0.00     0.015 C 
ENDBRANCH   1  22
TORSDOF 7
