REMARK  7 active torsions:
REMARK  status: ('A' for Active; 'I' for Inactive)
REMARK    1  A    between atoms: C2_2  and  C3_3 
REMARK    2  A    between atoms: C3_3  and  C4_4 
REMARK    3  A    between atoms: C4_4  and  C5_5 
REMARK    4  A    between atoms: C5_5  and  C6_6 
REMARK    5  A    between atoms: C6_6  and  N1_7 
REMARK    6  A    between atoms: N2_13  and  C10_14 
REMARK    7  A    between atoms: C18_25  and  C19_26 
ROOT
HETATM    1  N1  UNL     1       1.723   0.608  -0.685  1.00  0.00    -0.385 N 
HETATM    2  C7  UNL     1       0.823   0.637  -1.766  1.00  0.00     0.143 C 
HETATM    3  C8  UNL     1      -0.651   0.404  -1.459  1.00  0.00     0.316 C 
HETATM    4  F1  UNL     1      -1.267   1.605  -1.851  1.00  0.00    -0.193 F 
HETATM    5  F2  UNL     1      -1.081  -0.542  -2.336  1.00  0.00    -0.193 F 
HETATM    6  C9  UNL     1      -0.836   0.159  -0.028  1.00  0.00     0.105 C 
HETATM    7  N2  UNL     1      -2.072   0.073   0.629  1.00  0.00    -0.293 N 
HETATM    8  C17 UNL     1      -1.652  -0.523   1.896  1.00  0.00     0.324 C 
HETATM    9  O1  UNL     1      -2.331  -0.594   2.978  1.00  0.00    -0.247 OA
HETATM   10  N3  UNL     1      -0.361  -1.044   1.832  1.00  0.00    -0.322 N 
ATOM     11  H3  UNL     1       0.150  -1.489   2.595  1.00  0.00     0.165 HD
HETATM   12  C18 UNL     1       0.125  -0.835   0.469  1.00  0.00     0.126 C 
HETATM   13  C25 UNL     1       1.436  -0.042   0.520  1.00  0.00     0.165 C 
ENDROOT
BRANCH  12  14
HETATM   14  C19 UNL     1       0.420  -2.093  -0.201  1.00  0.00     0.021 A 
HETATM   15  C20 UNL     1       1.689  -2.367  -0.670  1.00  0.00     0.055 A 
HETATM   16  C21 UNL     1       2.045  -3.551  -1.319  1.00  0.00     0.118 A 
HETATM   17  F3  UNL     1       3.296  -3.797  -1.772  1.00  0.00    -0.206 F 
HETATM   18  C22 UNL     1       1.081  -4.513  -1.509  1.00  0.00     0.069 A 
HETATM   19  C23 UNL     1      -0.178  -4.252  -1.048  1.00  0.00     0.076 A 
HETATM   20 CL1  UNL     1      -1.452  -5.456  -1.262  1.00  0.00    -0.081 Cl
HETATM   21  C24 UNL     1      -0.520  -3.088  -0.413  1.00  0.00     0.147 A 
HETATM   22  F4  UNL     1      -1.784  -2.899   0.044  1.00  0.00    -0.204 F 
ENDBRANCH  12  14
BRANCH   7  23
HETATM   23  C10 UNL     1      -3.446   0.374   0.438  1.00  0.00     0.094 C 
HETATM   24  C11 UNL     1      -3.756   1.865   0.389  1.00  0.00     0.026 C 
HETATM   25  C12 UNL     1      -5.216   2.046   0.854  1.00  0.00     0.006 C 
HETATM   26  C13 UNL     1      -6.074   0.873   0.491  1.00  0.00    -0.019 C 
HETATM   27  C14 UNL     1      -7.454   1.448   0.119  1.00  0.00     0.010 C 
HETATM   28  C15 UNL     1      -5.625   0.089  -0.687  1.00  0.00     0.006 C 
HETATM   29  C16 UNL     1      -4.144  -0.219  -0.743  1.00  0.00     0.026 C 
ENDBRANCH   7  23
BRANCH   1  30
HETATM   30  C6  UNL     1       2.345   1.929  -0.454  1.00  0.00     0.122 C 
BRANCH  30  31
HETATM   31  C5  UNL     1       3.437   1.845   0.543  1.00  0.00     0.020 C 
BRANCH  31  32
HETATM   32  C4  UNL     1       4.552   0.930   0.063  1.00  0.00     0.002 C 
BRANCH  32  33
HETATM   33  C3  UNL     1       5.613   0.891   1.116  1.00  0.00    -0.000 C 
BRANCH  33  34
HETATM   34  C2  UNL     1       6.739  -0.031   0.639  1.00  0.00    -0.005 C 
HETATM   35  C1  UNL     1       7.781  -0.030   1.748  1.00  0.00     0.005 C 
ENDBRANCH  33  34
ENDBRANCH  32  33
ENDBRANCH  31  32
ENDBRANCH  30  31
ENDBRANCH   1  30
TORSDOF 7
