REMARK  7 active torsions:
REMARK  status: ('A' for Active; 'I' for Inactive)
REMARK    1  A    between atoms: C6_9  and  N1_10 
REMARK    2  A    between atoms: N1_10  and  C7_12 
REMARK    3  A    between atoms: C10_15  and  N2_16 
REMARK    4  A    between atoms: N2_16  and  C11_17 
REMARK    5  A    between atoms: N2_16  and  C13_20 
REMARK    6  A    between atoms: C11_17  and  C12_18 
REMARK    7  A    between atoms: C13_20  and  C14_21 
ROOT
HETATM    1  C7  UNL     1       1.048   0.191  -0.739  1.00  0.00     0.082 C 
HETATM    2  C8  UNL     1       0.755  -0.748   0.393  1.00  0.00     0.027 C 
HETATM    3  C9  UNL     1      -0.673  -1.318   0.298  1.00  0.00     0.027 C 
HETATM    4  C10 UNL     1      -1.558  -0.136   0.026  1.00  0.00     0.083 C 
HETATM    5  C15 UNL     1      -1.312   0.390  -1.370  1.00  0.00     0.027 C 
HETATM    6  C16 UNL     1       0.026  -0.108  -1.850  1.00  0.00     0.027 C 
ENDROOT
BRANCH   1   7
HETATM    7  N1  UNL     1       2.382   0.049  -1.268  1.00  0.00    -0.383 N 
ATOM      8  H1  UNL     1       2.502  -0.311  -2.215  1.00  0.00     0.160 HD
BRANCH   7   9
HETATM    9  C6  UNL     1       3.516   0.389  -0.525  1.00  0.00     0.070 A 
HETATM   10  C1  UNL     1       4.753   0.152  -1.113  1.00  0.00     0.160 A 
HETATM   11  F1  UNL     1       4.840  -0.396  -2.352  1.00  0.00    -0.202 F 
HETATM   12  C2  UNL     1       5.909   0.471  -0.453  1.00  0.00     0.053 A 
HETATM   13 BR1  UNL     1       7.615   0.137  -1.277  1.00  0.00    -0.048 Br
HETATM   14  C3  UNL     1       5.886   1.035   0.813  1.00  0.00     0.041 A 
HETATM   15  C4  UNL     1       4.660   1.266   1.386  1.00  0.00     0.014 A 
HETATM   16 BR2  UNL     1       4.560   2.031   3.128  1.00  0.00    -0.051 Br
HETATM   17  C5  UNL     1       3.488   0.942   0.715  1.00  0.00     0.051 A 
ENDBRANCH   7   9
ENDBRANCH   1   7
BRANCH   4  18
HETATM   18  N2  UNL     1      -2.874  -0.278   0.407  1.00  0.00    -0.387 N 
BRANCH  18  19
HETATM   19  C11 UNL     1      -3.772  -1.207  -0.082  1.00  0.00     0.073 C 
BRANCH  19  20
HETATM   20  C12 UNL     1      -3.608  -2.654   0.301  1.00  0.00     0.159 C 
HETATM   21 CL1  UNL     1      -3.705  -2.895   2.059  1.00  0.00    -0.125 Cl
ENDBRANCH  19  20
ENDBRANCH  18  19
BRANCH  18  22
HETATM   22  C13 UNL     1      -3.411   0.728   1.287  1.00  0.00     0.137 C 
BRANCH  22  23
HETATM   23  C14 UNL     1      -3.567   2.080   0.680  1.00  0.00     0.134 C 
HETATM   24 CL2  UNL     1      -4.238   3.158   1.938  1.00  0.00    -0.129 Cl
ENDBRANCH  22  23
ENDBRANCH  18  22
ENDBRANCH   4  18
TORSDOF 7
