REMARK  9 active torsions:
REMARK  status: ('A' for Active; 'I' for Inactive)
REMARK    1  A    between atoms: C3_3  and  N1_4 
REMARK    2  A    between atoms: N1_4  and  C4_5 
REMARK    3  A    between atoms: N1_4  and  C16_22 
REMARK    4  A    between atoms: C5_8  and  C6_9 
REMARK    5  A    between atoms: C19_25  and  N5_26 
REMARK       I    between atoms: N5_26  and  C20_27 
REMARK    6  A    between atoms: C20_27  and  C21_29 
REMARK    7  A    between atoms: C21_29  and  N6_30 
REMARK    8  A    between atoms: C21_29  and  C22_34 
REMARK    9  A    between atoms: C22_34  and  C23_35 
ROOT
HETATM    1  C1  UNL     1      -1.612  -2.652  -3.629  1.00  0.00     0.014 C 
HETATM    2  C2  UNL     1      -1.805  -1.563  -3.153  1.00  0.00    -0.098 C 
HETATM    3  C3  UNL     1      -2.067  -0.276  -2.561  1.00  0.00     0.218 C 
ENDROOT
BRANCH   3   4
HETATM    4  N1  UNL     1      -1.594  -0.131  -1.160  1.00  0.00    -0.351 N 
BRANCH   4   5
HETATM    5  C4  UNL     1      -2.631   0.070  -0.228  1.00  0.00     0.118 A 
HETATM    6  N2  UNL     1      -3.087   1.342   0.021  1.00  0.00    -0.331 N 
HETATM    7  C5  UNL     1      -4.163   1.555   0.786  1.00  0.00     0.087 A 
ATOM      8  H2  UNL     1      -2.596   2.138  -0.385  1.00  0.00     0.168 HD
HETATM    9  N3  UNL     1      -4.835   0.547   1.343  1.00  0.00    -0.345 N 
HETATM   10  C9  UNL     1      -4.457  -0.720   1.159  1.00  0.00     0.049 A 
ATOM     11  H3  UNL     1      -5.652   0.747   1.920  1.00  0.00     0.167 HD
HETATM   12  C10 UNL     1      -5.145  -1.754   1.737  1.00  0.00     0.053 A 
HETATM   13  C15 UNL     1      -3.328  -0.949   0.355  1.00  0.00     0.035 A 
HETATM   14  C11 UNL     1      -4.774  -3.067   1.564  1.00  0.00     0.046 A 
HETATM   15  C12 UNL     1      -5.529  -4.152   2.176  1.00  0.00     0.099 C 
HETATM   16  C13 UNL     1      -3.666  -3.313   0.777  1.00  0.00     0.024 A 
HETATM   17  N4  UNL     1      -6.119  -5.025   2.648  1.00  0.00    -0.191 NA
HETATM   18  C14 UNL     1      -2.985  -2.273   0.205  1.00  0.00     0.019 A 
BRANCH   7  19
HETATM   19  C6  UNL     1      -4.681   2.953   1.047  1.00  0.00     0.053 A 
HETATM   20  C7  UNL     1      -5.950   3.148   1.758  1.00  0.00     0.013 A 
HETATM   21  C8  UNL     1      -5.894   3.350   0.250  1.00  0.00     0.013 A 
ENDBRANCH   7  19
ENDBRANCH   4   5
BRANCH   4  22
HETATM   22  C16 UNL     1      -0.188  -0.183  -0.944  1.00  0.00     0.087 C 
HETATM   23  C17 UNL     1       0.466   0.947  -1.730  1.00  0.00     0.032 C 
HETATM   24  C18 UNL     1       1.941   0.859  -1.700  1.00  0.00     0.070 C 
HETATM   25  C19 UNL     1       2.555   0.707  -0.306  1.00  0.00     0.066 C 
HETATM   26  C24 UNL     1       1.715   0.074   0.717  1.00  0.00     0.070 C 
HETATM   27  C25 UNL     1       0.306  -0.281   0.440  1.00  0.00     0.032 C 
BRANCH  25  28
HETATM   28  N5  UNL     1       3.896   0.341  -0.444  1.00  0.00    -0.378 NA
HETATM   29  C20 UNL     1       5.181  -0.036  -0.587  1.00  0.00     0.322 C 
HETATM   30  O1  UNL     1       5.635  -1.136  -1.080  1.00  0.00    -0.255 OA
BRANCH  29  31
HETATM   31  C21 UNL     1       6.318   0.858  -0.152  1.00  0.00     0.290 C 
BRANCH  31  32
HETATM   32  N6  UNL     1       7.448   0.651  -1.075  1.00  0.00    -0.065 N 
ATOM     33  H63 UNL     1       7.723  -0.329  -1.145  1.00  0.00     0.275 HD
ATOM     34  H62 UNL     1       7.189   0.792  -2.051  1.00  0.00     0.275 HD
ATOM     35  H61 UNL     1       8.216   1.255  -0.781  1.00  0.00     0.275 HD
ENDBRANCH  31  32
BRANCH  31  36
HETATM   36  C22 UNL     1       6.767   0.593   1.227  1.00  0.00     0.059 C 
BRANCH  36  37
HETATM   37  C23 UNL     1       7.334  -0.716   1.600  1.00  0.00     0.117 C 
HETATM   38 CL1  UNL     1       6.256  -2.097   1.508  1.00  0.00    -0.130 Cl
ENDBRANCH  36  37
ENDBRANCH  31  36
ENDBRANCH  29  31
ENDBRANCH  25  28
ENDBRANCH   4  22
ENDBRANCH   3   4
TORSDOF 9
