REMARK  11 active torsions:
REMARK  status: ('A' for Active; 'I' for Inactive)
REMARK    1  A    between atoms: C2_2  and  C3_3 
REMARK    2  A    between atoms: C8_8  and  O1_9 
REMARK    3  A    between atoms: O1_9  and  C9_10 
REMARK    4  A    between atoms: C9_10  and  C10_12 
REMARK    5  A    between atoms: C10_12  and  C11_13 
REMARK    6  A    between atoms: C11_13  and  C12_14 
REMARK    7  A    between atoms: C13_15  and  C14_16 
REMARK    8  A    between atoms: C15_19  and  O5_20 
REMARK    9  A    between atoms: O5_20  and  C16_21 
REMARK   10  A    between atoms: C16_21  and  C17_23 
REMARK   11  A    between atoms: C24_31  and  O7_32 
ROOT
HETATM    1  C1  UNL     1      -4.088  -2.367   0.673  1.00  0.00     0.022 C 
HETATM    2  C2  UNL     1      -2.904  -2.864  -0.130  1.00  0.00     0.003 C 
HETATM    3  C6  UNL     1      -1.753  -2.965   0.810  1.00  0.00    -0.016 C 
HETATM    4  C7  UNL     1      -0.635  -2.261   0.948  1.00  0.00     0.005 C 
HETATM    5  C8  UNL     1      -0.226  -1.086   0.115  1.00  0.00     0.184 C 
HETATM    6  C15 UNL     1      -1.406  -0.139   0.101  1.00  0.00     0.168 C 
HETATM    7  C23 UNL     1      -2.464  -0.508  -0.880  1.00  0.00     0.068 C 
HETATM    8  C24 UNL     1      -2.532  -1.944  -1.255  1.00  0.00     0.133 C 
ENDROOT
BRANCH   5   9
HETATM    9  O1  UNL     1       0.908  -0.441   0.667  1.00  0.00    -0.309 OA
BRANCH   9  10
HETATM   10  C9  UNL     1       2.084  -0.265  -0.046  1.00  0.00     0.259 C 
HETATM   11  O2  UNL     1       2.093  -0.719  -1.233  1.00  0.00    -0.265 OA
BRANCH  10  12
HETATM   12  C10 UNL     1       3.268   0.414   0.545  1.00  0.00     0.115 C 
BRANCH  12  13
HETATM   13  C11 UNL     1       4.378   0.446  -0.473  1.00  0.00     0.037 C 
BRANCH  13  14
HETATM   14  C12 UNL     1       5.570   1.125   0.106  1.00  0.00    -0.019 C 
HETATM   15  C13 UNL     1       6.733   0.538   0.236  1.00  0.00     0.080 C 
BRANCH  15  16
HETATM   16  C14 UNL     1       7.849   1.258   0.809  1.00  0.00     0.198 C 
HETATM   17  O3  UNL     1       8.973   0.688   0.933  1.00  0.00    -0.645 OA
HETATM   18  O4  UNL     1       7.762   2.567   1.241  1.00  0.00    -0.645 OA
ENDBRANCH  15  16
ENDBRANCH  13  14
ENDBRANCH  12  13
ENDBRANCH  10  12
ENDBRANCH   9  10
ENDBRANCH   5   9
BRANCH   6  19
HETATM   19  O5  UNL     1      -1.001   1.194  -0.140  1.00  0.00    -0.309 OA
BRANCH  19  20
HETATM   20  C16 UNL     1      -1.146   2.191   0.808  1.00  0.00     0.293 C 
HETATM   21  O6  UNL     1      -1.655   1.894   1.916  1.00  0.00    -0.259 OA
BRANCH  20  22
HETATM   22  C17 UNL     1      -0.731   3.573   0.567  1.00  0.00     0.041 A 
HETATM   23  C18 UNL     1      -0.891   4.537   1.536  1.00  0.00     0.018 A 
HETATM   24  C19 UNL     1      -0.487   5.814   1.263  1.00  0.00     0.003 A 
HETATM   25  C20 UNL     1       0.077   6.174   0.051  1.00  0.00     0.024 A 
HETATM   26  C21 UNL     1       0.217   5.188  -0.878  1.00  0.00     0.035 A 
HETATM   27 CL1  UNL     1       0.926   5.591  -2.431  1.00  0.00    -0.084 Cl
HETATM   28  C22 UNL     1      -0.174   3.885  -0.653  1.00  0.00     0.041 A 
ENDBRANCH  20  22
ENDBRANCH  19  20
ENDBRANCH   6  19
BRANCH   2  29
HETATM   29  C3  UNL     1      -3.157  -4.250  -0.667  1.00  0.00    -0.000 A 
HETATM   30  C4  UNL     1      -4.261  -4.569  -1.564  1.00  0.00     0.006 A 
HETATM   31  C5  UNL     1      -4.362  -5.005  -0.103  1.00  0.00     0.006 A 
ENDBRANCH   2  29
BRANCH   8  32
HETATM   32  O7  UNL     1      -3.472  -2.049  -2.306  1.00  0.00    -0.394 OA
ATOM     33  H7  UNL     1      -3.236  -1.466  -3.018  1.00  0.00     0.210 HD
ENDBRANCH   8  32
TORSDOF 11
