REMARK  3 active torsions:
REMARK  status: ('A' for Active; 'I' for Inactive)
REMARK       I    between atoms: C2_2  and  N1_4 
REMARK    1  A    between atoms: N1_4  and  C3_6 
REMARK    2  A    between atoms: C4_9  and  C5_10 
REMARK    3  A    between atoms: C5_10  and  C6_11 
ROOT
HETATM    1  C3  UNL     1       0.888   2.367   0.925  1.00  0.00     0.138 A 
HETATM    2  N2  UNL     1      -0.257   2.429   0.220  1.00  0.00    -0.330 N 
ATOM      3  H2  UNL     1      -0.910   3.187   0.418  1.00  0.00     0.168 HD
HETATM    4  C4  UNL     1      -0.579   1.537  -0.734  1.00  0.00     0.087 A 
HETATM    5  N3  UNL     1       0.299   0.547  -0.976  1.00  0.00    -0.343 N 
ATOM      6  H3  UNL     1       0.083  -0.145  -1.694  1.00  0.00     0.167 HD
HETATM    7  C16 UNL     1       1.459   0.446  -0.293  1.00  0.00     0.075 A 
HETATM    8  C17 UNL     1       1.798   1.354   0.685  1.00  0.00     0.104 A 
HETATM    9  N4  UNL     1       2.950   1.249   1.359  1.00  0.00    -0.360 N 
ATOM     10  H4  UNL     1       3.157   1.946   2.074  1.00  0.00     0.165 HD
HETATM   11  C18 UNL     1       3.861   0.257   1.138  1.00  0.00     0.101 A 
HETATM   12  C19 UNL     1       3.567  -0.674   0.171  1.00  0.00     0.003 A 
HETATM   13  C20 UNL     1       4.460  -1.693  -0.086  1.00  0.00    -0.013 A 
HETATM   14  C21 UNL     1       5.657  -1.845   0.579  1.00  0.00     0.013 A 
HETATM   15  C22 UNL     1       6.519  -2.881   0.289  1.00  0.00     0.001 A 
HETATM   16  C23 UNL     1       6.178  -3.791  -0.693  1.00  0.00     0.001 A 
HETATM   17  C24 UNL     1       4.973  -3.647  -1.369  1.00  0.00     0.012 A 
HETATM   18  C25 UNL     1       4.106  -2.604  -1.076  1.00  0.00    -0.025 A 
HETATM   19  C26 UNL     1       2.924  -2.506  -1.776  1.00  0.00     0.013 A 
HETATM   20  C27 UNL     1       2.041  -1.479  -1.507  1.00  0.00     0.015 A 
HETATM   21  C28 UNL     1       2.366  -0.570  -0.537  1.00  0.00     0.005 A 
ENDROOT
BRANCH   4  22
HETATM   22  C5  UNL     1      -1.860   1.648  -1.488  1.00  0.00     0.115 C 
BRANCH  22  23
HETATM   23  C6  UNL     1      -2.964   0.918  -0.843  1.00  0.00    -0.050 A 
HETATM   24  C7  UNL     1      -3.751   1.570   0.078  1.00  0.00     0.008 A 
HETATM   25  C8  UNL     1      -4.802   0.933   0.714  1.00  0.00     0.013 A 
HETATM   26  C9  UNL     1      -5.082  -0.382   0.434  1.00  0.00    -0.026 A 
HETATM   27  C10 UNL     1      -6.131  -1.059   1.054  1.00  0.00     0.012 A 
HETATM   28  C14 UNL     1      -4.311  -1.058  -0.483  1.00  0.00    -0.025 A 
HETATM   29  C11 UNL     1      -6.422  -2.380   0.779  1.00  0.00     0.001 A 
HETATM   30  C12 UNL     1      -5.643  -3.044  -0.139  1.00  0.00     0.001 A 
HETATM   31  C13 UNL     1      -4.613  -2.387  -0.750  1.00  0.00     0.012 A 
HETATM   32  C15 UNL     1      -3.267  -0.401  -1.106  1.00  0.00     0.019 A 
ENDBRANCH  22  23
ENDBRANCH   4  22
BRANCH   1  33
HETATM   33  N1  UNL     1       1.182   3.233   1.838  1.00  0.00    -0.311 N 
HETATM   34  C2  UNL     1       0.333   4.315   2.175  1.00  0.00     0.219 C 
HETATM   35  C1  UNL     1       0.358   5.524   1.317  1.00  0.00     0.117 C 
HETATM   36  O1  UNL     1      -0.401   4.191   3.189  1.00  0.00    -0.274 OA
ATOM     37  H1  UNL     1       2.065   3.133   2.338  1.00  0.00     0.170 HD
ENDBRANCH   1  33
TORSDOF 3
