REMARK  7 active torsions:
REMARK  status: ('A' for Active; 'I' for Inactive)
REMARK    1  A    between atoms: C6_6  and  C7_7 
REMARK    2  A    between atoms: C7_7  and  O1_8 
REMARK    3  A    between atoms: N1_10  and  C8_12 
REMARK    4  A    between atoms: C10_14  and  C11_15 
REMARK    5  A    between atoms: N3_21  and  C15_22 
REMARK    6  A    between atoms: C15_22  and  O2_23 
REMARK    7  A    between atoms: C15_22  and  C16_25 
ROOT
HETATM    1  C8  UNL     1       0.353   1.061  -0.510  1.00  0.00     0.133 A 
HETATM    2  C9  UNL     1      -0.203   2.336  -0.659  1.00  0.00     0.077 A 
HETATM    3  C10 UNL     1       0.771   3.231  -0.395  1.00  0.00     0.037 A 
HETATM    4  N2  UNL     1       1.875   2.542  -0.102  1.00  0.00    -0.294 N 
ATOM      5  H2  UNL     1       2.772   2.963   0.139  1.00  0.00     0.187 HD
HETATM    6  N3  UNL     1       1.653   1.250  -0.165  1.00  0.00    -0.216 N 
ENDROOT
BRANCH   1   7
HETATM    7  N1  UNL     1      -0.252  -0.046  -0.655  1.00  0.00    -0.321 N 
HETATM    8  C7  UNL     1      -1.503  -0.456  -0.975  1.00  0.00     0.153 C 
ATOM      9  H1  UNL     1       0.369  -0.837  -0.485  1.00  0.00     0.169 HD
BRANCH   8  10
HETATM   10  C6  UNL     1      -2.557  -0.985  -0.157  1.00  0.00     0.027 A 
HETATM   11  C4  UNL     1      -2.505  -2.378   0.076  1.00  0.00    -0.046 A 
HETATM   12  C3  UNL     1      -3.544  -2.965   0.745  1.00  0.00     0.014 A 
HETATM   13  C5  UNL     1      -1.290  -3.149  -0.359  1.00  0.00     0.049 C 
HETATM   14  C2  UNL     1      -4.614  -2.211   1.185  1.00  0.00    -0.061 A 
HETATM   15  C1  UNL     1      -5.720  -2.877   1.900  1.00  0.00     0.048 C 
HETATM   16  C27 UNL     1      -4.661  -0.860   0.960  1.00  0.00     0.014 A 
HETATM   17  C25 UNL     1      -3.606  -0.236   0.274  1.00  0.00    -0.046 A 
HETATM   18  C26 UNL     1      -3.745   1.250   0.053  1.00  0.00     0.049 C 
ENDBRANCH   8  10
BRANCH   8  19
HETATM   19  O1  UNL     1      -1.821  -0.380  -2.238  1.00  0.00    -0.345 OA
ATOM     20  H1  UNL     1      -1.123  -0.030  -2.779  1.00  0.00     0.219 HD
ENDBRANCH   8  19
ENDBRANCH   1   7
BRANCH   6  21
HETATM   21  C15 UNL     1       2.647   0.294   0.079  1.00  0.00     0.174 C 
BRANCH  21  22
HETATM   22  O2  UNL     1       3.817   0.878   0.443  1.00  0.00    -0.344 OA
ATOM     23  H2  UNL     1       4.491   0.230   0.609  1.00  0.00     0.219 HD
ENDBRANCH  21  22
BRANCH  21  24
HETATM   24  C16 UNL     1       2.730  -1.115   0.039  1.00  0.00     0.029 A 
HETATM   25  C17 UNL     1       2.815  -1.770  -1.185  1.00  0.00    -0.046 A 
HETATM   26  C18 UNL     1       2.786  -1.067  -2.500  1.00  0.00     0.049 C 
HETATM   27  C19 UNL     1       2.972  -3.153  -1.171  1.00  0.00     0.014 A 
HETATM   28  C20 UNL     1       3.043  -3.880  -0.037  1.00  0.00    -0.061 A 
HETATM   29  C21 UNL     1       3.255  -5.338  -0.040  1.00  0.00     0.048 C 
HETATM   30  C22 UNL     1       2.951  -3.183   1.170  1.00  0.00     0.014 A 
HETATM   31  C23 UNL     1       2.797  -1.823   1.226  1.00  0.00    -0.046 A 
HETATM   32  C24 UNL     1       2.705  -1.084   2.525  1.00  0.00     0.049 C 
ENDBRANCH  21  24
ENDBRANCH   6  21
BRANCH   3  33
HETATM   33  C11 UNL     1       0.591   4.711  -0.434  1.00  0.00    -0.007 C 
HETATM   34  C12 UNL     1      -0.905   5.037  -0.435  1.00  0.00     0.021 C 
HETATM   35  C13 UNL     1       1.157   5.380   0.817  1.00  0.00     0.021 C 
HETATM   36  C14 UNL     1       1.191   5.327  -1.666  1.00  0.00     0.021 C 
ENDBRANCH   3  33
TORSDOF 7
