REMARK  2 active torsions:
REMARK  status: ('A' for Active; 'I' for Inactive)
REMARK    1  A    between atoms: C11_12  and  N2_13 
REMARK       I    between atoms: N3_19  and  C17_20 
REMARK       I    between atoms: C17_20  and  N4_22 
REMARK    2  A    between atoms: N4_22  and  C18_24 
ROOT
HETATM    1  N2  UNL     1      -1.936  -0.354  -0.085  1.00  0.00     0.112 N 
HETATM    2  C12 UNL     1      -1.386  -0.771   1.164  1.00  0.00     0.276 C 
HETATM    3  C13 UNL     1       0.102  -0.572   1.111  1.00  0.00     0.041 C 
HETATM    4  C14 UNL     1       0.389  -0.098  -0.275  1.00  0.00    -0.009 C 
HETATM    5  C15 UNL     1       0.803  -1.222  -1.219  1.00  0.00     0.031 C 
HETATM    6  C16 UNL     1       2.117  -1.794  -0.822  1.00  0.00     0.128 C 
HETATM    7  N3  UNL     1       3.095  -0.839  -0.410  1.00  0.00    -0.334 N 
HETATM    8  C17 UNL     1       4.458  -1.264  -0.375  1.00  0.00     0.318 C 
HETATM    9  O1  UNL     1       4.791  -2.449  -0.703  1.00  0.00    -0.247 OA
HETATM   10  N4  UNL     1       5.499  -0.389   0.026  1.00  0.00    -0.338 N 
ATOM     11  H4  UNL     1       5.263   0.566   0.296  1.00  0.00     0.164 HD
HETATM   12  C24 UNL     1       2.791   0.516  -0.033  1.00  0.00     0.128 C 
HETATM   13  C25 UNL     1       1.416   0.974  -0.376  1.00  0.00     0.031 C 
HETATM   14  C26 UNL     1      -0.961   0.446  -0.755  1.00  0.00     0.284 C 
ENDROOT
BRANCH   1  15
HETATM   15  C11 UNL     1      -3.278   0.068  -0.095  1.00  0.00     0.323 C 
HETATM   16  N1  UNL     1      -3.904   0.285  -1.315  1.00  0.00    -0.368 N 
HETATM   17  C1  UNL     1      -3.796   1.527  -1.964  1.00  0.00     0.150 C 
HETATM   18  C2  UNL     1      -4.439  -0.785  -2.048  1.00  0.00     0.060 C 
HETATM   19  C3  UNL     1      -4.890  -1.982  -1.336  1.00  0.00     0.044 C 
HETATM   20  C4  UNL     1      -6.071  -1.905  -0.472  1.00  0.00     0.005 C 
HETATM   21  C5  UNL     1      -6.858  -0.652  -0.483  1.00  0.00     0.000 C 
HETATM   22  C6  UNL     1      -6.948  -0.023   0.916  1.00  0.00     0.000 C 
HETATM   23  C7  UNL     1      -6.595   1.423   0.915  1.00  0.00     0.000 C 
HETATM   24  C8  UNL     1      -5.595   1.849   1.926  1.00  0.00     0.000 C 
HETATM   25  C9  UNL     1      -4.317   1.095   1.962  1.00  0.00     0.004 C 
HETATM   26  C10 UNL     1      -3.423   1.303   0.783  1.00  0.00     0.057 C 
ENDBRANCH   1  15
BRANCH  10  27
HETATM   27  C18 UNL     1       6.874  -0.800   0.065  1.00  0.00     0.086 C 
HETATM   28  C19 UNL     1       7.438  -0.604   1.455  1.00  0.00     0.025 C 
HETATM   29  C20 UNL     1       8.899  -0.201   1.403  1.00  0.00     0.002 C 
HETATM   30  C21 UNL     1       9.046   1.163   0.760  1.00  0.00     0.000 C 
HETATM   31  C22 UNL     1       7.957   1.373  -0.271  1.00  0.00     0.002 C 
HETATM   32  C23 UNL     1       7.667   0.044  -0.898  1.00  0.00     0.025 C 
ENDBRANCH  10  27
TORSDOF 2
