REMARK  6 active torsions:
REMARK  status: ('A' for Active; 'I' for Inactive)
REMARK    1  A    between atoms: C3_6  and  N3_7 
REMARK    2  A    between atoms: C5_14  and  C6_15 
REMARK    3  A    between atoms: C6_15  and  O2_16 
REMARK    4  A    between atoms: C6_15  and  C7_18 
REMARK    5  A    between atoms: C8_23  and  C9_24 
REMARK       I    between atoms: C9_24  and  N7_26 
REMARK    6  A    between atoms: N7_26  and  N8_28 
ROOT
HETATM    1  N1  UNL     1      -2.253  -2.089  -2.469  1.00  0.00    -0.190 NA
HETATM    2  C1  UNL     1      -2.411  -1.301  -1.630  1.00  0.00     0.119 C 
HETATM    3  C2  UNL     1      -2.636  -0.330  -0.593  1.00  0.00     0.144 A 
HETATM    4  N2  UNL     1      -3.494   0.696  -0.838  1.00  0.00    -0.181 N 
ATOM      5  H2  UNL     1      -3.954   0.775  -1.745  1.00  0.00     0.185 HD
HETATM    6  C3  UNL     1      -3.731   1.604   0.121  1.00  0.00     0.679 A 
HETATM    7  N4  UNL     1      -3.108   1.470   1.298  1.00  0.00    -0.156 N 
ATOM      8  H4  UNL     1      -3.294   2.166   2.020  1.00  0.00     0.187 HD
HETATM    9  C4  UNL     1      -2.254   0.476   1.585  1.00  0.00     0.271 A 
HETATM   10  O1  UNL     1      -1.690   0.397   2.719  1.00  0.00    -0.267 OA
HETATM   11  C5  UNL     1      -1.996  -0.479   0.596  1.00  0.00     0.083 A 
ENDROOT
BRANCH  11  12
HETATM   12  C6  UNL     1      -1.047  -1.534   0.937  1.00  0.00     0.218 C 
BRANCH  12  13
HETATM   13  O2  UNL     1      -1.253  -2.742   0.292  1.00  0.00    -0.384 OA
ATOM     14  H2  UNL     1      -0.635  -3.429   0.514  1.00  0.00     0.211 HD
ENDBRANCH  12  13
BRANCH  12  15
HETATM   15  C7  UNL     1       0.330  -1.074   0.518  1.00  0.00     0.102 A 
HETATM   16  N5  UNL     1       1.287  -0.565   1.298  1.00  0.00    -0.294 N 
HETATM   17  N6  UNL     1       2.391  -0.226   0.798  1.00  0.00    -0.288 N 
ATOM     18  H5  UNL     1       1.123  -0.451   2.298  1.00  0.00     0.187 HD
HETATM   19  C8  UNL     1       2.603  -0.377  -0.508  1.00  0.00     0.161 A 
ATOM     20  H6  UNL     1       3.123   0.164   1.392  1.00  0.00     0.188 HD
HETATM   21  S1  UNL     1       1.105  -1.045  -1.004  1.00  0.00    -0.048 SA
BRANCH  19  22
HETATM   22  C9  UNL     1       3.804  -0.053  -1.295  1.00  0.00     0.294 C 
HETATM   23  O3  UNL     1       3.757  -0.290  -2.521  1.00  0.00    -0.264 OA
HETATM   24  N7  UNL     1       4.942   0.494  -0.703  1.00  0.00    -0.271 N 
ATOM     25  H7  UNL     1       4.941   0.674   0.301  1.00  0.00     0.189 HD
BRANCH  24  26
HETATM   26  N8  UNL     1       6.070   0.799  -1.438  1.00  0.00    -0.342 N 
ATOM     27  H82 UNL     1       6.054   0.613  -2.441  1.00  0.00     0.176 HD
ATOM     28  H81 UNL     1       6.902   1.199  -1.005  1.00  0.00     0.176 HD
ENDBRANCH  24  26
ENDBRANCH  19  22
ENDBRANCH  12  15
ENDBRANCH  11  12
BRANCH   6  29
HETATM   29  N3  UNL     1      -4.547   2.575  -0.117  1.00  0.00    -0.234 N 
ATOM     30  H32 UNL     1      -5.022   2.677  -1.014  1.00  0.00     0.174 HD
ATOM     31  H31 UNL     1      -4.727   3.265   0.612  1.00  0.00     0.174 HD
ENDBRANCH   6  29
TORSDOF 6
