REMARK  8 active torsions:
REMARK  status: ('A' for Active; 'I' for Inactive)
REMARK    1  A    between atoms: N1_1  and  C1_4 
REMARK    2  A    between atoms: N3_8  and  C3_9 
REMARK    3  A    between atoms: C3_9  and  C4_10 
REMARK    4  A    between atoms: C4_10  and  C5_11 
REMARK    5  A    between atoms: C5_11  and  N4_12 
REMARK    6  A    between atoms: C7_14  and  N5_15 
REMARK    7  A    between atoms: C9_19  and  N7_20 
REMARK    8  A    between atoms: C10_28  and  N11_29 
ROOT
HETATM    1  C5  UNL     1       0.197   0.367   2.245  1.00  0.00     0.147 C 
ENDROOT
BRANCH   1   2
HETATM    2  C4  UNL     1      -1.077   0.569   1.458  1.00  0.00     0.042 C 
BRANCH   2   3
HETATM    3  C3  UNL     1      -1.564  -0.710   0.831  1.00  0.00     0.150 C 
BRANCH   3   4
HETATM    4  N3  UNL     1      -2.785  -0.461   0.090  1.00  0.00    -0.179 N 
HETATM    5  C2  UNL     1      -2.763  -0.114  -1.215  1.00  0.00     0.218 A 
HETATM    6  N2  UNL     1      -3.911   0.108  -1.865  1.00  0.00    -0.187 N 
HETATM    7  C1  UNL     1      -5.097  -0.008  -1.246  1.00  0.00     0.691 A 
ATOM      8  H2  UNL     1      -3.885   0.371  -2.850  1.00  0.00     0.185 HD
HETATM    9  N12 UNL     1      -5.152  -0.351   0.048  1.00  0.00    -0.023 N 
HETATM   10  C10 UNL     1      -3.994  -0.572   0.695  1.00  0.00     0.693 A 
ATOM     11  H12 UNL     1      -6.047  -0.442   0.529  1.00  0.00     0.203 HD
BRANCH   7  12
HETATM   12  N1  UNL     1      -6.216   0.211  -1.888  1.00  0.00    -0.234 N 
ATOM     13  H12 UNL     1      -6.174   0.472  -2.873  1.00  0.00     0.174 HD
ATOM     14  H11 UNL     1      -7.117   0.123  -1.418  1.00  0.00     0.174 HD
ENDBRANCH   7  12
BRANCH  10  15
HETATM   15  N11 UNL     1      -4.006  -0.905   1.942  1.00  0.00    -0.234 N 
ATOM     16 2H11 UNL     1      -3.128  -1.073   2.433  1.00  0.00     0.174 HD
ATOM     17 1H11 UNL     1      -4.915  -0.988   2.397  1.00  0.00     0.174 HD
ENDBRANCH  10  15
ENDBRANCH   3   4
ENDBRANCH   2   3
ENDBRANCH   1   2
BRANCH   1  18
HETATM   18  N4  UNL     1       1.255  -0.135   1.364  1.00  0.00    -0.283 N 
HETATM   19  C6  UNL     1       2.142   0.584   0.652  1.00  0.00     0.159 A 
HETATM   20  C7  UNL     1       2.981  -0.253  -0.056  1.00  0.00     0.158 A 
HETATM   21  N9  UNL     1       2.563  -1.495   0.257  1.00  0.00    -0.267 N 
HETATM   22  N10 UNL     1       1.532  -1.402   1.107  1.00  0.00    -0.019 NA
ATOM     23  H9  UNL     1       2.966  -2.363  -0.095  1.00  0.00     0.186 HD
BRANCH  20  24
HETATM   24  N5  UNL     1       4.056   0.069  -0.932  1.00  0.00    -0.218 N 
HETATM   25  C8  UNL     1       4.168  -0.267  -2.239  1.00  0.00     0.226 A 
HETATM   26  N6  UNL     1       5.329   0.219  -2.729  1.00  0.00    -0.185 N 
HETATM   27  C9  UNL     1       5.946   0.857  -1.737  1.00  0.00     0.691 A 
ATOM     28  H6  UNL     1       5.671   0.116  -3.685  1.00  0.00     0.185 HD
HETATM   29  N8  UNL     1       5.155   0.752  -0.658  1.00  0.00    -0.123 N 
ATOM     30  H8  UNL     1       5.373   1.148   0.256  1.00  0.00     0.206 HD
BRANCH  27  31
HETATM   31  N7  UNL     1       7.100   1.481  -1.756  1.00  0.00    -0.233 N 
ATOM     32  H72 UNL     1       7.701   1.561  -2.576  1.00  0.00     0.174 HD
ATOM     33  H71 UNL     1       7.573   1.970  -0.996  1.00  0.00     0.174 HD
ENDBRANCH  27  31
ENDBRANCH  20  24
ENDBRANCH   1  18
TORSDOF 8
