REMARK  8 active torsions:
REMARK  status: ('A' for Active; 'I' for Inactive)
REMARK    1  A    between atoms: O1_2  and  N1_3 
REMARK       I    between atoms: N1_3  and  C2_5 
REMARK       I    between atoms: C2_5  and  N2_7 
REMARK    2  A    between atoms: N3_9  and  C3_11 
REMARK    3  A    between atoms: C4_14  and  N5_15 
REMARK    4  A    between atoms: N5_15  and  O3_17 
REMARK    5  A    between atoms: O3_17  and  C5_18 
REMARK    6  A    between atoms: C5_18  and  N6_19 
REMARK    7  A    between atoms: C5_18  and  N7_23 
REMARK    8  A    between atoms: C7_31  and  N9_32 
ROOT
HETATM    1  C3  UNL     1       0.508   1.207   0.592  1.00  0.00     0.174 A 
HETATM    2  N4  UNL     1      -0.616   0.506   0.782  1.00  0.00    -0.171 N 
ATOM      3  H4  UNL     1      -0.634  -0.471   0.491  1.00  0.00     0.186 HD
HETATM    4  C4  UNL     1      -1.718   1.027   1.336  1.00  0.00     0.706 A 
HETATM    5  N8  UNL     1      -1.689   2.321   1.721  1.00  0.00    -0.152 N 
ATOM      6  H8  UNL     1      -2.517   2.739   2.145  1.00  0.00     0.187 HD
HETATM    7  C6  UNL     1      -0.587   3.063   1.553  1.00  0.00     0.296 A 
HETATM    8  O4  UNL     1      -0.561   4.278   1.915  1.00  0.00    -0.265 OA
HETATM    9  C7  UNL     1       0.558   2.535   0.980  1.00  0.00     0.216 A 
ENDROOT
BRANCH   4  10
HETATM   10  N5  UNL     1      -2.798   0.336   1.508  1.00  0.00    -0.092 N 
ATOM     11  H5  UNL     1      -3.589   0.815   1.938  1.00  0.00     0.213 HD
BRANCH  10  12
HETATM   12  O3  UNL     1      -2.976  -0.962   1.171  1.00  0.00    -0.205 OA
BRANCH  12  13
HETATM   13  C5  UNL     1      -4.083  -1.438   0.428  1.00  0.00     0.543 C 
BRANCH  13  14
HETATM   14  N6  UNL     1      -4.803  -2.359   1.312  1.00  0.00    -0.025 N 
ATOM     15  H63 UNL     1      -4.216  -3.104   1.687  1.00  0.00     0.279 HD
ATOM     16  H62 UNL     1      -5.063  -1.943   2.206  1.00  0.00     0.279 HD
ATOM     17  H61 UNL     1      -5.601  -2.702   0.777  1.00  0.00     0.279 HD
ENDBRANCH  13  14
BRANCH  13  18
HETATM   18  N7  UNL     1      -3.686  -2.199  -0.725  1.00  0.00    -0.025 N 
ATOM     19  H73 UNL     1      -3.050  -1.664  -1.316  1.00  0.00     0.279 HD
ATOM     20  H72 UNL     1      -3.063  -2.964  -0.464  1.00  0.00     0.279 HD
ATOM     21  H71 UNL     1      -4.484  -2.542  -1.260  1.00  0.00     0.279 HD
ENDBRANCH  13  18
ENDBRANCH  12  13
ENDBRANCH  10  12
ENDBRANCH   4  10
BRANCH   1  22
HETATM   22  N3  UNL     1       1.699   0.692   0.009  1.00  0.00    -0.279 N 
HETATM   23  N2  UNL     1       1.842   0.572  -1.243  1.00  0.00    -0.248 N 
HETATM   24  C2  UNL     1       2.989   0.074  -1.872  1.00  0.00     0.358 C 
ATOM     25  H2  UNL     1       1.064   0.859  -1.837  1.00  0.00     0.192 HD
HETATM   26  N1  UNL     1       3.716  -1.059  -1.459  1.00  0.00    -0.216 N 
HETATM   27  O2  UNL     1       3.389   0.716  -2.899  1.00  0.00    -0.243 OA
ATOM     28  H1  UNL     1       3.413  -1.586  -0.640  1.00  0.00     0.199 HD
ATOM     29  H3  UNL     1       2.464   0.410   0.621  1.00  0.00     0.189 HD
BRANCH  26  30
HETATM   30  O1  UNL     1       4.803  -1.447  -2.137  1.00  0.00    -0.281 OA
HETATM   31  C1  UNL     1       5.059  -2.800  -2.018  1.00  0.00     0.237 C 
ENDBRANCH  26  30
ENDBRANCH   1  22
BRANCH   9  32
HETATM   32  N9  UNL     1       1.716   3.314   0.802  1.00  0.00    -0.106 N 
HETATM   33  O5  UNL     1       2.022   3.699  -0.330  1.00  0.00    -0.531 OA
HETATM   34  O6  UNL     1       2.500   3.647   1.862  1.00  0.00    -0.531 OA
ENDBRANCH   9  32
TORSDOF 8
