REMARK  5 active torsions:
REMARK  status: ('A' for Active; 'I' for Inactive)
REMARK    1  A    between atoms: N5_15  and  C6_16 
REMARK    2  A    between atoms: C6_16  and  C7_17 
REMARK    3  A    between atoms: N7_20  and  C8_21 
REMARK    4  A    between atoms: C8_21  and  C9_22 
REMARK    5  A    between atoms: C10_30  and  N12_31 
ROOT
HETATM    1  C7  UNL     1       0.288   0.313  -0.670  1.00  0.00     0.131 A 
HETATM    2  N6  UNL     1       1.318   0.647   0.128  1.00  0.00    -0.270 N 
ATOM      3  H6  UNL     1       1.464   1.564   0.550  1.00  0.00     0.189 HD
HETATM    4  N7  UNL     1       2.120  -0.412   0.282  1.00  0.00    -0.116 N 
HETATM    5  C10 UNL     1       1.611  -1.440  -0.420  1.00  0.00     0.694 A 
HETATM    6  N13 UNL     1       0.490  -0.974  -0.994  1.00  0.00    -0.176 N 
ATOM      7  H13 UNL     1      -0.125  -1.523  -1.595  1.00  0.00     0.185 HD
ENDROOT
BRANCH   1   8
HETATM    8  C6  UNL     1      -0.819   1.207  -1.084  1.00  0.00     0.210 C 
BRANCH   8   9
HETATM    9  N5  UNL     1      -1.929   1.133  -0.137  1.00  0.00    -0.320 N 
HETATM   10  C3  UNL     1      -2.991   0.309  -0.150  1.00  0.00     0.140 A 
HETATM   11  N3  UNL     1      -3.322  -0.658  -1.019  1.00  0.00    -0.336 N 
HETATM   12  C4  UNL     1      -3.807   0.561   0.920  1.00  0.00     0.122 A 
HETATM   13  C2  UNL     1      -4.456  -1.350  -0.802  1.00  0.00     0.183 A 
ATOM     14  H3  UNL     1      -2.730  -0.864  -1.823  1.00  0.00     0.168 HD
HETATM   15  N2  UNL     1      -5.273  -1.109   0.255  1.00  0.00    -0.337 N 
HETATM   16  C1  UNL     1      -4.980  -0.149   1.150  1.00  0.00     0.131 A 
ATOM     17  H2  UNL     1      -6.121  -1.664   0.372  1.00  0.00     0.168 HD
HETATM   18  N1  UNL     1      -5.752   0.084   2.155  1.00  0.00    -0.383 N 
ATOM     19  H12 UNL     1      -6.613  -0.437   2.324  1.00  0.00     0.157 HD
ATOM     20  H11 UNL     1      -5.530   0.812   2.834  1.00  0.00     0.157 HD
HETATM   21  N4  UNL     1      -3.232   1.562   1.602  1.00  0.00    -0.346 N 
HETATM   22  C5  UNL     1      -2.098   1.904   0.960  1.00  0.00     0.185 A 
ATOM     23  H4  UNL     1      -3.590   1.989   2.456  1.00  0.00     0.167 HD
ENDBRANCH   8   9
ENDBRANCH   1   8
BRANCH   4  24
HETATM   24  C8  UNL     1       3.322  -0.390   1.083  1.00  0.00     0.247 C 
BRANCH  24  25
HETATM   25  C9  UNL     1       4.505   0.005   0.304  1.00  0.00     0.130 A 
HETATM   26  N8  UNL     1       5.322  -0.832  -0.361  1.00  0.00    -0.269 N 
HETATM   27  N9  UNL     1       6.294  -0.155  -0.961  1.00  0.00    -0.005 NA
ATOM     28  H8  UNL     1       5.210  -1.845  -0.399  1.00  0.00     0.185 HD
HETATM   29  N10 UNL     1       6.079   1.128  -0.664  1.00  0.00    -0.225 N 
HETATM   30  N11 UNL     1       5.014   1.239   0.091  1.00  0.00    -0.274 N 
ATOM     31  H10 UNL     1       6.658   1.907  -0.978  1.00  0.00     0.205 HD
ATOM     32  H11 UNL     1       4.633   2.111   0.457  1.00  0.00     0.189 HD
ENDBRANCH  24  25
ENDBRANCH   4  24
BRANCH   5  33
HETATM   33  N12 UNL     1       2.113  -2.646  -0.517  1.00  0.00    -0.233 N 
ATOM     34 2H12 UNL     1       2.964  -3.000  -0.081  1.00  0.00     0.174 HD
ATOM     35 1H12 UNL     1       1.727  -3.426  -1.049  1.00  0.00     0.174 HD
ENDBRANCH   5  33
TORSDOF 5
