REMARK  7 active torsions:
REMARK  status: ('A' for Active; 'I' for Inactive)
REMARK    1  A    between atoms: C2_6  and  C3_7 
REMARK    2  A    between atoms: N4_8  and  N5_10 
REMARK    3  A    between atoms: N5_10  and  C4_12 
REMARK    4  A    between atoms: C5_15  and  C6_16 
REMARK    5  A    between atoms: C6_16  and  S1_17 
REMARK    6  A    between atoms: S1_17  and  C7_18 
REMARK    7  A    between atoms: C8_25  and  N10_26 
ROOT
HETATM    1  C4  UNL     1      -0.496  -0.580   1.198  1.00  0.00     0.712 A 
HETATM    2  N6  UNL     1      -1.783  -0.955   1.226  1.00  0.00    -0.177 N 
ATOM      3  H6  UNL     1      -2.050  -1.865   0.852  1.00  0.00     0.185 HD
HETATM    4  C5  UNL     1      -2.724  -0.148   1.740  1.00  0.00     0.123 A 
HETATM    5  N9  UNL     1      -2.343   1.071   2.239  1.00  0.00    -0.179 N 
ATOM      6  H9  UNL     1      -3.048   1.694   2.633  1.00  0.00     0.185 HD
HETATM    7  C8  UNL     1      -1.057   1.459   2.218  1.00  0.00     0.691 A 
HETATM    8  N11 UNL     1      -0.132   0.625   1.693  1.00  0.00    -0.021 N 
ATOM      9  H11 UNL     1       0.848   0.906   1.670  1.00  0.00     0.203 HD
ENDROOT
BRANCH   1  10
HETATM   10  N5  UNL     1       0.415  -1.348   0.706  1.00  0.00    -0.132 N 
ATOM     11  H5  UNL     1       0.146  -2.258   0.331  1.00  0.00     0.205 HD
BRANCH  10  12
HETATM   12  N4  UNL     1       1.759  -0.972   0.671  1.00  0.00    -0.294 N 
HETATM   13  C3  UNL     1       2.366  -0.767  -0.440  1.00  0.00     0.158 C 
ATOM     14  H4  UNL     1       2.269  -0.858   1.547  1.00  0.00     0.186 HD
BRANCH  13  15
HETATM   15  C2  UNL     1       3.763  -0.375  -0.502  1.00  0.00     0.151 A 
HETATM   16  N3  UNL     1       4.619  -0.164   0.515  1.00  0.00    -0.266 N 
HETATM   17  N2  UNL     1       5.800   0.179   0.031  1.00  0.00    -0.003 NA
ATOM     18  H3  UNL     1       4.392  -0.255   1.505  1.00  0.00     0.186 HD
HETATM   19  N1  UNL     1       5.720   0.192  -1.295  1.00  0.00    -0.221 N 
HETATM   20  C1  UNL     1       6.795   0.516  -2.182  1.00  0.00     0.197 C 
HETATM   21  N12 UNL     1       4.470  -0.148  -1.621  1.00  0.00    -0.269 N 
ATOM     22  H12 UNL     1       4.109  -0.223  -2.572  1.00  0.00     0.190 HD
ENDBRANCH  13  15
ENDBRANCH  10  12
ENDBRANCH   1  10
BRANCH   4  23
HETATM   23  C6  UNL     1      -4.164  -0.487   1.791  1.00  0.00     0.159 C 
BRANCH  23  24
HETATM   24  S1  UNL     1      -5.064   0.231   0.441  1.00  0.00    -0.090 SA
BRANCH  24  25
HETATM   25  C7  UNL     1      -4.712  -0.394  -1.165  1.00  0.00     0.148 C 
HETATM   26  N7  UNL     1      -3.883  -1.337  -1.401  1.00  0.00    -0.382 N 
ATOM     27  H72 UNL     1      -3.389  -1.753  -0.611  1.00  0.00     0.157 HD
ATOM     28  H71 UNL     1      -3.679  -1.699  -2.332  1.00  0.00     0.157 HD
HETATM   29  N8  UNL     1      -5.407   0.191  -2.276  1.00  0.00    -0.075 NA
ENDBRANCH  24  25
ENDBRANCH  23  24
ENDBRANCH   4  23
BRANCH   7  30
HETATM   30  N10 UNL     1      -0.634   2.591   2.671  1.00  0.00    -0.234 N 
ATOM     31 2H10 UNL     1      -1.332   3.220   3.067  1.00  0.00     0.174 HD
ATOM     32 1H10 UNL     1       0.342   2.886   2.655  1.00  0.00     0.174 HD
ENDBRANCH   7  30
TORSDOF 7
