REMARK  5 active torsions:
REMARK  status: ('A' for Active; 'I' for Inactive)
REMARK    1  A    between atoms: N1_2  and  N2_3 
REMARK    2  A    between atoms: N1_2  and  C6_13 
REMARK    3  A    between atoms: C2_5  and  C3_6 
REMARK    4  A    between atoms: C7_18  and  N7_19 
REMARK    5  A    between atoms: C8_22  and  N9_23 
ROOT
HETATM    1  C6  UNL     1      -0.216   0.215  -1.158  1.00  0.00     0.728 A 
HETATM    2  N5  UNL     1       0.846   0.730  -1.806  1.00  0.00    -0.115 N 
ATOM      3  H5  UNL     1       0.721   1.159  -2.723  1.00  0.00     0.206 HD
HETATM    4  N6  UNL     1       2.054   0.683  -1.260  1.00  0.00    -0.114 N 
ATOM      5  H6  UNL     1       2.840   1.081  -1.775  1.00  0.00     0.206 HD
HETATM    6  C7  UNL     1       2.285   0.132  -0.055  1.00  0.00     0.749 A 
HETATM    7  N12 UNL     1       1.228  -0.385   0.597  1.00  0.00    -0.114 N 
ATOM      8  H12 UNL     1       1.353  -0.814   1.514  1.00  0.00     0.206 HD
HETATM    9  N13 UNL     1       0.020  -0.335   0.044  1.00  0.00    -0.115 N 
ATOM     10  H13 UNL     1      -0.766  -0.734   0.558  1.00  0.00     0.206 HD
ENDROOT
BRANCH   6  11
HETATM   11  N7  UNL     1       3.611   0.115   0.474  1.00  0.00     0.107 N 
HETATM   12  N8  UNL     1       4.251   1.113   1.058  1.00  0.00    -0.096 N 
HETATM   13  C8  UNL     1       5.489   0.757   1.441  1.00  0.00     0.706 A 
ATOM     14  H8  UNL     1       3.853   2.041   1.201  1.00  0.00     0.207 HD
HETATM   15  N10 UNL     1       5.617  -0.527   1.075  1.00  0.00    -0.019 N 
HETATM   16  C9  UNL     1       4.481  -0.929   0.485  1.00  0.00     0.727 A 
ATOM     17  H10 UNL     1       6.445  -1.105   1.222  1.00  0.00     0.203 HD
HETATM   18  N11 UNL     1       4.202  -2.098  -0.007  1.00  0.00    -0.232 N 
ATOM     19 2H11 UNL     1       3.338  -2.404  -0.456  1.00  0.00     0.174 HD
ATOM     20 1H11 UNL     1       4.855  -2.882   0.001  1.00  0.00     0.174 HD
BRANCH  13  21
HETATM   21  N9  UNL     1       6.326   1.536   2.033  1.00  0.00    -0.233 N 
ATOM     22  H92 UNL     1       6.229   2.512   2.311  1.00  0.00     0.174 HD
ATOM     23  H91 UNL     1       7.266   1.266   2.324  1.00  0.00     0.174 HD
ENDBRANCH  13  21
ENDBRANCH   6  11
BRANCH   1  24
HETATM   24  N1  UNL     1      -1.523   0.221  -1.659  1.00  0.00    -0.126 N 
HETATM   25  C1  UNL     1      -1.893   0.788  -2.946  1.00  0.00     0.197 C 
BRANCH  24  26
HETATM   26  N2  UNL     1      -2.560  -0.335  -0.919  1.00  0.00    -0.295 N 
HETATM   27  C2  UNL     1      -3.444   0.378  -0.351  1.00  0.00     0.122 C 
ATOM     28  H2  UNL     1      -2.613  -1.350  -0.829  1.00  0.00     0.186 HD
BRANCH  27  29
HETATM   29  C3  UNL     1      -4.512  -0.293   0.416  1.00  0.00     0.015 A 
HETATM   30  C4  UNL     1      -4.674  -1.637   0.600  1.00  0.00     0.121 A 
HETATM   31  N3  UNL     1      -5.786  -1.813   1.371  1.00  0.00    -0.311 N 
HETATM   32  N4  UNL     1      -6.296  -0.638   1.657  1.00  0.00    -0.311 N 
ATOM     33  H3  UNL     1      -6.160  -2.712   1.676  1.00  0.00     0.186 HD
HETATM   34  C5  UNL     1      -5.550   0.326   1.094  1.00  0.00     0.121 A 
ATOM     35  H4  UNL     1      -7.131  -0.481   2.221  1.00  0.00     0.186 HD
ENDBRANCH  27  29
ENDBRANCH  24  26
ENDBRANCH   1  24
TORSDOF 5
