REMARK  7 active torsions:
REMARK  status: ('A' for Active; 'I' for Inactive)
REMARK    1  A    between atoms: C2_2  and  N1_3 
REMARK    2  A    between atoms: N4_8  and  C3_9 
REMARK    3  A    between atoms: C3_9  and  S1_10 
REMARK    4  A    between atoms: S1_10  and  C4_11 
REMARK    5  A    between atoms: C7_20  and  N8_21 
REMARK    6  A    between atoms: C9_27  and  N10_28 
REMARK    7  A    between atoms: N10_28  and  N11_30 
ROOT
HETATM    1  C4  UNL     1      -2.584  -1.505   0.329  1.00  0.00     0.103 A 
HETATM    2  N5  UNL     1      -3.189  -2.729   0.197  1.00  0.00    -0.345 N 
ATOM      3  H5  UNL     1      -2.605  -3.562   0.274  1.00  0.00     0.167 HD
HETATM    4  C5  UNL     1      -4.487  -2.898  -0.025  1.00  0.00     0.183 A 
HETATM    5  N6  UNL     1      -5.330  -1.862  -0.141  1.00  0.00    -0.336 N 
ATOM      6  H6  UNL     1      -6.327  -1.995  -0.311  1.00  0.00     0.168 HD
HETATM    7  C6  UNL     1      -4.782  -0.629  -0.019  1.00  0.00     0.152 A 
HETATM    8  N7  UNL     1      -5.367   0.574  -0.089  1.00  0.00    -0.174 N 
ATOM      9  H7  UNL     1      -6.358   0.751  -0.252  1.00  0.00     0.186 HD
HETATM   10  C7  UNL     1      -4.422   1.500   0.093  1.00  0.00     0.678 A 
HETATM   11  N9  UNL     1      -3.231   0.901   0.279  1.00  0.00    -0.185 N 
ATOM     12  H9  UNL     1      -2.340   1.370   0.440  1.00  0.00     0.184 HD
HETATM   13  C8  UNL     1      -3.427  -0.425   0.214  1.00  0.00     0.127 A 
ENDROOT
BRANCH   1  14
HETATM   14  S1  UNL     1      -0.849  -1.400   0.623  1.00  0.00    -0.087 SA
BRANCH  14  15
HETATM   15  C3  UNL     1      -0.133   0.195   0.785  1.00  0.00     0.250 C 
BRANCH  15  16
HETATM   16  N4  UNL     1       1.318   0.014   1.019  1.00  0.00    -0.096 N 
HETATM   17  N3  UNL     1       1.952  -0.112   2.158  1.00  0.00    -0.210 N 
HETATM   18  N2  UNL     1       3.241  -0.252   1.937  1.00  0.00    -0.211 N 
ATOM     19  H3  UNL     1       1.512  -0.103   3.078  1.00  0.00     0.210 HD
HETATM   20  N1  UNL     1       3.463  -0.218   0.609  1.00  0.00    -0.106 N 
ATOM     21  H2  UNL     1       3.956  -0.368   2.655  1.00  0.00     0.210 HD
HETATM   22  C9  UNL     1       2.287  -0.054   0.045  1.00  0.00     0.733 A 
BRANCH  20  23
HETATM   23  C2  UNL     1       4.754  -0.352  -0.037  1.00  0.00     0.165 C 
HETATM   24  C1  UNL     1       5.429   0.958  -0.283  1.00  0.00     0.029 C 
ENDBRANCH  20  23
BRANCH  22  25
HETATM   25  N10 UNL     1       1.989   0.050  -1.193  1.00  0.00    -0.136 N 
ATOM     26  H10 UNL     1       0.998   0.172  -1.400  1.00  0.00     0.205 HD
BRANCH  25  27
HETATM   27  N11 UNL     1       2.826   0.019  -2.286  1.00  0.00    -0.331 N 
ATOM     28 2H11 UNL     1       3.813  -0.104  -2.059  1.00  0.00     0.177 HD
ATOM     29 1H11 UNL     1       2.588   0.102  -3.274  1.00  0.00     0.177 HD
ENDBRANCH  25  27
ENDBRANCH  22  25
ENDBRANCH  15  16
ENDBRANCH  14  15
ENDBRANCH   1  14
BRANCH  10  30
HETATM   30  N8  UNL     1      -4.631   2.787   0.089  1.00  0.00    -0.234 N 
ATOM     31  H82 UNL     1      -5.534   3.241  -0.052  1.00  0.00     0.174 HD
ATOM     32  H81 UNL     1      -3.909   3.494   0.228  1.00  0.00     0.174 HD
ENDBRANCH  10  30
TORSDOF 7
