REMARK  6 active torsions:
REMARK  status: ('A' for Active; 'I' for Inactive)
REMARK    1  A    between atoms: C2_5  and  C3_6 
REMARK    2  A    between atoms: C3_6  and  N3_7 
REMARK    3  A    between atoms: C3_6  and  C4_11 
REMARK    4  A    between atoms: C4_11  and  C5_12 
REMARK    5  A    between atoms: C7_17  and  N6_18 
REMARK    6  A    between atoms: C11_29  and  C12_30 
ROOT
HETATM    1  C3  UNL     1       0.109   0.571   0.168  1.00  0.00     0.242 C 
ENDROOT
BRANCH   1   2
HETATM    2  C2  UNL     1      -1.377   0.499  -0.025  1.00  0.00     0.083 A 
HETATM    3  N2  UNL     1      -2.023  -0.028  -1.079  1.00  0.00    -0.298 N 
HETATM    4  N1  UNL     1      -3.349   0.070  -0.910  1.00  0.00    -0.290 N 
ATOM      5  H2  UNL     1      -1.569  -0.444  -1.892  1.00  0.00     0.187 HD
HETATM    6  C1  UNL     1      -4.370  -0.391  -1.839  1.00  0.00     0.178 C 
HETATM    7  C11 UNL     1      -3.553   0.670   0.267  1.00  0.00     0.141 A 
HETATM    8  C10 UNL     1      -2.320   0.962   0.868  1.00  0.00     0.105 A 
HETATM    9  N9  UNL     1      -2.148   1.595   2.116  1.00  0.00    -0.098 NA
BRANCH   7  10
HETATM   10  C12 UNL     1      -4.825   1.004   0.896  1.00  0.00     0.285 C 
HETATM   11  N10 UNL     1      -6.082   0.706   0.304  1.00  0.00    -0.056 NA
HETATM   12  O1  UNL     1      -4.886   1.583   2.020  1.00  0.00    -0.269 OA
ENDBRANCH   7  10
ENDBRANCH   1   2
BRANCH   1  13
HETATM   13  N3  UNL     1       0.407  -0.340   1.271  1.00  0.00    -0.069 N 
ATOM     14  H33 UNL     1      -0.126  -0.145   2.119  1.00  0.00     0.275 HD
ATOM     15  H32 UNL     1       0.059  -1.287   1.125  1.00  0.00     0.275 HD
ATOM     16  H31 UNL     1       1.417  -0.291   1.402  1.00  0.00     0.275 HD
ENDBRANCH   1  13
BRANCH   1  17
HETATM   17  C4  UNL     1       0.835   0.143  -1.079  1.00  0.00     0.100 C 
BRANCH  17  18
HETATM   18  C5  UNL     1       2.292   0.187  -0.969  1.00  0.00     0.058 A 
HETATM   19  N4  UNL     1       3.073   1.168  -1.499  1.00  0.00    -0.352 N 
HETATM   20  C6  UNL     1       4.360   0.940  -1.230  1.00  0.00     0.209 A 
ATOM     21  H4  UNL     1       2.723   1.967  -2.028  1.00  0.00     0.166 HD
HETATM   22  N5  UNL     1       4.422  -0.213  -0.509  1.00  0.00    -0.127 N 
HETATM   23  C7  UNL     1       5.460  -0.887   0.009  1.00  0.00     0.685 A 
HETATM   24  C9  UNL     1       3.156  -0.679  -0.346  1.00  0.00     0.153 A 
HETATM   25  N7  UNL     1       5.241  -2.026   0.690  1.00  0.00    -0.188 N 
HETATM   26  C8  UNL     1       4.010  -2.520   0.875  1.00  0.00     0.199 A 
ATOM     27  H7  UNL     1       6.038  -2.530   1.078  1.00  0.00     0.185 HD
HETATM   28  N8  UNL     1       2.983  -1.831   0.348  1.00  0.00    -0.336 N 
ATOM     29  H8  UNL     1       2.036  -2.189   0.475  1.00  0.00     0.168 HD
BRANCH  23  30
HETATM   30  N6  UNL     1       6.652  -0.427  -0.156  1.00  0.00    -0.234 N 
ATOM     31  H62 UNL     1       6.818   0.437  -0.672  1.00  0.00     0.174 HD
ATOM     32  H61 UNL     1       7.441  -0.939   0.238  1.00  0.00     0.174 HD
ENDBRANCH  23  30
ENDBRANCH  17  18
ENDBRANCH   1  17
TORSDOF 6
