REMARK  6 active torsions:
REMARK  status: ('A' for Active; 'I' for Inactive)
REMARK       I    between atoms: N1_2  and  C2_4 
REMARK    1  A    between atoms: C2_4  and  S1_6 
REMARK    2  A    between atoms: S1_6  and  C3_7 
REMARK    3  A    between atoms: C4_12  and  C5_13 
REMARK    4  A    between atoms: N4_15  and  N5_17 
REMARK       I    between atoms: N5_17  and  C7_19 
REMARK       I    between atoms: C7_19  and  N6_21 
REMARK    5  A    between atoms: N6_21  and  N7_23 
REMARK    6  A    between atoms: N8_28  and  N9_29 
ROOT
HETATM    1  C3  UNL     1       2.402  -1.629  -0.618  1.00  0.00     0.192 A 
HETATM    2  N2  UNL     1       1.896  -2.056   0.552  1.00  0.00    -0.277 N 
ATOM      3  H2  UNL     1       2.503  -2.538   1.215  1.00  0.00     0.189 HD
HETATM    4  N3  UNL     1       0.621  -1.861   0.857  1.00  0.00    -0.292 N 
ATOM      5  H3  UNL     1       0.279  -2.201   1.756  1.00  0.00     0.187 HD
HETATM    6  C4  UNL     1      -0.245  -1.235   0.037  1.00  0.00     0.142 A 
HETATM    7  C8  UNL     1       0.275  -0.793  -1.172  1.00  0.00     0.298 A 
HETATM    8  O3  UNL     1      -0.431  -0.202  -2.006  1.00  0.00    -0.263 OA
HETATM    9  N8  UNL     1       1.589  -0.999  -1.475  1.00  0.00    -0.200 N 
ENDROOT
BRANCH   6  10
HETATM   10  C5  UNL     1      -1.636  -1.020   0.366  1.00  0.00     0.056 C 
HETATM   11  C6  UNL     1      -2.154  -1.502   1.657  1.00  0.00     0.072 C 
HETATM   12  N4  UNL     1      -2.399  -0.418  -0.461  1.00  0.00    -0.299 N 
ATOM     13  H4  UNL     1      -1.979  -0.109  -1.338  1.00  0.00     0.186 HD
BRANCH  12  14
HETATM   14  N5  UNL     1      -3.742  -0.146  -0.279  1.00  0.00    -0.250 N 
HETATM   15  C7  UNL     1      -4.187   1.042   0.361  1.00  0.00     0.352 C 
HETATM   16  O2  UNL     1      -3.337   1.889   0.785  1.00  0.00    -0.244 OA
HETATM   17  N6  UNL     1      -5.573   1.290   0.531  1.00  0.00    -0.257 N 
ATOM     18  H6  UNL     1      -6.258   0.615   0.193  1.00  0.00     0.191 HD
ATOM     19  H5  UNL     1      -4.433  -0.817  -0.614  1.00  0.00     0.192 HD
BRANCH  17  20
HETATM   20  N7  UNL     1      -6.000   2.467   1.166  1.00  0.00    -0.341 N 
ATOM     21  H72 UNL     1      -5.302   3.132   1.499  1.00  0.00     0.177 HD
ATOM     22  H71 UNL     1      -6.997   2.645   1.288  1.00  0.00     0.177 HD
ENDBRANCH  17  20
ENDBRANCH  12  14
ENDBRANCH   6  10
BRANCH   9  23
HETATM   23  N9  UNL     1       2.123  -0.559  -2.687  1.00  0.00    -0.333 N 
ATOM     24  H92 UNL     1       3.106  -0.713  -2.914  1.00  0.00     0.177 HD
ATOM     25  H91 UNL     1       1.504  -0.079  -3.340  1.00  0.00     0.177 HD
ENDBRANCH   9  23
BRANCH   1  26
HETATM   26  S1  UNL     1       4.107  -1.866  -1.077  1.00  0.00     0.010 SA
BRANCH  26  27
HETATM   27  C2  UNL     1       5.133  -0.521  -0.549  1.00  0.00     0.287 C 
HETATM   28  N1  UNL     1       4.572   0.561   0.147  1.00  0.00    -0.356 N 
HETATM   29  C1  UNL     1       5.417   1.652   0.573  1.00  0.00     0.150 C 
ATOM     30  H1  UNL     1       3.573   0.577   0.351  1.00  0.00     0.162 HD
HETATM   31  O1  UNL     1       6.355  -0.551  -0.803  1.00  0.00    -0.260 OA
ENDBRANCH  26  27
ENDBRANCH   1  26
TORSDOF 6
