REMARK  8 active torsions:
REMARK  status: ('A' for Active; 'I' for Inactive)
REMARK    1  A    between atoms: O1_2  and  C2_3 
REMARK    2  A    between atoms: C2_3  and  O2_4 
REMARK    3  A    between atoms: O2_4  and  N1_5 
REMARK    4  A    between atoms: N1_5  and  C3_7 
REMARK    5  A    between atoms: C5_11  and  N3_12 
REMARK    6  A    between atoms: N3_12  and  N4_14 
REMARK    7  A    between atoms: C6_19  and  N6_20 
REMARK    8  A    between atoms: C9_26  and  S1_27 
ROOT
HETATM    1  C3  UNL     1       1.181  -0.288  -0.966  1.00  0.00     0.703 A 
HETATM    2  N2  UNL     1       0.810  -0.170   0.313  1.00  0.00    -0.184 N 
ATOM      3  H2  UNL     1       1.544  -0.129   1.021  1.00  0.00     0.184 HD
HETATM    4  C4  UNL     1      -0.470  -0.102   0.728  1.00  0.00     0.125 A 
HETATM    5  C5  UNL     1      -0.773   0.018   2.062  1.00  0.00     0.165 A 
HETATM    6  N5  UNL     1      -2.061   0.079   2.388  1.00  0.00    -0.173 N 
ATOM      7  H5  UNL     1      -2.320   0.169   3.370  1.00  0.00     0.186 HD
HETATM    8  C6  UNL     1      -3.022   0.026   1.466  1.00  0.00     0.680 A 
HETATM    9  N7  UNL     1      -2.782  -0.094   0.119  1.00  0.00    -0.183 N 
HETATM   10  C7  UNL     1      -3.836  -0.147  -0.829  1.00  0.00     0.175 C 
HETATM   11  C8  UNL     1      -1.494  -0.158  -0.244  1.00  0.00     0.116 A 
HETATM   12  C9  UNL     1      -1.133  -0.278  -1.559  1.00  0.00     0.115 A 
HETATM   13  N8  UNL     1       0.196  -0.338  -1.861  1.00  0.00    -0.182 N 
ATOM     14  H8  UNL     1       0.454  -0.428  -2.844  1.00  0.00     0.185 HD
ENDROOT
BRANCH   1  15
HETATM   15  N1  UNL     1       2.433  -0.350  -1.321  1.00  0.00    -0.094 N 
ATOM     16  H1  UNL     1       2.651  -0.439  -2.314  1.00  0.00     0.213 HD
BRANCH  15  17
HETATM   17  O2  UNL     1       3.458  -0.302  -0.442  1.00  0.00    -0.240 OA
BRANCH  17  18
HETATM   18  C2  UNL     1       3.760   0.731   0.441  1.00  0.00     0.369 C 
BRANCH  18  19
HETATM   19  O1  UNL     1       4.914   0.337   1.156  1.00  0.00    -0.369 OA
HETATM   20  C1  UNL     1       5.904   0.154   0.174  1.00  0.00     0.204 C 
ENDBRANCH  18  19
ENDBRANCH  17  18
ENDBRANCH  15  17
ENDBRANCH   1  15
BRANCH  12  21
HETATM   21  S1  UNL     1      -2.346  -0.355  -2.837  1.00  0.00    -0.114 SA
HETATM   22  C10 UNL     1      -1.619  -0.512  -4.469  1.00  0.00     0.097 C 
ENDBRANCH  12  21
BRANCH   5  23
HETATM   23  N3  UNL     1       0.174   0.067   2.930  1.00  0.00    -0.290 N 
ATOM     24  H3  UNL     1       1.145   0.016   2.621  1.00  0.00     0.188 HD
BRANCH  23  25
HETATM   25  N4  UNL     1      -0.112   0.190   4.294  1.00  0.00    -0.344 N 
ATOM     26  H42 UNL     1      -1.088   0.240   4.586  1.00  0.00     0.176 HD
ATOM     27  H41 UNL     1       0.639   0.229   4.983  1.00  0.00     0.176 HD
ENDBRANCH  23  25
ENDBRANCH   5  23
BRANCH   8  28
HETATM   28  N6  UNL     1      -4.279   0.090   1.848  1.00  0.00    -0.234 N 
ATOM     29  H62 UNL     1      -4.457   0.179   2.848  1.00  0.00     0.174 HD
ATOM     30  H61 UNL     1      -5.014   0.049   1.142  1.00  0.00     0.174 HD
ENDBRANCH   8  28
TORSDOF 8
