REMARK  5 active torsions:
REMARK  status: ('A' for Active; 'I' for Inactive)
REMARK    1  A    between atoms: N1_1  and  C1_4 
REMARK    2  A    between atoms: C2_9  and  N4_10 
REMARK    3  A    between atoms: C4_14  and  C5_15 
REMARK    4  A    between atoms: C5_15  and  N5_16 
REMARK    5  A    between atoms: C6_20  and  C7_21 
REMARK       I    between atoms: C7_21  and  N8_23 
ROOT
HETATM    1  C5  UNL     1      -1.665   0.699   1.304  1.00  0.00     0.131 C 
ENDROOT
BRANCH   1   2
HETATM    2  C4  UNL     1      -2.520  -0.029   0.391  1.00  0.00     0.030 A 
HETATM    3  C1  UNL     1      -2.179  -1.090  -0.407  1.00  0.00     0.125 A 
HETATM    4  N2  UNL     1      -3.116  -1.665  -1.220  1.00  0.00    -0.283 N 
HETATM    5  N3  UNL     1      -4.349  -1.248  -1.278  1.00  0.00    -0.279 N 
ATOM      6  H2  UNL     1      -2.838  -2.453  -1.805  1.00  0.00     0.188 HD
HETATM    7  C2  UNL     1      -4.755  -0.215  -0.527  1.00  0.00     0.189 A 
ATOM      8  H3  UNL     1      -5.011  -1.712  -1.900  1.00  0.00     0.189 HD
HETATM    9  C3  UNL     1      -3.847   0.404   0.315  1.00  0.00     0.073 A 
BRANCH   3  10
HETATM   10  N1  UNL     1      -1.000  -1.557  -0.408  1.00  0.00    -0.384 N 
ATOM     11  H12 UNL     1      -0.746  -2.347  -1.002  1.00  0.00     0.157 HD
ATOM     12  H11 UNL     1      -0.301  -1.128   0.198  1.00  0.00     0.157 HD
ENDBRANCH   3  10
BRANCH   7  13
HETATM   13  N4  UNL     1      -6.108   0.214  -0.615  1.00  0.00    -0.097 N 
HETATM   14  O1  UNL     1      -6.504   1.174   0.076  1.00  0.00    -0.530 OA
HETATM   15  O2  UNL     1      -6.952  -0.438  -1.462  1.00  0.00    -0.530 OA
ENDBRANCH   7  13
ENDBRANCH   1   2
BRANCH   1  16
HETATM   16  N5  UNL     1      -0.283   0.391   1.369  1.00  0.00    -0.234 N 
HETATM   17  N6  UNL     1       0.330  -0.473   2.163  1.00  0.00    -0.014 NA
HETATM   18  N7  UNL     1       1.634  -0.458   1.942  1.00  0.00    -0.276 N 
HETATM   19  C6  UNL     1       1.866   0.443   0.975  1.00  0.00     0.157 A 
ATOM     20  H7  UNL     1       2.334  -1.026   2.419  1.00  0.00     0.184 HD
HETATM   21  C9  UNL     1       0.656   0.984   0.609  1.00  0.00     0.169 A 
HETATM   22  N11 UNL     1       0.445   1.995  -0.401  1.00  0.00    -0.078 NA
BRANCH  19  23
HETATM   23  C7  UNL     1       3.135   0.830   0.377  1.00  0.00     0.278 C 
HETATM   24  O3  UNL     1       3.237   1.690  -0.524  1.00  0.00    -0.265 OA
HETATM   25  N8  UNL     1       4.332   0.210   0.827  1.00  0.00    -0.298 N 
HETATM   26  C8  UNL     1       5.064  -0.403  -0.039  1.00  0.00     0.203 C 
ATOM     27  H8  UNL     1       4.605   0.249   1.809  1.00  0.00     0.171 HD
HETATM   28  N9  UNL     1       6.255  -1.010   0.460  1.00  0.00    -0.066 NA
HETATM   29  N10 UNL     1       4.697  -0.465  -1.407  1.00  0.00    -0.066 NA
ENDBRANCH  19  23
ENDBRANCH   1  16
TORSDOF 5
