REMARK  7 active torsions:
REMARK  status: ('A' for Active; 'I' for Inactive)
REMARK    1  A    between atoms: C5_14  and  S1_15 
REMARK    2  A    between atoms: S1_15  and  C6_16 
REMARK    3  A    between atoms: C6_16  and  C7_17 
REMARK    4  A    between atoms: C7_17  and  N6_18 
REMARK    5  A    between atoms: C7_17  and  C8_22 
REMARK    6  A    between atoms: C9_27  and  N8_28 
REMARK    7  A    between atoms: N8_28  and  N9_30 
ROOT
HETATM    1  N1  UNL     1       6.732  -0.214   1.342  1.00  0.00    -0.172 NA
HETATM    2  C1  UNL     1       5.662  -0.456   0.934  1.00  0.00     0.183 C 
HETATM    3  N2  UNL     1       4.377  -0.744   0.470  1.00  0.00    -0.278 N 
ATOM      4  H2  UNL     1       4.145  -1.676   0.127  1.00  0.00     0.179 HD
HETATM    5  C2  UNL     1       3.493   0.186   0.483  1.00  0.00     0.133 A 
HETATM    6  N3  UNL     1       3.721   1.433   0.918  1.00  0.00    -0.337 N 
ATOM      7  H3  UNL     1       4.651   1.669   1.263  1.00  0.00     0.168 HD
HETATM    8  C3  UNL     1       2.769   2.387   0.918  1.00  0.00     0.183 A 
HETATM    9  N4  UNL     1       1.526   2.137   0.477  1.00  0.00    -0.338 N 
ATOM     10  H4  UNL     1       0.806   2.859   0.478  1.00  0.00     0.168 HD
HETATM   11  C4  UNL     1       1.268   0.875   0.028  1.00  0.00     0.126 A 
HETATM   12  N5  UNL     1       0.035   0.590  -0.421  1.00  0.00    -0.322 N 
ATOM     13  H5  UNL     1      -0.671   1.326  -0.413  1.00  0.00     0.169 HD
HETATM   14  C5  UNL     1      -0.306  -0.621  -0.879  1.00  0.00     0.147 A 
HETATM   15  N7  UNL     1       0.661  -1.588  -0.879  1.00  0.00    -0.321 N 
ATOM     16  H7  UNL     1       0.423  -2.518  -1.224  1.00  0.00     0.169 HD
HETATM   17  C9  UNL     1       1.901  -1.364  -0.446  1.00  0.00     0.139 A 
HETATM   18  C10 UNL     1       2.230  -0.110   0.021  1.00  0.00     0.098 A 
ENDROOT
BRANCH  17  19
HETATM   19  N8  UNL     1       2.796  -2.305  -0.460  1.00  0.00    -0.291 N 
ATOM     20  H8  UNL     1       3.738  -2.105  -0.123  1.00  0.00     0.188 HD
BRANCH  19  21
HETATM   21  N9  UNL     1       2.497  -3.571  -0.922  1.00  0.00    -0.344 N 
ATOM     22  H92 UNL     1       1.551  -3.754  -1.255  1.00  0.00     0.176 HD
ATOM     23  H91 UNL     1       3.200  -4.310  -0.933  1.00  0.00     0.176 HD
ENDBRANCH  19  21
ENDBRANCH  17  19
BRANCH  14  24
HETATM   24  S1  UNL     1      -1.932  -0.976  -1.449  1.00  0.00    -0.091 SA
BRANCH  24  25
HETATM   25  C6  UNL     1      -3.114   0.334  -1.276  1.00  0.00     0.126 C 
BRANCH  25  26
HETATM   26  C7  UNL     1      -3.532   0.669   0.127  1.00  0.00     0.293 C 
BRANCH  26  27
HETATM   27  N6  UNL     1      -4.498   1.764   0.057  1.00  0.00    -0.064 N 
ATOM     28  H63 UNL     1      -4.143   2.572  -0.454  1.00  0.00     0.275 HD
ATOM     29  H62 UNL     1      -5.289   1.555  -0.552  1.00  0.00     0.275 HD
ATOM     30  H61 UNL     1      -4.782   1.992   1.010  1.00  0.00     0.275 HD
ENDBRANCH  26  27
BRANCH  26  31
HETATM   31  C8  UNL     1      -4.158  -0.450   0.836  1.00  0.00     0.205 C 
HETATM   32  O1  UNL     1      -3.589  -1.549   1.065  1.00  0.00    -0.646 OA
HETATM   33  O2  UNL     1      -5.457  -0.321   1.296  1.00  0.00    -0.646 OA
ENDBRANCH  26  31
ENDBRANCH  25  26
ENDBRANCH  24  25
ENDBRANCH  14  24
TORSDOF 7
