REMARK  4 active torsions:
REMARK  status: ('A' for Active; 'I' for Inactive)
REMARK    1  A    between atoms: C4_8  and  C5_9 
REMARK    2  A    between atoms: C6_17  and  C7_18 
REMARK       I    between atoms: C7_18  and  N8_20 
REMARK    3  A    between atoms: N8_20  and  N9_22 
REMARK    4  A    between atoms: C8_24  and  C9_25 
ROOT
HETATM    1  N1  UNL     1      -0.364  -3.843  -0.096  1.00  0.00    -0.191 NA
HETATM    2  C1  UNL     1      -0.984  -2.851  -0.082  1.00  0.00     0.104 C 
HETATM    3  C2  UNL     1      -1.776  -1.649  -0.085  1.00  0.00     0.103 A 
HETATM    4  C3  UNL     1      -3.157  -1.631  -0.092  1.00  0.00     0.139 A 
HETATM    5  N2  UNL     1      -3.991  -2.803  -0.065  1.00  0.00    -0.081 NA
HETATM    6  N3  UNL     1      -3.546  -0.383  -0.128  1.00  0.00    -0.340 N 
ATOM      7  H3  UNL     1      -4.525  -0.096  -0.141  1.00  0.00     0.167 HD
HETATM    8  C4  UNL     1      -2.500   0.494  -0.146  1.00  0.00     0.098 A 
HETATM    9  C6  UNL     1      -1.366  -0.333  -0.118  1.00  0.00     0.088 A 
ENDROOT
BRANCH   9  10
HETATM   10  C7  UNL     1       0.009   0.096  -0.074  1.00  0.00     0.274 C 
HETATM   11  O1  UNL     1       0.368   1.156  -0.639  1.00  0.00    -0.266 OA
HETATM   12  N8  UNL     1       1.042  -0.610   0.589  1.00  0.00    -0.266 N 
ATOM     13  H8  UNL     1       0.817  -1.477   1.077  1.00  0.00     0.190 HD
BRANCH  12  14
HETATM   14  N9  UNL     1       2.376  -0.145   0.592  1.00  0.00    -0.305 N 
HETATM   15  C8  UNL     1       3.327  -0.805   0.048  1.00  0.00     0.158 C 
ATOM     16  H9  UNL     1       2.587   0.745   1.042  1.00  0.00     0.186 HD
BRANCH  15  17
HETATM   17  C9  UNL     1       4.674  -0.275   0.084  1.00  0.00     0.154 A 
HETATM   18  N10 UNL     1       5.786  -0.825  -0.430  1.00  0.00    -0.268 N 
HETATM   19  N11 UNL     1       6.787  -0.020  -0.176  1.00  0.00    -0.227 N 
ATOM     20  H10 UNL     1       5.841  -1.713  -0.930  1.00  0.00     0.190 HD
HETATM   21  N12 UNL     1       6.379   1.050   0.492  1.00  0.00    -0.227 N 
ATOM     22  H11 UNL     1       7.753  -0.193  -0.455  1.00  0.00     0.210 HD
HETATM   23  N13 UNL     1       5.079   0.887   0.649  1.00  0.00    -0.268 N 
ATOM     24  H12 UNL     1       6.948   1.832   0.815  1.00  0.00     0.210 HD
ATOM     25  H13 UNL     1       4.465   1.545   1.129  1.00  0.00     0.190 HD
ENDBRANCH  15  17
ENDBRANCH  12  14
ENDBRANCH   9  10
BRANCH   8  26
HETATM   26  C5  UNL     1      -2.618   1.925  -0.171  1.00  0.00     0.162 A 
HETATM   27  N4  UNL     1      -3.818   2.582  -0.184  1.00  0.00    -0.270 N 
HETATM   28  N5  UNL     1      -3.624   3.887  -0.193  1.00  0.00    -0.225 N 
ATOM     29  H4  UNL     1      -4.731   2.128  -0.186  1.00  0.00     0.190 HD
HETATM   30  N6  UNL     1      -2.311   4.088  -0.186  1.00  0.00    -0.005 NA
ATOM     31  H5  UNL     1      -4.347   4.607  -0.203  1.00  0.00     0.205 HD
HETATM   32  N7  UNL     1      -1.725   2.894  -0.172  1.00  0.00    -0.265 N 
ATOM     33  H7  UNL     1      -0.716   2.747  -0.163  1.00  0.00     0.186 HD
ENDBRANCH   8  26
TORSDOF 4
