REMARK  7 active torsions:
REMARK  status: ('A' for Active; 'I' for Inactive)
REMARK    1  A    between atoms: C3_6  and  N3_7 
REMARK    2  A    between atoms: C4_10  and  C5_11 
REMARK    3  A    between atoms: C5_11  and  N4_12 
REMARK    4  A    between atoms: C5_11  and  C6_16 
REMARK       I    between atoms: C6_16  and  N5_18 
REMARK    5  A    between atoms: N5_18  and  N6_20 
REMARK    6  A    between atoms: C7_21  and  N7_22 
REMARK    7  A    between atoms: C8_28  and  N9_29 
ROOT
HETATM    1  C6  UNL     1       0.338   0.624   0.962  1.00  0.00     0.273 C 
HETATM    2  O3  UNL     1       0.637   0.673   2.155  1.00  0.00    -0.269 OA
HETATM    3  N5  UNL     1       1.194   0.240  -0.048  1.00  0.00    -0.244 N 
ATOM      4  H5  UNL     1       0.749   0.238  -0.966  1.00  0.00     0.191 HD
ENDROOT
BRANCH   1   5
HETATM    5  C5  UNL     1      -1.097   1.036   0.671  1.00  0.00     0.330 C 
BRANCH   5   6
HETATM    6  C4  UNL     1      -1.803   0.119  -0.224  1.00  0.00     0.102 A 
HETATM    7  N1  UNL     1      -1.838  -1.202  -0.101  1.00  0.00    -0.296 N 
HETATM    8  C1  UNL     1      -1.284  -2.141   0.831  1.00  0.00     0.177 C 
HETATM    9  N2  UNL     1      -2.597  -1.654  -1.112  1.00  0.00    -0.307 N 
HETATM   10  C2  UNL     1      -3.041  -0.681  -1.865  1.00  0.00     0.145 A 
ATOM     11  H2  UNL     1      -2.803  -2.640  -1.274  1.00  0.00     0.186 HD
HETATM   12  C3  UNL     1      -2.555   0.503  -1.333  1.00  0.00     0.146 A 
BRANCH  12  13
HETATM   13  N3  UNL     1      -2.795   1.819  -1.851  1.00  0.00    -0.112 N 
HETATM   14  O1  UNL     1      -2.873   2.786  -1.083  1.00  0.00    -0.532 OA
HETATM   15  O2  UNL     1      -2.956   2.047  -3.197  1.00  0.00    -0.532 OA
ENDBRANCH  12  13
ENDBRANCH   5   6
BRANCH   5  16
HETATM   16  N4  UNL     1      -1.800   1.338   1.897  1.00  0.00    -0.061 N 
ATOM     17  H43 UNL     1      -2.735   1.691   1.692  1.00  0.00     0.275 HD
ATOM     18  H42 UNL     1      -2.041   0.478   2.389  1.00  0.00     0.275 HD
ATOM     19  H41 UNL     1      -1.308   1.977   2.521  1.00  0.00     0.275 HD
ENDBRANCH   5  16
ENDBRANCH   1   5
BRANCH   3  20
HETATM   20  N6  UNL     1       2.553  -0.152  -0.093  1.00  0.00    -0.059 N 
HETATM   21  C7  UNL     1       3.483   0.108   0.792  1.00  0.00     0.705 A 
HETATM   22  N8  UNL     1       4.698  -0.521   0.644  1.00  0.00    -0.156 N 
HETATM   23  S1  UNL     1       4.504  -1.439  -0.715  1.00  0.00     0.040 SA
ATOM     24  H8  UNL     1       5.525  -0.439   1.235  1.00  0.00     0.193 HD
HETATM   25  C8  UNL     1       2.911  -1.039  -1.094  1.00  0.00     0.198 A 
BRANCH  21  26
HETATM   26  N7  UNL     1       3.505   1.003   1.759  1.00  0.00    -0.232 N 
ATOM     27  H72 UNL     1       2.604   1.469   1.869  1.00  0.00     0.174 HD
ATOM     28  H71 UNL     1       4.229   1.205   2.448  1.00  0.00     0.174 HD
ENDBRANCH  21  26
BRANCH  25  29
HETATM   29  N9  UNL     1       2.163  -1.459  -2.090  1.00  0.00    -0.377 N 
ATOM     30  H92 UNL     1       1.199  -1.217  -2.319  1.00  0.00     0.158 HD
ATOM     31  H91 UNL     1       2.427  -2.112  -2.827  1.00  0.00     0.158 HD
ENDBRANCH  25  29
ENDBRANCH   3  20
TORSDOF 7
