REMARK  7 active torsions:
REMARK  status: ('A' for Active; 'I' for Inactive)
REMARK    1  A    between atoms: S1_2  and  C2_3 
REMARK    2  A    between atoms: C3_6  and  N2_7 
REMARK    3  A    between atoms: C4_12  and  N4_13 
REMARK    4  A    between atoms: N4_13  and  O1_15 
REMARK    5  A    between atoms: N5_17  and  C5_18 
REMARK    6  A    between atoms: C6_21  and  N7_22 
REMARK    7  A    between atoms: C9_27  and  N9_28 
ROOT
HETATM    1  C2  UNL     1       2.791   0.002  -0.545  1.00  0.00     0.200 A 
HETATM    2  N1  UNL     1       3.905  -0.758  -0.295  1.00  0.00    -0.168 N 
ATOM      3  H1  UNL     1       4.829  -0.373  -0.492  1.00  0.00     0.186 HD
HETATM    4  C3  UNL     1       3.801  -2.016   0.211  1.00  0.00     0.692 A 
HETATM    5  N3  UNL     1       2.579  -2.489   0.458  1.00  0.00    -0.020 N 
ATOM      6  H3  UNL     1       2.474  -3.430   0.838  1.00  0.00     0.203 HD
HETATM    7  C4  UNL     1       1.467  -1.740   0.212  1.00  0.00     0.739 A 
HETATM    8  N5  UNL     1       1.582  -0.501  -0.288  1.00  0.00     0.048 N 
ENDROOT
BRANCH   8   9
HETATM    9  C5  UNL     1       0.403   0.246  -0.528  1.00  0.00     0.734 A 
HETATM   10  N6  UNL     1      -0.794  -0.191  -0.037  1.00  0.00    -0.020 N 
HETATM   11  C6  UNL     1      -1.946   0.465  -0.235  1.00  0.00     0.708 A 
ATOM     12  H6  UNL     1      -0.812  -1.055   0.505  1.00  0.00     0.203 HD
HETATM   13  N8  UNL     1      -1.914   1.603  -0.949  1.00  0.00    -0.022 N 
HETATM   14  C9  UNL     1      -0.775   2.096  -1.465  1.00  0.00     0.705 A 
ATOM     15  H8  UNL     1      -2.785   2.111  -1.105  1.00  0.00     0.203 HD
HETATM   16  N10 UNL     1       0.361   1.392  -1.234  1.00  0.00    -0.020 N 
ATOM     17  H10 UNL     1       1.235   1.752  -1.618  1.00  0.00     0.203 HD
BRANCH  11  18
HETATM   18  N7  UNL     1      -3.197   0.026   0.263  1.00  0.00    -0.225 N 
HETATM   19  C7  UNL     1      -4.142  -0.700  -0.588  1.00  0.00     0.168 C 
HETATM   20  C8  UNL     1      -3.524   0.296   1.634  1.00  0.00     0.168 C 
ENDBRANCH  11  18
BRANCH  14  21
HETATM   21  N9  UNL     1      -0.789   3.176  -2.147  1.00  0.00    -0.234 N 
ATOM     22  H92 UNL     1      -1.643   3.705  -2.321  1.00  0.00     0.174 HD
ATOM     23  H91 UNL     1       0.075   3.550  -2.539  1.00  0.00     0.174 HD
ENDBRANCH  14  21
ENDBRANCH   8   9
BRANCH   1  24
HETATM   24  S1  UNL     1       2.937   1.641  -1.222  1.00  0.00    -0.096 SA
HETATM   25  C1  UNL     1       3.153   2.884   0.088  1.00  0.00     0.099 C 
ENDBRANCH   1  24
BRANCH   7  26
HETATM   26  N4  UNL     1       0.288  -2.185   0.447  1.00  0.00    -0.097 N 
ATOM     27  H4  UNL     1      -0.533  -1.610   0.258  1.00  0.00     0.213 HD
BRANCH  26  28
HETATM   28  O1  UNL     1       0.153  -3.449   0.957  1.00  0.00    -0.276 OA
ATOM     29  H1  UNL     1      -0.721  -3.779   1.131  1.00  0.00     0.245 HD
ENDBRANCH  26  28
ENDBRANCH   7  26
BRANCH   4  30
HETATM   30  N2  UNL     1       4.861  -2.714   0.444  1.00  0.00    -0.234 N 
ATOM     31  H22 UNL     1       5.796  -2.352   0.255  1.00  0.00     0.174 HD
ATOM     32  H21 UNL     1       4.783  -3.658   0.824  1.00  0.00     0.174 HD
ENDBRANCH   4  30
TORSDOF 7
