REMARK  11 active torsions:
REMARK  status: ('A' for Active; 'I' for Inactive)
REMARK    1  A    between atoms: N1_2  and  C2_5 
REMARK    2  A    between atoms: C2_5  and  C3_6 
REMARK    3  A    between atoms: C6_9  and  C7_10 
REMARK    4  A    between atoms: C7_10  and  S1_11 
REMARK    5  A    between atoms: S1_11  and  C8_12 
REMARK    6  A    between atoms: C9_17  and  N4_18 
REMARK    7  A    between atoms: N4_18  and  N5_20 
REMARK    8  A    between atoms: N7_25  and  N8_26 
REMARK    9  A    between atoms: N8_26  and  C10_28 
REMARK   10  A    between atoms: C12_34  and  N11_35 
REMARK   11  A    between atoms: C14_41  and  O3_42 
ROOT
HETATM    1  C8  UNL     1       1.437   0.381   1.771  1.00  0.00     0.199 A 
HETATM    2  N2  UNL     1       1.359   1.359   2.646  1.00  0.00    -0.263 N 
ATOM      3  H2  UNL     1       0.990   1.154   3.575  1.00  0.00     0.189 HD
HETATM    4  N3  UNL     1       1.757   2.662   2.362  1.00  0.00    -0.127 N 
ATOM      5  H3  UNL     1       1.676   3.381   3.081  1.00  0.00     0.205 HD
HETATM    6  C9  UNL     1       2.275   3.004   1.082  1.00  0.00     0.732 A 
HETATM    7  N6  UNL     1       2.350   2.052   0.226  1.00  0.00    -0.105 N 
ATOM      8  H6  UNL     1       2.715   2.259  -0.704  1.00  0.00     0.208 HD
HETATM    9  N7  UNL     1       1.952   0.740   0.514  1.00  0.00    -0.142 N 
ENDROOT
BRANCH   1  10
HETATM   10  S1  UNL     1       0.885  -1.197   2.292  1.00  0.00    -0.085 SA
BRANCH  10  11
HETATM   11  C7  UNL     1       0.214  -2.290   1.048  1.00  0.00     0.121 C 
BRANCH  11  12
HETATM   12  C6  UNL     1      -1.166  -1.831   0.667  1.00  0.00    -0.046 A 
HETATM   13  C5  UNL     1      -1.488  -1.031  -0.372  1.00  0.00     0.009 A 
HETATM   14  C4  UNL     1      -2.801  -0.640  -0.652  1.00  0.00     0.012 A 
HETATM   15  C3  UNL     1      -3.836  -1.065   0.141  1.00  0.00     0.000 A 
HETATM   16  C14 UNL     1      -3.516  -1.882   1.204  1.00  0.00     0.074 A 
HETATM   17  C13 UNL     1      -2.231  -2.266   1.479  1.00  0.00     0.045 A 
BRANCH  15  18
HETATM   18  C2  UNL     1      -5.246  -0.676  -0.114  1.00  0.00     0.273 C 
BRANCH  18  19
HETATM   19  N1  UNL     1      -5.357   0.183  -1.278  1.00  0.00    -0.075 N 
HETATM   20  C1  UNL     1      -6.718   0.564  -1.530  1.00  0.00     0.267 C 
ATOM     21  H12 UNL     1      -4.933  -0.248  -2.100  1.00  0.00     0.277 HD
ATOM     22  H11 UNL     1      -4.751   1.000  -1.196  1.00  0.00     0.277 HD
ENDBRANCH  18  19
ENDBRANCH  15  18
BRANCH  16  23
HETATM   23  O3  UNL     1      -4.566  -2.326   2.025  1.00  0.00    -0.360 OA
ATOM     24  H3  UNL     1      -4.345  -2.889   2.758  1.00  0.00     0.217 HD
ENDBRANCH  16  23
ENDBRANCH  11  12
ENDBRANCH  10  11
ENDBRANCH   1  10
BRANCH   9  25
HETATM   25  N8  UNL     1       2.148  -0.200  -0.492  1.00  0.00    -0.107 N 
ATOM     26  H8  UNL     1       1.352  -0.581  -1.004  1.00  0.00     0.208 HD
BRANCH  25  27
HETATM   27  C10 UNL     1       3.343  -0.583  -0.769  1.00  0.00     0.714 A 
HETATM   28  N9  UNL     1       4.427  -0.120  -0.132  1.00  0.00    -0.185 N 
HETATM   29  C11 UNL     1       5.679  -0.557  -0.461  1.00  0.00     0.215 A 
ATOM     30  H9  UNL     1       4.316   0.570   0.611  1.00  0.00     0.185 HD
HETATM   31  N10 UNL     1       5.840  -1.457  -1.428  1.00  0.00    -0.187 N 
HETATM   32  C12 UNL     1       4.754  -1.922  -2.068  1.00  0.00     0.691 A 
ATOM     33  H10 UNL     1       6.772  -1.788  -1.679  1.00  0.00     0.185 HD
HETATM   34  N12 UNL     1       3.517  -1.490  -1.743  1.00  0.00    -0.021 N 
ATOM     35  H12 UNL     1       2.707  -1.856  -2.242  1.00  0.00     0.203 HD
BRANCH  32  36
HETATM   36  N11 UNL     1       4.889  -2.786  -3.001  1.00  0.00    -0.234 N 
ATOM     37 2H11 UNL     1       5.824  -3.112  -3.247  1.00  0.00     0.174 HD
ATOM     38 1H11 UNL     1       4.065  -3.139  -3.487  1.00  0.00     0.174 HD
ENDBRANCH  32  36
ENDBRANCH  25  27
ENDBRANCH   9  25
BRANCH   6  39
HETATM   39  N4  UNL     1       2.667   4.348   0.840  1.00  0.00    -0.069 N 
ATOM     40  H4  UNL     1       3.606   4.535   0.488  1.00  0.00     0.212 HD
BRANCH  39  41
HETATM   41  N5  UNL     1       1.802   5.422   1.071  1.00  0.00    -0.024 N 
HETATM   42  O1  UNL     1       1.134   5.846   0.102  1.00  0.00    -0.516 OA
HETATM   43  O2  UNL     1       1.672   6.011   2.310  1.00  0.00    -0.516 OA
ENDBRANCH  39  41
ENDBRANCH   6  39
TORSDOF 11
