REMARK  9 active torsions:
REMARK  status: ('A' for Active; 'I' for Inactive)
REMARK    1  A    between atoms: S1_2  and  C2_3 
REMARK    2  A    between atoms: C3_6  and  N2_7 
REMARK    3  A    between atoms: N2_7  and  C4_9 
REMARK    4  A    between atoms: C4_9  and  C5_10 
REMARK    5  A    between atoms: C4_9  and  S3_24 
REMARK    6  A    between atoms: C5_10  and  S2_11 
REMARK    7  A    between atoms: S2_11  and  C6_12 
REMARK    8  A    between atoms: C13_30  and  N8_31 
REMARK    9  A    between atoms: N8_31  and  N9_33 
ROOT
HETATM    1  N2  UNL     1      -0.403   0.114  -1.135  1.00  0.00    -0.212 N 
ATOM      2  H2  UNL     1      -0.076   0.295  -2.084  1.00  0.00     0.179 HD
ENDROOT
BRANCH   1   3
HETATM    3  C3  UNL     1      -1.645   0.199  -0.820  1.00  0.00     0.685 C 
HETATM    4  N1  UNL     1      -2.032  -0.051   0.455  1.00  0.00    -0.170 N 
HETATM    5  C2  UNL     1      -3.298  -0.147   0.947  1.00  0.00     0.160 C 
ATOM      6  H1  UNL     1      -1.280  -0.184   1.131  1.00  0.00     0.186 HD
HETATM    7  N10 UNL     1      -4.399  -0.352   0.201  1.00  0.00    -0.317 N 
HETATM    8  C13 UNL     1      -4.613  -0.218  -1.120  1.00  0.00     0.191 C 
ATOM      9  H10 UNL     1      -5.214  -0.663   0.730  1.00  0.00     0.169 HD
HETATM   10  C12 UNL     1      -3.734   0.313  -2.066  1.00  0.00     0.307 C 
HETATM   11  N7  UNL     1      -2.420   0.545  -1.866  1.00  0.00    -0.149 N 
HETATM   12  O1  UNL     1      -4.217   0.587  -3.176  1.00  0.00    -0.263 OA
HETATM   13  C11 UNL     1      -1.731   1.265  -2.904  1.00  0.00     0.179 C 
BRANCH   5  14
HETATM   14  S1  UNL     1      -3.497   0.012   2.714  1.00  0.00    -0.098 SA
HETATM   15  C1  UNL     1      -3.754   1.777   3.082  1.00  0.00     0.099 C 
ENDBRANCH   5  14
BRANCH   8  16
HETATM   16  N8  UNL     1      -5.742  -0.616  -1.591  1.00  0.00    -0.287 N 
ATOM     17  H8  UNL     1      -5.883  -0.507  -2.595  1.00  0.00     0.188 HD
BRANCH  16  18
HETATM   18  N9  UNL     1      -6.774  -1.171  -0.882  1.00  0.00    -0.343 N 
ATOM     19  H92 UNL     1      -6.615  -1.272   0.120  1.00  0.00     0.176 HD
ATOM     20  H91 UNL     1      -7.669  -1.487  -1.255  1.00  0.00     0.176 HD
ENDBRANCH  16  18
ENDBRANCH   8  16
ENDBRANCH   1   3
BRANCH   1  21
HETATM   21  C4  UNL     1       0.524  -0.259  -0.054  1.00  0.00     0.170 C 
BRANCH  21  22
HETATM   22  C5  UNL     1       0.965   0.943   0.720  1.00  0.00     0.119 C 
BRANCH  22  23
HETATM   23  S2  UNL     1       2.113   0.489   2.010  1.00  0.00    -0.091 SA
BRANCH  23  24
HETATM   24  C6  UNL     1       3.779   0.221   1.443  1.00  0.00     0.147 A 
HETATM   25  N3  UNL     1       4.651  -0.502   2.214  1.00  0.00    -0.323 N 
HETATM   26  C7  UNL     1       5.899  -0.739   1.796  1.00  0.00     0.103 A 
ATOM     27  H3  UNL     1       4.345  -0.864   3.117  1.00  0.00     0.169 HD
HETATM   28  N4  UNL     1       6.752  -1.420   2.501  1.00  0.00    -0.385 N 
HETATM   29  C8  UNL     1       6.330  -0.262   0.587  1.00  0.00     0.093 A 
ATOM     30  H42 UNL     1       6.431  -1.775   3.402  1.00  0.00     0.157 HD
ATOM     31  H41 UNL     1       7.704  -1.601   2.182  1.00  0.00     0.157 HD
HETATM   32  C9  UNL     1       5.450   0.459  -0.172  1.00  0.00     0.121 A 
HETATM   33  N5  UNL     1       5.874   0.962  -1.425  1.00  0.00    -0.083 NA
HETATM   34  N6  UNL     1       4.195   0.689   0.265  1.00  0.00    -0.325 N 
ATOM     35  H6  UNL     1       3.553   1.230  -0.315  1.00  0.00     0.169 HD
ENDBRANCH  23  24
ENDBRANCH  22  23
ENDBRANCH  21  22
BRANCH  21  36
HETATM   36  S3  UNL     1       1.871  -1.281  -0.580  1.00  0.00    -0.147 SA
HETATM   37  C10 UNL     1       1.278  -2.917  -1.124  1.00  0.00     0.092 C 
ENDBRANCH  21  36
ENDBRANCH   1  21
TORSDOF 9
