REMARK  14 active torsions:
REMARK  status: ('A' for Active; 'I' for Inactive)
REMARK    1  A    between atoms: C3_3  and  O1_4 
REMARK    2  A    between atoms: C4_8  and  C5_9 
REMARK    3  A    between atoms: C5_9  and  S1_10 
REMARK    4  A    between atoms: S1_10  and  C6_11 
REMARK    5  A    between atoms: C6_11  and  C7_12 
REMARK    6  A    between atoms: C7_12  and  O2_13 
REMARK    7  A    between atoms: C7_12  and  N2_15 
REMARK    8  A    between atoms: N2_15  and  N3_16 
REMARK    9  A    between atoms: N3_16  and  C8_18 
REMARK   10  A    between atoms: C8_18  and  O3_19 
REMARK   11  A    between atoms: C8_18  and  C9_21 
REMARK   12  A    between atoms: N6_26  and  C10_27 
REMARK   13  A    between atoms: C11_33  and  N9_34 
REMARK   14  A    between atoms: C14_41  and  N11_42 
ROOT
HETATM    1  N3  UNL     1      -1.297  -1.080  -0.942  1.00  0.00    -0.209 N 
ATOM      2  H3  UNL     1      -1.343  -1.845  -1.615  1.00  0.00     0.204 HD
ENDROOT
BRANCH   1   3
HETATM    3  N2  UNL     1      -0.168  -0.623  -0.476  1.00  0.00    -0.302 NA
BRANCH   3   4
HETATM    4  C7  UNL     1       1.003  -0.141   0.003  1.00  0.00     0.223 C 
BRANCH   4   5
HETATM    5  C6  UNL     1       1.858  -0.828   1.086  1.00  0.00     0.176 C 
BRANCH   5   6
HETATM    6  S1  UNL     1       2.631  -2.308   0.359  1.00  0.00    -0.152 SA
BRANCH   6   7
HETATM    7  C5  UNL     1       3.675  -1.761  -1.077  1.00  0.00     0.150 C 
BRANCH   7   8
HETATM    8  C4  UNL     1       4.837  -1.018  -0.595  1.00  0.00     0.094 A 
HETATM    9  N1  UNL     1       5.897  -1.733  -0.187  1.00  0.00    -0.326 N 
HETATM   10  C3  UNL     1       7.014  -1.123   0.232  1.00  0.00     0.151 A 
ATOM     11  H1  UNL     1       5.852  -2.752  -0.196  1.00  0.00     0.169 HD
HETATM   12  C2  UNL     1       7.138   0.235   0.269  1.00  0.00     0.032 A 
HETATM   13  C1  UNL     1       8.409   0.909   0.727  1.00  0.00     0.056 C 
HETATM   14  C14 UNL     1       6.040   0.969  -0.151  1.00  0.00     0.110 A 
HETATM   15  N10 UNL     1       4.920   0.307  -0.572  1.00  0.00    -0.331 N 
ATOM     16  H10 UNL     1       4.116   0.853  -0.881  1.00  0.00     0.168 HD
BRANCH  10  17
HETATM   17  O1  UNL     1       8.073  -1.894   0.637  1.00  0.00    -0.346 OA
ATOM     18  H1  UNL     1       7.987  -2.840   0.611  1.00  0.00     0.219 HD
ENDBRANCH  10  17
BRANCH  14  19
HETATM   19  N11 UNL     1       6.086   2.264  -0.133  1.00  0.00    -0.385 N 
ATOM     20 2H11 UNL     1       6.921   2.758   0.181  1.00  0.00     0.157 HD
ATOM     21 1H11 UNL     1       5.278   2.804  -0.442  1.00  0.00     0.157 HD
ENDBRANCH  14  19
ENDBRANCH   7   8
ENDBRANCH   6   7
ENDBRANCH   5   6
ENDBRANCH   4   5
BRANCH   4  22
HETATM   22  O2  UNL     1       1.615   0.961  -0.348  1.00  0.00    -0.337 OA
ATOM     23  H2  UNL     1       1.088   1.384  -1.015  1.00  0.00     0.220 HD
ENDBRANCH   4  22
ENDBRANCH   3   4
ENDBRANCH   1   3
BRANCH   1  24
HETATM   24  C8  UNL     1      -2.469  -0.425  -0.437  1.00  0.00     0.196 C 
BRANCH  24  25
HETATM   25  O3  UNL     1      -2.191   0.544   0.442  1.00  0.00    -0.343 OA
ATOM     26  H3  UNL     1      -2.967   0.978   0.776  1.00  0.00     0.219 HD
ENDBRANCH  24  25
BRANCH  24  27
HETATM   27  C9  UNL     1      -3.853  -0.587  -0.712  1.00  0.00     0.126 A 
HETATM   28  N4  UNL     1      -4.616  -1.441  -1.444  1.00  0.00    -0.280 N 
HETATM   29  N5  UNL     1      -5.888  -1.141  -1.372  1.00  0.00    -0.234 N 
ATOM     30  H4  UNL     1      -4.242  -2.221  -1.984  1.00  0.00     0.189 HD
HETATM   31  N6  UNL     1      -6.083  -0.104  -0.627  1.00  0.00    -0.223 N 
ATOM     32  H5  UNL     1      -6.629  -1.659  -1.843  1.00  0.00     0.209 HD
HETATM   33  C12 UNL     1      -4.856   0.273  -0.196  1.00  0.00     0.066 A 
HETATM   34  C13 UNL     1      -4.565   1.471   0.642  1.00  0.00     0.073 C 
BRANCH  31  35
HETATM   35  C10 UNL     1      -7.246   0.661  -0.219  1.00  0.00     0.196 A 
HETATM   36  N7  UNL     1      -7.616   1.868  -0.765  1.00  0.00    -0.220 N 
HETATM   37  O4  UNL     1      -8.633   2.341  -0.102  1.00  0.00    -0.153 OA
ATOM     38  H7  UNL     1      -7.166   2.320  -1.561  1.00  0.00     0.198 HD
HETATM   39  N8  UNL     1      -8.957   1.496   0.846  1.00  0.00    -0.222 N 
HETATM   40  C11 UNL     1      -8.117   0.443   0.802  1.00  0.00     0.169 A 
ATOM     41  H8  UNL     1      -9.722   1.616   1.510  1.00  0.00     0.198 HD
BRANCH  40  42
HETATM   42  N9  UNL     1      -8.140  -0.595   1.566  1.00  0.00    -0.381 N 
ATOM     43  H92 UNL     1      -7.504  -1.392   1.533  1.00  0.00     0.157 HD
ATOM     44  H91 UNL     1      -8.793  -0.759   2.332  1.00  0.00     0.157 HD
ENDBRANCH  40  42
ENDBRANCH  31  35
ENDBRANCH  24  27
ENDBRANCH   1  24
TORSDOF 14
