REMARK  9 active torsions:
REMARK  status: ('A' for Active; 'I' for Inactive)
REMARK    1  A    between atoms: C1_4  and  N2_5 
REMARK    2  A    between atoms: C1_4  and  C6_19 
REMARK    3  A    between atoms: N2_5  and  C2_7 
REMARK    4  A    between atoms: C2_7  and  O1_8 
REMARK    5  A    between atoms: C2_7  and  C3_10 
REMARK    6  A    between atoms: C11_24  and  N5_25 
REMARK    7  A    between atoms: C13_27  and  C14_28 
REMARK    8  A    between atoms: C15_29  and  N6_30 
REMARK    9  A    between atoms: N6_30  and  O2_32 
ROOT
HETATM    1  C6  UNL     1      -0.716  -1.843  -0.450  1.00  0.00     0.036 A 
HETATM    2  C7  UNL     1      -1.485  -3.004  -0.662  1.00  0.00     0.017 A 
HETATM    3  C8  UNL     1      -1.192  -3.947  -1.609  1.00  0.00     0.001 A 
HETATM    4  C9  UNL     1      -0.074  -3.712  -2.380  1.00  0.00     0.002 A 
HETATM    5  C10 UNL     1       0.721  -2.613  -2.236  1.00  0.00     0.032 A 
HETATM    6  C11 UNL     1       0.382  -1.667  -1.247  1.00  0.00     0.071 A 
ENDROOT
BRANCH   6   7
HETATM    7  N5  UNL     1       1.204  -0.522  -1.093  1.00  0.00    -0.250 N 
HETATM    8  C12 UNL     1       2.309  -0.417  -0.345  1.00  0.00     0.150 A 
HETATM    9  C13 UNL     1       2.852   0.868  -0.497  1.00  0.00     0.086 A 
HETATM   10  N9  UNL     1       2.012   1.483  -1.357  1.00  0.00    -0.283 N 
HETATM   11  N10 UNL     1       1.053   0.640  -1.690  1.00  0.00    -0.236 N 
ATOM     12  H9  UNL     1       2.104   2.441  -1.694  1.00  0.00     0.188 HD
ATOM     13  H10 UNL     1       0.290   0.862  -2.330  1.00  0.00     0.209 HD
BRANCH   9  14
HETATM   14  C14 UNL     1       4.034   1.396   0.127  1.00  0.00     0.107 A 
HETATM   15  C15 UNL     1       5.273   1.283  -0.458  1.00  0.00     0.147 A 
HETATM   16  N7  UNL     1       6.330   1.802   0.186  1.00  0.00    -0.292 N 
HETATM   17  C16 UNL     1       6.224   2.424   1.377  1.00  0.00     0.328 A 
ATOM     18  H7  UNL     1       7.252   1.722  -0.244  1.00  0.00     0.172 HD
HETATM   19  O3  UNL     1       7.280   2.887   1.919  1.00  0.00    -0.247 OA
HETATM   20  N8  UNL     1       5.033   2.546   1.965  1.00  0.00    -0.275 N 
HETATM   21  C17 UNL     1       3.955   2.036   1.343  1.00  0.00     0.265 A 
ATOM     22  H8  UNL     1       4.942   3.015   2.866  1.00  0.00     0.173 HD
HETATM   23  O4  UNL     1       2.848   2.180   1.946  1.00  0.00    -0.267 OA
BRANCH  15  24
HETATM   24  N6  UNL     1       5.481   0.650  -1.701  1.00  0.00    -0.252 N 
ATOM     25  H6  UNL     1       5.410   1.214  -2.548  1.00  0.00     0.196 HD
BRANCH  24  26
HETATM   26  O2  UNL     1       5.748  -0.567  -1.819  1.00  0.00    -0.288 OA
ATOM     27  H2  UNL     1       5.888  -0.993  -2.656  1.00  0.00     0.244 HD
ENDBRANCH  24  26
ENDBRANCH  15  24
ENDBRANCH   9  14
ENDBRANCH   6   7
BRANCH   1  28
HETATM   28  C1  UNL     1      -1.128  -0.921   0.583  1.00  0.00     0.109 C 
HETATM   29  N1  UNL     1      -0.559   0.157   0.902  1.00  0.00    -0.385 N 
ATOM     30  H12 UNL     1      -0.850   0.808   1.631  1.00  0.00     0.157 HD
ATOM     31  H11 UNL     1       0.277   0.380   0.361  1.00  0.00     0.157 HD
BRANCH  28  32
HETATM   32  N2  UNL     1      -2.312  -1.237   1.349  1.00  0.00    -0.347 N 
ATOM     33  H2  UNL     1      -2.351  -2.116   1.865  1.00  0.00     0.163 HD
BRANCH  32  34
HETATM   34  C2  UNL     1      -3.435  -0.344   1.402  1.00  0.00     0.278 C 
BRANCH  34  35
HETATM   35  O1  UNL     1      -4.415  -0.948   2.187  1.00  0.00    -0.373 OA
ATOM     36  H1  UNL     1      -5.158  -0.357   2.222  1.00  0.00     0.212 HD
ENDBRANCH  34  35
BRANCH  34  37
HETATM   37  C3  UNL     1      -4.041  -0.077   0.038  1.00  0.00     0.430 C 
HETATM   38  N3  UNL     1      -3.127   0.549  -0.872  1.00  0.00    -0.040 N 
HETATM   39  C4  UNL     1      -3.470   1.941  -0.971  1.00  0.00     0.262 C 
ATOM     40  H32 UNL     1      -2.152   0.403  -0.612  1.00  0.00     0.279 HD
ATOM     41  H31 UNL     1      -3.099   0.086  -1.780  1.00  0.00     0.279 HD
HETATM   42  C5  UNL     1      -4.543   2.150   0.049  1.00  0.00     0.262 C 
HETATM   43  N4  UNL     1      -5.144   0.842   0.228  1.00  0.00    -0.040 N 
ATOM     44  H42 UNL     1      -5.948   0.663  -0.374  1.00  0.00     0.279 HD
ATOM     45  H41 UNL     1      -5.640   0.725   1.111  1.00  0.00     0.279 HD
ENDBRANCH  34  37
ENDBRANCH  32  34
ENDBRANCH  28  32
ENDBRANCH   1  28
TORSDOF 9
