REMARK  12 active torsions:
REMARK  status: ('A' for Active; 'I' for Inactive)
REMARK    1  A    between atoms: C3_3  and  O1_4 
REMARK    2  A    between atoms: N2_10  and  C5_11 
REMARK    3  A    between atoms: C5_11  and  C6_12 
REMARK    4  A    between atoms: C7_14  and  C8_15 
REMARK    5  A    between atoms: C8_15  and  O4_16 
REMARK    6  A    between atoms: C8_15  and  C9_18 
REMARK    7  A    between atoms: C9_18  and  O5_19 
REMARK    8  A    between atoms: C10_22  and  N3_23 
REMARK    9  A    between atoms: C13_28  and  N5_29 
REMARK   10  A    between atoms: N5_29  and  C14_31 
REMARK   11  A    between atoms: C15_36  and  N9_37 
REMARK   12  A    between atoms: C17_43  and  O7_44 
ROOT
HETATM    1  C6  UNL     1       2.161  -1.286  -0.586  1.00  0.00     0.176 C 
HETATM    2  O3  UNL     1       1.819  -2.604  -0.734  1.00  0.00    -0.349 OA
HETATM    3  C7  UNL     1       0.550  -3.004  -0.754  1.00  0.00     0.293 C 
HETATM    4  O6  UNL     1      -0.446  -2.114  -0.500  1.00  0.00    -0.331 OA
HETATM    5  C10 UNL     1      -0.161  -0.876  -0.996  1.00  0.00     0.265 C 
HETATM    6  C17 UNL     1       1.053  -0.390  -0.163  1.00  0.00     0.198 C 
ENDROOT
BRANCH   5   7
HETATM    7  N3  UNL     1      -1.227   0.078  -0.950  1.00  0.00    -0.297 N 
HETATM    8  C11 UNL     1      -1.305   1.114  -1.810  1.00  0.00     0.188 A 
HETATM    9  N4  UNL     1      -2.397   1.850  -1.548  1.00  0.00    -0.346 N 
HETATM   10  C12 UNL     1      -3.048   1.285  -0.496  1.00  0.00     0.123 A 
ATOM     11  H4  UNL     1      -2.688   2.688  -2.051  1.00  0.00     0.167 HD
HETATM   12  C13 UNL     1      -4.208   1.618   0.181  1.00  0.00     0.150 A 
HETATM   13  C16 UNL     1      -2.295   0.189  -0.150  1.00  0.00     0.157 A 
HETATM   14  N8  UNL     1      -4.586   0.833   1.200  1.00  0.00    -0.175 N 
HETATM   15  C15 UNL     1      -3.842  -0.237   1.530  1.00  0.00     0.679 A 
ATOM     16  H8  UNL     1      -5.435   1.047   1.723  1.00  0.00     0.186 HD
HETATM   17  N10 UNL     1      -2.705  -0.566   0.868  1.00  0.00    -0.174 N 
ATOM     18  H10 UNL     1      -2.167  -1.386   1.148  1.00  0.00     0.186 HD
BRANCH  12  19
HETATM   19  N5  UNL     1      -4.887   2.650  -0.167  1.00  0.00    -0.341 N 
ATOM     20  H5  UNL     1      -4.546   3.208  -0.950  1.00  0.00     0.164 HD
BRANCH  19  21
HETATM   21  C14 UNL     1      -6.096   3.064   0.480  1.00  0.00     0.305 A 
HETATM   22  N6  UNL     1      -7.370   2.828  -0.185  1.00  0.00    -0.101 NA
HETATM   23  N7  UNL     1      -6.830   4.167  -0.017  1.00  0.00    -0.101 NA
ENDBRANCH  19  21
ENDBRANCH  12  19
BRANCH  15  24
HETATM   24  N9  UNL     1      -4.192  -1.005   2.511  1.00  0.00    -0.234 N 
ATOM     25  H92 UNL     1      -5.047  -0.758   3.009  1.00  0.00     0.174 HD
ATOM     26  H91 UNL     1      -3.628  -1.817   2.761  1.00  0.00     0.174 HD
ENDBRANCH  15  24
ENDBRANCH   5   7
BRANCH   6  27
HETATM   27  O7  UNL     1       1.281   0.960  -0.453  1.00  0.00    -0.389 OA
ATOM     28  H7  UNL     1       0.573   1.533  -0.183  1.00  0.00     0.210 HD
ENDBRANCH   6  27
BRANCH   3  29
HETATM   29  C8  UNL     1       0.367  -4.192   0.200  1.00  0.00     0.197 C 
BRANCH  29  30
HETATM   30  O4  UNL     1       1.158  -5.270  -0.149  1.00  0.00    -0.389 OA
ATOM     31  H4  UNL     1       1.045  -6.005   0.442  1.00  0.00     0.210 HD
ENDBRANCH  29  30
BRANCH  29  32
HETATM   32  C9  UNL     1      -1.082  -4.625   0.230  1.00  0.00     0.200 C 
BRANCH  32  33
HETATM   33  O5  UNL     1      -1.531  -5.100  -0.979  1.00  0.00    -0.398 OA
ATOM     34  H5  UNL     1      -2.441  -5.372  -0.960  1.00  0.00     0.209 HD
ENDBRANCH  32  33
ENDBRANCH  29  32
ENDBRANCH   3  29
BRANCH   1  35
HETATM   35  C5  UNL     1       3.466  -1.130   0.139  1.00  0.00     0.171 C 
BRANCH  35  36
HETATM   36  N2  UNL     1       3.890   0.237   0.331  1.00  0.00    -0.263 N 
HETATM   37  C4  UNL     1       3.625   0.906   1.467  1.00  0.00     0.331 A 
HETATM   38  N1  UNL     1       4.000   2.198   1.658  1.00  0.00    -0.288 N 
HETATM   39  O2  UNL     1       3.011   0.367   2.424  1.00  0.00    -0.246 OA
HETATM   40  C3  UNL     1       4.655   2.806   0.669  1.00  0.00     0.155 A 
ATOM     41  H1  UNL     1       3.788   2.686   2.528  1.00  0.00     0.172 HD
HETATM   42  C2  UNL     1       4.963   2.188  -0.520  1.00  0.00     0.057 A 
HETATM   43  C1  UNL     1       5.699   2.877  -1.626  1.00  0.00     0.059 C 
HETATM   44  C18 UNL     1       4.565   0.883  -0.672  1.00  0.00     0.261 A 
HETATM   45  O8  UNL     1       4.828   0.271  -1.757  1.00  0.00    -0.267 OA
BRANCH  40  46
HETATM   46  O1  UNL     1       5.066   4.136   0.810  1.00  0.00    -0.345 OA
ATOM     47  H1  UNL     1       4.853   4.563   1.632  1.00  0.00     0.219 HD
ENDBRANCH  40  46
ENDBRANCH  35  36
ENDBRANCH   1  35
TORSDOF 12
