REMARK  13 active torsions:
REMARK  status: ('A' for Active; 'I' for Inactive)
REMARK       I    between atoms: N1_1  and  C1_4 
REMARK       I    between atoms: C1_4  and  N2_5 
REMARK       I    between atoms: C1_4  and  N14_47 
REMARK    1  A    between atoms: N2_5  and  C2_7 
REMARK    2  A    between atoms: N5_12  and  C3_13 
REMARK    3  A    between atoms: C4_17  and  N7_18 
REMARK    4  A    between atoms: C7_23  and  N9_24 
REMARK    5  A    between atoms: C8_29  and  N11_30 
REMARK    6  A    between atoms: N11_30  and  C9_32 
REMARK    7  A    between atoms: C9_32  and  C10_33 
REMARK    8  A    between atoms: C10_33  and  C11_34 
REMARK    9  A    between atoms: C11_34  and  O1_35 
REMARK   10  A    between atoms: C13_41  and  C14_42 
REMARK   11  A    between atoms: C14_42  and  O3_43 
REMARK   12  A    between atoms: N14_47  and  S1_49 
REMARK   13  A    between atoms: S1_49  and  N15_50 
ROOT
HETATM    1  C3  UNL     1       0.841  -1.465   0.028  1.00  0.00     0.363 C 
HETATM    2  N6  UNL     1      -0.283  -1.585   0.939  1.00  0.00    -0.003 N 
ATOM      3  H61 UNL     1      -0.845  -0.743   1.066  1.00  0.00     0.285 HD
ATOM      4  H62 UNL     1      -0.048  -1.675   1.927  1.00  0.00     0.285 HD
HETATM    5  C4  UNL     1      -0.969  -2.724   0.342  1.00  0.00     0.440 C 
HETATM    6  O2  UNL     1       0.063  -3.614   0.121  1.00  0.00    -0.332 OA
HETATM    7  C13 UNL     1       1.203  -2.878  -0.208  1.00  0.00     0.203 C 
ENDROOT
BRANCH   1   8
HETATM    8  N5  UNL     1       1.889  -0.603   0.517  1.00  0.00    -0.170 N 
HETATM    9  N4  UNL     1       2.299  -0.423   1.756  1.00  0.00    -0.209 N 
HETATM   10  N3  UNL     1       3.271   0.462   1.750  1.00  0.00    -0.114 N 
ATOM     11  H4  UNL     1       1.925  -0.892   2.581  1.00  0.00     0.210 HD
HETATM   12  C2  UNL     1       3.511   0.873   0.496  1.00  0.00     0.728 A 
ATOM     13  H3  UNL     1       3.770   0.788   2.578  1.00  0.00     0.207 HD
HETATM   14  N13 UNL     1       2.630   0.187  -0.246  1.00  0.00    -0.110 N 
ATOM     15  H13 UNL     1       2.542   0.263  -1.259  1.00  0.00     0.207 HD
BRANCH  12  16
HETATM   16  N2  UNL     1       4.383   1.729   0.089  1.00  0.00    -0.019 N 
HETATM   17  C1  UNL     1       5.276   2.416   0.915  1.00  0.00     0.701 C 
HETATM   18  N1  UNL     1       5.194   3.708   1.028  1.00  0.00    -0.233 N 
HETATM   19  N14 UNL     1       6.266   1.671   1.619  1.00  0.00    -0.100 N 
ATOM     20  H12 UNL     1       4.485   4.241   0.524  1.00  0.00     0.174 HD
ATOM     21  H11 UNL     1       5.846   4.210   1.631  1.00  0.00     0.174 HD
ATOM     22  H14 UNL     1       6.023   0.815   2.118  1.00  0.00     0.199 HD
ATOM     23  H2  UNL     1       4.425   1.920  -0.912  1.00  0.00     0.203 HD
BRANCH  19  24
HETATM   24  S1  UNL     1       7.889   2.261   1.602  1.00  0.00     0.330 S 
HETATM   25  O4  UNL     1       7.870   3.753   1.427  1.00  0.00    -0.182 OA
HETATM   26  O5  UNL     1       8.530   1.863   2.884  1.00  0.00    -0.182 OA
BRANCH  24  27
HETATM   27  N15 UNL     1       8.684   1.563   0.233  1.00  0.00    -0.311 N 
ATOM     28 2H15 UNL     1       8.258   0.920  -0.435  1.00  0.00     0.170 HD
ATOM     29 1H15 UNL     1       9.643   1.911   0.223  1.00  0.00     0.170 HD
ENDBRANCH  24  27
ENDBRANCH  19  24
ENDBRANCH  12  16
ENDBRANCH   1   8
BRANCH   7  30
HETATM   30  C14 UNL     1       2.359  -3.419   0.558  1.00  0.00     0.200 C 
BRANCH  30  31
HETATM   31  O3  UNL     1       3.522  -2.743   0.265  1.00  0.00    -0.398 OA
ATOM     32  H3  UNL     1       4.260  -3.088   0.754  1.00  0.00     0.209 HD
ENDBRANCH  30  31
ENDBRANCH   7  30
BRANCH   5  33
HETATM   33  N7  UNL     1      -1.541  -2.357  -0.955  1.00  0.00    -0.276 N 
HETATM   34  C5  UNL     1      -1.285  -2.885  -2.156  1.00  0.00     0.189 A 
HETATM   35  N8  UNL     1      -2.047  -2.223  -3.038  1.00  0.00    -0.346 N 
HETATM   36  C6  UNL     1      -2.774  -1.289  -2.404  1.00  0.00     0.123 A 
ATOM     37  H8  UNL     1      -2.071  -2.402  -4.042  1.00  0.00     0.167 HD
HETATM   38  C7  UNL     1      -3.703  -0.343  -2.799  1.00  0.00     0.145 A 
HETATM   39  C12 UNL     1      -2.451  -1.374  -1.071  1.00  0.00     0.158 A 
HETATM   40  N10 UNL     1      -4.253   0.455  -1.868  1.00  0.00    -0.175 N 
HETATM   41  C8  UNL     1      -3.951   0.388  -0.561  1.00  0.00     0.681 A 
ATOM     42  H10 UNL     1      -4.937   1.149  -2.170  1.00  0.00     0.186 HD
HETATM   43  N12 UNL     1      -3.047  -0.537  -0.195  1.00  0.00    -0.174 N 
ATOM     44  H12 UNL     1      -2.799  -0.610   0.792  1.00  0.00     0.186 HD
BRANCH  38  45
HETATM   45  N9  UNL     1      -4.014  -0.248  -4.027  1.00  0.00    -0.383 N 
ATOM     46  H92 UNL     1      -3.597  -0.854  -4.734  1.00  0.00     0.157 HD
ATOM     47  H91 UNL     1      -4.699   0.449  -4.318  1.00  0.00     0.157 HD
ENDBRANCH  38  45
BRANCH  41  48
HETATM   48  N11 UNL     1      -4.492   1.165   0.324  1.00  0.00    -0.226 N 
ATOM     49  H11 UNL     1      -4.245   1.092   1.311  1.00  0.00     0.177 HD
BRANCH  48  50
HETATM   50  C9  UNL     1      -5.454   2.135  -0.133  1.00  0.00     0.140 C 
BRANCH  50  51
HETATM   51  C10 UNL     1      -5.969   3.000   0.996  1.00  0.00     0.046 C 
BRANCH  51  52
HETATM   52  C11 UNL     1      -6.640   2.117   2.042  1.00  0.00     0.165 C 
BRANCH  52  53
HETATM   53  O1  UNL     1      -5.676   1.209   2.521  1.00  0.00    -0.401 OA
ATOM     54  H1  UNL     1      -6.094   0.659   3.173  1.00  0.00     0.209 HD
ENDBRANCH  52  53
ENDBRANCH  51  52
ENDBRANCH  50  51
ENDBRANCH  48  50
ENDBRANCH  41  48
ENDBRANCH   5  33
TORSDOF 13
