REMARK  18 active torsions:
REMARK  status: ('A' for Active; 'I' for Inactive)
REMARK    1  A    between atoms: C2_2  and  C4_5 
REMARK    2  A    between atoms: C2_2  and  C10_21 
REMARK    3  A    between atoms: C4_5  and  C5_6 
REMARK    4  A    between atoms: C5_6  and  O1_7 
REMARK    5  A    between atoms: C5_6  and  C6_9 
REMARK    6  A    between atoms: C6_9  and  O2_10 
REMARK    7  A    between atoms: C6_9  and  C7_12 
REMARK    8  A    between atoms: C7_12  and  O3_13 
REMARK    9  A    between atoms: C7_12  and  C8_15 
REMARK   10  A    between atoms: C8_15  and  O4_16 
REMARK   11  A    between atoms: C8_15  and  C9_18 
REMARK   12  A    between atoms: C9_18  and  O5_19 
REMARK   13  A    between atoms: C10_21  and  N2_22 
REMARK   14  A    between atoms: C10_21  and  C18_32 
REMARK       I    between atoms: N2_22  and  C11_24 
REMARK   15  A    between atoms: C11_24  and  C12_26 
REMARK   16  A    between atoms: C18_32  and  O7_33 
REMARK   17  A    between atoms: C18_32  and  N3_35 
REMARK   18  A    between atoms: N3_35  and  C19_37 
ROOT
HETATM    1  C1  UNL     1       1.727   1.457   1.714  1.00  0.00     0.038 C 
HETATM    2  C2  UNL     1       0.884   0.338   1.139  1.00  0.00     0.090 C 
HETATM    3  C3  UNL     1       1.114  -0.804   1.993  1.00  0.00     0.075 C 
HETATM    4  N1  UNL     1       1.288  -1.727   2.715  1.00  0.00    -0.196 NA
ENDROOT
BRANCH   2   5
HETATM    5  C4  UNL     1       1.094   0.061  -0.276  1.00  0.00     0.034 C 
BRANCH   5   6
HETATM    6  C5  UNL     1       2.383  -0.290  -0.865  1.00  0.00     0.072 C 
BRANCH   6   7
HETATM    7  O1  UNL     1       3.431   0.611  -0.741  1.00  0.00    -0.362 OA
ATOM      8  H1  UNL     1       4.270   0.383  -1.124  1.00  0.00     0.217 HD
ENDBRANCH   6   7
BRANCH   6   9
HETATM    9  C6  UNL     1       2.826  -1.725  -0.884  1.00  0.00     0.205 C 
BRANCH   9  10
HETATM   10  O2  UNL     1       3.594  -2.124   0.178  1.00  0.00    -0.386 OA
ATOM     11  H2  UNL     1       3.874  -3.032   0.166  1.00  0.00     0.210 HD
ENDBRANCH   9  10
BRANCH   9  12
HETATM   12  C7  UNL     1       3.529  -2.062  -2.169  1.00  0.00     0.184 C 
BRANCH  12  13
HETATM   13  O3  UNL     1       3.744  -3.453  -2.214  1.00  0.00    -0.390 OA
ATOM     14  H3  UNL     1       4.188  -3.666  -3.026  1.00  0.00     0.210 HD
ENDBRANCH  12  13
BRANCH  12  15
HETATM   15  C8  UNL     1       4.837  -1.395  -2.420  1.00  0.00     0.173 C 
BRANCH  15  16
HETATM   16  O4  UNL     1       5.234  -1.824  -3.725  1.00  0.00    -0.391 OA
ATOM     17  H4  UNL     1       6.068  -1.399  -3.885  1.00  0.00     0.210 HD
ENDBRANCH  15  16
BRANCH  15  18
HETATM   18  C9  UNL     1       5.943  -1.901  -1.517  1.00  0.00     0.198 C 
BRANCH  18  19
HETATM   19  O5  UNL     1       7.173  -1.342  -1.956  1.00  0.00    -0.398 OA
ATOM     20  H5  UNL     1       7.867  -1.659  -1.390  1.00  0.00     0.209 HD
ENDBRANCH  18  19
ENDBRANCH  15  18
ENDBRANCH  12  15
ENDBRANCH   9  12
ENDBRANCH   6   9
ENDBRANCH   5   6
ENDBRANCH   2   5
BRANCH   2  21
HETATM   21  C10 UNL     1      -0.564   0.746   1.438  1.00  0.00     0.159 C 
BRANCH  21  22
HETATM   22  N2  UNL     1      -1.404  -0.338   0.923  1.00  0.00    -0.350 N 
HETATM   23  C11 UNL     1      -2.147  -1.237   1.689  1.00  0.00     0.222 C 
HETATM   24  O6  UNL     1      -2.195  -1.244   2.944  1.00  0.00    -0.273 OA
ATOM     25  H2  UNL     1      -1.450  -0.446  -0.090  1.00  0.00     0.163 HD
BRANCH  23  26
HETATM   26  C12 UNL     1      -2.964  -2.286   1.036  1.00  0.00     0.078 C 
HETATM   27  C13 UNL     1      -3.971  -1.609   0.082  1.00  0.00     0.014 C 
HETATM   28  C14 UNL     1      -4.992  -2.606  -0.354  1.00  0.00     0.001 C 
HETATM   29  C15 UNL     1      -4.664  -4.014   0.074  1.00  0.00     0.000 C 
HETATM   30  C16 UNL     1      -4.609  -4.105   1.595  1.00  0.00     0.001 C 
HETATM   31  C17 UNL     1      -3.822  -2.941   2.091  1.00  0.00     0.014 C 
ENDBRANCH  23  26
ENDBRANCH  21  22
BRANCH  21  32
HETATM   32  C18 UNL     1      -1.060   1.994   0.849  1.00  0.00     0.242 C 
BRANCH  32  33
HETATM   33  O7  UNL     1      -2.444   2.021   1.283  1.00  0.00    -0.375 OA
ATOM     34  H7  UNL     1      -2.765   2.829   0.901  1.00  0.00     0.212 HD
ENDBRANCH  32  33
BRANCH  32  35
HETATM   35  N3  UNL     1      -0.591   3.262   1.244  1.00  0.00    -0.362 N 
ATOM     36  H3  UNL     1       0.001   3.368   2.068  1.00  0.00     0.162 HD
BRANCH  35  37
HETATM   37  C19 UNL     1      -0.970   4.404   0.453  1.00  0.00     0.035 A 
HETATM   38  C20 UNL     1      -1.873   4.279  -0.553  1.00  0.00     0.073 A 
HETATM   39  C21 UNL     1      -2.199   5.377  -1.324  1.00  0.00     0.143 A 
HETATM   40  F1  UNL     1      -3.110   5.226  -2.326  1.00  0.00    -0.204 F 
HETATM   41  C22 UNL     1      -1.598   6.594  -1.057  1.00  0.00     0.111 A 
HETATM   42 CL1  UNL     1      -2.027   7.972  -2.052  1.00  0.00    -0.078 Cl
HETATM   43  C23 UNL     1      -0.692   6.721  -0.049  1.00  0.00     0.143 A 
HETATM   44  F2  UNL     1      -0.112   7.931   0.193  1.00  0.00    -0.204 F 
HETATM   45  C24 UNL     1      -0.357   5.634   0.728  1.00  0.00     0.073 A 
ENDBRANCH  35  37
ENDBRANCH  32  35
ENDBRANCH  21  32
ENDBRANCH   2  21
TORSDOF 18
