REMARK  17 active torsions:
REMARK  status: ('A' for Active; 'I' for Inactive)
REMARK    1  A    between atoms: C2_2  and  C4_5 
REMARK    2  A    between atoms: C4_5  and  N1_6 
REMARK    3  A    between atoms: N1_6  and  C5_9 
REMARK    4  A    between atoms: C5_9  and  C6_10 
REMARK    5  A    between atoms: C6_10  and  N2_11 
REMARK    6  A    between atoms: N2_11  and  C7_13 
REMARK    7  A    between atoms: C7_13  and  C8_14 
REMARK    8  A    between atoms: C8_14  and  N3_15 
REMARK    9  A    between atoms: N3_15  and  C9_17 
REMARK   10  A    between atoms: C13_22  and  O1_23 
REMARK   11  A    between atoms: O1_23  and  C14_24 
REMARK   12  A    between atoms: C15_26  and  C16_27 
REMARK   13  A    between atoms: C16_27  and  O3_28 
REMARK   14  A    between atoms: C17_30  and  O4_31 
REMARK   15  A    between atoms: C18_33  and  O5_34 
REMARK   16  A    between atoms: C19_36  and  O6_37 
REMARK   17  A    between atoms: C24_44  and  N4_45 
ROOT
HETATM    1  C9  UNL     1       1.037   1.076  -0.030  1.00  0.00     0.072 A 
HETATM    2  C10 UNL     1       1.214   1.796   1.147  1.00  0.00     0.074 A 
HETATM    3  C11 UNL     1       2.366   1.732   1.878  1.00  0.00     0.121 A 
HETATM    4  F1  UNL     1       2.552   2.432   3.033  1.00  0.00    -0.206 F 
HETATM    5  C12 UNL     1       3.417   0.919   1.444  1.00  0.00     0.082 A 
HETATM    6  C13 UNL     1       3.286   0.189   0.285  1.00  0.00     0.116 A 
HETATM    7  C20 UNL     1       2.084   0.287  -0.432  1.00  0.00     0.176 A 
HETATM    8  F2  UNL     1       1.942  -0.425  -1.574  1.00  0.00    -0.201 F 
ENDROOT
BRANCH   1   9
HETATM    9  N3  UNL     1      -0.166   1.157  -0.778  1.00  0.00    -0.385 N 
ATOM     10  H3  UNL     1      -0.247   0.606  -1.632  1.00  0.00     0.159 HD
BRANCH   9  11
HETATM   11  C8  UNL     1      -1.276   1.983  -0.383  1.00  0.00     0.152 C 
BRANCH  11  12
HETATM   12  C7  UNL     1      -2.435   1.927  -1.325  1.00  0.00     0.070 C 
HETATM   13  C21 UNL     1      -1.989   2.346  -2.752  1.00  0.00     0.034 C 
HETATM   14  C22 UNL     1      -3.372   2.424  -3.396  1.00  0.00     0.005 C 
HETATM   15  C23 UNL     1      -4.320   2.893  -2.283  1.00  0.00     0.035 C 
HETATM   16  C24 UNL     1      -3.407   3.071  -1.103  1.00  0.00     0.212 C 
BRANCH  12  17
HETATM   17  N2  UNL     1      -3.032   0.655  -1.519  1.00  0.00    -0.408 N 
ATOM     18  H2  UNL     1      -3.035   0.214  -2.439  1.00  0.00     0.154 HD
BRANCH  17  19
HETATM   19  C6  UNL     1      -3.625   0.010  -0.403  1.00  0.00     0.142 C 
BRANCH  19  20
HETATM   20  C5  UNL     1      -4.176  -1.316  -0.899  1.00  0.00     0.251 C 
BRANCH  20  21
HETATM   21  N1  UNL     1      -4.810  -2.102   0.114  1.00  0.00    -0.072 N 
ATOM     22  H12 UNL     1      -4.176  -2.284   0.892  1.00  0.00     0.277 HD
ATOM     23  H11 UNL     1      -4.959  -3.061  -0.200  1.00  0.00     0.277 HD
BRANCH  21  24
HETATM   24  C4  UNL     1      -6.027  -1.510   0.565  1.00  0.00     0.257 C 
BRANCH  24  25
HETATM   25  C2  UNL     1      -6.732  -2.352   1.612  1.00  0.00     0.053 C 
HETATM   26  C1  UNL     1      -8.004  -1.583   1.987  1.00  0.00     0.034 C 
HETATM   27  C3  UNL     1      -7.198  -3.653   0.964  1.00  0.00     0.034 C 
HETATM   28 CL1  UNL     1      -5.739  -2.633   3.043  1.00  0.00    -0.118 Cl
ENDBRANCH  24  25
ENDBRANCH  21  24
ENDBRANCH  20  21
ENDBRANCH  19  20
ENDBRANCH  17  19
ENDBRANCH  12  17
BRANCH  16  29
HETATM   29  N4  UNL     1      -4.028   3.103   0.170  1.00  0.00    -0.073 N 
ATOM     30  H43 UNL     1      -4.488   2.212   0.357  1.00  0.00     0.274 HD
ATOM     31  H42 UNL     1      -3.320   3.098   0.904  1.00  0.00     0.274 HD
ATOM     32  H41 UNL     1      -4.681   3.872   0.319  1.00  0.00     0.274 HD
ENDBRANCH  16  29
ENDBRANCH  11  12
ENDBRANCH   9  11
ENDBRANCH   1   9
BRANCH   6  33
HETATM   33  O1  UNL     1       4.256  -0.645  -0.238  1.00  0.00    -0.314 OA
BRANCH  33  34
HETATM   34  C14 UNL     1       5.508  -0.882   0.298  1.00  0.00     0.298 C 
HETATM   35  O2  UNL     1       6.532  -0.522  -0.581  1.00  0.00    -0.348 OA
HETATM   36  C15 UNL     1       7.736  -0.457   0.064  1.00  0.00     0.179 C 
HETATM   37  C17 UNL     1       7.783  -1.157   1.382  1.00  0.00     0.180 C 
HETATM   38  C18 UNL     1       6.994  -2.424   1.439  1.00  0.00     0.183 C 
HETATM   39  C19 UNL     1       5.745  -2.377   0.573  1.00  0.00     0.205 C 
BRANCH  36  40
HETATM   40  C16 UNL     1       8.090   0.999   0.289  1.00  0.00     0.198 C 
BRANCH  40  41
HETATM   41  O3  UNL     1       7.156   1.666   1.055  1.00  0.00    -0.398 OA
ATOM     42  H3  UNL     1       7.378   2.579   1.196  1.00  0.00     0.209 HD
ENDBRANCH  40  41
ENDBRANCH  36  40
BRANCH  37  43
HETATM   43  O4  UNL     1       9.141  -1.448   1.646  1.00  0.00    -0.390 OA
ATOM     44  H4  UNL     1       9.171  -1.893   2.485  1.00  0.00     0.210 HD
ENDBRANCH  37  43
BRANCH  38  45
HETATM   45  O5  UNL     1       7.763  -3.552   1.146  1.00  0.00    -0.390 OA
ATOM     46  H5  UNL     1       7.261  -4.358   1.182  1.00  0.00     0.210 HD
ENDBRANCH  38  45
BRANCH  39  47
HETATM   47  O6  UNL     1       6.032  -2.957  -0.648  1.00  0.00    -0.388 OA
ATOM     48  H6  UNL     1       6.178  -3.880  -0.478  1.00  0.00     0.210 HD
ENDBRANCH  39  47
ENDBRANCH  33  34
ENDBRANCH   6  33
TORSDOF 17
