REMARK  20 active torsions:
REMARK  status: ('A' for Active; 'I' for Inactive)
REMARK    1  A    between atoms: C4_4  and  C5_5 
REMARK    2  A    between atoms: C5_5  and  O1_6 
REMARK    3  A    between atoms: C6_8  and  O2_9 
REMARK    4  A    between atoms: N1_12  and  N2_13 
REMARK    5  A    between atoms: C8_16  and  O3_17 
REMARK    6  A    between atoms: C9_19  and  O4_20 
REMARK    7  A    between atoms: C12_26  and  O5_27 
REMARK    8  A    between atoms: C14_30  and  O6_31 
REMARK    9  A    between atoms: C14_30  and  C15_33 
REMARK   10  A    between atoms: C15_33  and  O8_35 
REMARK   11  A    between atoms: O8_35  and  C16_36 
REMARK   12  A    between atoms: C16_36  and  C17_37 
REMARK   13  A    between atoms: C17_37  and  C18_38 
REMARK   14  A    between atoms: C18_38  and  C19_39 
REMARK   15  A    between atoms: C19_39  and  C20_40 
REMARK   16  A    between atoms: C20_40  and  C21_41 
REMARK   17  A    between atoms: C21_41  and  C22_42 
REMARK   18  A    between atoms: C22_42  and  C23_43 
REMARK   19  A    between atoms: C23_43  and  C24_44 
REMARK   20  A    between atoms: C24_44  and  C25_45 
ROOT
HETATM    1  C1  UNL     1      -2.188   1.461  -0.597  1.00  0.00     0.024 C 
HETATM    2  C2  UNL     1      -2.765   0.160  -1.021  1.00  0.00     0.027 C 
HETATM    3  C3  UNL     1      -3.549  -0.371   0.134  1.00  0.00    -0.003 C 
HETATM    4  C4  UNL     1      -4.850  -0.604   0.155  1.00  0.00     0.002 C 
HETATM    5  C8  UNL     1      -5.638  -0.333  -1.068  1.00  0.00     0.180 C 
HETATM    6  C9  UNL     1      -4.997   0.679  -1.994  1.00  0.00     0.162 C 
HETATM    7  C10 UNL     1      -3.612   0.208  -2.244  1.00  0.00     0.107 C 
HETATM    8  C11 UNL     1      -2.904   0.865  -3.398  1.00  0.00     0.276 C 
HETATM    9  F1  UNL     1      -3.654   0.630  -4.534  1.00  0.00    -0.203 F 
HETATM   10  F2  UNL     1      -2.877   2.234  -3.227  1.00  0.00    -0.203 F 
HETATM   11  C12 UNL     1      -1.503   0.347  -3.570  1.00  0.00     0.194 C 
HETATM   12  C13 UNL     1      -1.196  -0.848  -2.733  1.00  0.00     0.087 C 
HETATM   13  C14 UNL     1      -1.635  -0.828  -1.319  1.00  0.00     0.159 C 
ENDROOT
BRANCH  13  14
HETATM   14  O6  UNL     1      -2.247  -2.093  -1.071  1.00  0.00    -0.378 OA
ATOM     15  H6  UNL     1      -1.546  -2.706  -1.256  1.00  0.00     0.211 HD
ENDBRANCH  13  14
BRANCH  13  16
HETATM   16  C15 UNL     1      -0.492  -0.692  -0.386  1.00  0.00     0.294 C 
HETATM   17  O7  UNL     1      -0.254  -1.580   0.464  1.00  0.00    -0.262 OA
BRANCH  16  18
HETATM   18  O8  UNL     1       0.340   0.402  -0.422  1.00  0.00    -0.319 OA
BRANCH  18  19
HETATM   19  C16 UNL     1       1.444   0.660   0.380  1.00  0.00     0.178 C 
BRANCH  19  20
HETATM   20  C17 UNL     1       2.540  -0.347   0.278  1.00  0.00     0.027 C 
BRANCH  20  21
HETATM   21  C18 UNL     1       3.731  -0.043   1.159  1.00  0.00     0.002 C 
BRANCH  21  22
HETATM   22  C19 UNL     1       4.362   1.295   0.823  1.00  0.00     0.000 C 
BRANCH  22  23
HETATM   23  C20 UNL     1       4.837   1.357  -0.568  1.00  0.00     0.000 C 
BRANCH  23  24
HETATM   24  C21 UNL     1       5.840   0.413  -1.069  1.00  0.00     0.000 C 
BRANCH  24  25
HETATM   25  C22 UNL     1       7.215   0.365  -0.560  1.00  0.00     0.000 C 
BRANCH  25  26
HETATM   26  C23 UNL     1       7.456   0.057   0.871  1.00  0.00     0.002 C 
BRANCH  26  27
HETATM   27  C24 UNL     1       8.991   0.003   1.070  1.00  0.00     0.031 C 
BRANCH  27  28
HETATM   28  C25 UNL     1       9.274  -0.313   2.510  1.00  0.00     0.222 C 
HETATM   29  F3  UNL     1       8.732  -1.532   2.887  1.00  0.00    -0.255 F 
ENDBRANCH  27  28
ENDBRANCH  26  27
ENDBRANCH  25  26
ENDBRANCH  24  25
ENDBRANCH  23  24
ENDBRANCH  22  23
ENDBRANCH  21  22
ENDBRANCH  20  21
ENDBRANCH  19  20
ENDBRANCH  18  19
ENDBRANCH  16  18
ENDBRANCH  13  16
BRANCH  11  30
HETATM   30  O5  UNL     1      -1.381  -0.066  -4.913  1.00  0.00    -0.389 OA
ATOM     31  H5  UNL     1      -0.496  -0.393  -5.022  1.00  0.00     0.210 HD
ENDBRANCH  11  30
BRANCH   4  32
HETATM   32  C5  UNL     1      -5.426  -1.131   1.406  1.00  0.00     0.184 C 
HETATM   33  C6  UNL     1      -6.490  -0.349   2.084  1.00  0.00     0.189 C 
HETATM   34  C7  UNL     1      -5.349   0.455   2.607  1.00  0.00     0.153 C 
HETATM   35  N1  UNL     1      -4.564  -0.766   2.515  1.00  0.00    -0.194 NA
BRANCH  32  36
HETATM   36  O1  UNL     1      -5.720  -2.499   1.365  1.00  0.00    -0.368 OA
ATOM     37  H1  UNL     1      -6.091  -2.839   2.171  1.00  0.00     0.212 HD
ENDBRANCH  32  36
BRANCH  33  38
HETATM   38  O2  UNL     1      -7.477   0.262   1.407  1.00  0.00    -0.390 OA
ATOM     39  H2  UNL     1      -8.158   0.762   1.841  1.00  0.00     0.210 HD
ENDBRANCH  33  38
BRANCH  35  40
HETATM   40  N2  UNL     1      -4.813  -1.557   3.658  1.00  0.00    -0.360 NA
ATOM     41  H22 UNL     1      -4.262  -2.413   3.593  1.00  0.00     0.171 HD
ATOM     42  H21 UNL     1      -4.207  -1.300   4.437  1.00  0.00     0.171 HD
ENDBRANCH  35  40
ENDBRANCH   4  32
BRANCH   6  43
HETATM   43  O4  UNL     1      -5.129   1.956  -1.507  1.00  0.00    -0.392 OA
ATOM     44  H4  UNL     1      -4.727   2.591  -2.088  1.00  0.00     0.210 HD
ENDBRANCH   6  43
BRANCH   5  45
HETATM   45  O3  UNL     1      -5.720  -1.533  -1.798  1.00  0.00    -0.388 OA
ATOM     46  H3  UNL     1      -6.226  -1.359  -2.583  1.00  0.00     0.210 HD
ENDBRANCH   5  45
TORSDOF 20
