REMARK  3 active torsions:
REMARK  status: ('A' for Active; 'I' for Inactive)
REMARK    1  A    between atoms: N1_1  and  C1_5 
REMARK    2  A    between atoms: C1_5  and  N2_6 
REMARK    3  A    between atoms: C1_5  and  C2_10 
ROOT
HETATM    1  C1  UNL     1      -0.722   0.244  -0.218  1.00  0.00     0.428 C 
ENDROOT
BRANCH   1   2
HETATM    2  N1  UNL     1      -1.350  -0.997  -0.374  1.00  0.00    -0.045 N 
ATOM      3  H13 UNL     1      -1.120  -1.641   0.383  1.00  0.00     0.277 HD
ATOM      4  H12 UNL     1      -2.356  -0.939  -0.219  1.00  0.00     0.277 HD
ATOM      5  H11 UNL     1      -1.126  -1.387  -1.290  1.00  0.00     0.277 HD
ENDBRANCH   1   2
BRANCH   1   6
HETATM    6  N2  UNL     1      -1.045   0.805   1.100  1.00  0.00    -0.045 N 
ATOM      7  H23 UNL     1      -2.051   0.863   1.255  1.00  0.00     0.277 HD
ATOM      8  H22 UNL     1      -0.815   0.161   1.857  1.00  0.00     0.277 HD
ATOM      9  H21 UNL     1      -0.587   1.709   1.214  1.00  0.00     0.277 HD
ENDBRANCH   1   6
BRANCH   1  10
HETATM   10  C2  UNL     1       0.768   0.047  -0.194  1.00  0.00     0.081 A 
HETATM   11  C3  UNL     1       1.467  -0.914   0.515  1.00  0.00     0.097 A 
HETATM   12  S1  UNL     1       2.878  -0.279  -0.123  1.00  0.00    -0.024 SA
HETATM   13  N3  UNL     1       1.750   0.732  -0.833  1.00  0.00    -0.326 N 
ATOM     14  H3  UNL     1       1.785   1.525  -1.473  1.00  0.00     0.174 HD
ENDBRANCH   1  10
TORSDOF 3
