REMARK  13 active torsions:
REMARK  status: ('A' for Active; 'I' for Inactive)
REMARK    1  A    between atoms: C2_2  and  C3_3 
REMARK    2  A    between atoms: C2_2  and  C16_22 
REMARK    3  A    between atoms: C3_3  and  N1_4 
REMARK    4  A    between atoms: N1_4  and  C4_6 
REMARK    5  A    between atoms: C4_6  and  C5_7 
REMARK    6  A    between atoms: C4_6  and  C9_12 
REMARK    7  A    between atoms: C5_7  and  N2_8 
REMARK       I    between atoms: C9_12  and  N3_14 
REMARK    8  A    between atoms: N3_14  and  C10_16 
REMARK    9  A    between atoms: C16_22  and  C17_23 
REMARK   10  A    between atoms: C16_22  and  N4_30 
REMARK   11  A    between atoms: C17_23  and  C18_24 
REMARK       I    between atoms: N4_30  and  C24_32 
REMARK   12  A    between atoms: C24_32  and  O3_34 
REMARK   13  A    between atoms: O3_34  and  C25_35 
ROOT
HETATM    1  C1  UNL     1       0.148   0.194   1.066  1.00  0.00     0.018 C 
HETATM    2  C2  UNL     1      -0.541  -0.598   0.221  1.00  0.00    -0.049 C 
ENDROOT
BRANCH   2   3
HETATM    3  C3  UNL     1       0.396  -1.494  -0.636  1.00  0.00     0.150 C 
BRANCH   3   4
HETATM    4  N1  UNL     1       1.624  -0.803  -0.670  1.00  0.00    -0.404 N 
ATOM      5  H1  UNL     1       1.601   0.215  -0.607  1.00  0.00     0.154 HD
BRANCH   4   6
HETATM    6  C4  UNL     1       2.863  -1.420  -0.784  1.00  0.00     0.196 C 
BRANCH   6   7
HETATM    7  C5  UNL     1       3.091  -2.206  -2.018  1.00  0.00     0.270 C 
BRANCH   7   8
HETATM    8  N2  UNL     1       2.996  -1.775  -3.321  1.00  0.00    -0.076 N 
HETATM    9  C6  UNL     1       1.700  -1.269  -3.787  1.00  0.00     0.271 C 
HETATM   10  C7  UNL     1       3.974  -1.003  -3.986  1.00  0.00     0.271 C 
HETATM   11  C8  UNL     1       3.042  -3.090  -4.115  1.00  0.00     0.271 C 
ENDBRANCH   7   8
ENDBRANCH   6   7
BRANCH   6  12
HETATM   12  C9  UNL     1       3.967  -0.501  -0.374  1.00  0.00     0.242 C 
HETATM   13  O1  UNL     1       4.674   0.050  -1.282  1.00  0.00    -0.271 OA
HETATM   14  N3  UNL     1       4.281  -0.171   0.974  1.00  0.00    -0.355 N 
ATOM     15  H3  UNL     1       3.728  -0.595   1.719  1.00  0.00     0.162 HD
BRANCH  14  16
HETATM   16  C10 UNL     1       5.341   0.733   1.337  1.00  0.00     0.084 C 
HETATM   17  C11 UNL     1       4.794   2.155   1.388  1.00  0.00     0.025 C 
HETATM   18  C12 UNL     1       4.321   2.521   2.750  1.00  0.00     0.002 C 
HETATM   19  C13 UNL     1       5.415   2.591   3.794  1.00  0.00     0.000 C 
HETATM   20  C14 UNL     1       6.566   1.767   3.242  1.00  0.00     0.002 C 
HETATM   21  C15 UNL     1       5.998   0.473   2.651  1.00  0.00     0.025 C 
ENDBRANCH  14  16
ENDBRANCH   6  12
ENDBRANCH   4   6
ENDBRANCH   3   4
ENDBRANCH   2   3
BRANCH   2  22
HETATM   22  C16 UNL     1      -1.960  -0.490   0.115  1.00  0.00     0.117 C 
BRANCH  22  23
HETATM   23  C17 UNL     1      -2.907  -1.327   0.808  1.00  0.00     0.034 C 
BRANCH  23  24
HETATM   24  C18 UNL     1      -3.054  -2.760   0.720  1.00  0.00    -0.012 C 
HETATM   25  C19 UNL     1      -4.297  -3.084   1.648  1.00  0.00     0.005 C 
HETATM   26  C20 UNL     1      -3.772  -3.660   2.922  1.00  0.00     0.000 C 
HETATM   27  C21 UNL     1      -3.305  -5.107   2.670  1.00  0.00     0.000 C 
HETATM   28  C22 UNL     1      -2.611  -5.127   1.321  1.00  0.00     0.000 C 
HETATM   29  C23 UNL     1      -1.980  -3.716   1.056  1.00  0.00     0.005 C 
ENDBRANCH  23  24
ENDBRANCH  22  23
BRANCH  22  30
HETATM   30  N4  UNL     1      -2.313   0.954   0.295  1.00  0.00    -0.328 N 
HETATM   31  C24 UNL     1      -3.255   1.591  -0.547  1.00  0.00     0.361 C 
HETATM   32  O2  UNL     1      -3.829   0.911  -1.481  1.00  0.00    -0.238 OA
ATOM     33  H4  UNL     1      -1.866   1.489   1.039  1.00  0.00     0.165 HD
BRANCH  31  34
HETATM   34  O3  UNL     1      -3.634   2.910  -0.461  1.00  0.00    -0.298 OA
BRANCH  34  35
HETATM   35  C25 UNL     1      -4.619   3.435  -1.332  1.00  0.00     0.142 C 
HETATM   36  C26 UNL     1      -4.103   4.695  -1.983  1.00  0.00     0.065 C 
HETATM   37  C27 UNL     1      -5.133   5.778  -1.705  1.00  0.00     0.124 C 
HETATM   38  C28 UNL     1      -6.389   4.899  -1.545  1.00  0.00     0.041 C 
HETATM   39  O4  UNL     1      -4.987   6.191  -0.383  1.00  0.00    -0.385 OA
HETATM   40  C29 UNL     1      -5.771   4.009  -0.498  1.00  0.00     0.042 C 
HETATM   41  C30 UNL     1      -5.130   5.024   0.389  1.00  0.00     0.175 C 
ENDBRANCH  34  35
ENDBRANCH  31  34
ENDBRANCH  22  30
ENDBRANCH   2  22
TORSDOF 13
