REMARK  13 active torsions:
REMARK  status: ('A' for Active; 'I' for Inactive)
REMARK    1  A    between atoms: C2_2  and  C4_4 
REMARK    2  A    between atoms: C4_4  and  C5_5 
REMARK    3  A    between atoms: C4_4  and  N2_20 
REMARK    4  A    between atoms: C5_5  and  C6_6 
REMARK    5  A    between atoms: C6_6  and  C8_8 
REMARK       I    between atoms: N2_20  and  C19_22 
REMARK    6  A    between atoms: C19_22  and  C20_24 
REMARK    7  A    between atoms: C20_24  and  C21_25 
REMARK    8  A    between atoms: C20_24  and  N6_33 
REMARK    9  A    between atoms: C21_25  and  C22_26 
REMARK   10  A    between atoms: C22_26  and  C23_27 
REMARK   11  A    between atoms: C23_27  and  N3_28 
REMARK       I    between atoms: N6_33  and  C25_35 
REMARK   12  A    between atoms: C25_35  and  O3_37 
REMARK   13  A    between atoms: O3_37  and  C26_38 
ROOT
HETATM    1  C8  UNL     1      -3.860   0.338   0.363  1.00  0.00     0.037 C 
HETATM    2  C9  UNL     1      -5.361   0.594   0.610  1.00  0.00     0.016 C 
HETATM    3  C10 UNL     1      -5.949  -0.800   0.696  1.00  0.00    -0.001 C 
HETATM    4  C11 UNL     1      -5.469  -1.360   2.012  1.00  0.00    -0.012 C 
HETATM    5  C12 UNL     1      -6.331  -2.393   2.624  1.00  0.00     0.010 C 
HETATM    6  C13 UNL     1      -4.040  -1.773   1.740  1.00  0.00     0.030 C 
HETATM    7  C14 UNL     1      -3.750  -1.166   0.414  1.00  0.00     0.064 C 
HETATM    8  C15 UNL     1      -2.670  -1.750  -0.341  1.00  0.00     0.070 C 
HETATM    9  N1  UNL     1      -1.832  -2.227  -0.953  1.00  0.00    -0.196 NA
HETATM   10  C16 UNL     1      -5.096  -1.504  -0.304  1.00  0.00    -0.022 C 
HETATM   11  C17 UNL     1      -5.070  -0.892  -1.672  1.00  0.00     0.017 C 
HETATM   12  C18 UNL     1      -5.285  -2.959  -0.450  1.00  0.00     0.017 C 
ENDROOT
BRANCH   1  13
HETATM   13  C6  UNL     1      -3.031   1.103   1.308  1.00  0.00    -0.080 C 
HETATM   14  C7  UNL     1      -3.553   2.447   1.746  1.00  0.00     0.043 C 
BRANCH  13  15
HETATM   15  C5  UNL     1      -1.590   0.984   1.220  1.00  0.00     0.001 C 
BRANCH  15  16
HETATM   16  C4  UNL     1      -0.669   1.783   0.430  1.00  0.00     0.111 C 
BRANCH  16  17
HETATM   17  C2  UNL     1      -0.738   1.905  -1.052  1.00  0.00     0.004 C 
HETATM   18  C1  UNL     1       0.493   2.779  -1.432  1.00  0.00     0.012 C 
HETATM   19  C3  UNL     1      -1.899   2.789  -1.540  1.00  0.00     0.012 C 
ENDBRANCH  16  17
BRANCH  16  20
HETATM   20  N2  UNL     1       0.702   1.351   0.778  1.00  0.00    -0.348 N 
HETATM   21  C19 UNL     1       1.520   0.464   0.113  1.00  0.00     0.264 C 
HETATM   22  O1  UNL     1       1.182  -0.176  -0.946  1.00  0.00    -0.266 OA
ATOM     23  H2  UNL     1       1.094   1.765   1.623  1.00  0.00     0.163 HD
BRANCH  21  24
HETATM   24  C20 UNL     1       2.897   0.139   0.555  1.00  0.00     0.082 C 
BRANCH  24  25
HETATM   25  C21 UNL     1       3.436   0.902   1.681  1.00  0.00     0.064 C 
BRANCH  25  26
HETATM   26  C22 UNL     1       3.637   2.367   1.522  1.00  0.00     0.026 C 
BRANCH  26  27
HETATM   27  C23 UNL     1       4.646   2.635   0.382  1.00  0.00     0.122 C 
BRANCH  27  28
HETATM   28  N3  UNL     1       4.756   4.102   0.355  1.00  0.00    -0.367 N 
HETATM   29  C24 UNL     1       4.841   4.684  -0.791  1.00  0.00     0.196 C 
HETATM   30  N4  UNL     1       4.833   3.982  -2.015  1.00  0.00    -0.067 NA
HETATM   31  N5  UNL     1       4.951   6.111  -0.858  1.00  0.00    -0.067 NA
ATOM     32  H3  UNL     1       4.765   4.643   1.220  1.00  0.00     0.161 HD
ENDBRANCH  27  28
ENDBRANCH  26  27
ENDBRANCH  25  26
ENDBRANCH  24  25
BRANCH  24  33
HETATM   33  N6  UNL     1       3.184  -1.260   0.608  1.00  0.00    -0.301 N 
HETATM   34  C25 UNL     1       3.996  -1.980  -0.304  1.00  0.00     0.365 C 
HETATM   35  O2  UNL     1       4.533  -1.341  -1.270  1.00  0.00    -0.238 OA
ATOM     36  H6  UNL     1       2.766  -1.790   1.373  1.00  0.00     0.171 HD
BRANCH  34  37
HETATM   37  O3  UNL     1       4.248  -3.318  -0.222  1.00  0.00    -0.294 OA
BRANCH  37  38
HETATM   38  C26 UNL     1       5.041  -4.074  -1.096  1.00  0.00     0.061 C 
HETATM   39  C27 UNL     1       5.007  -5.509  -0.571  1.00  0.00     0.046 C 
HETATM   40  C28 UNL     1       4.446  -4.089  -2.508  1.00  0.00     0.046 C 
HETATM   41  C29 UNL     1       6.477  -3.625  -1.142  1.00  0.00     0.046 C 
ENDBRANCH  37  38
ENDBRANCH  34  37
ENDBRANCH  24  33
ENDBRANCH  21  24
ENDBRANCH  16  20
ENDBRANCH  15  16
ENDBRANCH  13  15
ENDBRANCH   1  13
TORSDOF 13
