REMARK  5 active torsions:
REMARK  status: ('A' for Active; 'I' for Inactive)
REMARK    1  A    between atoms: O1_2  and  C2_3 
REMARK    2  A    between atoms: C2_3  and  O3_5 
REMARK    3  A    between atoms: O3_5  and  C3_6 
REMARK    4  A    between atoms: C3_6  and  O4_8 
REMARK    5  A    between atoms: C3_6  and  O5_10 
ROOT
HETATM    1  C3  UNL     1      -1.595  -0.178  -0.073  1.00  0.00     0.283 C 
HETATM    2  C4  UNL     1      -1.663   1.051  -0.924  1.00  0.00     0.115 C 
ENDROOT
BRANCH   1   3
HETATM    3  O3  UNL     1      -0.395  -0.897  -0.202  1.00  0.00    -0.235 OA
BRANCH   3   4
HETATM    4  C2  UNL     1       0.815  -0.286   0.109  1.00  0.00     0.410 C 
HETATM    5  O2  UNL     1       0.780   0.891   0.494  1.00  0.00    -0.229 OA
BRANCH   4   6
HETATM    6  O1  UNL     1       2.033  -0.913   0.012  1.00  0.00    -0.303 OA
HETATM    7  C1  UNL     1       3.203  -0.194   0.354  1.00  0.00     0.215 C 
ENDBRANCH   4   6
ENDBRANCH   3   4
ENDBRANCH   1   3
BRANCH   1   8
HETATM    8  O4  UNL     1      -2.622  -1.042  -0.522  1.00  0.00    -0.343 OA
ATOM      9  H4  UNL     1      -3.433  -0.556  -0.435  1.00  0.00     0.215 HD
ENDBRANCH   1   8
BRANCH   1  10
HETATM   10  O5  UNL     1      -1.827   0.093   1.274  1.00  0.00    -0.343 OA
ATOM     11  H5  UNL     1      -2.638   0.579   1.361  1.00  0.00     0.215 HD
ENDBRANCH   1  10
TORSDOF 5
