REMARK  3 active torsions:
REMARK  status: ('A' for Active; 'I' for Inactive)
REMARK    1  A    between atoms: C4_4  and  O1_5 
REMARK    2  A    between atoms: C5_7  and  O2_8 
REMARK    3  A    between atoms: C5_7  and  O3_10 
ROOT
HETATM    1  C1  UNL     1       2.377   0.612   0.347  1.00  0.00     0.040 C 
HETATM    2  C2  UNL     1       0.913   0.382   0.537  1.00  0.00     0.126 C 
HETATM    3  C3  UNL     1       0.560  -1.024   0.030  1.00  0.00     0.071 C 
HETATM    4  C4  UNL     1      -0.926  -0.855  -0.243  1.00  0.00     0.213 C 
HETATM    5  C5  UNL     1      -1.147   0.620  -0.052  1.00  0.00     0.305 C 
HETATM    6  O4  UNL     1       0.120   1.160  -0.302  1.00  0.00    -0.326 OA
ENDROOT
BRANCH   5   7
HETATM    7  O2  UNL     1      -1.414   0.905   1.306  1.00  0.00    -0.341 OA
ATOM      8  H2  UNL     1      -1.554   1.837   1.427  1.00  0.00     0.215 HD
ENDBRANCH   5   7
BRANCH   5   9
HETATM    9  O3  UNL     1      -2.107   1.150  -0.881  1.00  0.00    -0.341 OA
ATOM     10  H3  UNL     1      -2.247   2.082  -0.760  1.00  0.00     0.215 HD
ENDBRANCH   5   9
BRANCH   4  11
HETATM   11  O1  UNL     1      -1.704  -1.579   0.653  1.00  0.00    -0.387 OA
ATOM     12  H1  UNL     1      -2.633  -1.473   0.482  1.00  0.00     0.210 HD
ENDBRANCH   4  11
TORSDOF 3
