REMARK  1 active torsions:
REMARK  status: ('A' for Active; 'I' for Inactive)
REMARK    1  A    between atoms: C4_4  and  O1_5 
ROOT
HETATM    1  C1  UNL     1      -2.146   0.739   0.059  1.00  0.00     0.040 C 
HETATM    2  C2  UNL     1      -1.107  -0.052  -0.675  1.00  0.00     0.121 C 
HETATM    3  C3  UNL     1      -0.329  -0.989   0.215  1.00  0.00     0.067 C 
HETATM    4  C4  UNL     1       1.059  -0.823  -0.422  1.00  0.00     0.160 C 
HETATM    5  C5  UNL     1       0.998   0.701  -0.603  1.00  0.00     0.222 C 
HETATM    6  S1  UNL     1       2.391   1.319  -1.514  1.00  0.00    -0.060 SA
HETATM    7  O2  UNL     1      -0.216   0.820  -1.254  1.00  0.00    -0.367 OA
ENDROOT
BRANCH   4   8
HETATM    8  O1  UNL     1       2.068  -1.220   0.396  1.00  0.00    -0.392 OA
ATOM      9  H1  UNL     1       2.926  -1.117   0.002  1.00  0.00     0.210 HD
ENDBRANCH   4   8
TORSDOF 1
