REMARK  2 active torsions:
REMARK  status: ('A' for Active; 'I' for Inactive)
REMARK    1  A    between atoms: C4_4  and  O1_5 
REMARK    2  A    between atoms: C5_9  and  O4_10 
ROOT
HETATM    1  C1  UNL     1      -1.921  -0.794   0.290  1.00  0.00     0.015 C 
HETATM    2  C2  UNL     1      -0.647  -0.210   0.822  1.00  0.00     0.044 C 
HETATM    3  C3  UNL     1       0.504  -0.934   0.120  1.00  0.00     0.072 C 
HETATM    4  C4  UNL     1       1.668   0.008   0.034  1.00  0.00     0.294 C 
HETATM    5  O2  UNL     1       1.621   0.983   1.010  1.00  0.00    -0.206 OA
HETATM    6  O3  UNL     1       0.633   1.811   0.891  1.00  0.00    -0.205 OA
HETATM    7  C5  UNL     1      -0.548   1.248   0.481  1.00  0.00     0.297 C 
ENDROOT
BRANCH   4   8
HETATM    8  O1  UNL     1       2.839  -0.739   0.255  1.00  0.00    -0.368 OA
ATOM      9  H1  UNL     1       3.576  -0.142   0.201  1.00  0.00     0.212 HD
ENDBRANCH   4   8
BRANCH   7  10
HETATM   10  O4  UNL     1      -0.739   1.482  -0.866  1.00  0.00    -0.368 OA
ATOM     11  H4  UNL     1      -0.676   2.405  -1.082  1.00  0.00     0.212 HD
ENDBRANCH   7  10
TORSDOF 2
