REMARK  2 active torsions:
REMARK  status: ('A' for Active; 'I' for Inactive)
REMARK    1  A    between atoms: O1_1  and  N1_3 
REMARK    2  A    between atoms: N2_9  and  O2_10 
ROOT
HETATM    1  N1  UNL     1       2.341  -0.308  -0.507  1.00  0.00    -0.276 N 
ATOM      2  H1  UNL     1       2.826  -1.195  -0.644  1.00  0.00     0.193 HD
HETATM    3  C1  UNL     1       1.068  -0.269  -0.512  1.00  0.00     0.025 C 
HETATM    4  C2  UNL     1       0.206  -1.468  -0.710  1.00  0.00     0.057 C 
HETATM    5  C3  UNL     1      -0.865  -1.454   0.359  1.00  0.00     0.022 C 
HETATM    6  C4  UNL     1      -1.549  -0.100   0.447  1.00  0.00     0.121 C 
HETATM    7  N2  UNL     1      -0.531   0.860   0.833  1.00  0.00    -0.194 NA
HETATM    8  C5  UNL     1       0.367   1.026  -0.313  1.00  0.00     0.174 C 
ENDROOT
BRANCH   1   9
HETATM    9  O1  UNL     1       3.058   0.843  -0.318  1.00  0.00    -0.290 OA
ATOM     10  H1  UNL     1       4.008   0.814  -0.314  1.00  0.00     0.244 HD
ENDBRANCH   1   9
BRANCH   7  11
HETATM   11  O2  UNL     1      -1.156   2.037   1.058  1.00  0.00    -0.313 OA
ATOM     12  H2  UNL     1      -0.490   2.665   1.311  1.00  0.00     0.237 HD
ENDBRANCH   7  11
TORSDOF 2
