REMARK  16 active torsions:
REMARK  status: ('A' for Active; 'I' for Inactive)
REMARK    1  A    between atoms: C5_10  and  N3_11 
REMARK    2  A    between atoms: N3_11  and  C6_12 
REMARK    3  A    between atoms: C7_15  and  N5_16 
REMARK    4  A    between atoms: N5_16  and  C8_17 
REMARK    5  A    between atoms: N5_16  and  C10_21 
REMARK    6  A    between atoms: C8_17  and  C9_18 
REMARK    7  A    between atoms: C9_18  and  O1_19 
REMARK    8  A    between atoms: C10_21  and  C11_22 
REMARK    9  A    between atoms: C11_22  and  O2_23 
REMARK   10  A    between atoms: O2_23  and  C12_24 
REMARK   11  A    between atoms: C12_24  and  C13_25 
REMARK   12  A    between atoms: C13_25  and  O3_26 
REMARK   13  A    between atoms: C15_31  and  C16_32 
REMARK   14  A    between atoms: C16_32  and  C17_33 
REMARK   15  A    between atoms: C19_39  and  O6_40 
REMARK   16  A    between atoms: O6_40  and  S1_41 
ROOT
HETATM    1  C6  UNL     1       0.498  -0.925   0.343  1.00  0.00     0.300 A 
HETATM    2  N4  UNL     1      -0.036  -0.332  -0.775  1.00  0.00    -0.147 N 
ATOM      3  H4  UNL     1       0.503   0.409  -1.222  1.00  0.00     0.188 HD
HETATM    4  C7  UNL     1      -1.212  -0.658  -1.317  1.00  0.00     0.685 A 
HETATM    5  N6  UNL     1      -1.903  -1.635  -0.715  1.00  0.00    -0.174 N 
ATOM      6  H6  UNL     1      -2.804  -1.905  -1.109  1.00  0.00     0.186 HD
HETATM    7  C14 UNL     1      -1.465  -2.281   0.389  1.00  0.00     0.158 A 
HETATM    8  C15 UNL     1      -1.984  -3.293   1.166  1.00  0.00     0.030 A 
HETATM    9  C20 UNL     1      -1.043  -3.509   2.161  1.00  0.00     0.123 A 
HETATM   10  N8  UNL     1      -0.023  -2.646   1.953  1.00  0.00    -0.299 N 
ATOM     11  H8  UNL     1       0.815  -2.576   2.531  1.00  0.00     0.186 HD
HETATM   12  N9  UNL     1      -0.275  -1.913   0.896  1.00  0.00    -0.195 N 
ENDROOT
BRANCH   1  13
HETATM   13  N3  UNL     1       1.540  -0.639   0.821  1.00  0.00    -0.333 NA
BRANCH  13  14
HETATM   14  C5  UNL     1       2.713  -0.323   1.366  1.00  0.00     0.263 A 
HETATM   15  N2  UNL     1       3.481   0.628   0.868  1.00  0.00    -0.307 N 
HETATM   16  C4  UNL     1       4.677   0.787   1.613  1.00  0.00     0.315 A 
ATOM     17  H2  UNL     1       3.243   1.182   0.046  1.00  0.00     0.166 HD
HETATM   18  N1  UNL     1       4.664   2.128   2.184  1.00  0.00    -0.005 N 
HETATM   19  C21 UNL     1       4.598  -0.196   2.677  1.00  0.00     0.285 A 
HETATM   20  C22 UNL     1       5.912   0.690   0.760  1.00  0.00     0.118 C 
HETATM   21  C2  UNL     1       6.031   2.555   2.018  1.00  0.00     0.223 C 
ATOM     22  H12 UNL     1       4.312   2.183   3.140  1.00  0.00     0.284 HD
ATOM     23  H11 UNL     1       3.968   2.757   1.784  1.00  0.00     0.284 HD
HETATM   24  C1  UNL     1       6.808   2.515   3.323  1.00  0.00     0.078 C 
HETATM   25  C3  UNL     1       5.959   4.045   1.638  1.00  0.00     0.078 C 
HETATM   26  O11 UNL     1       6.628   1.813   1.040  1.00  0.00    -0.339 OA
HETATM   27  N10 UNL     1       3.384  -0.884   2.530  1.00  0.00    -0.283 N 
HETATM   28  O10 UNL     1       5.414  -0.466   3.615  1.00  0.00    -0.268 OA
ATOM     29  H10 UNL     1       3.037  -1.635   3.126  1.00  0.00     0.173 HD
HETATM   30  C23 UNL     1       6.637  -0.609   0.890  1.00  0.00     0.051 C 
HETATM   31  C24 UNL     1       5.427   0.781  -0.694  1.00  0.00     0.051 C 
ENDBRANCH  13  14
ENDBRANCH   1  13
BRANCH   4  32
HETATM   32  N5  UNL     1      -1.702   0.027  -2.481  1.00  0.00    -0.213 N 
BRANCH  32  33
HETATM   33  C8  UNL     1      -1.392  -0.502  -3.772  1.00  0.00     0.167 C 
BRANCH  33  34
HETATM   34  C9  UNL     1      -2.586  -1.030  -4.524  1.00  0.00     0.184 C 
BRANCH  34  35
HETATM   35  O1  UNL     1      -2.143  -1.509  -5.758  1.00  0.00    -0.399 OA
ATOM     36  H1  UNL     1      -2.896  -1.842  -6.232  1.00  0.00     0.209 HD
ENDBRANCH  34  35
ENDBRANCH  33  34
ENDBRANCH  32  33
BRANCH  32  37
HETATM   37  C10 UNL     1      -2.486   1.240  -2.371  1.00  0.00     0.167 C 
BRANCH  37  38
HETATM   38  C11 UNL     1      -2.688   1.605  -0.907  1.00  0.00     0.188 C 
BRANCH  38  39
HETATM   39  O2  UNL     1      -3.422   2.747  -0.726  1.00  0.00    -0.387 OA
BRANCH  39  40
HETATM   40  C12 UNL     1      -2.881   3.882  -1.273  1.00  0.00     0.193 C 
BRANCH  40  41
HETATM   41  C13 UNL     1      -3.811   5.053  -0.964  1.00  0.00     0.190 C 
BRANCH  41  42
HETATM   42  O3  UNL     1      -3.944   5.218   0.424  1.00  0.00    -0.399 OA
ATOM     43  H3  UNL     1      -4.523   5.947   0.616  1.00  0.00     0.209 HD
ENDBRANCH  41  42
ENDBRANCH  40  41
ENDBRANCH  39  40
ENDBRANCH  38  39
ENDBRANCH  37  38
ENDBRANCH  32  37
ENDBRANCH   4  32
BRANCH   8  44
HETATM   44  C16 UNL     1      -3.130  -3.910   0.985  1.00  0.00     0.051 C 
BRANCH  44  45
HETATM   45  C17 UNL     1      -4.076  -3.653  -0.061  1.00  0.00     0.098 A 
HETATM   46  N7  UNL     1      -3.889  -3.985  -1.347  1.00  0.00    -0.298 N 
HETATM   47  C18 UNL     1      -4.971  -3.596  -2.016  1.00  0.00     0.372 A 
ATOM     48  H7  UNL     1      -3.070  -4.449  -1.739  1.00  0.00     0.171 HD
HETATM   49  O4  UNL     1      -5.135  -3.751  -3.247  1.00  0.00    -0.238 OA
HETATM   50  O5  UNL     1      -5.807  -3.040  -1.183  1.00  0.00    -0.234 OA
HETATM   51  C19 UNL     1      -5.312  -3.048   0.024  1.00  0.00     0.236 A 
BRANCH  51  52
HETATM   52  O6  UNL     1      -5.841  -2.570   1.217  1.00  0.00    -0.186 OA
BRANCH  52  53
HETATM   53  S1  UNL     1      -6.896  -3.588   2.088  1.00  0.00     0.258 S 
HETATM   54  O7  UNL     1      -6.925  -4.954   1.465  1.00  0.00    -0.572 OA
HETATM   55  O8  UNL     1      -6.466  -3.616   3.518  1.00  0.00    -0.572 OA
HETATM   56  O9  UNL     1      -8.441  -2.893   2.016  1.00  0.00    -0.572 OA
ENDBRANCH  52  53
ENDBRANCH  51  52
ENDBRANCH  44  45
ENDBRANCH   8  44
TORSDOF 16
