REMARK  2 active torsions:
REMARK  status: ('A' for Active; 'I' for Inactive)
REMARK       I    between atoms: N1_2  and  C2_4 
REMARK    1  A    between atoms: C2_4  and  C3_6 
REMARK    2  A    between atoms: C5_9  and  N3_10 
REMARK       I    between atoms: C6_12  and  N5_14 
REMARK       I    between atoms: C7_16  and  N6_17 
REMARK       I    between atoms: C7_16  and  N7_23 
ROOT
HETATM    1  N3  UNL     1       1.264  -0.753   1.861  1.00  0.00    -0.328 N 
ATOM      2  H3  UNL     1       1.399  -0.489   2.837  1.00  0.00     0.168 HD
HETATM    3  C6  UNL     1       0.101  -0.825   1.356  1.00  0.00     0.207 C 
HETATM    4  N4  UNL     1      -0.494  -0.355   2.960  1.00  0.00    -0.063 NA
HETATM    5  N5  UNL     1      -1.020  -0.908   0.812  1.00  0.00    -0.163 N 
ATOM      6  H5  UNL     1      -1.304  -1.884   0.893  1.00  0.00     0.187 HD
HETATM    7  C7  UNL     1      -1.954  -0.320   0.208  1.00  0.00     0.681 C 
HETATM    8  N6  UNL     1      -3.077  -1.083  -0.184  1.00  0.00    -0.214 N 
HETATM    9  C8  UNL     1      -3.224  -1.389  -1.606  1.00  0.00     0.167 C 
HETATM   10  C9  UNL     1      -3.536  -2.876  -1.689  1.00  0.00     0.188 C 
HETATM   11  O2  UNL     1      -4.789  -3.045  -1.111  1.00  0.00    -0.388 OA
HETATM   12  C10 UNL     1      -4.652  -2.905   0.269  1.00  0.00     0.188 C 
HETATM   13  C11 UNL     1      -4.089  -1.596   0.707  1.00  0.00     0.167 C 
HETATM   14  N7  UNL     1      -1.890   1.058  -0.083  1.00  0.00    -0.205 N 
HETATM   15  C12 UNL     1      -0.792   1.602  -0.907  1.00  0.00     0.168 C 
HETATM   16  C13 UNL     1      -1.298   2.633  -1.857  1.00  0.00     0.188 C 
HETATM   17  O3  UNL     1      -2.054   3.604  -1.255  1.00  0.00    -0.387 OA
HETATM   18  C14 UNL     1      -2.107   3.404   0.112  1.00  0.00     0.198 C 
HETATM   19  C15 UNL     1      -2.835   2.066   0.358  1.00  0.00     0.064 C 
HETATM   20  C16 UNL     1      -4.093   2.115  -0.478  1.00  0.00     0.041 C 
HETATM   21  C17 UNL     1      -3.127   2.033   1.829  1.00  0.00     0.041 C 
ENDROOT
BRANCH   1  22
HETATM   22  C5  UNL     1       2.398  -1.060   1.002  1.00  0.00     0.060 A 
HETATM   23  C4  UNL     1       3.286  -0.048   0.738  1.00  0.00     0.090 A 
HETATM   24  C3  UNL     1       4.389  -0.333  -0.103  1.00  0.00     0.076 A 
HETATM   25  N2  UNL     1       3.087   1.230   1.332  1.00  0.00    -0.099 NA
HETATM   26  C21 UNL     1       4.511  -1.595  -0.605  1.00  0.00     0.034 A 
HETATM   27  C19 UNL     1       3.594  -2.594  -0.317  1.00  0.00    -0.041 A 
HETATM   28 BR1  UNL     1       5.995  -2.037  -1.732  1.00  0.00    -0.049 Br
HETATM   29  C18 UNL     1       2.535  -2.315   0.492  1.00  0.00     0.039 A 
HETATM   30  C20 UNL     1       3.790  -3.969  -0.878  1.00  0.00     0.049 C 
BRANCH  24  31
HETATM   31  C2  UNL     1       5.249   0.798  -0.357  1.00  0.00     0.254 C 
HETATM   32  N1  UNL     1       6.385   0.841  -1.138  1.00  0.00    -0.361 N 
HETATM   33  C1  UNL     1       7.070   2.181  -1.202  1.00  0.00     0.149 C 
ATOM     34  H1  UNL     1       6.736   0.024  -1.637  1.00  0.00     0.162 HD
HETATM   35  O1  UNL     1       4.930   1.911   0.208  1.00  0.00    -0.268 OA
ENDBRANCH  24  31
ENDBRANCH   1  22
TORSDOF 2
