REMARK  7 active torsions:
REMARK  status: ('A' for Active; 'I' for Inactive)
REMARK    1  A    between atoms: C2_2  and  C3_4 
REMARK    2  A    between atoms: C3_4  and  O1_5 
REMARK    3  A    between atoms: C3_4  and  N1_7 
REMARK    4  A    between atoms: C5_10  and  C6_11 
REMARK    5  A    between atoms: C9_16  and  O3_17 
REMARK    6  A    between atoms: C12_23  and  O4_24 
REMARK    7  A    between atoms: C20_39  and  C21_40 
ROOT
HETATM    1  N1  UNL     1      -2.352  -0.572  -0.170  1.00  0.00    -0.281 N 
HETATM    2  C4  UNL     1      -2.220   0.820  -0.361  1.00  0.00     0.249 C 
HETATM    3  O2  UNL     1      -3.199   1.323  -1.015  1.00  0.00    -0.271 OA
HETATM    4  C5  UNL     1      -1.188   1.792   0.041  1.00  0.00     0.179 C 
HETATM    5  N2  UNL     1      -0.419   2.288  -1.084  1.00  0.00    -0.359 N 
ATOM      6  H2  UNL     1      -0.944   2.303  -1.959  1.00  0.00     0.162 HD
HETATM    7  C9  UNL     1       0.869   2.741  -1.213  1.00  0.00     0.135 C 
HETATM    8  C10 UNL     1       2.061   2.506  -0.341  1.00  0.00     0.153 C 
HETATM    9  C11 UNL     1       2.725   3.859  -0.019  1.00  0.00     0.041 C 
HETATM   10  N3  UNL     1       3.071   1.721  -0.993  1.00  0.00    -0.361 N 
ATOM     11  H3  UNL     1       3.130   1.869  -2.000  1.00  0.00     0.162 HD
HETATM   12  C12 UNL     1       3.992   0.787  -0.495  1.00  0.00     0.135 C 
HETATM   13  C13 UNL     1       3.764  -0.545   0.084  1.00  0.00     0.155 C 
HETATM   14  C14 UNL     1       5.127  -1.293  -0.015  1.00  0.00     0.041 C 
HETATM   15  N4  UNL     1       3.390  -0.585   1.468  1.00  0.00    -0.347 N 
ATOM     16  H4  UNL     1       3.721   0.172   2.067  1.00  0.00     0.163 HD
HETATM   17  C15 UNL     1       2.595  -1.595   2.070  1.00  0.00     0.245 C 
HETATM   18  O5  UNL     1       2.968  -2.055   3.178  1.00  0.00    -0.271 OA
HETATM   19  C16 UNL     1       1.327  -2.135   1.436  1.00  0.00     0.106 C 
HETATM   20  C17 UNL     1       1.606  -3.494   0.908  1.00  0.00     0.048 C 
HETATM   21  C18 UNL     1       0.310  -2.282   2.573  1.00  0.00     0.048 C 
HETATM   22  N5  UNL     1       0.812  -1.173   0.528  1.00  0.00    -0.342 N 
ATOM     23  H5  UNL     1       1.106  -0.222   0.752  1.00  0.00     0.163 HD
HETATM   24  C19 UNL     1       0.000  -1.233  -0.595  1.00  0.00     0.242 C 
HETATM   25  O6  UNL     1       0.558  -0.933  -1.730  1.00  0.00    -0.271 OA
HETATM   26  C20 UNL     1      -1.421  -1.588  -0.714  1.00  0.00     0.190 C 
ENDROOT
BRANCH   1  27
HETATM   27  C3  UNL     1      -3.421  -1.176   0.566  1.00  0.00     0.167 C 
BRANCH  27  28
HETATM   28  C2  UNL     1      -4.544  -0.665   1.236  1.00  0.00     0.075 C 
HETATM   29  C1  UNL     1      -5.377  -1.531   1.856  1.00  0.00     0.041 C 
HETATM   30 CL1  UNL     1      -5.010   0.991   1.355  1.00  0.00    -0.081 Cl
ENDBRANCH  27  28
BRANCH  27  31
HETATM   31  O1  UNL     1      -3.362  -2.491   0.647  1.00  0.00    -0.345 OA
ATOM     32  H1  UNL     1      -2.602  -2.837   0.194  1.00  0.00     0.219 HD
ENDBRANCH  27  31
ENDBRANCH   1  27
BRANCH  26  33
HETATM   33  C21 UNL     1      -1.709  -1.977  -2.126  1.00  0.00     0.010 C 
HETATM   34  C22 UNL     1      -3.062  -2.565  -2.398  1.00  0.00     0.012 C 
HETATM   35  C23 UNL     1      -0.684  -2.978  -2.619  1.00  0.00     0.012 C 
ENDBRANCH  26  33
BRANCH   4  36
HETATM   36  C6  UNL     1      -1.888   3.044   0.610  1.00  0.00     0.009 C 
HETATM   37  C7  UNL     1      -0.886   4.080   1.079  1.00  0.00     0.012 C 
HETATM   38  C8  UNL     1      -2.804   3.706  -0.370  1.00  0.00     0.012 C 
ENDBRANCH   4  36
BRANCH   7  39
HETATM   39  O3  UNL     1       1.138   3.496  -2.241  1.00  0.00    -0.348 OA
ATOM     40  H3  UNL     1       2.030   3.810  -2.330  1.00  0.00     0.219 HD
ENDBRANCH   7  39
BRANCH  12  41
HETATM   41  O4  UNL     1       5.248   1.135  -0.546  1.00  0.00    -0.348 OA
ATOM     42  H4  UNL     1       5.872   0.503  -0.209  1.00  0.00     0.219 HD
ENDBRANCH  12  41
TORSDOF 7
