REMARK  3 active torsions:
REMARK  status: ('A' for Active; 'I' for Inactive)
REMARK       I    between atoms: N2_14  and  C10_15 
REMARK       I    between atoms: C10_15  and  N3_17 
REMARK    1  A    between atoms: N3_17  and  C11_19 
REMARK    2  A    between atoms: C11_19  and  C13_21 
REMARK    3  A    between atoms: C19_33  and  O5_34 
ROOT
HETATM    1  C1  UNL     1      -5.048  -2.600  -0.224  1.00  0.00     0.042 C 
HETATM    2  C2  UNL     1      -3.638  -1.987  -0.382  1.00  0.00     0.172 C 
HETATM    3  N1  UNL     1      -2.765  -3.092  -0.806  1.00  0.00    -0.347 N 
ATOM      4  H1  UNL     1      -2.944  -3.490  -1.728  1.00  0.00     0.163 HD
HETATM    5  C3  UNL     1      -1.719  -3.649  -0.076  1.00  0.00     0.227 C 
HETATM    6  O1  UNL     1      -1.745  -4.922   0.084  1.00  0.00    -0.273 OA
HETATM    7  C4  UNL     1      -0.571  -2.926   0.540  1.00  0.00     0.045 C 
HETATM    8  C5  UNL     1      -1.083  -2.260   1.796  1.00  0.00     0.026 C 
HETATM    9  C6  UNL     1       0.509  -3.884   0.957  1.00  0.00     0.026 C 
HETATM   10  C7  UNL     1      -0.030  -1.858  -0.370  1.00  0.00     0.093 C 
HETATM   11  C8  UNL     1      -0.157  -2.322  -1.842  1.00  0.00     0.021 C 
HETATM   12  C9  UNL     1       1.394  -1.528  -0.182  1.00  0.00     0.252 C 
HETATM   13  O2  UNL     1       2.134  -2.519  -0.562  1.00  0.00    -0.271 OA
HETATM   14  N2  UNL     1       1.958  -0.333   0.329  1.00  0.00    -0.169 N 
HETATM   15  C10 UNL     1       3.383  -0.194   0.104  1.00  0.00     0.344 C 
HETATM   16  O3  UNL     1       3.982  -1.103  -0.550  1.00  0.00    -0.245 OA
HETATM   17  N3  UNL     1       4.132   0.924   0.592  1.00  0.00    -0.331 N 
ATOM     18  H3  UNL     1       3.666   1.663   1.119  1.00  0.00     0.164 HD
HETATM   19  N4  UNL     1       1.346   0.693   1.031  1.00  0.00    -0.251 N 
ATOM     20  H4  UNL     1       1.823   0.913   1.905  1.00  0.00     0.191 HD
HETATM   21  C15 UNL     1       0.227   1.491   0.812  1.00  0.00     0.282 C 
HETATM   22  O4  UNL     1      -0.579   1.568   1.818  1.00  0.00    -0.265 OA
HETATM   23  C16 UNL     1      -0.218   2.275  -0.346  1.00  0.00     0.079 C 
HETATM   24  C17 UNL     1       0.071   1.728  -1.695  1.00  0.00     0.074 C 
HETATM   25  N5  UNL     1      -1.526   2.872  -0.162  1.00  0.00    -0.333 N 
HETATM   26  C18 UNL     1      -1.492   4.067   0.743  1.00  0.00     0.158 C 
HETATM   27  C19 UNL     1      -2.779   2.566  -0.683  1.00  0.00     0.146 C 
HETATM   28  C20 UNL     1      -3.697   1.413  -0.587  1.00  0.00     0.090 C 
HETATM   29  C21 UNL     1      -4.004   0.955   0.818  1.00  0.00     0.047 C 
HETATM   30  C22 UNL     1      -5.126   1.873  -1.049  1.00  0.00     0.047 C 
HETATM   31  N6  UNL     1      -3.385   0.342  -1.505  1.00  0.00    -0.343 N 
ATOM     32  H6  UNL     1      -2.809   0.610  -2.303  1.00  0.00     0.163 HD
HETATM   33  C23 UNL     1      -3.749  -0.992  -1.467  1.00  0.00     0.241 C 
HETATM   34  O6  UNL     1      -4.277  -1.505  -2.527  1.00  0.00    -0.271 OA
ENDROOT
BRANCH  17  35
HETATM   35  C11 UNL     1       5.532   1.000   0.338  1.00  0.00     0.154 C 
HETATM   36  C12 UNL     1       5.833   2.234  -0.482  1.00  0.00     0.038 C 
BRANCH  35  37
HETATM   37  C13 UNL     1       6.354   1.033   1.608  1.00  0.00     0.259 C 
HETATM   38  C14 UNL     1       7.814   1.113   1.208  1.00  0.00     0.092 C 
HETATM   39  F1  UNL     1       6.144  -0.143   2.304  1.00  0.00    -0.204 F 
HETATM   40  F2  UNL     1       6.061   2.121   2.391  1.00  0.00    -0.204 F 
ENDBRANCH  35  37
ENDBRANCH  17  35
BRANCH  27  41
HETATM   41  O5  UNL     1      -3.286   3.515  -1.442  1.00  0.00    -0.347 OA
ATOM     42  H5  UNL     1      -4.142   3.306  -1.798  1.00  0.00     0.219 HD
ENDBRANCH  27  41
TORSDOF 3
