REMARK  4 active torsions:
REMARK  status: ('A' for Active; 'I' for Inactive)
REMARK    1  A    between atoms: C3_5  and  C4_6 
REMARK       I    between atoms: C4_6  and  N2_8 
REMARK       I    between atoms: N3_11  and  C7_12 
REMARK       I    between atoms: C7_12  and  N4_14 
REMARK    2  A    between atoms: N4_14  and  C8_16 
REMARK    3  A    between atoms: C16_24  and  O4_25 
REMARK    4  A    between atoms: C19_29  and  N5_30 
REMARK       I    between atoms: N5_30  and  C20_32 
ROOT
HETATM    1  C4  UNL     1      -1.973  -0.508   0.928  1.00  0.00     0.233 C 
HETATM    2  O2  UNL     1      -1.692  -1.264   1.879  1.00  0.00    -0.272 OA
HETATM    3  N2  UNL     1      -1.052  -0.364  -0.141  1.00  0.00    -0.346 N 
HETATM    4  C5  UNL     1       0.233  -1.063  -0.194  1.00  0.00     0.154 C 
HETATM    5  C6  UNL     1       1.112  -0.015  -0.888  1.00  0.00     0.143 C 
HETATM    6  N3  UNL     1       2.154  -0.604  -1.675  1.00  0.00    -0.325 N 
HETATM    7  C7  UNL     1       3.535  -0.629  -1.332  1.00  0.00     0.319 C 
HETATM    8  O3  UNL     1       4.339  -1.198  -2.151  1.00  0.00    -0.247 OA
HETATM    9  N4  UNL     1       4.034  -0.056  -0.138  1.00  0.00    -0.338 N 
ATOM     10  H4  UNL     1       3.401   0.399   0.520  1.00  0.00     0.164 HD
HETATM   11  C14 UNL     1       1.532  -1.153  -2.856  1.00  0.00     0.131 C 
HETATM   12  C15 UNL     1       0.363  -0.249  -3.132  1.00  0.00     0.061 C 
HETATM   13  C16 UNL     1       0.187   0.605  -1.873  1.00  0.00     0.097 C 
HETATM   14  C17 UNL     1      -1.178   0.454  -1.322  1.00  0.00     0.165 C 
ENDROOT
BRANCH   1  15
HETATM   15  C3  UNL     1      -3.260   0.226   0.928  1.00  0.00     0.172 C 
HETATM   16  C2  UNL     1      -3.944  -0.058   2.183  1.00  0.00     0.233 C 
HETATM   17  N1  UNL     1      -5.102  -0.852   2.204  1.00  0.00    -0.340 N 
HETATM   18  O1  UNL     1      -3.471   0.425   3.249  1.00  0.00    -0.272 OA
HETATM   19  C1  UNL     1      -5.379  -1.730   3.330  1.00  0.00     0.154 C 
HETATM   20  C21 UNL     1      -6.006  -0.788   1.113  1.00  0.00     0.181 C 
HETATM   21  C19 UNL     1      -5.528  -0.147  -0.131  1.00  0.00     0.120 C 
HETATM   22 BR1  UNL     1      -6.600  -2.619   0.755  1.00  0.00    -0.066 Br
HETATM   23  C18 UNL     1      -4.058  -0.033  -0.304  1.00  0.00     0.051 C 
BRANCH  21  24
HETATM   24  N5  UNL     1      -6.167   1.170  -0.221  1.00  0.00    -0.338 N 
HETATM   25  C20 UNL     1      -7.094   1.453  -1.243  1.00  0.00     0.329 C 
HETATM   26  N6  UNL     1      -7.712   2.716  -1.336  1.00  0.00    -0.040 NA
HETATM   27  O5  UNL     1      -7.372   0.569  -2.080  1.00  0.00    -0.251 OA
ATOM     28  H5  UNL     1      -5.937   1.889   0.465  1.00  0.00     0.164 HD
ENDBRANCH  21  24
ENDBRANCH   1  15
BRANCH  13  29
HETATM   29  O4  UNL     1       0.520   1.930  -2.169  1.00  0.00    -0.386 OA
ATOM     30  H4  UNL     1      -0.071   2.326  -2.798  1.00  0.00     0.210 HD
ENDBRANCH  13  29
BRANCH   9  31
HETATM   31  C8  UNL     1       5.457  -0.124   0.140  1.00  0.00     0.086 C 
HETATM   32  C9  UNL     1       6.036   1.280   0.182  1.00  0.00     0.025 C 
HETATM   33  C10 UNL     1       7.510   1.281   0.414  1.00  0.00     0.002 C 
HETATM   34  C11 UNL     1       7.954   0.021   1.101  1.00  0.00     0.000 C 
HETATM   35  C12 UNL     1       6.928  -0.330   2.151  1.00  0.00     0.002 C 
HETATM   36  C13 UNL     1       5.711  -0.870   1.422  1.00  0.00     0.025 C 
ENDBRANCH   9  31
TORSDOF 4
