REMARK  14 active torsions:
REMARK  status: ('A' for Active; 'I' for Inactive)
REMARK       I    between atoms: C2_2  and  N1_4 
REMARK    1  A    between atoms: C3_6  and  C4_7 
REMARK       I    between atoms: N2_13  and  C8_15 
REMARK    2  A    between atoms: C8_15  and  C9_17 
REMARK    3  A    between atoms: C9_17  and  C22_57 
REMARK    4  A    between atoms: N3_18  and  O3_20 
REMARK    5  A    between atoms: O3_20  and  C10_21 
REMARK    6  A    between atoms: C10_21  and  C11_22 
REMARK    7  A    between atoms: C11_22  and  C15_35 
REMARK    8  A    between atoms: N4_23  and  O4_25 
REMARK    9  A    between atoms: O4_25  and  C12_26 
REMARK   10  A    between atoms: C12_26  and  N5_28 
REMARK   11  A    between atoms: C12_26  and  C14_32 
REMARK   12  A    between atoms: C17_39  and  N7_40 
REMARK   13  A    between atoms: N7_40  and  C18_42 
REMARK   14  A    between atoms: C21_48  and  N10_49 
ROOT
HETATM    1  C11 UNL     1      -1.171  -1.079   0.896  1.00  0.00     0.076 C 
HETATM    2  N4  UNL     1      -0.991  -2.213   0.351  1.00  0.00    -0.264 N 
ATOM      3  H4  UNL     1      -1.579  -2.498  -0.433  1.00  0.00     0.194 HD
ENDROOT
BRANCH   1   4
HETATM    4  C10 UNL     1      -0.333  -0.652   2.025  1.00  0.00     0.261 C 
BRANCH   4   5
HETATM    5  O3  UNL     1       0.399   0.541   1.745  1.00  0.00    -0.274 OA
BRANCH   5   6
HETATM    6  N3  UNL     1       1.221   1.050   2.714  1.00  0.00    -0.255 N 
HETATM    7  C9  UNL     1       2.473   1.188   2.484  1.00  0.00     0.199 C 
ATOM      8  H3  UNL     1       0.836   1.319   3.619  1.00  0.00     0.195 HD
BRANCH   7   9
HETATM    9  C8  UNL     1       3.014   0.805   1.199  1.00  0.00     0.281 C 
HETATM   10  N2  UNL     1       4.394   0.935   0.885  1.00  0.00    -0.327 N 
HETATM   11  C7  UNL     1       5.196  -0.099   0.937  1.00  0.00     0.010 C 
ATOM     12  H2  UNL     1       4.765   1.846   0.615  1.00  0.00     0.168 HD
HETATM   13  C4  UNL     1       6.596   0.168   0.591  1.00  0.00     0.081 C 
HETATM   14  C6  UNL     1       4.626  -1.390   1.329  1.00  0.00     0.139 C 
HETATM   15  C5  UNL     1       7.531  -0.982   0.695  1.00  0.00     0.102 C 
HETATM   16  S1  UNL     1       7.038  -2.355  -0.422  1.00  0.00    -0.096 SA
HETATM   17  S2  UNL     1       4.916  -2.540  -0.077  1.00  0.00    -0.092 SA
HETATM   18  O2  UNL     1       2.275   0.337   0.297  1.00  0.00    -0.265 OA
BRANCH  13  19
HETATM   19  C3  UNL     1       6.691   0.703  -0.806  1.00  0.00     0.075 C 
HETATM   20  N1  UNL     1       7.784   1.274  -1.141  1.00  0.00    -0.340 N 
HETATM   21  C2  UNL     1       8.046   1.833  -2.410  1.00  0.00     0.217 C 
ATOM     22  H1  UNL     1       8.522   1.330  -0.439  1.00  0.00     0.167 HD
HETATM   23  C1  UNL     1       7.490   1.282  -3.669  1.00  0.00     0.117 C 
HETATM   24  O1  UNL     1       8.789   2.846  -2.471  1.00  0.00    -0.274 OA
ENDBRANCH  13  19
ENDBRANCH   7   9
BRANCH   7  25
HETATM   25  C22 UNL     1       3.325   1.731   3.529  1.00  0.00     0.234 C 
HETATM   26  O7  UNL     1       4.563   1.866   3.298  1.00  0.00    -0.643 OA
HETATM   27  O8  UNL     1       2.792   2.093   4.758  1.00  0.00    -0.643 OA
ENDBRANCH   7  25
ENDBRANCH   5   6
ENDBRANCH   4   5
ENDBRANCH   1   4
BRANCH   1  28
HETATM   28  C15 UNL     1      -2.217  -0.169   0.416  1.00  0.00     0.050 A 
HETATM   29  C16 UNL     1      -3.107  -0.368  -0.615  1.00  0.00     0.111 A 
HETATM   30  N6  UNL     1      -3.959   0.580  -0.872  1.00  0.00    -0.345 N 
HETATM   31  C17 UNL     1      -3.933   1.687  -0.133  1.00  0.00     0.146 A 
ATOM     32  H6  UNL     1      -4.636   0.477  -1.628  1.00  0.00     0.167 HD
HETATM   33  S3  UNL     1      -2.664   1.390   0.963  1.00  0.00    -0.051 SA
BRANCH  31  34
HETATM   34  N7  UNL     1      -4.708   2.735  -0.246  1.00  0.00    -0.342 N 
ATOM     35  H7  UNL     1      -4.588   3.528   0.384  1.00  0.00     0.163 HD
BRANCH  34  36
HETATM   36  C18 UNL     1      -5.720   2.769  -1.249  1.00  0.00     0.297 C 
HETATM   37  C19 UNL     1      -6.950   1.962  -0.877  1.00  0.00     0.127 C 
HETATM   38  C20 UNL     1      -7.834   1.981  -2.079  1.00  0.00     0.095 C 
HETATM   39  N8  UNL     1      -8.637   0.841  -2.324  1.00  0.00    -0.088 NA
HETATM   40  N9  UNL     1      -7.802   3.032  -2.803  1.00  0.00    -0.333 N 
HETATM   41  C21 UNL     1      -7.005   4.196  -2.582  1.00  0.00     0.486 C 
ATOM     42  H9  UNL     1      -8.408   3.041  -3.623  1.00  0.00     0.164 HD
HETATM   43  N11 UNL     1      -6.160   4.141  -1.417  1.00  0.00    -0.008 N 
ATOM     44 2H11 UNL     1      -6.612   4.516  -0.583  1.00  0.00     0.284 HD
ATOM     45 1H11 UNL     1      -5.384   4.802  -1.460  1.00  0.00     0.284 HD
BRANCH  41  46
HETATM   46  N10 UNL     1      -7.804   5.408  -2.472  1.00  0.00    -0.033 N 
ATOM     47 3H10 UNL     1      -8.406   5.525  -3.287  1.00  0.00     0.278 HD
ATOM     48 2H10 UNL     1      -8.519   5.311  -1.751  1.00  0.00     0.278 HD
ATOM     49 1H10 UNL     1      -7.235   6.239  -2.314  1.00  0.00     0.278 HD
ENDBRANCH  41  46
ENDBRANCH  34  36
ENDBRANCH  31  34
ENDBRANCH   1  28
BRANCH   2  50
HETATM   50  O4  UNL     1      -0.025  -3.044   0.804  1.00  0.00    -0.229 OA
BRANCH  50  51
HETATM   51  C12 UNL     1      -0.264  -4.316   1.371  1.00  0.00     0.331 C 
HETATM   52  C13 UNL     1      -1.131  -4.224   2.608  1.00  0.00     0.093 C 
BRANCH  51  53
HETATM   53  N5  UNL     1      -0.912  -5.218   0.447  1.00  0.00    -0.034 N 
ATOM     54  H53 UNL     1      -1.772  -4.812   0.079  1.00  0.00     0.278 HD
ATOM     55  H52 UNL     1      -0.384  -5.296  -0.422  1.00  0.00     0.278 HD
ATOM     56  H51 UNL     1      -1.085  -6.136   0.856  1.00  0.00     0.278 HD
ENDBRANCH  51  53
BRANCH  51  57
HETATM   57  C14 UNL     1       1.044  -4.890   1.777  1.00  0.00     0.241 C 
HETATM   58  O5  UNL     1       2.144  -4.302   1.621  1.00  0.00    -0.644 OA
HETATM   59  O6  UNL     1       1.084  -6.151   2.369  1.00  0.00    -0.644 OA
ENDBRANCH  51  57
ENDBRANCH  50  51
ENDBRANCH   2  50
TORSDOF 14
