REMARK  4 active torsions:
REMARK  status: ('A' for Active; 'I' for Inactive)
REMARK    1  A    between atoms: C2_2  and  C3_3 
REMARK    2  A    between atoms: C7_7  and  N1_8 
REMARK    3  A    between atoms: C9_11  and  C10_12 
REMARK    4  A    between atoms: C10_12  and  O1_13 
ROOT
HETATM    1  C3  UNL     1      -0.627   2.253  -0.546  1.00  0.00     0.053 C 
HETATM    2  C4  UNL     1      -1.568   1.372  -0.287  1.00  0.00    -0.024 C 
HETATM    3  C5  UNL     1      -2.860   1.728   0.289  1.00  0.00     0.008 C 
HETATM    4  C6  UNL     1      -3.587   0.805   0.894  1.00  0.00    -0.001 C 
HETATM    5  C7  UNL     1      -3.098  -0.593   0.991  1.00  0.00     0.105 C 
HETATM    6  C9  UNL     1      -2.328  -0.980  -0.222  1.00  0.00     0.044 C 
HETATM    7  C11 UNL     1      -1.228  -0.044  -0.621  1.00  0.00     0.036 C 
HETATM    8  C12 UNL     1       0.110  -0.405  -0.091  1.00  0.00     0.030 C 
HETATM    9  C13 UNL     1       0.516   0.094   1.254  1.00  0.00     0.016 C 
HETATM   10  C14 UNL     1       1.810   0.651   0.633  1.00  0.00     0.022 C 
HETATM   11  C15 UNL     1       2.968  -0.207   0.881  1.00  0.00     0.016 C 
HETATM   12  C16 UNL     1       3.646  -0.792  -0.313  1.00  0.00    -0.047 C 
HETATM   13  C17 UNL     1       4.383  -2.048   0.157  1.00  0.00     0.015 C 
HETATM   14  C18 UNL     1       4.667   0.134  -0.897  1.00  0.00     0.015 C 
HETATM   15  C19 UNL     1       2.697  -1.221  -1.394  1.00  0.00     0.012 C 
HETATM   16  C20 UNL     1       1.871  -0.057  -1.803  1.00  0.00     0.040 C 
HETATM   17  C21 UNL     1       1.124   0.572  -0.676  1.00  0.00     0.075 C 
HETATM   18  O2  UNL     1       0.554   1.783  -1.096  1.00  0.00    -0.343 OA
ENDROOT
BRANCH   5  19
HETATM   19  N1  UNL     1      -4.166  -1.482   1.260  1.00  0.00    -0.418 N 
HETATM   20  C8  UNL     1      -5.234  -1.578   0.338  1.00  0.00     0.140 C 
ATOM     21  H1  UNL     1      -4.165  -2.047   2.109  1.00  0.00     0.153 HD
ENDBRANCH   5  19
BRANCH   6  22
HETATM   22  C10 UNL     1      -1.776  -2.384  -0.057  1.00  0.00     0.171 C 
BRANCH  22  23
HETATM   23  O1  UNL     1      -2.762  -3.334   0.113  1.00  0.00    -0.400 OA
ATOM     24  H1  UNL     1      -2.416  -4.213   0.216  1.00  0.00     0.209 HD
ENDBRANCH  22  23
ENDBRANCH   6  22
BRANCH   1  25
HETATM   25  C2  UNL     1      -0.843   3.683  -0.256  1.00  0.00     0.060 C 
HETATM   26  C1  UNL     1       0.147   4.233   0.771  1.00  0.00     0.012 C 
ENDBRANCH   1  25
TORSDOF 4
