REMARK  3 active torsions:
REMARK  status: ('A' for Active; 'I' for Inactive)
REMARK    1  A    between atoms: C2_3  and  C3_4 
REMARK       I    between atoms: C3_4  and  N2_6 
REMARK    2  A    between atoms: N2_6  and  C4_8 
REMARK    3  A    between atoms: C14_18  and  N3_19 
ROOT
HETATM    1  N1  UNL     1       0.747   1.911  -2.598  1.00  0.00    -0.196 NA
HETATM    2  C1  UNL     1       0.692   0.870  -2.071  1.00  0.00     0.081 C 
HETATM    3  C2  UNL     1       0.597  -0.436  -1.421  1.00  0.00     0.149 C 
HETATM    4  C11 UNL     1       0.042  -1.470  -2.409  1.00  0.00     0.037 C 
HETATM    5  C12 UNL     1       1.049  -2.570  -2.507  1.00  0.00     0.004 C 
HETATM    6  C13 UNL     1       1.864  -2.454  -1.237  1.00  0.00     0.027 C 
HETATM    7  C14 UNL     1       1.996  -0.923  -1.142  1.00  0.00     0.114 C 
ENDROOT
BRANCH   3   8
HETATM    8  C3  UNL     1      -0.269  -0.440  -0.243  1.00  0.00     0.243 C 
HETATM    9  O1  UNL     1       0.209  -0.756   0.874  1.00  0.00    -0.271 OA
HETATM   10  N2  UNL     1      -1.646  -0.099  -0.309  1.00  0.00    -0.355 N 
ATOM     11  H2  UNL     1      -2.039   0.158  -1.214  1.00  0.00     0.162 HD
BRANCH  10  12
HETATM   12  C4  UNL     1      -2.516  -0.099   0.843  1.00  0.00     0.084 C 
HETATM   13  C5  UNL     1      -3.565  -1.178   0.699  1.00  0.00     0.025 C 
HETATM   14  C6  UNL     1      -4.565  -1.095   1.812  1.00  0.00     0.002 C 
HETATM   15  C7  UNL     1      -5.811  -0.350   1.449  1.00  0.00     0.000 C 
HETATM   16  C8  UNL     1      -5.618   1.134   1.323  1.00  0.00     0.000 C 
HETATM   17  C9  UNL     1      -4.441   1.454   0.422  1.00  0.00     0.002 C 
HETATM   18  C10 UNL     1      -3.134   1.253   1.113  1.00  0.00     0.025 C 
ENDBRANCH  10  12
ENDBRANCH   3   8
BRANCH   7  19
HETATM   19  N3  UNL     1       2.544  -0.511   0.076  1.00  0.00    -0.373 N 
HETATM   20  C15 UNL     1       3.403   0.409   0.221  1.00  0.00     0.073 C 
HETATM   21  C16 UNL     1       4.019   1.243  -0.806  1.00  0.00     0.076 C 
HETATM   22  N4  UNL     1       3.859   0.704   1.581  1.00  0.00    -0.380 N 
HETATM   23  C17 UNL     1       5.517   1.389  -0.656  1.00  0.00     0.009 C 
HETATM   24  C18 UNL     1       6.012   1.245   0.739  1.00  0.00     0.020 C 
HETATM   25  C19 UNL     1       4.887   1.722   1.667  1.00  0.00     0.121 C 
ATOM     26  H4  UNL     1       3.483   0.231   2.403  1.00  0.00     0.160 HD
ATOM     27  H3  UNL     1       2.226  -0.991   0.918  1.00  0.00     0.161 HD
ENDBRANCH   7  19
TORSDOF 3
