REMARK  4 active torsions:
REMARK  status: ('A' for Active; 'I' for Inactive)
REMARK    1  A    between atoms: C2_2  and  C3_3 
REMARK    2  A    between atoms: C2_2  and  C8_12 
REMARK    3  A    between atoms: C3_3  and  N1_4 
REMARK    4  A    between atoms: C15_19  and  O1_20 
ROOT
HETATM    1  C8  UNL     1       0.411   0.907  -0.028  1.00  0.00    -0.008 C 
HETATM    2  C9  UNL     1      -0.393   1.964  -0.701  1.00  0.00     0.005 C 
HETATM    3  C10 UNL     1      -1.841   1.702  -0.194  1.00  0.00     0.006 C 
HETATM    4  C11 UNL     1      -2.258   0.472  -0.980  1.00  0.00    -0.002 C 
HETATM    5  C12 UNL     1      -3.734   0.240  -0.921  1.00  0.00    -0.003 C 
HETATM    6  C13 UNL     1      -4.350   1.288  -0.006  1.00  0.00     0.008 C 
HETATM    7  C14 UNL     1      -5.737   0.763   0.201  1.00  0.00     0.032 C 
HETATM    8  C15 UNL     1      -5.604  -0.730   0.168  1.00  0.00     0.122 C 
HETATM    9  C16 UNL     1      -4.196  -1.031  -0.328  1.00  0.00     0.019 C 
HETATM   10  C17 UNL     1      -3.287  -1.417   0.804  1.00  0.00     0.008 C 
HETATM   11  C18 UNL     1      -1.944  -1.718   0.254  1.00  0.00     0.010 C 
HETATM   12  C19 UNL     1      -1.410  -0.729  -0.750  1.00  0.00    -0.040 C 
HETATM   13  C20 UNL     1      -1.447  -1.490  -2.099  1.00  0.00     0.015 C 
HETATM   14  C21 UNL     1       0.029  -0.480  -0.445  1.00  0.00     0.014 C 
ENDROOT
BRANCH   1  15
HETATM   15  C2  UNL     1       1.923   1.074  -0.292  1.00  0.00     0.014 C 
HETATM   16  C1  UNL     1       2.379   2.422   0.204  1.00  0.00     0.012 C 
BRANCH  15  17
HETATM   17  C3  UNL     1       2.680  -0.058   0.311  1.00  0.00     0.277 C 
BRANCH  17  18
HETATM   18  N1  UNL     1       4.062  -0.113   0.125  1.00  0.00     0.092 N 
HETATM   19  C4  UNL     1       4.928   0.775   0.780  1.00  0.00     0.300 C 
HETATM   20  C5  UNL     1       6.083   0.061   1.486  1.00  0.00     0.262 C 
HETATM   21  N2  UNL     1       6.784  -0.776   0.555  1.00  0.00    -0.072 N 
HETATM   22  C6  UNL     1       5.919  -1.618  -0.222  1.00  0.00     0.262 C 
ATOM     23  H22 UNL     1       7.384  -0.217  -0.052  1.00  0.00     0.277 HD
ATOM     24  H21 UNL     1       7.494  -1.331   1.032  1.00  0.00     0.277 HD
HETATM   25  C7  UNL     1       4.510  -1.480   0.300  1.00  0.00     0.300 C 
ENDBRANCH  17  18
ENDBRANCH  15  17
ENDBRANCH   1  15
BRANCH   8  26
HETATM   26  O1  UNL     1      -5.800  -1.217   1.457  1.00  0.00    -0.395 OA
ATOM     27  H1  UNL     1      -5.716  -2.163   1.436  1.00  0.00     0.210 HD
ENDBRANCH   8  26
TORSDOF 4
