REMARK  3 active torsions:
REMARK  status: ('A' for Active; 'I' for Inactive)
REMARK    1  A    between atoms: C2_2  and  C3_3 
REMARK       I    between atoms: C3_3  and  N1_5 
REMARK    2  A    between atoms: N1_5  and  C4_7 
REMARK    3  A    between atoms: C7_10  and  N2_11 
ROOT
HETATM    1  C3  UNL     1      -0.330   1.403  -0.074  1.00  0.00     0.226 C 
HETATM    2  O1  UNL     1       0.430   2.413  -0.228  1.00  0.00    -0.273 OA
HETATM    3  N1  UNL     1       0.332   0.237   0.405  1.00  0.00    -0.356 N 
ATOM      4  H1  UNL     1      -0.222  -0.607   0.548  1.00  0.00     0.162 HD
ENDROOT
BRANCH   1   5
HETATM    5  C2  UNL     1      -1.757   1.497  -0.381  1.00  0.00     0.041 C 
HETATM    6  C1  UNL     1      -1.976   2.927  -0.940  1.00  0.00     0.025 C 
HETATM    7  C13 UNL     1      -2.207   0.564  -1.431  1.00  0.00     0.051 C 
HETATM    8  C14 UNL     1      -3.019  -0.633  -1.096  1.00  0.00     0.187 C 
HETATM    9  C15 UNL     1      -4.455  -0.539  -1.671  1.00  0.00     0.033 C 
HETATM   10  N3  UNL     1      -3.300  -0.583   0.319  1.00  0.00    -0.067 N 
HETATM   11  C16 UNL     1      -5.508  -0.914  -0.693  1.00  0.00     0.002 C 
HETATM   12  C17 UNL     1      -6.056   0.107   0.218  1.00  0.00     0.002 C 
HETATM   13  C18 UNL     1      -5.041   0.656   1.247  1.00  0.00     0.033 C 
HETATM   14  C19 UNL     1      -3.807   0.773   0.494  1.00  0.00     0.187 C 
HETATM   15  C20 UNL     1      -2.611   1.505   0.910  1.00  0.00     0.051 C 
ATOM     16  H32 UNL     1      -3.919  -1.319   0.659  1.00  0.00     0.278 HD
ATOM     17  H31 UNL     1      -2.514  -0.827   0.921  1.00  0.00     0.278 HD
ENDBRANCH   1   5
BRANCH   3  18
HETATM   18  C4  UNL     1       1.748   0.184   0.700  1.00  0.00     0.086 C 
HETATM   19  C5  UNL     1       1.923  -0.101   2.152  1.00  0.00     0.027 C 
HETATM   20  C6  UNL     1       3.009  -1.117   2.261  1.00  0.00     0.038 C 
HETATM   21  C7  UNL     1       3.410  -1.576   0.903  1.00  0.00     0.225 C 
HETATM   22  C12 UNL     1       2.476  -0.875  -0.051  1.00  0.00     0.061 C 
BRANCH  21  23
HETATM   23  N2  UNL     1       4.788  -1.382   0.594  1.00  0.00     0.093 N 
HETATM   24  C8  UNL     1       5.257  -0.038   0.565  1.00  0.00     0.273 C 
HETATM   25  C9  UNL     1       6.462  -0.020  -0.376  1.00  0.00     0.032 C 
HETATM   26  C10 UNL     1       6.205  -1.179  -1.304  1.00  0.00     0.032 C 
HETATM   27  C11 UNL     1       5.253  -2.061  -0.566  1.00  0.00     0.273 C 
ENDBRANCH  21  23
ENDBRANCH   3  18
TORSDOF 3
