REMARK  10 active torsions:
REMARK  status: ('A' for Active; 'I' for Inactive)
REMARK       I    between atoms: C2_2  and  N1_4 
REMARK    1  A    between atoms: N1_4  and  C3_6 
REMARK    2  A    between atoms: C6_9  and  C7_10 
REMARK    3  A    between atoms: C8_14  and  O5_15 
REMARK    4  A    between atoms: O5_15  and  C9_16 
REMARK    5  A    between atoms: C9_16  and  C10_17 
REMARK    6  A    between atoms: C14_21  and  O6_22 
REMARK    7  A    between atoms: O6_22  and  C15_23 
REMARK    8  A    between atoms: C18_27  and  O8_28 
REMARK    9  A    between atoms: C19_30  and  O9_31 
REMARK   10  A    between atoms: C20_33  and  O10_34 
ROOT
HETATM    1  C10 UNL     1      -0.093   0.883   0.094  1.00  0.00     0.148 C 
HETATM    2  C11 UNL     1      -0.611   1.827  -0.961  1.00  0.00     0.034 C 
HETATM    3  C12 UNL     1       0.575   2.507  -1.622  1.00  0.00     0.007 C 
HETATM    4  C13 UNL     1       1.366   3.173  -0.489  1.00  0.00     0.061 C 
HETATM    5  C14 UNL     1       1.819   2.046   0.419  1.00  0.00     0.263 C 
HETATM    6  O11 UNL     1       0.679   1.528   1.030  1.00  0.00    -0.354 OA
ENDROOT
BRANCH   1   7
HETATM    7  C9  UNL     1      -1.256   0.180   0.761  1.00  0.00     0.203 C 
BRANCH   7   8
HETATM    8  O5  UNL     1      -2.040  -0.475  -0.183  1.00  0.00    -0.357 OA
BRANCH   8   9
HETATM    9  C8  UNL     1      -3.119  -1.133   0.391  1.00  0.00     0.283 C 
HETATM   10  C3  UNL     1      -4.381  -0.477  -0.089  1.00  0.00     0.139 C 
HETATM   11  C4  UNL     1      -5.518  -1.188   0.606  1.00  0.00     0.033 C 
HETATM   12  C5  UNL     1      -5.434  -2.663   0.435  1.00  0.00     0.045 C 
HETATM   13  C6  UNL     1      -4.134  -3.182  -0.064  1.00  0.00     0.225 C 
HETATM   14  O4  UNL     1      -3.029  -2.464   0.143  1.00  0.00    -0.343 OA
BRANCH  10  15
HETATM   15  N1  UNL     1      -4.369   0.893   0.377  1.00  0.00    -0.352 N 
HETATM   16  C2  UNL     1      -4.487   2.000  -0.503  1.00  0.00     0.214 C 
HETATM   17  C1  UNL     1      -4.473   3.395  -0.010  1.00  0.00     0.117 C 
HETATM   18  O1  UNL     1      -4.611   1.844  -1.756  1.00  0.00    -0.274 OA
ATOM     19  H1  UNL     1      -4.272   1.070   1.377  1.00  0.00     0.163 HD
ENDBRANCH  10  15
BRANCH  13  20
HETATM   20  C7  UNL     1      -3.947  -4.549   0.474  1.00  0.00     0.203 C 
HETATM   21  O2  UNL     1      -2.854  -4.835   1.015  1.00  0.00    -0.646 OA
HETATM   22  O3  UNL     1      -4.910  -5.546   0.419  1.00  0.00    -0.646 OA
ENDBRANCH  13  20
ENDBRANCH   8   9
ENDBRANCH   7   8
ENDBRANCH   1   7
BRANCH   5  23
HETATM   23  O6  UNL     1       2.345   1.054  -0.399  1.00  0.00    -0.329 OA
BRANCH  23  24
HETATM   24  C15 UNL     1       3.658   0.731  -0.085  1.00  0.00     0.294 C 
HETATM   25  O7  UNL     1       4.554   0.987  -1.086  1.00  0.00    -0.351 OA
HETATM   26  C16 UNL     1       5.320  -0.079  -1.482  1.00  0.00     0.152 C 
HETATM   27  C17 UNL     1       6.399   0.472  -2.421  1.00  0.00     0.042 C 
HETATM   28  C18 UNL     1       6.014  -0.789  -0.342  1.00  0.00     0.178 C 
HETATM   29  C19 UNL     1       5.072  -1.160   0.757  1.00  0.00     0.183 C 
HETATM   30  C20 UNL     1       3.681  -0.674   0.430  1.00  0.00     0.204 C 
BRANCH  28  31
HETATM   31  O8  UNL     1       7.042  -0.013   0.191  1.00  0.00    -0.390 OA
ATOM     32  H8  UNL     1       7.478  -0.459   0.907  1.00  0.00     0.210 HD
ENDBRANCH  28  31
BRANCH  29  33
HETATM   33  O9  UNL     1       5.500  -0.711   2.004  1.00  0.00    -0.390 OA
ATOM     34  H9  UNL     1       4.901  -0.947   2.703  1.00  0.00     0.210 HD
ENDBRANCH  29  33
BRANCH  30  35
HETATM   35  O10 UNL     1       2.841  -0.746   1.530  1.00  0.00    -0.388 OA
ATOM     36  H10 UNL     1       2.856  -1.638   1.857  1.00  0.00     0.210 HD
ENDBRANCH  30  35
ENDBRANCH  23  24
ENDBRANCH   5  23
TORSDOF 10
