REMARK  11 active torsions:
REMARK  status: ('A' for Active; 'I' for Inactive)
REMARK    1  A    between atoms: C2_2  and  C3_3 
REMARK    2  A    between atoms: C3_3  and  N1_4 
REMARK    3  A    between atoms: C3_3  and  C11_17 
REMARK       I    between atoms: N1_4  and  C4_6 
REMARK    4  A    between atoms: C4_6  and  C5_8 
REMARK    5  A    between atoms: N2_10  and  O2_12 
REMARK    6  A    between atoms: O2_12  and  C7_13 
REMARK       I    between atoms: C11_17  and  N3_19 
REMARK    7  A    between atoms: N3_19  and  C12_21 
REMARK    8  A    between atoms: C13_22  and  O4_23 
REMARK    9  A    between atoms: C14_26  and  O6_27 
REMARK   10  A    between atoms: C16_29  and  N4_30 
REMARK       I    between atoms: N4_30  and  C17_32 
REMARK   11  A    between atoms: C19_35  and  O8_36 
ROOT
HETATM    1  C11 UNL     1      -0.373  -0.175  -1.098  1.00  0.00     0.264 C 
HETATM    2  O3  UNL     1      -0.594   1.073  -0.931  1.00  0.00    -0.266 OA
HETATM    3  N3  UNL     1      -1.484  -1.023  -1.114  1.00  0.00    -0.344 N 
ATOM      4  H3  UNL     1      -1.303  -2.018  -1.250  1.00  0.00     0.163 HD
ENDROOT
BRANCH   3   5
HETATM    5  C12 UNL     1      -2.844  -0.631  -0.959  1.00  0.00     0.170 C 
HETATM    6  C13 UNL     1      -3.798  -1.121  -1.993  1.00  0.00     0.285 C 
HETATM    7  O5  UNL     1      -4.643  -2.135  -1.569  1.00  0.00    -0.327 OA
HETATM    8  C14 UNL     1      -5.528  -1.716  -0.551  1.00  0.00     0.287 C 
HETATM    9  C16 UNL     1      -4.901  -0.669   0.302  1.00  0.00     0.170 C 
HETATM   10  C19 UNL     1      -3.414  -1.014   0.414  1.00  0.00     0.173 C 
BRANCH   6  11
HETATM   11  O4  UNL     1      -4.488  -0.071  -2.614  1.00  0.00    -0.369 OA
ATOM     12  H4  UNL     1      -5.096  -0.383  -3.273  1.00  0.00     0.212 HD
ENDBRANCH   6  11
BRANCH   8  13
HETATM   13  O6  UNL     1      -5.845  -2.875   0.149  1.00  0.00    -0.364 OA
HETATM   14  C15 UNL     1      -7.163  -3.194  -0.051  1.00  0.00     0.204 C 
ENDBRANCH   8  13
BRANCH   9  15
HETATM   15  N4  UNL     1      -5.508  -0.473   1.592  1.00  0.00    -0.349 N 
HETATM   16  C17 UNL     1      -6.008   0.746   2.068  1.00  0.00     0.214 C 
HETATM   17  C18 UNL     1      -6.610   0.840   3.405  1.00  0.00     0.117 C 
HETATM   18  O7  UNL     1      -5.944   1.770   1.358  1.00  0.00    -0.274 OA
ATOM     19  H4  UNL     1      -5.580  -1.284   2.207  1.00  0.00     0.163 HD
ENDBRANCH   9  15
BRANCH  10  20
HETATM   20  O8  UNL     1      -3.224  -2.363   0.667  1.00  0.00    -0.391 OA
ATOM     21  H8  UNL     1      -3.577  -2.600   1.517  1.00  0.00     0.210 HD
ENDBRANCH  10  20
ENDBRANCH   3   5
BRANCH   1  22
HETATM   22  C3  UNL     1       1.042  -0.574  -1.255  1.00  0.00     0.080 C 
BRANCH  22  23
HETATM   23  C2  UNL     1       1.406  -1.869  -0.630  1.00  0.00     0.058 C 
HETATM   24  C1  UNL     1       2.576  -2.527  -1.307  1.00  0.00     0.011 C 
ENDBRANCH  22  23
BRANCH  22  25
HETATM   25  N1  UNL     1       1.947   0.513  -1.182  1.00  0.00    -0.321 N 
HETATM   26  C4  UNL     1       3.250   0.724  -0.784  1.00  0.00     0.270 C 
HETATM   27  O1  UNL     1       3.993  -0.156  -0.311  1.00  0.00    -0.266 OA
ATOM     28  H1  UNL     1       1.517   1.376  -1.515  1.00  0.00     0.169 HD
BRANCH  26  29
HETATM   29  C5  UNL     1       3.894   2.064  -0.897  1.00  0.00     0.096 C 
HETATM   30  C6  UNL     1       3.080   3.154  -1.469  1.00  0.00     0.076 C 
HETATM   31  N2  UNL     1       5.081   2.291  -0.528  1.00  0.00    -0.265 N 
ATOM     32  H2  UNL     1       5.423   3.244  -0.650  1.00  0.00     0.194 HD
BRANCH  31  33
HETATM   33  O2  UNL     1       5.960   1.386   0.022  1.00  0.00    -0.270 OA
BRANCH  33  34
HETATM   34  C7  UNL     1       6.980   1.815   0.916  1.00  0.00     0.078 C 
HETATM   35  C8  UNL     1       6.340   2.505   2.130  1.00  0.00     0.048 C 
HETATM   36  C9  UNL     1       7.941   2.786   0.302  1.00  0.00     0.048 C 
HETATM   37  C10 UNL     1       7.734   0.604   1.386  1.00  0.00     0.048 C 
ENDBRANCH  33  34
ENDBRANCH  31  33
ENDBRANCH  26  29
ENDBRANCH  22  25
ENDBRANCH   1  22
TORSDOF 11
