REMARK  1 active torsions:
REMARK  status: ('A' for Active; 'I' for Inactive)
REMARK    1  A    between atoms: C5_11  and  C6_12 
ROOT
HETATM    1  N1  UNL     1       5.461   0.067   0.979  1.00  0.00    -0.190 NA
HETATM    2  C1  UNL     1       4.303   0.090   0.885  1.00  0.00     0.121 C 
HETATM    3  C2  UNL     1       2.864   0.095   0.760  1.00  0.00     0.157 A 
HETATM    4  N2  UNL     1       1.963   0.313   1.737  1.00  0.00    -0.326 N 
ATOM      5  H2  UNL     1       2.188   0.507   2.713  1.00  0.00     0.168 HD
HETATM    6  C3  UNL     1       0.719   0.235   1.226  1.00  0.00     0.183 A 
HETATM    7  C4  UNL     1      -0.520   0.382   1.817  1.00  0.00     0.290 A 
HETATM    8  O1  UNL     1      -0.576   0.638   3.062  1.00  0.00    -0.264 OA
HETATM    9  N3  UNL     1      -1.678   0.261   1.104  1.00  0.00    -0.315 N 
ATOM     10  H3  UNL     1      -2.584   0.374   1.559  1.00  0.00     0.169 HD
HETATM   11  C5  UNL     1      -1.600  -0.010  -0.213  1.00  0.00     0.117 A 
HETATM   12  C7  UNL     1      -0.359  -0.155  -0.795  1.00  0.00     0.135 A 
HETATM   13  N5  UNL     1       0.791  -0.035  -0.091  1.00  0.00    -0.287 N 
HETATM   14  C8  UNL     1       2.104  -0.122  -0.380  1.00  0.00     0.162 A 
HETATM   15  N6  UNL     1       2.620  -0.397  -1.672  1.00  0.00    -0.079 NA
ENDROOT
BRANCH  11  16
HETATM   16  C6  UNL     1      -2.836  -0.141  -0.980  1.00  0.00     0.282 C 
HETATM   17  N4  UNL     1      -4.101   0.013  -0.358  1.00  0.00    -0.056 NA
HETATM   18  O2  UNL     1      -2.818  -0.393  -2.211  1.00  0.00    -0.269 OA
ENDBRANCH  11  16
TORSDOF 1
