REMARK  5 active torsions:
REMARK  status: ('A' for Active; 'I' for Inactive)
REMARK    1  A    between atoms: C2_2  and  C3_3 
REMARK    2  A    between atoms: C3_3  and  C4_4 
REMARK    3  A    between atoms: C4_4  and  C5_5 
REMARK    4  A    between atoms: C5_5  and  C7_7 
REMARK    5  A    between atoms: C20_20  and  O1_21 
ROOT
HETATM    1  C7  UNL     1       1.875  -0.511   1.259  1.00  0.00    -0.006 C 
HETATM    2  C8  UNL     1       1.301  -1.699   2.017  1.00  0.00     0.006 C 
HETATM    3  C9  UNL     1       0.210  -2.287   1.130  1.00  0.00     0.006 C 
HETATM    4  C10 UNL     1      -0.291  -1.063   0.453  1.00  0.00    -0.006 C 
HETATM    5  C11 UNL     1       1.031  -0.387   0.046  1.00  0.00    -0.006 C 
HETATM    6  C12 UNL     1       0.622   1.014  -0.320  1.00  0.00     0.006 C 
HETATM    7  C13 UNL     1      -0.314   1.000  -1.472  1.00  0.00     0.006 C 
HETATM    8  C14 UNL     1      -1.455   0.045  -1.417  1.00  0.00    -0.002 C 
HETATM    9  C15 UNL     1      -1.022  -1.283  -0.822  1.00  0.00    -0.005 C 
HETATM   10  C16 UNL     1      -2.081  -2.317  -0.788  1.00  0.00     0.006 C 
HETATM   11  C17 UNL     1      -3.481  -1.800  -0.906  1.00  0.00     0.006 C 
HETATM   12  C18 UNL     1      -3.555  -0.497  -0.188  1.00  0.00    -0.004 C 
HETATM   13  C19 UNL     1      -4.970  -0.019   0.061  1.00  0.00     0.037 C 
HETATM   14  C20 UNL     1      -4.814   1.069   1.133  1.00  0.00     0.118 C 
HETATM   15  C21 UNL     1      -4.020   2.173   0.512  1.00  0.00     0.032 C 
HETATM   16  C22 UNL     1      -2.690   1.763  -0.035  1.00  0.00     0.012 C 
HETATM   17  C23 UNL     1      -2.751   0.574  -0.937  1.00  0.00    -0.036 C 
HETATM   18  C24 UNL     1      -3.658   0.975  -2.114  1.00  0.00     0.016 C 
ENDROOT
BRANCH   1  19
HETATM   19  C5  UNL     1       3.301  -0.812   0.937  1.00  0.00    -0.014 C 
HETATM   20  C6  UNL     1       3.545  -2.115   0.253  1.00  0.00     0.010 C 
BRANCH  19  21
HETATM   21  C4  UNL     1       3.975   0.309   0.180  1.00  0.00     0.004 C 
BRANCH  21  22
HETATM   22  C3  UNL     1       5.457   0.061   0.118  1.00  0.00     0.000 C 
BRANCH  22  23
HETATM   23  C2  UNL     1       6.109   1.214  -0.653  1.00  0.00    -0.005 C 
HETATM   24  C1  UNL     1       5.817   2.494   0.080  1.00  0.00     0.005 C 
ENDBRANCH  22  23
ENDBRANCH  21  22
ENDBRANCH  19  21
ENDBRANCH   1  19
BRANCH  14  25
HETATM   25  O1  UNL     1      -6.013   1.539   1.579  1.00  0.00    -0.396 OA
ATOM     26  H1  UNL     1      -5.916   2.212   2.242  1.00  0.00     0.210 HD
ENDBRANCH  14  25
TORSDOF 5
