REMARK  5 active torsions:
REMARK  status: ('A' for Active; 'I' for Inactive)
REMARK    1  A    between atoms: C19_19  and  C20_20 
REMARK    2  A    between atoms: C20_20  and  C22_22 
REMARK    3  A    between atoms: C22_22  and  C23_23 
REMARK    4  A    between atoms: C23_23  and  C24_24 
REMARK    5  A    between atoms: C24_24  and  O1_25 
ROOT
HETATM    1  C1  UNL     1      -0.601   3.649   1.208  1.00  0.00     0.014 C 
HETATM    2  C2  UNL     1      -0.573   2.824   0.180  1.00  0.00    -0.084 C 
HETATM    3  C3  UNL     1      -0.447   3.349  -1.170  1.00  0.00     0.034 C 
HETATM    4  C4  UNL     1      -0.650   2.405  -2.293  1.00  0.00     0.005 C 
HETATM    5  C5  UNL     1      -0.712   0.959  -1.975  1.00  0.00     0.011 C 
HETATM    6  C6  UNL     1      -0.012   0.584  -0.662  1.00  0.00    -0.025 C 
HETATM    7  C7  UNL     1      -0.679   1.365   0.411  1.00  0.00     0.023 C 
HETATM    8  C8  UNL     1      -2.172   1.081   0.477  1.00  0.00     0.010 C 
HETATM    9  C9  UNL     1      -2.362  -0.177   1.257  1.00  0.00     0.010 C 
HETATM   10  C10 UNL     1      -2.552  -1.310   0.318  1.00  0.00    -0.040 C 
HETATM   11  C11 UNL     1      -3.926  -1.126  -0.341  1.00  0.00     0.015 C 
HETATM   12  C12 UNL     1      -2.682  -2.592   1.144  1.00  0.00     0.009 C 
HETATM   13  C13 UNL     1      -2.442  -3.612   0.023  1.00  0.00     0.001 C 
HETATM   14  C14 UNL     1      -1.199  -3.031  -0.606  1.00  0.00     0.006 C 
HETATM   15  C15 UNL     1      -1.474  -1.513  -0.668  1.00  0.00    -0.002 C 
HETATM   16  C16 UNL     1      -0.161  -0.879  -0.427  1.00  0.00    -0.000 C 
HETATM   17  C17 UNL     1       0.764  -1.433  -1.537  1.00  0.00     0.006 C 
HETATM   18  C18 UNL     1       1.883  -0.428  -1.630  1.00  0.00     0.006 C 
HETATM   19  C19 UNL     1       1.425   0.828  -0.903  1.00  0.00    -0.001 C 
ENDROOT
BRANCH  19  20
HETATM   20  C20 UNL     1       2.329   1.338   0.112  1.00  0.00    -0.014 C 
HETATM   21  C21 UNL     1       3.747   1.486  -0.547  1.00  0.00     0.010 C 
BRANCH  20  22
HETATM   22  C22 UNL     1       2.596   0.672   1.391  1.00  0.00     0.007 C 
BRANCH  22  23
HETATM   23  C23 UNL     1       3.196  -0.713   1.352  1.00  0.00     0.026 C 
BRANCH  23  24
HETATM   24  C24 UNL     1       3.417  -1.204   2.810  1.00  0.00     0.164 C 
BRANCH  24  25
HETATM   25  O1  UNL     1       2.176  -1.232   3.471  1.00  0.00    -0.401 OA
ATOM     26  H1  UNL     1       2.311  -1.532   4.362  1.00  0.00     0.209 HD
ENDBRANCH  24  25
ENDBRANCH  23  24
ENDBRANCH  22  23
ENDBRANCH  20  22
ENDBRANCH  19  20
TORSDOF 5
