REMARK  6 active torsions:
REMARK  status: ('A' for Active; 'I' for Inactive)
REMARK    1  A    between atoms: C2_2  and  C3_3 
REMARK    2  A    between atoms: C13_13  and  C14_14 
REMARK    3  A    between atoms: C15_15  and  C16_16 
REMARK    4  A    between atoms: C16_16  and  N1_17 
REMARK    5  A    between atoms: N1_17  and  C18_19 
REMARK    6  A    between atoms: C18_19  and  C19_20 
ROOT
HETATM    1  C3  UNL     1      -3.270   1.441   1.913  1.00  0.00     0.007 C 
HETATM    2  C4  UNL     1      -3.406  -0.002   1.457  1.00  0.00     0.008 C 
HETATM    3  C5  UNL     1      -4.708  -0.577   1.894  1.00  0.00     0.001 C 
HETATM    4  C6  UNL     1      -5.636  -0.875   0.733  1.00  0.00     0.000 C 
HETATM    5  C7  UNL     1      -5.063  -1.944  -0.173  1.00  0.00     0.000 C 
HETATM    6  C8  UNL     1      -4.774  -1.429  -1.572  1.00  0.00     0.000 C 
HETATM    7  C9  UNL     1      -3.525  -2.092  -2.162  1.00  0.00     0.000 C 
HETATM    8  C10 UNL     1      -2.497  -1.063  -2.564  1.00  0.00     0.000 C 
HETATM    9  C11 UNL     1      -1.246  -1.187  -1.763  1.00  0.00     0.001 C 
HETATM   10  C12 UNL     1      -0.512   0.119  -1.573  1.00  0.00     0.017 C 
HETATM   11  C13 UNL     1       0.235   0.137  -0.244  1.00  0.00     0.065 C 
HETATM   12  C22 UNL     1       0.158   1.488   0.426  1.00  0.00     0.017 C 
HETATM   13  C23 UNL     1      -0.758   1.441   1.655  1.00  0.00     0.002 C 
HETATM   14  C24 UNL     1      -2.061   2.089   1.259  1.00  0.00     0.008 C 
ENDROOT
BRANCH  11  15
HETATM   15  C14 UNL     1       1.657  -0.219  -0.472  1.00  0.00    -0.096 C 
HETATM   16  C15 UNL     1       2.793  -0.522  -0.681  1.00  0.00    -0.061 C 
BRANCH  16  17
HETATM   17  C16 UNL     1       4.191  -0.917  -0.967  1.00  0.00     0.150 C 
BRANCH  17  18
HETATM   18  N1  UNL     1       4.908  -0.973   0.238  1.00  0.00    -0.387 N 
HETATM   19  C17 UNL     1       4.586  -1.970   1.183  1.00  0.00     0.149 C 
BRANCH  18  20
HETATM   20  C18 UNL     1       5.540   0.208   0.718  1.00  0.00     0.126 C 
BRANCH  20  21
HETATM   21  C19 UNL     1       6.698   0.607  -0.177  1.00  0.00    -0.005 C 
HETATM   22  C20 UNL     1       7.344   1.878   0.390  1.00  0.00     0.011 C 
HETATM   23  C21 UNL     1       7.715  -0.475  -0.340  1.00  0.00     0.011 C 
ENDBRANCH  20  21
ENDBRANCH  18  20
ENDBRANCH  17  18
ENDBRANCH  16  17
ENDBRANCH  11  15
BRANCH   1  24
HETATM   24  C2  UNL     1      -4.462   2.215   1.537  1.00  0.00    -0.032 C 
HETATM   25  C1  UNL     1      -4.395   3.247   0.749  1.00  0.00     0.007 C 
ENDBRANCH   1  24
TORSDOF 6
