REMARK  4 active torsions:
REMARK  status: ('A' for Active; 'I' for Inactive)
REMARK    1  A    between atoms: C2_2  and  C3_3 
REMARK    2  A    between atoms: C3_3  and  C4_4 
REMARK    3  A    between atoms: C4_4  and  C5_5 
REMARK    4  A    between atoms: C6_6  and  O1_7 
ROOT
HETATM    1  C5  UNL     1       2.852   0.291   0.028  1.00  0.00     0.019 C 
HETATM    2  C6  UNL     1       3.260  -0.085   1.385  1.00  0.00     0.122 C 
HETATM    3  C7  UNL     1       2.472  -1.245   1.986  1.00  0.00     0.033 C 
HETATM    4  C8  UNL     1       0.992  -1.075   1.861  1.00  0.00     0.012 C 
HETATM    5  C9  UNL     1       0.659  -0.964   0.362  1.00  0.00    -0.036 C 
HETATM    6  C10 UNL     1       1.011  -2.271  -0.238  1.00  0.00     0.016 C 
HETATM    7  C11 UNL     1       1.350   0.246  -0.119  1.00  0.00     0.001 C 
HETATM    8  C12 UNL     1       0.845   0.643  -1.461  1.00  0.00     0.006 C 
HETATM    9  C13 UNL     1      -0.569   1.161  -1.275  1.00  0.00     0.006 C 
HETATM   10  C14 UNL     1      -1.235   0.660  -0.030  1.00  0.00    -0.001 C 
HETATM   11  C15 UNL     1      -0.830  -0.780   0.195  1.00  0.00    -0.001 C 
HETATM   12  C16 UNL     1      -1.423  -1.595  -0.920  1.00  0.00     0.006 C 
HETATM   13  C17 UNL     1      -2.933  -1.586  -0.807  1.00  0.00     0.006 C 
HETATM   14  C18 UNL     1      -3.446  -0.520   0.110  1.00  0.00    -0.006 C 
HETATM   15  C19 UNL     1      -4.925  -0.330  -0.254  1.00  0.00     0.005 C 
HETATM   16  C20 UNL     1      -5.537   0.670   0.673  1.00  0.00     0.000 C 
HETATM   17  C21 UNL     1      -4.510   1.303   1.579  1.00  0.00     0.001 C 
HETATM   18  C22 UNL     1      -3.300   1.784   0.875  1.00  0.00     0.010 C 
HETATM   19  C23 UNL     1      -2.734   0.766  -0.126  1.00  0.00    -0.036 C 
HETATM   20  C24 UNL     1      -3.164   1.318  -1.494  1.00  0.00     0.016 C 
ENDROOT
BRANCH   1  21
HETATM   21  C4  UNL     1       3.597  -0.158  -1.153  1.00  0.00     0.011 C 
BRANCH  21  22
HETATM   22  C3  UNL     1       5.012   0.255  -1.355  1.00  0.00     0.027 C 
BRANCH  22  23
HETATM   23  C2  UNL     1       5.999  -0.122  -0.356  1.00  0.00    -0.037 C 
HETATM   24  C1  UNL     1       6.773   0.813   0.228  1.00  0.00     0.007 C 
ENDBRANCH  22  23
ENDBRANCH  21  22
ENDBRANCH   1  21
BRANCH   2  25
HETATM   25  O1  UNL     1       2.952   0.999   2.264  1.00  0.00    -0.395 OA
ATOM     26  H1  UNL     1       3.216   0.755   3.143  1.00  0.00     0.210 HD
ENDBRANCH   2  25
TORSDOF 4
