REMARK  5 active torsions:
REMARK  status: ('A' for Active; 'I' for Inactive)
REMARK    1  A    between atoms: C2_2  and  C3_3 
REMARK    2  A    between atoms: C2_2  and  C6_8 
REMARK    3  A    between atoms: C3_3  and  C4_4 
REMARK    4  A    between atoms: C4_4  and  C5_5 
REMARK    5  A    between atoms: C5_5  and  O1_6 
ROOT
HETATM    1  C6  UNL     1       2.171   0.730  -0.022  1.00  0.00    -0.002 C 
HETATM    2  C7  UNL     1       2.020   0.359  -1.433  1.00  0.00     0.006 C 
HETATM    3  C8  UNL     1       0.583   0.821  -1.722  1.00  0.00     0.006 C 
HETATM    4  C9  UNL     1      -0.003   1.260  -0.391  1.00  0.00    -0.002 C 
HETATM    5  C10 UNL     1      -1.451   1.097  -0.291  1.00  0.00    -0.005 C 
HETATM    6  C11 UNL     1      -2.221   2.246   0.319  1.00  0.00     0.006 C 
HETATM    7  C12 UNL     1      -3.643   2.105  -0.181  1.00  0.00     0.006 C 
HETATM    8  C13 UNL     1      -4.174   0.743  -0.283  1.00  0.00    -0.006 C 
HETATM    9  C14 UNL     1      -4.704   0.548  -1.715  1.00  0.00     0.005 C 
HETATM   10  C15 UNL     1      -4.715  -0.965  -1.798  1.00  0.00     0.001 C 
HETATM   11  C16 UNL     1      -3.311  -1.264  -1.250  1.00  0.00     0.010 C 
HETATM   12  C17 UNL     1      -3.315  -0.403   0.017  1.00  0.00    -0.036 C 
HETATM   13  C18 UNL     1      -3.958  -1.285   1.093  1.00  0.00     0.016 C 
HETATM   14  C19 UNL     1      -1.922  -0.119   0.467  1.00  0.00    -0.002 C 
HETATM   15  C20 UNL     1      -1.010  -1.283   0.293  1.00  0.00     0.006 C 
HETATM   16  C21 UNL     1       0.423  -0.984   0.670  1.00  0.00     0.010 C 
HETATM   17  C22 UNL     1       0.834   0.428   0.595  1.00  0.00    -0.036 C 
HETATM   18  C23 UNL     1       0.838   1.097   1.962  1.00  0.00     0.016 C 
ENDROOT
BRANCH   1  19
HETATM   19  C2  UNL     1       3.396   0.425   0.718  1.00  0.00    -0.014 C 
HETATM   20  C1  UNL     1       4.547   1.146   0.031  1.00  0.00     0.010 C 
BRANCH  19  21
HETATM   21  C3  UNL     1       3.684  -0.941   1.171  1.00  0.00     0.007 C 
BRANCH  21  22
HETATM   22  C4  UNL     1       4.088  -1.994   0.210  1.00  0.00     0.026 C 
BRANCH  22  23
HETATM   23  C5  UNL     1       5.378  -1.785  -0.535  1.00  0.00     0.164 C 
BRANCH  23  24
HETATM   24  O1  UNL     1       6.464  -1.696   0.370  1.00  0.00    -0.401 OA
ATOM     25  H1  UNL     1       7.279  -1.564  -0.100  1.00  0.00     0.209 HD
ENDBRANCH  23  24
ENDBRANCH  22  23
ENDBRANCH  21  22
ENDBRANCH  19  21
ENDBRANCH   1  19
TORSDOF 5
