REMARK  5 active torsions:
REMARK  status: ('A' for Active; 'I' for Inactive)
REMARK    1  A    between atoms: C2_2  and  C3_3 
REMARK    2  A    between atoms: C3_3  and  C4_4 
REMARK    3  A    between atoms: C4_4  and  C5_5 
REMARK    4  A    between atoms: C5_5  and  C6_6 
REMARK    5  A    between atoms: C19_19  and  O1_20 
ROOT
HETATM    1  C6  UNL     1       2.963  -0.986   0.571  1.00  0.00    -0.083 C 
HETATM    2  C7  UNL     1       2.312  -0.018   1.198  1.00  0.00    -0.024 C 
HETATM    3  C8  UNL     1       0.973   0.460   0.825  1.00  0.00     0.033 C 
HETATM    4  C9  UNL     1       0.585  -0.001  -0.546  1.00  0.00    -0.002 C 
HETATM    5  C10 UNL     1       0.899  -1.469  -0.720  1.00  0.00    -0.006 C 
HETATM    6  C11 UNL     1       0.118  -2.225   0.326  1.00  0.00     0.005 C 
HETATM    7  C12 UNL     1      -1.349  -2.021   0.028  1.00  0.00     0.006 C 
HETATM    8  C13 UNL     1      -1.743  -0.559   0.095  1.00  0.00    -0.002 C 
HETATM    9  C14 UNL     1      -0.862   0.204  -0.858  1.00  0.00    -0.005 C 
HETATM   10  C15 UNL     1      -1.173   1.662  -0.931  1.00  0.00     0.006 C 
HETATM   11  C16 UNL     1      -2.554   1.903  -0.310  1.00  0.00     0.006 C 
HETATM   12  C17 UNL     1      -3.486   0.908  -0.921  1.00  0.00    -0.004 C 
HETATM   13  C18 UNL     1      -4.927   1.245  -0.700  1.00  0.00     0.037 C 
HETATM   14  C19 UNL     1      -5.135   1.443   0.787  1.00  0.00     0.118 C 
HETATM   15  C20 UNL     1      -4.605   0.282   1.573  1.00  0.00     0.032 C 
HETATM   16  C21 UNL     1      -4.144  -0.866   0.732  1.00  0.00     0.012 C 
HETATM   17  C22 UNL     1      -3.191  -0.479  -0.358  1.00  0.00    -0.036 C 
HETATM   18  C23 UNL     1      -3.436  -1.448  -1.522  1.00  0.00     0.016 C 
HETATM   19  C24 UNL     1       2.387  -1.697  -0.597  1.00  0.00     0.039 C 
ENDROOT
BRANCH   1  20
HETATM   20  C5  UNL     1       4.315  -1.388   1.037  1.00  0.00     0.034 C 
BRANCH  20  21
HETATM   21  C4  UNL     1       5.353  -1.209  -0.023  1.00  0.00     0.004 C 
BRANCH  21  22
HETATM   22  C3  UNL     1       5.504   0.198  -0.511  1.00  0.00    -0.000 C 
BRANCH  22  23
HETATM   23  C2  UNL     1       5.888   1.184   0.532  1.00  0.00    -0.005 C 
HETATM   24  C1  UNL     1       5.997   2.547  -0.122  1.00  0.00     0.005 C 
ENDBRANCH  22  23
ENDBRANCH  21  22
ENDBRANCH  20  21
ENDBRANCH   1  20
BRANCH  14  25
HETATM   25  O1  UNL     1      -6.511   1.631   0.974  1.00  0.00    -0.396 OA
ATOM     26  H1  UNL     1      -6.641   1.755   1.907  1.00  0.00     0.210 HD
ENDBRANCH  14  25
TORSDOF 5
