REMARK  5 active torsions:
REMARK  status: ('A' for Active; 'I' for Inactive)
REMARK    1  A    between atoms: C5_5  and  N1_6 
REMARK    2  A    between atoms: N1_6  and  C6_8 
REMARK    3  A    between atoms: C6_8  and  N2_10 
REMARK       I    between atoms: N2_10  and  C7_12 
REMARK    4  A    between atoms: C7_12  and  C8_14 
REMARK    5  A    between atoms: C19_27  and  O2_28 
ROOT
HETATM    1  C1  UNL     1       8.440   1.543  -0.192  1.00  0.00     0.018 C 
HETATM    2  C2  UNL     1       7.544   0.745  -0.396  1.00  0.00    -0.076 C 
HETATM    3  C3  UNL     1       6.503  -0.210  -0.627  1.00  0.00     0.039 A 
HETATM    4  C4  UNL     1       5.502  -0.427   0.286  1.00  0.00     0.070 A 
HETATM    5  C5  UNL     1       4.493  -1.347   0.070  1.00  0.00     0.108 A 
HETATM    6  N4  UNL     1       4.504  -2.044  -1.072  1.00  0.00    -0.351 N 
ATOM      7  H4  UNL     1       3.770  -2.729  -1.253  1.00  0.00     0.166 HD
HETATM    8  C22 UNL     1       5.486  -1.848  -1.995  1.00  0.00     0.110 A 
HETATM    9  C23 UNL     1       6.503  -0.933  -1.798  1.00  0.00     0.045 A 
HETATM   10 BR1  UNL     1       7.890  -0.632  -3.060  1.00  0.00    -0.048 Br
ENDROOT
BRANCH   5  11
HETATM   11  N1  UNL     1       3.601  -1.476   0.988  1.00  0.00    -0.319 N 
ATOM     12  H1  UNL     1       3.681  -0.898   1.825  1.00  0.00     0.169 HD
BRANCH  11  13
HETATM   13  C6  UNL     1       2.512  -2.381   0.897  1.00  0.00     0.180 C 
HETATM   14  S1  UNL     1       2.870  -3.965   1.014  1.00  0.00    -0.040 SA
BRANCH  13  15
HETATM   15  N2  UNL     1       1.161  -1.904   0.709  1.00  0.00    -0.299 N 
HETATM   16  C7  UNL     1       0.883  -0.529   0.611  1.00  0.00     0.261 C 
HETATM   17  O1  UNL     1       1.892   0.254   0.698  1.00  0.00    -0.267 OA
ATOM     18  H2  UNL     1       0.396  -2.576   0.646  1.00  0.00     0.171 HD
BRANCH  16  19
HETATM   19  C8  UNL     1      -0.435   0.006   0.425  1.00  0.00     0.084 A 
HETATM   20  C9  UNL     1      -0.533   1.338   0.351  1.00  0.00     0.032 A 
HETATM   21  C10 UNL     1      -1.792   2.014   0.166  1.00  0.00    -0.033 A 
HETATM   22  C11 UNL     1      -1.801   3.334   0.082  1.00  0.00     0.024 C 
HETATM   23  C12 UNL     1      -3.103   1.287   0.040  1.00  0.00    -0.010 A 
HETATM   24  C13 UNL     1      -4.255   2.030  -0.114  1.00  0.00     0.013 C 
HETATM   25  C20 UNL     1      -3.009  -0.083   0.110  1.00  0.00     0.061 A 
HETATM   26  C14 UNL     1      -5.437   2.085   0.540  1.00  0.00     0.001 C 
HETATM   27  C15 UNL     1      -6.420   1.157   0.746  1.00  0.00     0.002 C 
HETATM   28  C16 UNL     1      -7.087   0.388  -0.178  1.00  0.00     0.032 C 
HETATM   29  C17 UNL     1      -6.334  -0.221  -1.140  1.00  0.00     0.062 A 
HETATM   30  N3  UNL     1      -5.741  -0.808  -2.280  1.00  0.00    -0.350 N 
HETATM   31  C18 UNL     1      -5.032  -0.803  -1.053  1.00  0.00     0.094 A 
ATOM     32  H3  UNL     1      -5.789  -1.056  -3.268  1.00  0.00     0.166 HD
HETATM   33  C19 UNL     1      -4.113  -0.958  -0.062  1.00  0.00     0.109 C 
HETATM   34  C21 UNL     1      -1.676  -0.725   0.304  1.00  0.00     0.201 A 
HETATM   35  O3  UNL     1      -1.624  -1.982   0.366  1.00  0.00    -0.286 OA
BRANCH  33  36
HETATM   36  O2  UNL     1      -4.188  -1.998   0.854  1.00  0.00    -0.357 OA
ATOM     37  H2  UNL     1      -3.546  -2.106   1.546  1.00  0.00     0.217 HD
ENDBRANCH  33  36
ENDBRANCH  16  19
ENDBRANCH  13  15
ENDBRANCH  11  13
ENDBRANCH   5  11
TORSDOF 5
