REMARK  8 active torsions:
REMARK  status: ('A' for Active; 'I' for Inactive)
REMARK    1  A    between atoms: N1_4  and  C4_5 
REMARK    2  A    between atoms: C4_5  and  O1_6 
REMARK    3  A    between atoms: C4_5  and  N2_8 
REMARK    4  A    between atoms: C6_10  and  N3_11 
REMARK    5  A    between atoms: C8_16  and  C9_17 
REMARK    6  A    between atoms: N5_26  and  C16_27 
REMARK    7  A    between atoms: C16_27  and  O3_28 
REMARK    8  A    between atoms: C16_27  and  N6_30 
ROOT
HETATM    1  C1  UNL     1       0.291  -1.325   2.021  1.00  0.00     0.034 C 
HETATM    2  C2  UNL     1      -0.002  -0.953   0.554  1.00  0.00     0.102 C 
HETATM    3  C3  UNL     1       1.125  -0.250  -0.077  1.00  0.00     0.152 C 
HETATM    4  N1  UNL     1       1.501   1.050   0.381  1.00  0.00    -0.337 N 
HETATM    5  C10 UNL     1       0.664   2.172   0.832  1.00  0.00     0.030 C 
HETATM    6  C11 UNL     1       1.149   3.439   0.073  1.00  0.00     0.038 C 
HETATM    7  C12 UNL     1       0.867   2.507   2.284  1.00  0.00     0.038 C 
HETATM    8  C13 UNL     1      -0.726   2.059   0.376  1.00  0.00     0.055 C 
HETATM    9  C14 UNL     1      -1.652   1.007   0.860  1.00  0.00     0.086 C 
HETATM   10  C15 UNL     1      -1.969   1.117   2.336  1.00  0.00     0.032 C 
HETATM   11  N5  UNL     1      -1.334  -0.340   0.468  1.00  0.00    -0.337 N 
ENDROOT
BRANCH  11  12
HETATM   12  C16 UNL     1      -2.304  -1.195  -0.077  1.00  0.00     0.220 C 
BRANCH  12  13
HETATM   13  O3  UNL     1      -1.762  -2.314  -0.546  1.00  0.00    -0.332 OA
ATOM     14  H3  UNL     1      -2.419  -2.893  -0.915  1.00  0.00     0.220 HD
ENDBRANCH  12  13
BRANCH  12  15
HETATM   15  N6  UNL     1      -3.694  -1.126  -0.226  1.00  0.00    -0.311 N 
HETATM   16  C17 UNL     1      -4.690  -0.228   0.219  1.00  0.00     0.223 C 
HETATM   17 CL1  UNL     1      -5.525  -0.893   1.692  1.00  0.00    -0.097 Cl
HETATM   18  C18 UNL     1      -5.689  -0.207  -0.903  1.00  0.00     0.023 A 
HETATM   19  C19 UNL     1      -6.700   0.515  -1.495  1.00  0.00     0.119 A 
HETATM   20  C20 UNL     1      -5.556  -1.355  -1.623  1.00  0.00     0.064 A 
HETATM   21  N7  UNL     1      -7.139  -0.204  -2.534  1.00  0.00    -0.311 N 
HETATM   22  N8  UNL     1      -6.457  -1.334  -2.622  1.00  0.00    -0.302 N 
ATOM     23  H7  UNL     1      -7.889   0.078  -3.165  1.00  0.00     0.186 HD
ATOM     24  H8  UNL     1      -6.591  -2.062  -3.324  1.00  0.00     0.186 HD
HETATM   25  C21 UNL     1      -4.458  -2.138  -0.991  1.00  0.00     0.075 C 
HETATM   26  C22 UNL     1      -5.079  -3.164  -0.086  1.00  0.00     0.045 C 
HETATM   27  C23 UNL     1      -3.666  -2.821  -2.065  1.00  0.00     0.045 C 
ENDBRANCH  12  15
ENDBRANCH  11  12
BRANCH   4  28
HETATM   28  C4  UNL     1       2.865   1.307   0.335  1.00  0.00     0.218 C 
BRANCH  28  29
HETATM   29  O1  UNL     1       3.221   2.417   0.928  1.00  0.00    -0.332 OA
ATOM     30  H1  UNL     1       4.154   2.593   0.897  1.00  0.00     0.220 HD
ENDBRANCH  28  29
BRANCH  28  31
HETATM   31  N2  UNL     1       3.943   0.623  -0.223  1.00  0.00    -0.332 N 
HETATM   32  C5  UNL     1       4.117  -0.567  -1.009  1.00  0.00     0.160 C 
HETATM   33  C6  UNL     1       5.384  -0.376  -1.840  1.00  0.00     0.204 C 
HETATM   34  C7  UNL     1       5.933   0.955  -1.406  1.00  0.00     0.069 C 
HETATM   35  C8  UNL     1       5.340   1.109  -0.046  1.00  0.00     0.179 C 
BRANCH  33  36
HETATM   36  N3  UNL     1       5.114  -0.381  -3.258  1.00  0.00    -0.073 N 
ATOM     37  H33 UNL     1       4.615  -1.227  -3.535  1.00  0.00     0.274 HD
ATOM     38  H32 UNL     1       4.406   0.312  -3.501  1.00  0.00     0.274 HD
ATOM     39  H31 UNL     1       5.960  -0.253  -3.813  1.00  0.00     0.274 HD
ENDBRANCH  33  36
BRANCH  35  40
HETATM   40  C9  UNL     1       6.021   0.360   1.016  1.00  0.00     0.254 C 
HETATM   41  N4  UNL     1       5.402  -0.680   1.752  1.00  0.00    -0.060 NA
HETATM   42  O2  UNL     1       7.208   0.657   1.284  1.00  0.00    -0.275 OA
ENDBRANCH  35  40
ENDBRANCH  28  31
ENDBRANCH   4  28
TORSDOF 8
