REMARK  4 active torsions:
REMARK  status: ('A' for Active; 'I' for Inactive)
REMARK    1  A    between atoms: C4_7  and  N3_9 
REMARK    2  A    between atoms: C8_15  and  C9_16 
REMARK    3  A    between atoms: C10_17  and  C11_18 
REMARK       I    between atoms: N5_26  and  C16_28 
REMARK    4  A    between atoms: C16_28  and  C17_30 
ROOT
HETATM    1  C9  UNL     1       0.544   1.808   0.561  1.00  0.00    -0.060 C 
HETATM    2  C10 UNL     1       1.723   2.029   0.316  1.00  0.00    -0.058 C 
ENDROOT
BRANCH   1   3
HETATM    3  C8  UNL     1      -0.836   1.526   0.845  1.00  0.00     0.034 A 
HETATM    4  C7  UNL     1      -1.453   0.484   0.218  1.00  0.00     0.037 A 
HETATM    5  C6  UNL     1      -2.802   0.153   0.451  1.00  0.00     0.043 A 
HETATM    6  C4  UNL     1      -3.421  -0.969  -0.223  1.00  0.00     0.228 A 
HETATM    7  C21 UNL     1      -3.475   0.939   1.348  1.00  0.00     0.121 A 
HETATM    8  N2  UNL     1      -4.803  -1.162   0.069  1.00  0.00    -0.301 N 
HETATM    9  C5  UNL     1      -2.628  -2.265  -0.011  1.00  0.00     0.077 C 
HETATM   10  C2  UNL     1      -5.510  -0.365   0.992  1.00  0.00     0.327 A 
HETATM   11  C3  UNL     1      -5.546  -2.255  -0.629  1.00  0.00     0.157 C 
HETATM   12  N1  UNL     1      -4.846   0.702   1.644  1.00  0.00    -0.289 N 
HETATM   13  O1  UNL     1      -6.730  -0.630   1.211  1.00  0.00    -0.247 OA
HETATM   14  C1  UNL     1      -5.546   1.534   2.592  1.00  0.00     0.163 C 
HETATM   15  N8  UNL     1      -2.879   1.986   1.986  1.00  0.00    -0.350 N 
HETATM   16  C20 UNL     1      -1.572   2.278   1.738  1.00  0.00     0.110 A 
ATOM     17  H8  UNL     1      -3.411   2.550   2.648  1.00  0.00     0.166 HD
BRANCH   6  18
HETATM   18  N3  UNL     1      -3.348  -0.773  -1.698  1.00  0.00    -0.048 N 
ATOM     19  H33 UNL     1      -3.778  -1.527  -2.233  1.00  0.00     0.277 HD
ATOM     20  H32 UNL     1      -3.948  -0.023  -2.042  1.00  0.00     0.277 HD
ATOM     21  H31 UNL     1      -2.359  -0.635  -1.907  1.00  0.00     0.277 HD
ENDBRANCH   6  18
ENDBRANCH   1   3
BRANCH   2  22
HETATM   22  C11 UNL     1       3.100   2.311   0.040  1.00  0.00     0.063 A 
HETATM   23  C12 UNL     1       3.710   3.509   0.349  1.00  0.00     0.045 A 
HETATM   24  C13 UNL     1       5.039   3.714   0.055  1.00  0.00     0.028 A 
HETATM   25 BR1  UNL     1       5.921   5.345   0.461  1.00  0.00    -0.050 Br
HETATM   26  C14 UNL     1       5.739   2.699  -0.550  1.00  0.00     0.109 A 
HETATM   27  N4  UNL     1       5.165   1.525  -0.859  1.00  0.00    -0.350 N 
HETATM   28  C15 UNL     1       3.857   1.334  -0.566  1.00  0.00     0.127 A 
ATOM     29  H4  UNL     1       5.707   0.787  -1.308  1.00  0.00     0.166 HD
HETATM   30  N5  UNL     1       3.273   0.220  -0.849  1.00  0.00    -0.306 N 
HETATM   31  C16 UNL     1       4.042  -0.797  -1.475  1.00  0.00     0.275 C 
ATOM     32  H5  UNL     1       2.288   0.073  -0.630  1.00  0.00     0.170 HD
HETATM   33  O2  UNL     1       4.114  -0.891  -2.744  1.00  0.00    -0.266 OA
BRANCH  31  34
HETATM   34  C17 UNL     1       4.791  -1.790  -0.708  1.00  0.00     0.117 A 
HETATM   35  C18 UNL     1       5.568  -2.818  -1.163  1.00  0.00     0.055 A 
HETATM   36  C19 UNL     1       6.059  -3.470  -0.063  1.00  0.00     0.109 A 
HETATM   37  N6  UNL     1       5.572  -2.826   1.033  1.00  0.00    -0.311 N 
HETATM   38  N7  UNL     1       4.812  -1.819   0.651  1.00  0.00    -0.296 N 
ATOM     39  H6  UNL     1       5.765  -3.083   2.001  1.00  0.00     0.186 HD
ATOM     40  H7  UNL     1       4.323  -1.172   1.270  1.00  0.00     0.187 HD
ENDBRANCH  31  34
ENDBRANCH   2  22
TORSDOF 4
