REMARK  5 active torsions:
REMARK  status: ('A' for Active; 'I' for Inactive)
REMARK       I    between atoms: C2_2  and  N1_4 
REMARK    1  A    between atoms: N1_4  and  C4_6 
REMARK    2  A    between atoms: C13_15  and  C30_40 
REMARK    3  A    between atoms: C16_18  and  O2_19 
REMARK    4  A    between atoms: C17_21  and  O3_22 
REMARK    5  A    between atoms: C18_24  and  O4_25 
ROOT
HETATM    1  C4  UNL     1       2.594   0.340  -0.339  1.00  0.00     0.069 C 
HETATM    2  C5  UNL     1       1.901   1.258  -1.307  1.00  0.00     0.041 C 
HETATM    3  C6  UNL     1       2.856  -0.881  -1.118  1.00  0.00     0.071 C 
HETATM    4  C7  UNL     1       2.487  -2.297  -0.505  1.00  0.00    -0.056 C 
HETATM    5  C8  UNL     1       1.955  -3.318  -1.044  1.00  0.00     0.007 C 
HETATM    6  C9  UNL     1       1.487  -3.392  -2.468  1.00  0.00     0.001 C 
HETATM    7  C10 UNL     1       0.503  -2.668  -2.986  1.00  0.00    -0.000 C 
HETATM    8  C11 UNL     1      -0.457  -1.665  -2.670  1.00  0.00    -0.003 C 
HETATM    9  C12 UNL     1      -1.259  -1.012  -1.927  1.00  0.00    -0.010 C 
HETATM   10  C13 UNL     1      -1.925  -0.731  -0.625  1.00  0.00     0.036 C 
HETATM   11  C14 UNL     1      -3.378  -1.034  -0.845  1.00  0.00    -0.011 C 
HETATM   12  C15 UNL     1      -4.287  -1.461  -0.046  1.00  0.00     0.004 C 
HETATM   13  C16 UNL     1      -3.941  -1.732   1.358  1.00  0.00     0.172 C 
HETATM   14  C17 UNL     1      -2.534  -2.053   1.477  1.00  0.00     0.189 C 
HETATM   15  C18 UNL     1      -1.481  -1.410   0.609  1.00  0.00     0.138 C 
HETATM   16  C19 UNL     1      -0.458  -0.651   1.437  1.00  0.00     0.319 C 
HETATM   17  C20 UNL     1      -1.057   0.135   2.604  1.00  0.00     0.109 C 
HETATM   18  F1  UNL     1      -1.315  -0.517   3.747  1.00  0.00    -0.213 F 
HETATM   19  C21 UNL     1      -2.070   1.131   2.132  1.00  0.00     0.080 C 
HETATM   20  C22 UNL     1      -1.722   1.441   0.772  1.00  0.00     0.000 C 
HETATM   21  C23 UNL     1      -0.165   1.660   0.788  1.00  0.00     0.285 C 
HETATM   22  N2  UNL     1       0.366   0.337   0.751  1.00  0.00     0.114 N 
HETATM   23  C24 UNL     1       1.791   0.281   1.075  1.00  0.00     0.275 C 
HETATM   24  C25 UNL     1       2.140  -1.039   1.189  1.00  0.00     0.012 C 
HETATM   25  C26 UNL     1       2.349  -1.756   0.757  1.00  0.00     0.005 C 
HETATM   26  C27 UNL     1      -2.514   2.620   0.254  1.00  0.00    -0.007 C 
HETATM   27  C28 UNL     1      -1.819   3.601  -0.608  1.00  0.00     0.011 C 
HETATM   28  C29 UNL     1      -3.294   1.499  -0.500  1.00  0.00     0.012 C 
HETATM   29  C30 UNL     1      -1.974   0.767  -0.451  1.00  0.00     0.016 C 
ENDROOT
BRANCH   1  30
HETATM   30  N1  UNL     1       3.811   1.053  -0.000  1.00  0.00    -0.345 N 
HETATM   31  C2  UNL     1       4.853   0.738   0.865  1.00  0.00     0.216 C 
HETATM   32  C1  UNL     1       5.955   1.762   1.067  1.00  0.00     0.117 C 
HETATM   33  O1  UNL     1       5.012  -0.281   1.511  1.00  0.00    -0.274 OA
HETATM   34  C3  UNL     1       4.018   2.389  -0.670  1.00  0.00     0.153 C 
ENDBRANCH   1  30
BRANCH  15  35
HETATM   35  O4  UNL     1      -0.885  -2.564   0.137  1.00  0.00    -0.383 OA
ATOM     36  H4  UNL     1      -0.599  -3.001   0.931  1.00  0.00     0.210 HD
ENDBRANCH  15  35
BRANCH  14  37
HETATM   37  O3  UNL     1      -2.600  -3.489   1.170  1.00  0.00    -0.390 OA
ATOM     38  H3  UNL     1      -1.677  -3.700   1.248  1.00  0.00     0.210 HD
ENDBRANCH  14  37
BRANCH  13  39
HETATM   39  O2  UNL     1      -4.742  -2.828   1.760  1.00  0.00    -0.389 OA
ATOM     40  H2  UNL     1      -4.519  -3.003   2.667  1.00  0.00     0.210 HD
ENDBRANCH  13  39
TORSDOF 5
