REMARK  5 active torsions:
REMARK  status: ('A' for Active; 'I' for Inactive)
REMARK    1  A    between atoms: C11_11  and  O1_12 
REMARK    2  A    between atoms: C12_14  and  O2_15 
REMARK    3  A    between atoms: N1_19  and  C15_20 
REMARK    4  A    between atoms: C19_24  and  O3_25 
REMARK    5  A    between atoms: C21_27  and  O4_28 
ROOT
HETATM    1  C1  UNL     1      -4.176   1.254   1.720  1.00  0.00     0.015 C 
HETATM    2  C2  UNL     1      -3.048   1.220   1.034  1.00  0.00    -0.082 C 
HETATM    3  C3  UNL     1      -1.864   0.583   1.658  1.00  0.00     0.059 C 
HETATM    4  C4  UNL     1      -0.766   0.176   0.740  1.00  0.00     0.090 C 
HETATM    5  C5  UNL     1      -0.925   0.573  -0.684  1.00  0.00     0.030 C 
HETATM    6  C6  UNL     1      -0.773   2.060  -1.026  1.00  0.00     0.022 C 
HETATM    7  C7  UNL     1      -1.771   2.815  -0.219  1.00  0.00     0.019 C 
HETATM    8  C8  UNL     1      -2.932   1.801  -0.317  1.00  0.00     0.028 C 
HETATM    9  C9  UNL     1      -2.301   0.778  -1.197  1.00  0.00    -0.001 C 
HETATM   10  C10 UNL     1      -3.027  -0.354  -1.727  1.00  0.00     0.049 C 
HETATM   11  C11 UNL     1      -3.210  -1.564  -0.889  1.00  0.00     0.150 C 
HETATM   12  C12 UNL     1      -1.995  -2.407  -0.648  1.00  0.00     0.169 C 
HETATM   13  C13 UNL     1      -1.265  -2.204   0.630  1.00  0.00     0.108 C 
HETATM   14  C14 UNL     1      -0.643  -3.546   0.952  1.00  0.00     0.034 C 
HETATM   15  N1  UNL     1      -0.360  -1.190   0.795  1.00  0.00    -0.389 N 
HETATM   16  C26 UNL     1      -1.629   1.683  -2.217  1.00  0.00    -0.075 C 
HETATM   17  C27 UNL     1      -1.769   1.956  -3.482  1.00  0.00     0.015 C 
ENDROOT
BRANCH  15  18
HETATM   18  C15 UNL     1       1.033  -1.444   1.024  1.00  0.00     0.144 C 
HETATM   19  C16 UNL     1       1.892  -0.866  -0.048  1.00  0.00     0.015 C 
HETATM   20  C17 UNL     1       2.913  -0.067   0.114  1.00  0.00    -0.025 A 
HETATM   21  C18 UNL     1       3.622   0.414  -0.996  1.00  0.00     0.051 A 
HETATM   22  C23 UNL     1       3.354   0.266   1.372  1.00  0.00    -0.022 A 
HETATM   23  C19 UNL     1       4.730   1.203  -0.875  1.00  0.00     0.102 A 
HETATM   24  C21 UNL     1       5.153   1.530   0.391  1.00  0.00     0.099 A 
HETATM   25  C22 UNL     1       4.490   1.079   1.496  1.00  0.00     0.051 A 
HETATM   26  C24 UNL     1       2.759  -0.228   2.410  1.00  0.00     0.029 C 
HETATM   27  C25 UNL     1       1.617  -1.158   2.330  1.00  0.00     0.015 C 
HETATM   28 BR1  UNL     1       0.467  -0.760   3.809  1.00  0.00    -0.053 Br
BRANCH  23  29
HETATM   29  O3  UNL     1       5.427   1.675  -2.012  1.00  0.00    -0.353 OA
HETATM   30  C20 UNL     1       5.004   1.346  -3.307  1.00  0.00     0.210 C 
ENDBRANCH  23  29
BRANCH  24  31
HETATM   31  O4  UNL     1       6.286   2.342   0.580  1.00  0.00    -0.358 OA
ATOM     32  H4  UNL     1       6.578   2.568   1.455  1.00  0.00     0.217 HD
ENDBRANCH  24  31
ENDBRANCH  15  18
BRANCH  12  33
HETATM   33  O2  UNL     1      -2.524  -3.715  -0.568  1.00  0.00    -0.391 OA
ATOM     34  H2  UNL     1      -1.754  -4.249  -0.415  1.00  0.00     0.210 HD
ENDBRANCH  12  33
BRANCH  11  35
HETATM   35  O1  UNL     1      -4.165  -2.306  -1.652  1.00  0.00    -0.393 OA
ATOM     36  H1  UNL     1      -4.282  -3.081  -1.115  1.00  0.00     0.210 HD
ENDBRANCH  11  35
TORSDOF 5
