REMARK  5 active torsions:
REMARK  status: ('A' for Active; 'I' for Inactive)
REMARK       I    between atoms: C2_2  and  N1_4 
REMARK    1  A    between atoms: N1_4  and  S1_6 
REMARK    2  A    between atoms: S1_6  and  N2_9 
REMARK       I    between atoms: N2_9  and  C3_11 
REMARK       I    between atoms: C3_11  and  N5_17 
REMARK    3  A    between atoms: N3_12  and  N4_14 
REMARK    4  A    between atoms: N5_17  and  N6_19 
REMARK    5  A    between atoms: N6_19  and  C4_21 
ROOT
HETATM    1  N2  UNL     1       0.018   0.986   0.407  1.00  0.00    -0.097 N 
ATOM      2  H2  UNL     1      -0.555   1.811   0.583  1.00  0.00     0.199 HD
HETATM    3  C3  UNL     1      -0.587  -0.209  -0.059  1.00  0.00     0.721 C 
HETATM    4  N3  UNL     1      -0.548  -0.582  -1.285  1.00  0.00    -0.137 N 
ATOM      5  H3  UNL     1      -0.063  -0.004  -1.971  1.00  0.00     0.205 HD
HETATM    6  N5  UNL     1      -1.265  -1.023   0.881  1.00  0.00    -0.128 N 
ATOM      7  H5  UNL     1      -1.097  -2.028   0.920  1.00  0.00     0.205 HD
ENDROOT
BRANCH   1   8
HETATM    8  S1  UNL     1       1.710   1.048   0.675  1.00  0.00     0.339 S 
HETATM    9  O2  UNL     1       2.187  -0.312   1.068  1.00  0.00    -0.182 OA
HETATM   10  O3  UNL     1       2.073   2.056   1.730  1.00  0.00    -0.182 OA
BRANCH   8  11
HETATM   11  N1  UNL     1       2.499   1.557  -0.790  1.00  0.00    -0.237 N 
HETATM   12  C2  UNL     1       3.123   0.599  -1.616  1.00  0.00     0.228 C 
HETATM   13  C1  UNL     1       3.787   1.109  -2.868  1.00  0.00     0.118 C 
HETATM   14  O1  UNL     1       3.127  -0.608  -1.328  1.00  0.00    -0.273 OA
ATOM     15  H1  UNL     1       2.510   2.543  -1.050  1.00  0.00     0.183 HD
ENDBRANCH   8  11
ENDBRANCH   1   8
BRANCH   4  16
HETATM   16  N4  UNL     1      -1.156  -1.760  -1.692  1.00  0.00    -0.331 N 
ATOM     17  H42 UNL     1      -1.637  -2.326  -0.993  1.00  0.00     0.177 HD
ATOM     18  H41 UNL     1      -1.125  -2.057  -2.667  1.00  0.00     0.177 HD
ENDBRANCH   4  16
BRANCH   6  19
HETATM   19  N6  UNL     1      -2.166  -0.415   1.750  1.00  0.00    -0.264 N 
ATOM     20  H6  UNL     1      -1.956   0.502   2.145  1.00  0.00     0.189 HD
BRANCH  19  21
HETATM   21  C4  UNL     1      -3.362  -1.065   2.081  1.00  0.00     0.200 C 
HETATM   22  N7  UNL     1      -4.303  -0.482   2.960  1.00  0.00    -0.068 NA
HETATM   23  S2  UNL     1      -3.724  -2.532   1.464  1.00  0.00    -0.043 SA
ENDBRANCH  19  21
ENDBRANCH   6  19
TORSDOF 5
