REMARK  6 active torsions:
REMARK  status: ('A' for Active; 'I' for Inactive)
REMARK    1  A    between atoms: C4_5  and  N2_6 
REMARK       I    between atoms: N2_6  and  C5_8 
REMARK    2  A    between atoms: N4_10  and  N5_12 
REMARK    3  A    between atoms: N5_12  and  C6_14 
REMARK    4  A    between atoms: C6_14  and  N6_16 
REMARK    5  A    between atoms: N6_16  and  N7_18 
REMARK    6  A    between atoms: N8_22  and  N9_24 
ROOT
HETATM    1  N2  UNL     1       0.145  -1.557   0.150  1.00  0.00    -0.353 N 
ATOM      2  H2  UNL     1       0.196  -2.054   1.039  1.00  0.00     0.163 HD
HETATM    3  C5  UNL     1       1.316  -1.322  -0.600  1.00  0.00     0.203 C 
HETATM    4  N3  UNL     1       1.535  -2.024  -1.795  1.00  0.00    -0.062 NA
HETATM    5  N4  UNL     1       2.170  -0.466  -0.176  1.00  0.00    -0.272 N 
ATOM      6  H4  UNL     1       1.973   0.022   0.698  1.00  0.00     0.189 HD
ENDROOT
BRANCH   1   7
HETATM    7  C4  UNL     1      -1.116  -1.094  -0.344  1.00  0.00     0.135 C 
HETATM    8  C3  UNL     1      -2.220  -1.458   0.623  1.00  0.00     0.061 C 
HETATM    9  C2  UNL     1      -3.484  -0.771   0.160  1.00  0.00     0.274 C 
HETATM   10  N1  UNL     1      -3.382   0.656   0.132  1.00  0.00     0.089 N 
HETATM   11  C1  UNL     1      -4.409   1.337   0.848  1.00  0.00     0.310 C 
HETATM   12  C8  UNL     1      -2.050   1.149   0.392  1.00  0.00     0.327 C 
HETATM   13  C7  UNL     1      -1.130   0.374  -0.506  1.00  0.00     0.054 C 
HETATM   14  N8  UNL     1      -0.381   0.924  -1.380  1.00  0.00    -0.311 N 
ATOM     15  H8  UNL     1       0.226   0.351  -1.966  1.00  0.00     0.185 HD
BRANCH  14  16
HETATM   16  N9  UNL     1      -0.395   2.312  -1.532  1.00  0.00    -0.345 N 
ATOM     17  H92 UNL     1      -1.008   2.870  -0.938  1.00  0.00     0.176 HD
ATOM     18  H91 UNL     1       0.204   2.752  -2.231  1.00  0.00     0.176 HD
ENDBRANCH  14  16
ENDBRANCH   1   7
BRANCH   5  19
HETATM   19  N5  UNL     1       3.355  -0.167  -0.848  1.00  0.00    -0.273 N 
ATOM     20  H5  UNL     1       3.413  -0.235  -1.864  1.00  0.00     0.189 HD
BRANCH  19  21
HETATM   21  C6  UNL     1       4.478   0.235  -0.079  1.00  0.00     0.205 C 
HETATM   22  S1  UNL     1       5.861   0.583  -0.874  1.00  0.00    -0.038 SA
BRANCH  21  23
HETATM   23  N6  UNL     1       4.414   0.335   1.325  1.00  0.00    -0.282 N 
ATOM     24  H6  UNL     1       3.530   0.109   1.781  1.00  0.00     0.189 HD
BRANCH  23  25
HETATM   25  N7  UNL     1       5.475   0.721   2.121  1.00  0.00    -0.343 N 
ATOM     26  H72 UNL     1       6.351   0.944   1.648  1.00  0.00     0.176 HD
ATOM     27  H71 UNL     1       5.429   0.793   3.137  1.00  0.00     0.176 HD
ENDBRANCH  23  25
ENDBRANCH  21  23
ENDBRANCH  19  21
ENDBRANCH   5  19
TORSDOF 6
