REMARK  5 active torsions:
REMARK  status: ('A' for Active; 'I' for Inactive)
REMARK    1  A    between atoms: C2_2  and  O1_3 
REMARK    2  A    between atoms: C2_2  and  C3_5 
REMARK    3  A    between atoms: C2_2  and  C4_12 
REMARK       I    between atoms: C3_5  and  N1_7 
REMARK    4  A    between atoms: N1_7  and  N2_9 
REMARK       I    between atoms: C4_12  and  N3_14 
REMARK    5  A    between atoms: N3_14  and  N4_16 
REMARK       I    between atoms: N4_16  and  C5_18 
REMARK       I    between atoms: C5_18  and  N5_20 
ROOT
HETATM    1  C4  UNL     1      -2.010  -0.051   0.465  1.00  0.00     0.280 C 
HETATM    2  O3  UNL     1      -1.880   1.033  -0.198  1.00  0.00    -0.268 OA
HETATM    3  N3  UNL     1      -0.911  -0.940   0.623  1.00  0.00    -0.263 N 
ATOM      4  H3  UNL     1      -1.017  -1.805   1.153  1.00  0.00     0.190 HD
ENDROOT
BRANCH   3   5
HETATM    5  N4  UNL     1       0.311  -0.613   0.044  1.00  0.00    -0.249 N 
HETATM    6  C5  UNL     1       1.505  -0.515   0.797  1.00  0.00     0.337 C 
HETATM    7  O4  UNL     1       1.509  -0.727   2.054  1.00  0.00    -0.245 OA
HETATM    8  N5  UNL     1       2.740  -0.182   0.207  1.00  0.00    -0.330 N 
HETATM    9  C6  UNL     1       3.944  -0.102   0.987  1.00  0.00     0.155 C 
HETATM   10  C9  UNL     1       2.805   0.101  -1.202  1.00  0.00     0.155 C 
HETATM   11  C7  UNL     1       4.746   1.055   0.390  1.00  0.00     0.252 C 
HETATM   12  N6  UNL     1       5.179   0.661  -0.926  1.00  0.00    -0.072 N 
HETATM   13  C8  UNL     1       4.249  -0.196  -1.622  1.00  0.00     0.252 C 
ATOM     14  H62 UNL     1       5.399   1.482  -1.490  1.00  0.00     0.277 HD
ATOM     15  H61 UNL     1       6.101   0.227  -0.884  1.00  0.00     0.277 HD
ATOM     16  H4  UNL     1       0.348  -0.437  -0.960  1.00  0.00     0.192 HD
ENDBRANCH   3   5
BRANCH   1  17
HETATM   17  C2  UNL     1      -3.364  -0.290   1.031  1.00  0.00     0.218 C 
HETATM   18  C1  UNL     1      -3.747   0.936   1.826  1.00  0.00     0.067 C 
BRANCH  17  19
HETATM   19  O1  UNL     1      -3.384  -1.453   1.802  1.00  0.00    -0.372 OA
ATOM     20  H1  UNL     1      -3.143  -2.224   1.302  1.00  0.00     0.211 HD
ENDBRANCH  17  19
BRANCH  17  21
HETATM   21  C3  UNL     1      -4.292  -0.444  -0.146  1.00  0.00     0.279 C 
HETATM   22  O2  UNL     1      -4.857  -1.566  -0.279  1.00  0.00    -0.268 OA
HETATM   23  N1  UNL     1      -4.552   0.570  -1.077  1.00  0.00    -0.274 N 
ATOM     24  H1  UNL     1      -4.106   1.482  -0.983  1.00  0.00     0.189 HD
BRANCH  23  25
HETATM   25  N2  UNL     1      -5.445   0.314  -2.154  1.00  0.00    -0.343 N 
ATOM     26  H22 UNL     1      -5.883  -0.604  -2.233  1.00  0.00     0.176 HD
ATOM     27  H21 UNL     1      -5.634   1.052  -2.832  1.00  0.00     0.176 HD
ENDBRANCH  23  25
ENDBRANCH  17  21
ENDBRANCH   1  17
TORSDOF 5
