REMARK  9 active torsions:
REMARK  status: ('A' for Active; 'I' for Inactive)
REMARK    1  A    between atoms: C2_2  and  O1_3 
REMARK    2  A    between atoms: O1_3  and  C3_4 
REMARK    3  A    between atoms: C3_4  and  C4_6 
REMARK    4  A    between atoms: C4_6  and  N1_7 
REMARK       I    between atoms: N1_7  and  C5_9 
REMARK    5  A    between atoms: C5_9  and  C6_11 
REMARK    6  A    between atoms: C8_13  and  C9_14 
REMARK       I    between atoms: C9_14  and  N2_16 
REMARK    7  A    between atoms: N2_16  and  N3_18 
REMARK    8  A    between atoms: C10_20  and  C11_21 
REMARK    9  A    between atoms: C14_30  and  O9_31 
ROOT
HETATM    1  C6  UNL     1       0.088  -1.292   0.392  1.00  0.00     0.071 C 
HETATM    2  C7  UNL     1      -1.058  -0.490   0.296  1.00  0.00     0.043 C 
HETATM    3  C8  UNL     1      -2.368  -0.900  -0.025  1.00  0.00     0.102 C 
HETATM    4  C12 UNL     1      -2.931  -2.129   0.222  1.00  0.00     0.264 C 
HETATM    5  O7  UNL     1      -4.114  -2.189   0.537  1.00  0.00    -0.267 OA
HETATM    6  N4  UNL     1      -2.282  -3.324   0.152  1.00  0.00    -0.287 N 
ATOM      7  H4  UNL     1      -2.853  -4.134  -0.089  1.00  0.00     0.172 HD
HETATM    8  C13 UNL     1      -0.963  -3.563   0.366  1.00  0.00     0.282 C 
HETATM    9  O8  UNL     1      -0.539  -4.730   0.263  1.00  0.00    -0.265 OA
HETATM   10  C14 UNL     1       0.028  -2.627   0.705  1.00  0.00     0.150 C 
ENDROOT
BRANCH   1  11
HETATM   11  C5  UNL     1       1.351  -0.649   0.110  1.00  0.00     0.255 C 
HETATM   12  N1  UNL     1       2.618  -1.228   0.072  1.00  0.00    -0.347 N 
ATOM     13  H1  UNL     1       2.714  -2.228   0.248  1.00  0.00     0.163 HD
HETATM   14  O3  UNL     1       1.328   0.615  -0.145  1.00  0.00    -0.268 OA
BRANCH  12  15
HETATM   15  C4  UNL     1       3.804  -0.443  -0.212  1.00  0.00     0.233 C 
BRANCH  15  16
HETATM   16  C3  UNL     1       4.074   0.609   0.784  1.00  0.00     0.276 C 
HETATM   17  O2  UNL     1       3.365   0.729   1.797  1.00  0.00    -0.263 OA
BRANCH  16  18
HETATM   18  O1  UNL     1       5.130   1.471   0.586  1.00  0.00    -0.321 OA
BRANCH  18  19
HETATM   19  C2  UNL     1       5.458   2.508   1.505  1.00  0.00     0.174 C 
HETATM   20  C1  UNL     1       6.636   3.312   1.041  1.00  0.00     0.034 C 
ENDBRANCH  18  19
ENDBRANCH  16  18
ENDBRANCH  15  16
ENDBRANCH  12  15
ENDBRANCH   1  11
BRANCH  10  21
HETATM   21  O9  UNL     1       1.093  -3.077   1.453  1.00  0.00    -0.355 OA
ATOM     22  H9  UNL     1       1.051  -4.001   1.670  1.00  0.00     0.218 HD
ENDBRANCH  10  21
BRANCH   3  23
HETATM   23  C9  UNL     1      -3.189   0.063  -0.702  1.00  0.00     0.275 C 
HETATM   24  O4  UNL     1      -2.793   1.275  -0.660  1.00  0.00    -0.266 OA
HETATM   25  N2  UNL     1      -4.358  -0.237  -1.387  1.00  0.00    -0.266 N 
ATOM     26  H2  UNL     1      -4.689  -1.201  -1.432  1.00  0.00     0.190 HD
BRANCH  25  27
HETATM   27  N3  UNL     1      -5.081   0.777  -2.013  1.00  0.00    -0.302 N 
HETATM   28  C10 UNL     1      -6.328   0.968  -1.847  1.00  0.00     0.191 C 
ATOM     29  H3  UNL     1      -4.580   1.404  -2.642  1.00  0.00     0.186 HD
BRANCH  28  30
HETATM   30  C11 UNL     1      -6.988   2.047  -2.541  1.00  0.00     0.216 C 
HETATM   31  O5  UNL     1      -8.222   2.232  -2.378  1.00  0.00    -0.643 OA
HETATM   32  O6  UNL     1      -6.250   2.869  -3.380  1.00  0.00    -0.643 OA
ENDBRANCH  28  30
ENDBRANCH  25  27
ENDBRANCH   3  23
TORSDOF 9
