REMARK  8 active torsions:
REMARK  status: ('A' for Active; 'I' for Inactive)
REMARK    1  A    between atoms: O1_2  and  N1_3 
REMARK    2  A    between atoms: N1_3  and  C2_5 
REMARK    3  A    between atoms: C4_10  and  C5_11 
REMARK    4  A    between atoms: N4_14  and  S1_16 
REMARK    5  A    between atoms: S1_16  and  C7_19 
REMARK    6  A    between atoms: C8_20  and  C9_21 
REMARK    7  A    between atoms: C9_21  and  N5_22 
REMARK    8  A    between atoms: N5_22  and  N6_24 
ROOT
HETATM    1  S1  UNL     1      -0.712   0.464  -0.556  1.00  0.00     0.268 S 
HETATM    2  O3  UNL     1      -0.320   1.754   0.124  1.00  0.00    -0.200 OA
HETATM    3  O4  UNL     1      -0.996   0.772  -1.997  1.00  0.00    -0.200 OA
ENDROOT
BRANCH   1   4
HETATM    4  N4  UNL     1       0.423  -0.753  -0.385  1.00  0.00    -0.264 N 
HETATM    5  C6  UNL     1       1.672  -0.824  -0.410  1.00  0.00     0.147 A 
HETATM    6  C4  UNL     1       2.276  -2.062  -0.217  1.00  0.00     0.088 A 
HETATM    7  N10 UNL     1       2.571   0.208  -0.617  1.00  0.00    -0.173 N 
HETATM    8  C3  UNL     1       3.634  -2.271  -0.230  1.00  0.00     0.149 A 
HETATM    9  N2  UNL     1       4.436  -1.224  -0.438  1.00  0.00    -0.176 N 
HETATM   10  N3  UNL     1       4.130  -3.621  -0.175  1.00  0.00    -0.081 NA
HETATM   11  C2  UNL     1       3.892  -0.008  -0.625  1.00  0.00     0.705 A 
ATOM     12  H2  UNL     1       5.449  -1.345  -0.455  1.00  0.00     0.185 HD
ATOM     13  H10 UNL     1       2.219   1.154  -0.767  1.00  0.00     0.186 HD
ATOM     14  H4  UNL     1      -0.010  -1.662  -0.219  1.00  0.00     0.180 HD
BRANCH   6  15
HETATM   15  C5  UNL     1       1.463  -3.202   0.221  1.00  0.00     0.277 C 
HETATM   16  O2  UNL     1       1.816  -4.193   0.742  1.00  0.00    -0.301 OA
ENDBRANCH   6  15
BRANCH  11  17
HETATM   17  N1  UNL     1       4.687   1.014  -0.801  1.00  0.00    -0.097 N 
ATOM     18  H1  UNL     1       5.699   0.889  -0.793  1.00  0.00     0.213 HD
BRANCH  17  19
HETATM   19  O1  UNL     1       4.148   2.245  -0.994  1.00  0.00    -0.272 OA
HETATM   20  C1  UNL     1       4.456   3.389  -0.237  1.00  0.00     0.238 C 
ENDBRANCH  17  19
ENDBRANCH  11  17
ENDBRANCH   1   4
BRANCH   1  21
HETATM   21  C7  UNL     1      -2.234  -0.013   0.197  1.00  0.00     0.136 A 
HETATM   22  C8  UNL     1      -3.281   0.802   0.489  1.00  0.00     0.056 A 
HETATM   23  N7  UNL     1      -4.215   0.054   1.112  1.00  0.00    -0.340 N 
HETATM   24  C10 UNL     1      -3.756  -1.207   1.188  1.00  0.00     0.158 A 
ATOM     25  H7  UNL     1      -5.113   0.387   1.464  1.00  0.00     0.167 HD
HETATM   26  N8  UNL     1      -4.075  -2.472   1.611  1.00  0.00    -0.223 N 
HETATM   27  C11 UNL     1      -2.510  -1.316   0.623  1.00  0.00     0.127 A 
HETATM   28  O5  UNL     1      -3.093  -3.252   1.303  1.00  0.00    -0.155 OA
ATOM     29  H8  UNL     1      -4.935  -2.748   2.085  1.00  0.00     0.198 HD
HETATM   30  N9  UNL     1      -2.144  -2.589   0.713  1.00  0.00    -0.236 N 
ATOM     31  H9  UNL     1      -1.265  -2.981   0.375  1.00  0.00     0.197 HD
BRANCH  22  32
HETATM   32  C9  UNL     1      -3.467   2.291   0.269  1.00  0.00     0.197 C 
BRANCH  32  33
HETATM   33  N5  UNL     1      -4.584   2.345  -0.629  1.00  0.00    -0.337 N 
ATOM     34  H5  UNL     1      -4.376   2.239  -1.622  1.00  0.00     0.179 HD
BRANCH  33  35
HETATM   35  N6  UNL     1      -5.856   2.518  -0.307  1.00  0.00    -0.349 N 
ATOM     36  H62 UNL     1      -6.044   2.622   0.690  1.00  0.00     0.176 HD
ATOM     37  H61 UNL     1      -6.650   2.556  -0.946  1.00  0.00     0.176 HD
ENDBRANCH  33  35
ENDBRANCH  32  33
ENDBRANCH  22  32
ENDBRANCH   1  21
TORSDOF 8
