REMARK  9 active torsions:
REMARK  status: ('A' for Active; 'I' for Inactive)
REMARK    1  A    between atoms: N1_1  and  C1_4 
REMARK    2  A    between atoms: C7_14  and  S1_15 
REMARK    3  A    between atoms: S1_15  and  C8_18 
REMARK    4  A    between atoms: C8_18  and  O4_19 
REMARK    5  A    between atoms: O4_19  and  C9_20 
REMARK    6  A    between atoms: C9_20  and  C10_21 
REMARK    7  A    between atoms: C10_21  and  O5_22 
REMARK    8  A    between atoms: O5_22  and  S2_23 
REMARK    9  A    between atoms: S2_23  and  N4_24 
ROOT
HETATM    1  C1  UNL     1      -4.203   2.294  -0.647  1.00  0.00     0.679 A 
HETATM    2  N2  UNL     1      -5.307   1.513  -0.615  1.00  0.00    -0.156 N 
ATOM      3  H2  UNL     1      -6.231   1.874  -0.851  1.00  0.00     0.187 HD
HETATM    4  C2  UNL     1      -5.112   0.231  -0.253  1.00  0.00     0.274 A 
HETATM    5  O1  UNL     1      -6.108  -0.529  -0.209  1.00  0.00    -0.267 OA
HETATM    6  C3  UNL     1      -3.866  -0.280   0.071  1.00  0.00     0.085 A 
HETATM    7  C4  UNL     1      -3.686  -1.597   0.440  1.00  0.00     0.064 A 
HETATM    8  N3  UNL     1      -4.793  -2.485   0.499  1.00  0.00    -0.101 NA
HETATM    9  C5  UNL     1      -2.437  -2.088   0.759  1.00  0.00     0.029 A 
HETATM   10  C6  UNL     1      -1.323  -1.276   0.721  1.00  0.00     0.028 A 
HETATM   11  C7  UNL     1      -1.501   0.056   0.348  1.00  0.00     0.089 A 
HETATM   12  C11 UNL     1      -2.748   0.550   0.028  1.00  0.00     0.088 A 
HETATM   13  N5  UNL     1      -2.983   1.822  -0.337  1.00  0.00    -0.189 N 
ATOM     14  H5  UNL     1      -2.192   2.465  -0.381  1.00  0.00     0.184 HD
ENDROOT
BRANCH  11  15
HETATM   15  S1  UNL     1      -0.148   1.115   0.280  1.00  0.00     0.199 S 
HETATM   16  O2  UNL     1       0.050   1.748  -1.078  1.00  0.00    -0.220 OA
HETATM   17  O3  UNL     1      -0.353   2.237   1.260  1.00  0.00    -0.220 OA
BRANCH  15  18
HETATM   18  C8  UNL     1       1.381   0.335   0.723  1.00  0.00     0.313 C 
BRANCH  18  19
HETATM   19  O4  UNL     1       1.708  -0.714  -0.083  1.00  0.00    -0.374 OA
BRANCH  19  20
HETATM   20  C9  UNL     1       2.875  -1.329   0.266  1.00  0.00     0.196 C 
BRANCH  20  21
HETATM   21  C10 UNL     1       4.079  -0.421   0.222  1.00  0.00     0.218 C 
BRANCH  21  22
HETATM   22  O5  UNL     1       5.172  -1.240   0.608  1.00  0.00    -0.258 OA
BRANCH  22  23
HETATM   23  S2  UNL     1       6.531  -0.252   0.568  1.00  0.00     0.355 S 
HETATM   24  O6  UNL     1       7.749  -1.067   0.824  1.00  0.00    -0.176 OA
HETATM   25  O7  UNL     1       6.338   0.790   1.650  1.00  0.00    -0.176 OA
BRANCH  23  26
HETATM   26  N4  UNL     1       6.561   0.536  -0.953  1.00  0.00    -0.306 N 
ATOM     27  H42 UNL     1       5.869   0.416  -1.693  1.00  0.00     0.171 HD
ATOM     28  H41 UNL     1       7.386   1.136  -0.977  1.00  0.00     0.171 HD
ENDBRANCH  23  26
ENDBRANCH  22  23
ENDBRANCH  21  22
ENDBRANCH  20  21
ENDBRANCH  19  20
ENDBRANCH  18  19
ENDBRANCH  15  18
ENDBRANCH  11  15
BRANCH   1  29
HETATM   29  N1  UNL     1      -4.377   3.524  -0.992  1.00  0.00    -0.234 N 
ATOM     30  H12 UNL     1      -5.303   3.882  -1.227  1.00  0.00     0.174 HD
ATOM     31  H11 UNL     1      -3.545   4.113  -1.016  1.00  0.00     0.174 HD
ENDBRANCH   1  29
TORSDOF 9
