REMARK  13 active torsions:
REMARK  status: ('A' for Active; 'I' for Inactive)
REMARK    1  A    between atoms: C2_2  and  C3_3 
REMARK    2  A    between atoms: C6_6  and  S1_7 
REMARK    3  A    between atoms: S1_7  and  N1_8 
REMARK    4  A    between atoms: S1_7  and  C7_12 
REMARK    5  A    between atoms: C10_20  and  N4_21 
REMARK    6  A    between atoms: N6_27  and  C12_28 
REMARK    7  A    between atoms: C12_28  and  C13_29 
REMARK    8  A    between atoms: C13_29  and  O3_30 
REMARK    9  A    between atoms: O3_30  and  C14_31 
REMARK   10  A    between atoms: C14_31  and  C15_32 
REMARK   11  A    between atoms: C15_32  and  N7_33 
REMARK   12  A    between atoms: N7_33  and  C16_34 
REMARK   13  A    between atoms: N7_33  and  C18_36 
ROOT
HETATM    1  C7  UNL     1      -1.098   0.135   0.937  1.00  0.00     0.191 A 
HETATM    2  N2  UNL     1      -1.090  -0.100   2.291  1.00  0.00    -0.326 N 
ATOM      3  H2  UNL     1      -1.336   0.589   3.002  1.00  0.00     0.168 HD
HETATM    4  C8  UNL     1      -0.718  -1.348   2.545  1.00  0.00     0.149 A 
HETATM    5  C9  UNL     1      -0.546  -2.101   3.687  1.00  0.00     0.290 A 
HETATM    6  O2  UNL     1      -0.754  -1.576   4.798  1.00  0.00    -0.265 OA
HETATM    7  N3  UNL     1      -0.152  -3.399   3.582  1.00  0.00    -0.154 N 
ATOM      8  H3  UNL     1      -0.027  -3.950   4.431  1.00  0.00     0.187 HD
HETATM    9  C10 UNL     1       0.077  -3.976   2.387  1.00  0.00     0.680 A 
HETATM   10  N5  UNL     1      -0.088  -3.241   1.283  1.00  0.00    -0.174 N 
ATOM     11  H5  UNL     1       0.085  -3.671   0.374  1.00  0.00     0.186 HD
HETATM   12  C11 UNL     1      -0.478  -1.940   1.330  1.00  0.00     0.158 A 
HETATM   13  N6  UNL     1      -0.725  -0.981   0.372  1.00  0.00    -0.306 N 
ENDROOT
BRANCH   1  14
HETATM   14  S1  UNL     1      -1.585   1.659   0.247  1.00  0.00     0.114 S 
HETATM   15  O1  UNL     1      -1.396   2.784   1.246  1.00  0.00    -0.237 OA
BRANCH  14  16
HETATM   16  C6  UNL     1      -3.305   1.556  -0.052  1.00  0.00     0.046 A 
HETATM   17  C5  UNL     1      -3.848   1.160  -1.257  1.00  0.00     0.023 A 
HETATM   18  C4  UNL     1      -5.195   1.070  -1.505  1.00  0.00     0.008 A 
HETATM   19  C3  UNL     1      -6.074   1.388  -0.504  1.00  0.00    -0.058 A 
HETATM   20  C21 UNL     1      -5.569   1.791   0.728  1.00  0.00     0.008 A 
HETATM   21  C20 UNL     1      -4.197   1.874   0.955  1.00  0.00     0.023 A 
BRANCH  19  22
HETATM   22  C2  UNL     1      -7.537   1.315  -0.691  1.00  0.00     0.034 C 
HETATM   23  C1  UNL     1      -8.089   2.625  -1.209  1.00  0.00     0.010 C 
ENDBRANCH  19  22
ENDBRANCH  14  16
BRANCH  14  24
HETATM   24  N1  UNL     1      -0.909   2.044  -1.050  1.00  0.00    -0.350 N 
ATOM     25  H12 UNL     1      -1.386   2.211  -1.936  1.00  0.00     0.166 HD
ATOM     26  H11 UNL     1       0.094   2.104  -0.876  1.00  0.00     0.166 HD
ENDBRANCH  14  24
ENDBRANCH   1  14
BRANCH  13  27
HETATM   27  C12 UNL     1      -0.501  -1.291  -1.030  1.00  0.00     0.159 C 
BRANCH  27  28
HETATM   28  C13 UNL     1       0.978  -1.002  -1.380  1.00  0.00     0.188 C 
BRANCH  28  29
HETATM   29  O3  UNL     1       1.808  -1.699  -0.558  1.00  0.00    -0.388 OA
BRANCH  29  30
HETATM   30  C14 UNL     1       3.155  -1.557  -0.699  1.00  0.00     0.198 C 
BRANCH  30  31
HETATM   31  C15 UNL     1       3.632  -0.137  -0.616  1.00  0.00     0.298 C 
BRANCH  31  32
HETATM   32  N7  UNL     1       5.065   0.019  -0.730  1.00  0.00     0.089 N 
BRANCH  32  33
HETATM   33  C16 UNL     1       5.415   1.415  -0.981  1.00  0.00     0.268 C 
HETATM   34  C17 UNL     1       6.877   1.687  -0.970  1.00  0.00     0.037 C 
ENDBRANCH  32  33
BRANCH  32  35
HETATM   35  C18 UNL     1       5.751  -0.443   0.477  1.00  0.00     0.268 C 
HETATM   36  C19 UNL     1       5.480   0.429   1.675  1.00  0.00     0.037 C 
ENDBRANCH  32  35
ENDBRANCH  31  32
ENDBRANCH  30  31
ENDBRANCH  29  30
ENDBRANCH  28  29
ENDBRANCH  27  28
ENDBRANCH  13  27
BRANCH   9  37
HETATM   37  N4  UNL     1       0.441  -5.223   2.344  1.00  0.00    -0.234 N 
ATOM     38  H42 UNL     1       0.567  -5.784   3.187  1.00  0.00     0.174 HD
ATOM     39  H41 UNL     1       0.614  -5.660   1.439  1.00  0.00     0.174 HD
ENDBRANCH   9  37
TORSDOF 13
