REMARK  12 active torsions:
REMARK  status: ('A' for Active; 'I' for Inactive)
REMARK    1  A    between atoms: N1_2  and  C2_4 
REMARK    2  A    between atoms: C3_7  and  O1_8 
REMARK    3  A    between atoms: O1_8  and  C4_9 
REMARK    4  A    between atoms: C4_9  and  C5_10 
REMARK    5  A    between atoms: C5_10  and  O2_11 
REMARK    6  A    between atoms: C9_15  and  N3_16 
REMARK    7  A    between atoms: C10_18  and  C11_19 
REMARK    8  A    between atoms: C12_20  and  O3_21 
REMARK    9  A    between atoms: O3_21  and  C13_22 
REMARK   10  A    between atoms: C13_22  and  C14_23 
REMARK   11  A    between atoms: C14_23  and  O4_24 
REMARK   12  A    between atoms: O4_24  and  C15_25 
ROOT
HETATM    1  C11 UNL     1      -0.647  -1.841   0.688  1.00  0.00     0.098 A 
HETATM    2  C12 UNL     1      -1.893  -1.370   0.250  1.00  0.00     0.163 A 
HETATM    3  N4  UNL     1      -2.972  -1.919   0.805  1.00  0.00    -0.288 N 
ATOM      4  H4  UNL     1      -3.896  -1.602   0.511  1.00  0.00     0.172 HD
HETATM    5  C22 UNL     1      -2.876  -2.895   1.757  1.00  0.00     0.329 A 
HETATM    6  O5  UNL     1      -3.912  -3.397   2.265  1.00  0.00    -0.247 OA
HETATM    7  N5  UNL     1      -1.695  -3.361   2.191  1.00  0.00    -0.275 N 
ATOM      8  H5  UNL     1      -1.642  -4.090   2.902  1.00  0.00     0.173 HD
HETATM    9  C23 UNL     1      -0.578  -2.827   1.650  1.00  0.00     0.265 A 
HETATM   10  O6  UNL     1       0.518  -3.274   2.071  1.00  0.00    -0.267 OA
ENDROOT
BRANCH   1  11
HETATM   11  C10 UNL     1       0.540  -1.242   0.109  1.00  0.00     0.110 C 
HETATM   12  N3  UNL     1       1.734  -1.621   0.442  1.00  0.00    -0.362 N 
ATOM     13  H3  UNL     1       1.857  -2.365   1.129  1.00  0.00     0.165 HD
BRANCH  12  14
HETATM   14  C9  UNL     1       2.881  -1.001  -0.149  1.00  0.00     0.076 A 
HETATM   15  C2  UNL     1       3.786  -1.736  -0.847  1.00  0.00     0.130 A 
HETATM   16  N2  UNL     1       4.866  -1.102  -1.399  1.00  0.00    -0.322 N 
HETATM   17  C3  UNL     1       5.098   0.222  -1.296  1.00  0.00     0.143 A 
ATOM     18  H2  UNL     1       5.537  -1.666  -1.921  1.00  0.00     0.169 HD
HETATM   19  C7  UNL     1       4.165   0.943  -0.584  1.00  0.00     0.058 A 
HETATM   20  C8  UNL     1       3.067   0.366  -0.010  1.00  0.00     0.038 A 
BRANCH  15  21
HETATM   21  N1  UNL     1       3.743  -2.996  -1.055  1.00  0.00    -0.379 N 
HETATM   22  C1  UNL     1       2.787  -3.937  -0.636  1.00  0.00     0.147 C 
ATOM     23  H1  UNL     1       4.515  -3.374  -1.605  1.00  0.00     0.160 HD
ENDBRANCH  15  21
BRANCH  17  24
HETATM   24  O1  UNL     1       6.226   0.766  -1.888  1.00  0.00    -0.334 OA
BRANCH  24  25
HETATM   25  C4  UNL     1       6.647   2.063  -1.866  1.00  0.00     0.203 C 
BRANCH  25  26
HETATM   26  C5  UNL     1       7.090   2.639  -0.567  1.00  0.00     0.193 C 
BRANCH  26  27
HETATM   27  O2  UNL     1       8.164   2.073   0.057  1.00  0.00    -0.394 OA
HETATM   28  C6  UNL     1       8.097   0.759   0.385  1.00  0.00     0.201 C 
ENDBRANCH  26  27
ENDBRANCH  25  26
ENDBRANCH  24  25
ENDBRANCH  17  24
ENDBRANCH  12  14
ENDBRANCH   1  11
BRANCH   2  29
HETATM   29  O3  UNL     1      -1.954  -0.405  -0.691  1.00  0.00    -0.333 OA
BRANCH  29  30
HETATM   30  C13 UNL     1      -2.081   0.970  -0.502  1.00  0.00     0.204 C 
BRANCH  30  31
HETATM   31  C14 UNL     1      -3.310   1.404   0.222  1.00  0.00     0.202 C 
BRANCH  31  32
HETATM   32  O4  UNL     1      -4.506   1.048  -0.407  1.00  0.00    -0.348 OA
BRANCH  32  33
HETATM   33  C15 UNL     1      -5.696   1.416   0.208  1.00  0.00     0.074 A 
HETATM   34  C16 UNL     1      -5.734   2.109   1.401  1.00  0.00     0.037 A 
HETATM   35  C17 UNL     1      -6.934   2.461   1.990  1.00  0.00     0.003 A 
HETATM   36  C18 UNL     1      -8.135   2.134   1.409  1.00  0.00     0.001 A 
HETATM   37  C19 UNL     1      -8.125   1.439   0.212  1.00  0.00     0.009 A 
HETATM   38  C20 UNL     1      -6.924   1.091  -0.369  1.00  0.00    -0.029 A 
HETATM   39  C21 UNL     1      -6.881   0.352  -1.642  1.00  0.00     0.051 C 
ENDBRANCH  32  33
ENDBRANCH  31  32
ENDBRANCH  30  31
ENDBRANCH  29  30
ENDBRANCH   2  29
TORSDOF 12
