REMARK  18 active torsions:
REMARK  status: ('A' for Active; 'I' for Inactive)
REMARK    1  A    between atoms: C2_2  and  C4_4 
REMARK    2  A    between atoms: C4_4  and  N1_5 
REMARK    3  A    between atoms: N1_5  and  S1_7 
REMARK    4  A    between atoms: S1_7  and  N2_10 
REMARK    5  A    between atoms: N2_10  and  C5_12 
REMARK    6  A    between atoms: C5_12  and  C7_14 
REMARK       I    between atoms: C7_14  and  N3_16 
REMARK    7  A    between atoms: N3_16  and  N4_18 
REMARK    8  A    between atoms: N4_18  and  C9_20 
REMARK    9  A    between atoms: C9_20  and  C10_21 
REMARK   10  A    between atoms: C10_21  and  O4_22 
REMARK   11  A    between atoms: C10_21  and  C11_24 
REMARK   12  A    between atoms: C11_24  and  C12_25 
REMARK   13  A    between atoms: C11_24  and  N5_32 
REMARK   14  A    between atoms: C12_25  and  C13_26 
REMARK       I    between atoms: N5_32  and  C19_34 
REMARK   15  A    between atoms: C19_34  and  C20_36 
REMARK   16  A    between atoms: C20_36  and  C21_37 
REMARK   17  A    between atoms: C20_36  and  N6_44 
REMARK       I    between atoms: N6_44  and  C28_46 
REMARK   18  A    between atoms: C28_46  and  C29_48 
ROOT
HETATM    1  C11 UNL     1      -1.004  -0.733   0.090  1.00  0.00     0.143 C 
ENDROOT
BRANCH   1   2
HETATM    2  C10 UNL     1       0.242  -0.441  -0.704  1.00  0.00     0.083 C 
BRANCH   2   3
HETATM    3  C9  UNL     1       0.902   0.869  -0.607  1.00  0.00     0.143 C 
BRANCH   3   4
HETATM    4  N4  UNL     1       1.907   1.196   0.271  1.00  0.00    -0.303 N 
HETATM    5  C8  UNL     1       1.655   1.370   1.658  1.00  0.00     0.177 C 
BRANCH   4   6
HETATM    6  N3  UNL     1       3.180   0.672   0.135  1.00  0.00    -0.267 N 
HETATM    7  C7  UNL     1       3.836   0.523  -1.104  1.00  0.00     0.259 C 
HETATM    8  O3  UNL     1       3.324   0.839  -2.175  1.00  0.00    -0.269 OA
ATOM      9  H3  UNL     1       3.672   0.377   0.979  1.00  0.00     0.190 HD
BRANCH   7  10
HETATM   10  C5  UNL     1       5.238  -0.047  -1.162  1.00  0.00     0.184 C 
HETATM   11  C6  UNL     1       5.328  -1.405  -0.527  1.00  0.00     0.043 C 
BRANCH  10  12
HETATM   12  N2  UNL     1       5.712  -0.104  -2.507  1.00  0.00    -0.289 N 
ATOM     13  H2  UNL     1       5.277  -0.695  -3.216  1.00  0.00     0.174 HD
BRANCH  12  14
HETATM   14  S1  UNL     1       7.052   0.883  -2.840  1.00  0.00     0.315 S 
HETATM   15  O1  UNL     1       7.010   1.230  -4.321  1.00  0.00    -0.183 OA
HETATM   16  O2  UNL     1       6.965   2.206  -2.089  1.00  0.00    -0.183 OA
BRANCH  14  17
HETATM   17  N1  UNL     1       8.576   0.184  -2.542  1.00  0.00    -0.302 N 
ATOM     18  H1  UNL     1       9.111  -0.336  -3.237  1.00  0.00     0.173 HD
BRANCH  17  19
HETATM   19  C4  UNL     1       9.025   0.418  -1.175  1.00  0.00     0.137 C 
BRANCH  19  20
HETATM   20  C2  UNL     1      10.372  -0.194  -0.921  1.00  0.00    -0.004 C 
HETATM   21  C1  UNL     1      10.389  -1.681  -1.130  1.00  0.00     0.011 C 
HETATM   22  C3  UNL     1      10.770   0.091   0.529  1.00  0.00     0.011 C 
ENDBRANCH  19  20
ENDBRANCH  17  19
ENDBRANCH  14  17
ENDBRANCH  12  14
ENDBRANCH  10  12
ENDBRANCH   7  10
ENDBRANCH   4   6
ENDBRANCH   3   4
ENDBRANCH   2   3
BRANCH   2  23
HETATM   23  O4  UNL     1       1.100  -1.506  -0.894  1.00  0.00    -0.361 OA
ATOM     24  H4  UNL     1       0.673  -2.353  -0.957  1.00  0.00     0.217 HD
ENDBRANCH   2  23
ENDBRANCH   1   2
BRANCH   1  25
HETATM   25  C12 UNL     1      -0.673  -1.559   1.241  1.00  0.00     0.036 C 
BRANCH  25  26
HETATM   26  C13 UNL     1      -1.713  -1.994   2.203  1.00  0.00    -0.012 C 
HETATM   27  C14 UNL     1      -2.834  -2.799   1.646  1.00  0.00     0.005 C 
HETATM   28  C15 UNL     1      -2.412  -4.167   1.146  1.00  0.00     0.000 C 
HETATM   29  C16 UNL     1      -2.024  -5.004   2.348  1.00  0.00     0.000 C 
HETATM   30  C17 UNL     1      -1.821  -4.131   3.542  1.00  0.00     0.000 C 
HETATM   31  C18 UNL     1      -1.065  -2.863   3.285  1.00  0.00     0.005 C 
ENDBRANCH  25  26
ENDBRANCH   1  25
BRANCH   1  32
HETATM   32  N5  UNL     1      -1.728   0.476   0.203  1.00  0.00    -0.348 N 
HETATM   33  C19 UNL     1      -2.841   0.840  -0.621  1.00  0.00     0.244 C 
HETATM   34  O5  UNL     1      -3.164  -0.046  -1.487  1.00  0.00    -0.271 OA
ATOM     35  H5  UNL     1      -1.437   1.137   0.923  1.00  0.00     0.163 HD
BRANCH  33  36
HETATM   36  C20 UNL     1      -3.579   2.107  -0.537  1.00  0.00     0.200 C 
BRANCH  36  37
HETATM   37  C21 UNL     1      -4.144   2.535   0.723  1.00  0.00     0.010 C 
HETATM   38  C22 UNL     1      -5.164   1.889   1.517  1.00  0.00    -0.081 C 
HETATM   39  C23 UNL     1      -4.999   0.524   2.067  1.00  0.00     0.034 C 
HETATM   40  C27 UNL     1      -6.598   2.102   1.009  1.00  0.00     0.034 C 
HETATM   41  C24 UNL     1      -6.043  -0.460   1.557  1.00  0.00     0.004 C 
HETATM   42  C25 UNL     1      -7.444  -0.015   1.836  1.00  0.00     0.001 C 
HETATM   43  C26 UNL     1      -7.476   1.476   2.103  1.00  0.00     0.004 C 
ENDBRANCH  36  37
BRANCH  36  44
HETATM   44  N6  UNL     1      -4.497   2.177  -1.668  1.00  0.00    -0.339 N 
HETATM   45  C28 UNL     1      -4.353   3.059  -2.759  1.00  0.00     0.276 C 
HETATM   46  O6  UNL     1      -3.371   3.834  -2.771  1.00  0.00    -0.265 OA
ATOM     47  H6  UNL     1      -5.298   1.545  -1.670  1.00  0.00     0.164 HD
BRANCH  45  48
HETATM   48  C29 UNL     1      -5.302   3.097  -3.859  1.00  0.00     0.142 A 
HETATM   49  C30 UNL     1      -5.235   3.896  -4.975  1.00  0.00     0.045 A 
HETATM   50  C31 UNL     1      -6.332   3.614  -5.758  1.00  0.00     0.027 A 
HETATM   51  C32 UNL     1      -7.024   2.642  -5.070  1.00  0.00     0.143 A 
HETATM   52  O7  UNL     1      -6.398   2.367  -3.976  1.00  0.00    -0.317 OA
ENDBRANCH  45  48
ENDBRANCH  36  44
ENDBRANCH  33  36
ENDBRANCH   1  32
TORSDOF 18
