REMARK  24 active torsions:
REMARK  status: ('A' for Active; 'I' for Inactive)
REMARK    1  A    between atoms: C2_2  and  C4_4 
REMARK    2  A    between atoms: C4_4  and  C5_5 
REMARK    3  A    between atoms: C5_5  and  N1_6 
REMARK    4  A    between atoms: C5_5  and  C19_30 
REMARK    5  A    between atoms: N1_6  and  C6_8 
REMARK    6  A    between atoms: C6_8  and  O1_9 
REMARK    7  A    between atoms: C6_8  and  C7_11 
REMARK    8  A    between atoms: C7_11  and  N2_12 
REMARK    9  A    between atoms: C7_11  and  C16_27 
REMARK       I    between atoms: N2_12  and  C8_13 
REMARK   10  A    between atoms: C8_13  and  C9_15 
REMARK   11  A    between atoms: C9_15  and  C10_16 
REMARK   12  A    between atoms: C9_15  and  N4_21 
REMARK   13  A    between atoms: C10_16  and  C11_17 
REMARK   14  A    between atoms: C11_17  and  C12_18 
REMARK   15  A    between atoms: N4_21  and  C13_24 
REMARK   16  A    between atoms: C19_30  and  O4_31 
REMARK   17  A    between atoms: N5_33  and  C20_35 
REMARK   18  A    between atoms: C20_35  and  O5_36 
REMARK   19  A    between atoms: C20_35  and  C21_38 
REMARK   20  A    between atoms: C21_38  and  C22_39 
REMARK   21  A    between atoms: C21_38  and  N6_51 
REMARK   22  A    between atoms: C22_39  and  C23_40 
REMARK   23  A    between atoms: C23_40  and  C24_41 
REMARK   24  A    between atoms: N6_51  and  C32_53 
ROOT
HETATM    1  C5  UNL     1       0.998   0.152  -0.547  1.00  0.00     0.158 C 
ENDROOT
BRANCH   1   2
HETATM    2  C4  UNL     1       0.282  -0.477  -1.601  1.00  0.00     0.037 C 
BRANCH   2   3
HETATM    3  C2  UNL     1       0.995  -1.171  -2.718  1.00  0.00    -0.020 C 
HETATM    4  C1  UNL     1       1.816  -2.343  -2.263  1.00  0.00     0.009 C 
HETATM    5  C3  UNL     1       1.921  -0.249  -3.508  1.00  0.00     0.009 C 
ENDBRANCH   2   3
ENDBRANCH   1   2
BRANCH   1   6
HETATM    6  N1  UNL     1       1.883  -0.731   0.258  1.00  0.00    -0.360 N 
ATOM      7  H1  UNL     1       1.489  -1.596   0.628  1.00  0.00     0.162 HD
BRANCH   6   8
HETATM    8  C6  UNL     1       3.199  -0.452   0.534  1.00  0.00     0.149 C 
BRANCH   8   9
HETATM    9  O1  UNL     1       3.662   0.626  -0.026  1.00  0.00    -0.347 OA
ATOM     10  H1  UNL     1       4.572   0.819   0.165  1.00  0.00     0.219 HD
ENDBRANCH   8   9
BRANCH   8  11
HETATM   11  C7  UNL     1       4.152  -1.173   1.372  1.00  0.00     0.244 C 
BRANCH  11  12
HETATM   12  N2  UNL     1       5.379  -0.480   1.451  1.00  0.00    -0.399 NA
HETATM   13  C8  UNL     1       6.542   0.176   1.527  1.00  0.00     0.318 C 
HETATM   14  O2  UNL     1       7.219   0.327   2.611  1.00  0.00    -0.255 OA
BRANCH  13  15
HETATM   15  C9  UNL     1       7.257   0.843   0.374  1.00  0.00     0.292 C 
BRANCH  15  16
HETATM   16  C10 UNL     1       8.212  -0.031  -0.346  1.00  0.00     0.053 C 
BRANCH  16  17
HETATM   17  C11 UNL     1       9.376  -0.552   0.474  1.00  0.00     0.102 C 
BRANCH  17  18
HETATM   18  C12 UNL     1      10.232  -1.357  -0.457  1.00  0.00     0.231 C 
HETATM   19  N3  UNL     1      11.633  -1.406  -0.296  1.00  0.00    -0.062 NA
HETATM   20  O3  UNL     1       9.751  -2.010  -1.413  1.00  0.00    -0.277 OA
ENDBRANCH  17  18
ENDBRANCH  16  17
ENDBRANCH  15  16
BRANCH  15  21
HETATM   21  N4  UNL     1       7.918   2.023   0.911  1.00  0.00    -0.057 N 
ATOM     22  H42 UNL     1       7.915   2.023   1.931  1.00  0.00     0.278 HD
ATOM     23  H41 UNL     1       8.926   1.990   0.758  1.00  0.00     0.278 HD
BRANCH  21  24
HETATM   24  C13 UNL     1       7.337   3.240   0.377  1.00  0.00     0.187 A 
HETATM   25  C14 UNL     1       8.094   4.493   0.586  1.00  0.00     0.035 A 
HETATM   26  C15 UNL     1       8.085   3.882  -0.757  1.00  0.00     0.035 A 
ENDBRANCH  21  24
ENDBRANCH  15  21
ENDBRANCH  13  15
ENDBRANCH  11  12
BRANCH  11  27
HETATM   27  C16 UNL     1       4.346  -2.663   1.097  1.00  0.00     0.021 C 
HETATM   28  C17 UNL     1       3.122  -3.495   1.272  1.00  0.00     0.013 C 
HETATM   29  C18 UNL     1       5.345  -3.229   2.107  1.00  0.00     0.013 C 
ENDBRANCH  11  27
ENDBRANCH   8  11
ENDBRANCH   6   8
ENDBRANCH   1   6
BRANCH   1  30
HETATM   30  C19 UNL     1       0.266   0.958   0.449  1.00  0.00     0.140 C 
HETATM   31  N5  UNL     1      -0.956   1.338   0.868  1.00  0.00    -0.321 N 
ATOM     32  H5  UNL     1      -0.836   2.117   1.516  1.00  0.00     0.169 HD
BRANCH  30  33
HETATM   33  O4  UNL     1       1.233   1.527   1.270  1.00  0.00    -0.348 OA
ATOM     34  H4  UNL     1       0.762   2.046   1.911  1.00  0.00     0.219 HD
ENDBRANCH  30  33
BRANCH  31  35
HETATM   35  C20 UNL     1      -2.307   1.083   0.761  1.00  0.00     0.140 C 
BRANCH  35  36
HETATM   36  O5  UNL     1      -3.023   1.621   1.721  1.00  0.00    -0.348 OA
ATOM     37  H5  UNL     1      -3.954   1.445   1.647  1.00  0.00     0.219 HD
ENDBRANCH  35  36
BRANCH  35  38
HETATM   38  C21 UNL     1      -3.158   0.344  -0.156  1.00  0.00     0.152 C 
BRANCH  38  39
HETATM   39  C22 UNL     1      -4.126   1.240  -0.944  1.00  0.00     0.036 C 
BRANCH  39  40
HETATM   40  C23 UNL     1      -5.070   1.971  -0.031  1.00  0.00     0.037 C 
BRANCH  40  41
HETATM   41  C24 UNL     1      -6.214   2.654  -0.779  1.00  0.00     0.160 C 
HETATM   42  C25 UNL     1      -7.106   3.340   0.222  1.00  0.00     0.038 C 
HETATM   43  C26 UNL     1      -8.027   2.356   0.902  1.00  0.00     0.044 C 
HETATM   44  C27 UNL     1      -8.799   1.558  -0.139  1.00  0.00     0.096 C 
HETATM   45  C28 UNL     1     -10.274   1.943  -0.129  1.00  0.00     0.041 C 
HETATM   46  C31 UNL     1      -8.823   0.107   0.220  1.00  0.00     0.041 C 
HETATM   47  O6  UNL     1      -8.222   1.768  -1.362  1.00  0.00    -0.229 OA
HETATM   48  C29 UNL     1     -10.820   1.141   1.039  1.00  0.00     0.003 C 
HETATM   49  C30 UNL     1      -9.991  -0.107   1.154  1.00  0.00     0.003 C 
HETATM   50  O7  UNL     1      -6.955   1.693  -1.499  1.00  0.00    -0.235 OA
ENDBRANCH  40  41
ENDBRANCH  39  40
ENDBRANCH  38  39
BRANCH  38  51
HETATM   51  N6  UNL     1      -4.072  -0.517   0.608  1.00  0.00    -0.403 N 
ATOM     52  H6  UNL     1      -4.516  -0.178   1.462  1.00  0.00     0.154 HD
BRANCH  51  53
HETATM   53  C32 UNL     1      -4.318  -1.798   0.144  1.00  0.00     0.015 C 
HETATM   54  C33 UNL     1      -5.011  -1.920  -1.188  1.00  0.00     0.037 C 
HETATM   55  C34 UNL     1      -5.209  -2.505   1.176  1.00  0.00     0.037 C 
HETATM   56  C35 UNL     1      -3.067  -2.668   0.042  1.00  0.00     0.037 C 
ENDBRANCH  51  53
ENDBRANCH  38  51
ENDBRANCH  35  38
ENDBRANCH  31  35
ENDBRANCH   1  30
TORSDOF 24
