REMARK  12 active torsions:
REMARK  status: ('A' for Active; 'I' for Inactive)
REMARK    1  A    between atoms: C2_2  and  C3_3 
REMARK    2  A    between atoms: C3_3  and  C4_4 
REMARK    3  A    between atoms: C4_4  and  C5_5 
REMARK    4  A    between atoms: C5_5  and  N1_6 
REMARK    5  A    between atoms: N4_20  and  C14_21 
REMARK    6  A    between atoms: C15_23  and  C16_24 
REMARK    7  A    between atoms: C16_24  and  N5_25 
REMARK       I    between atoms: N5_25  and  C17_27 
REMARK       I    between atoms: C17_27  and  N6_29 
REMARK    8  A    between atoms: N6_29  and  C18_31 
REMARK    9  A    between atoms: C18_31  and  C19_32 
REMARK   10  A    between atoms: C19_32  and  C20_33 
REMARK   11  A    between atoms: C22_35  and  O3_36 
REMARK   12  A    between atoms: C23_38  and  O4_39 
ROOT
HETATM    1  N1  UNL     1      -4.975   1.372   0.932  1.00  0.00    -0.374 N 
ATOM      2  H1  UNL     1      -4.490   1.912   1.649  1.00  0.00     0.161 HD
HETATM    3  C6  UNL     1      -4.279   0.670   0.092  1.00  0.00     0.131 A 
HETATM    4  N2  UNL     1      -4.799  -0.064  -0.873  1.00  0.00    -0.344 N 
ATOM      5  H2  UNL     1      -5.810  -0.111  -1.001  1.00  0.00     0.167 HD
HETATM    6  C7  UNL     1      -3.978  -0.747  -1.682  1.00  0.00     0.015 A 
HETATM    7  C8  UNL     1      -4.576  -1.579  -2.777  1.00  0.00     0.069 C 
HETATM    8  C9  UNL     1      -2.593  -0.731  -1.567  1.00  0.00    -0.010 A 
HETATM    9  C10 UNL     1      -1.732  -1.497  -2.476  1.00  0.00     0.052 C 
HETATM   10  C11 UNL     1      -2.046   0.027  -0.570  1.00  0.00     0.076 A 
HETATM   11  C12 UNL     1      -2.906   0.724   0.254  1.00  0.00     0.105 A 
HETATM   12  N3  UNL     1      -2.121   1.376   1.132  1.00  0.00    -0.347 N 
ATOM     13  H3  UNL     1      -2.443   1.987   1.883  1.00  0.00     0.167 HD
HETATM   14  C13 UNL     1      -0.852   1.086   0.851  1.00  0.00     0.186 A 
HETATM   15  N4  UNL     1      -0.782   0.236  -0.220  1.00  0.00    -0.310 N 
ENDROOT
BRANCH  15  16
HETATM   16  C14 UNL     1       0.456  -0.237  -0.734  1.00  0.00     0.261 C 
HETATM   17  O1  UNL     1       1.346   0.872  -0.648  1.00  0.00    -0.354 OA
HETATM   18  C15 UNL     1       2.448   0.528   0.023  1.00  0.00     0.173 C 
HETATM   19  C22 UNL     1       2.227  -0.714   0.815  1.00  0.00     0.181 C 
HETATM   20  C23 UNL     1       1.071  -1.333   0.123  1.00  0.00     0.198 C 
BRANCH  18  21
HETATM   21  C16 UNL     1       3.605   0.419  -0.947  1.00  0.00     0.159 C 
BRANCH  21  22
HETATM   22  N5  UNL     1       4.835   0.056  -0.331  1.00  0.00    -0.341 N 
HETATM   23  C17 UNL     1       6.002  -0.084  -1.117  1.00  0.00     0.316 C 
HETATM   24  O2  UNL     1       5.955   0.110  -2.347  1.00  0.00    -0.247 OA
HETATM   25  N6  UNL     1       7.269  -0.451  -0.532  1.00  0.00    -0.343 N 
ATOM     26  H6  UNL     1       7.359  -0.622   0.470  1.00  0.00     0.164 HD
ATOM     27  H5  UNL     1       4.875  -0.103   0.676  1.00  0.00     0.164 HD
BRANCH  25  28
HETATM   28  C18 UNL     1       8.384  -0.566  -1.399  1.00  0.00     0.124 C 
BRANCH  28  29
HETATM   29  C19 UNL     1       9.698  -0.910  -0.816  1.00  0.00     0.019 C 
BRANCH  29  30
HETATM   30  C20 UNL     1      10.317   0.031   0.144  1.00  0.00    -0.003 C 
HETATM   31  C21 UNL     1       9.579   0.319   1.399  1.00  0.00     0.005 C 
ENDBRANCH  29  30
ENDBRANCH  28  29
ENDBRANCH  25  28
ENDBRANCH  21  22
ENDBRANCH  18  21
BRANCH  19  32
HETATM   32  O3  UNL     1       1.941  -0.472   2.156  1.00  0.00    -0.390 OA
ATOM     33  H3  UNL     1       1.800  -1.264   2.661  1.00  0.00     0.210 HD
ENDBRANCH  19  32
BRANCH  20  34
HETATM   34  O4  UNL     1       1.463  -2.430  -0.671  1.00  0.00    -0.388 OA
ATOM     35  H4  UNL     1       1.847  -3.114  -0.136  1.00  0.00     0.210 HD
ENDBRANCH  20  34
ENDBRANCH  15  16
BRANCH   1  36
HETATM   36  C5  UNL     1      -6.444   1.410   0.878  1.00  0.00     0.121 C 
BRANCH  36  37
HETATM   37  C4  UNL     1      -7.054   0.286   1.616  1.00  0.00     0.020 C 
BRANCH  37  38
HETATM   38  C3  UNL     1      -8.513   0.132   1.644  1.00  0.00     0.001 C 
BRANCH  38  39
HETATM   39  C2  UNL     1      -9.365   1.191   2.213  1.00  0.00    -0.004 C 
HETATM   40  C1  UNL     1      -9.323   2.522   1.527  1.00  0.00     0.005 C 
ENDBRANCH  38  39
ENDBRANCH  37  38
ENDBRANCH  36  37
ENDBRANCH   1  36
TORSDOF 12
