REMARK  14 active torsions:
REMARK  status: ('A' for Active; 'I' for Inactive)
REMARK    1  A    between atoms: S1_2  and  N1_4 
REMARK    2  A    between atoms: S1_2  and  C19_32 
REMARK    3  A    between atoms: N1_4  and  C1_6 
REMARK    4  A    between atoms: C1_6  and  O3_7 
REMARK    5  A    between atoms: C1_6  and  C2_9 
REMARK    6  A    between atoms: C2_9  and  O4_10 
REMARK    7  A    between atoms: C2_9  and  C3_12 
REMARK    8  A    between atoms: C3_12  and  O5_13 
REMARK    9  A    between atoms: C3_12  and  C4_15 
REMARK   10  A    between atoms: C4_15  and  O6_16 
REMARK   11  A    between atoms: C4_15  and  C5_18 
REMARK   12  A    between atoms: C5_18  and  C6_19 
REMARK   13  A    between atoms: C6_19  and  C7_20 
REMARK   14  A    between atoms: C6_19  and  C13_26 
ROOT
HETATM    1  C3  UNL     1       0.882   0.853  -0.797  1.00  0.00     0.179 C 
ENDROOT
BRANCH   1   2
HETATM    2  C2  UNL     1       1.541   0.616   0.516  1.00  0.00     0.198 C 
BRANCH   2   3
HETATM    3  C1  UNL     1       3.057   0.804   0.340  1.00  0.00     0.259 C 
BRANCH   3   4
HETATM    4  N1  UNL     1       3.673   0.607   1.610  1.00  0.00    -0.285 N 
ATOM      5  H1  UNL     1       3.509   1.221   2.407  1.00  0.00     0.175 HD
BRANCH   4   6
HETATM    6  S1  UNL     1       4.713  -0.751   1.680  1.00  0.00     0.267 S 
HETATM    7  O1  UNL     1       4.032  -2.046   1.445  1.00  0.00    -0.200 OA
HETATM    8  O2  UNL     1       5.333  -0.789   3.053  1.00  0.00    -0.200 OA
BRANCH   6   9
HETATM    9  C19 UNL     1       6.058  -0.585   0.540  1.00  0.00     0.120 A 
HETATM   10  C20 UNL     1       6.341  -1.438  -0.494  1.00  0.00     0.033 A 
HETATM   11  C21 UNL     1       7.407  -1.148  -1.256  1.00  0.00     0.009 A 
HETATM   12  C22 UNL     1       8.121  -0.021  -0.933  1.00  0.00     0.051 A 
HETATM   13  S2  UNL     1       7.280   0.589   0.418  1.00  0.00    -0.088 SA
ENDBRANCH   6   9
ENDBRANCH   4   6
ENDBRANCH   3   4
BRANCH   3  14
HETATM   14  O3  UNL     1       3.345   2.038  -0.233  1.00  0.00    -0.373 OA
ATOM     15  H3  UNL     1       2.934   2.169  -1.080  1.00  0.00     0.212 HD
ENDBRANCH   3  14
ENDBRANCH   2   3
BRANCH   2  16
HETATM   16  O4  UNL     1       1.042   1.536   1.429  1.00  0.00    -0.388 OA
ATOM     17  H4  UNL     1       0.105   1.420   1.538  1.00  0.00     0.210 HD
ENDBRANCH   2  16
ENDBRANCH   1   2
BRANCH   1  18
HETATM   18  O5  UNL     1       1.253   0.016  -1.818  1.00  0.00    -0.390 OA
ATOM     19  H5  UNL     1       0.832   0.167  -2.656  1.00  0.00     0.210 HD
ENDBRANCH   1  18
BRANCH   1  20
HETATM   20  C4  UNL     1      -0.657   0.810  -0.708  1.00  0.00     0.150 C 
BRANCH  20  21
HETATM   21  O6  UNL     1      -1.115   1.242  -1.910  1.00  0.00    -0.393 OA
ATOM     22  H6  UNL     1      -2.063   1.216  -1.855  1.00  0.00     0.210 HD
ENDBRANCH  20  21
BRANCH  20  23
HETATM   23  C5  UNL     1      -1.020  -0.530  -0.227  1.00  0.00     0.048 C 
BRANCH  23  24
HETATM   24  C6  UNL     1      -2.434  -0.907  -0.055  1.00  0.00     0.054 C 
BRANCH  24  25
HETATM   25  C7  UNL     1      -3.316  -0.925  -1.208  1.00  0.00    -0.050 A 
HETATM   26  C8  UNL     1      -2.931  -1.148  -2.510  1.00  0.00     0.008 A 
HETATM   27  C9  UNL     1      -3.827  -1.149  -3.539  1.00  0.00     0.001 A 
HETATM   28  C10 UNL     1      -5.174  -0.928  -3.345  1.00  0.00     0.000 A 
HETATM   29  C11 UNL     1      -5.581  -0.705  -2.062  1.00  0.00     0.001 A 
HETATM   30  C12 UNL     1      -4.664  -0.704  -1.005  1.00  0.00     0.008 A 
ENDBRANCH  24  25
BRANCH  24  31
HETATM   31  C13 UNL     1      -3.097  -0.159   1.059  1.00  0.00    -0.050 A 
HETATM   32  C14 UNL     1      -3.450  -0.754   2.263  1.00  0.00     0.008 A 
HETATM   33  C15 UNL     1      -4.061  -0.071   3.273  1.00  0.00     0.001 A 
HETATM   34  C16 UNL     1      -4.360   1.262   3.142  1.00  0.00     0.000 A 
HETATM   35  C17 UNL     1      -4.024   1.885   1.961  1.00  0.00     0.001 A 
HETATM   36  C18 UNL     1      -3.407   1.177   0.950  1.00  0.00     0.008 A 
ENDBRANCH  24  31
ENDBRANCH  23  24
ENDBRANCH  20  23
ENDBRANCH   1  20
TORSDOF 14
