REMARK  14 active torsions:
REMARK  status: ('A' for Active; 'I' for Inactive)
REMARK    1  A    between atoms: C2_2  and  N6_27 
REMARK    2  A    between atoms: N1_3  and  C3_5 
REMARK    3  A    between atoms: C3_5  and  C4_6 
REMARK    4  A    between atoms: C4_6  and  N2_7 
REMARK    5  A    between atoms: N2_7  and  C5_8 
REMARK    6  A    between atoms: C6_11  and  C7_12 
REMARK    7  A    between atoms: C10_15  and  O1_16 
REMARK    8  A    between atoms: O1_16  and  C11_17 
REMARK    9  A    between atoms: N6_27  and  C18_29 
REMARK   10  A    between atoms: C20_33  and  N8_34 
REMARK   11  A    between atoms: N8_34  and  C21_36 
REMARK   12  A    between atoms: C21_36  and  C22_37 
REMARK   13  A    between atoms: C22_37  and  C23_38 
REMARK   14  A    between atoms: C23_38  and  N9_39 
ROOT
HETATM    1  C11 UNL     1       9.956   1.363  -2.590  1.00  0.00     0.299 C 
HETATM    2  C12 UNL     1      10.797   1.093  -1.454  1.00  0.00     0.085 C 
HETATM    3  N4  UNL     1      11.481   0.859  -0.552  1.00  0.00    -0.195 NA
ENDROOT
BRANCH   1   4
HETATM    4  O1  UNL     1       8.790   0.617  -2.634  1.00  0.00    -0.338 OA
BRANCH   4   5
HETATM    5  C10 UNL     1       7.762   0.577  -1.722  1.00  0.00     0.070 A 
HETATM    6  C9  UNL     1       6.691  -0.265  -1.999  1.00  0.00     0.038 A 
HETATM    7  C8  UNL     1       5.620  -0.365  -1.138  1.00  0.00     0.018 A 
HETATM    8  C7  UNL     1       5.565   0.365   0.035  1.00  0.00     0.008 A 
HETATM    9  C14 UNL     1       6.617   1.193   0.309  1.00  0.00     0.018 A 
HETATM   10  C13 UNL     1       7.712   1.302  -0.563  1.00  0.00     0.038 A 
BRANCH   8  11
HETATM   11  C6  UNL     1       4.418   0.245   0.948  1.00  0.00     0.117 A 
HETATM   12  N3  UNL     1       3.422  -0.591   0.643  1.00  0.00    -0.316 N 
HETATM   13  C5  UNL     1       2.308  -0.783   1.426  1.00  0.00     0.186 A 
ATOM     14  H3  UNL     1       3.492  -1.121  -0.226  1.00  0.00     0.170 HD
HETATM   15  C16 UNL     1       2.218  -0.050   2.623  1.00  0.00     0.012 A 
HETATM   16  C15 UNL     1       3.248   0.800   2.916  1.00  0.00     0.101 A 
HETATM   17  C17 UNL     1       1.053  -0.193   3.537  1.00  0.00     0.055 C 
HETATM   18  N5  UNL     1       4.303   0.929   2.092  1.00  0.00    -0.351 N 
ATOM     19  H5  UNL     1       5.048   1.576   2.350  1.00  0.00     0.166 HD
BRANCH  13  20
HETATM   20  N2  UNL     1       1.412  -1.543   1.151  1.00  0.00    -0.402 NA
BRANCH  20  21
HETATM   21  C4  UNL     1       0.550  -2.430   0.654  1.00  0.00     0.177 C 
BRANCH  21  22
HETATM   22  C3  UNL     1      -0.936  -2.085   0.739  1.00  0.00     0.180 C 
BRANCH  22  23
HETATM   23  N1  UNL     1      -1.252  -0.871   0.023  1.00  0.00    -0.374 N 
HETATM   24  C2  UNL     1      -2.085  -0.003   0.487  1.00  0.00     0.074 C 
HETATM   25  C1  UNL     1      -2.772  -0.198   1.790  1.00  0.00     0.089 C 
ATOM     26  H1  UNL     1      -0.803  -0.695  -0.876  1.00  0.00     0.161 HD
BRANCH  24  27
HETATM   27  N6  UNL     1      -2.388   1.189  -0.244  1.00  0.00    -0.331 N 
ATOM     28  H6  UNL     1      -1.741   1.977  -0.241  1.00  0.00     0.168 HD
BRANCH  27  29
HETATM   29  C18 UNL     1      -3.602   1.257  -0.972  1.00  0.00     0.138 A 
HETATM   30  C19 UNL     1      -4.019   2.334  -1.715  1.00  0.00     0.155 A 
HETATM   31  N7  UNL     1      -5.210   2.037  -2.259  1.00  0.00    -0.198 N 
HETATM   32  C20 UNL     1      -5.546   0.783  -1.868  1.00  0.00     0.679 A 
ATOM     33  H7  UNL     1      -5.764   2.647  -2.860  1.00  0.00     0.183 HD
HETATM   34  N10 UNL     1      -4.559   0.317  -1.083  1.00  0.00    -0.175 N 
ATOM     35  H10 UNL     1      -4.539  -0.602  -0.642  1.00  0.00     0.186 HD
BRANCH  32  36
HETATM   36  N8  UNL     1      -6.640   0.186  -2.217  1.00  0.00    -0.226 N 
ATOM     37  H8  UNL     1      -7.302   0.671  -2.823  1.00  0.00     0.177 HD
BRANCH  36  38
HETATM   38  C21 UNL     1      -6.942  -1.147  -1.769  1.00  0.00     0.139 C 
BRANCH  38  39
HETATM   39  C22 UNL     1      -8.415  -1.220  -1.411  1.00  0.00     0.047 C 
BRANCH  39  40
HETATM   40  C23 UNL     1      -8.768  -0.257  -0.321  1.00  0.00     0.231 C 
BRANCH  40  41
HETATM   41  N9  UNL     1      -7.992  -0.570   0.864  1.00  0.00    -0.079 N 
ATOM     42  H93 UNL     1      -8.104  -1.541   1.155  1.00  0.00     0.274 HD
ATOM     43  H92 UNL     1      -6.990  -0.591   0.676  1.00  0.00     0.274 HD
ATOM     44  H91 UNL     1      -8.233   0.086   1.607  1.00  0.00     0.274 HD
ENDBRANCH  40  41
ENDBRANCH  39  40
ENDBRANCH  38  39
ENDBRANCH  36  38
ENDBRANCH  32  36
ENDBRANCH  27  29
ENDBRANCH  24  27
ENDBRANCH  22  23
ENDBRANCH  21  22
ENDBRANCH  20  21
ENDBRANCH  13  20
ENDBRANCH   8  11
ENDBRANCH   4   5
ENDBRANCH   1   4
TORSDOF 14
