REMARK  16 active torsions:
REMARK  status: ('A' for Active; 'I' for Inactive)
REMARK    1  A    between atoms: O1_2  and  C2_3 
REMARK    2  A    between atoms: C2_3  and  C3_4 
REMARK    3  A    between atoms: C4_5  and  O2_6 
REMARK    4  A    between atoms: C6_9  and  O3_10 
REMARK    5  A    between atoms: C7_12  and  C8_13 
REMARK    6  A    between atoms: C9_14  and  C10_15 
REMARK    7  A    between atoms: C10_15  and  C11_16 
REMARK    8  A    between atoms: C11_16  and  O4_17 
REMARK    9  A    between atoms: C11_16  and  C12_19 
REMARK   10  A    between atoms: C12_19  and  O5_20 
REMARK   11  A    between atoms: C12_19  and  C13_22 
REMARK   12  A    between atoms: C13_22  and  C14_24 
REMARK   13  A    between atoms: C14_24  and  C16_26 
REMARK   14  A    between atoms: C16_26  and  C18_28 
REMARK   15  A    between atoms: C18_28  and  C19_29 
REMARK   16  A    between atoms: C24_34  and  O7_35 
ROOT
HETATM    1  C12 UNL     1      -0.348  -0.320  -0.888  1.00  0.00     0.216 C 
ENDROOT
BRANCH   1   2
HETATM    2  C11 UNL     1      -1.058  -0.938   0.308  1.00  0.00     0.157 C 
BRANCH   2   3
HETATM    3  C10 UNL     1      -2.079  -0.042   0.928  1.00  0.00     0.061 C 
BRANCH   3   4
HETATM    4  C9  UNL     1      -3.288   0.167   0.117  1.00  0.00    -0.027 C 
HETATM    5  C8  UNL     1      -4.502  -0.163   0.534  1.00  0.00    -0.023 C 
BRANCH   5   6
HETATM    6  C7  UNL     1      -5.709   0.050  -0.287  1.00  0.00     0.045 C 
HETATM    7  C3  UNL     1      -6.740   0.777   0.535  1.00  0.00     0.048 C 
HETATM    8  C4  UNL     1      -7.205  -0.283   1.503  1.00  0.00     0.127 C 
HETATM    9  C5  UNL     1      -7.154  -1.566   0.729  1.00  0.00     0.064 C 
HETATM   10  C6  UNL     1      -6.364  -1.294  -0.523  1.00  0.00     0.128 C 
BRANCH   7  11
HETATM   11  C2  UNL     1      -7.916   1.149  -0.346  1.00  0.00     0.174 C 
BRANCH  11  12
HETATM   12  O1  UNL     1      -7.496   2.131  -1.248  1.00  0.00    -0.395 OA
HETATM   13  C1  UNL     1      -8.544   2.507  -2.080  1.00  0.00     0.201 C 
ENDBRANCH  11  12
ENDBRANCH   7  11
BRANCH   8  14
HETATM   14  O2  UNL     1      -8.522  -0.011   1.941  1.00  0.00    -0.395 OA
ATOM     15  H2  UNL     1      -8.815  -0.678   2.550  1.00  0.00     0.210 HD
ENDBRANCH   8  14
BRANCH  10  16
HETATM   16  O3  UNL     1      -5.307  -2.220  -0.657  1.00  0.00    -0.395 OA
ATOM     17  H3  UNL     1      -4.808  -2.048  -1.447  1.00  0.00     0.210 HD
ENDBRANCH  10  16
ENDBRANCH   5   6
ENDBRANCH   3   4
ENDBRANCH   2   3
BRANCH   2  18
HETATM   18  O4  UNL     1      -1.491  -2.218   0.037  1.00  0.00    -0.392 OA
ATOM     19  H4  UNL     1      -0.841  -2.788  -0.357  1.00  0.00     0.210 HD
ENDBRANCH   2  18
ENDBRANCH   1   2
BRANCH   1  20
HETATM   20  O5  UNL     1      -1.224  -0.273  -1.990  1.00  0.00    -0.385 OA
ATOM     21  H5  UNL     1      -0.781   0.113  -2.737  1.00  0.00     0.210 HD
ENDBRANCH   1  20
BRANCH   1  22
HETATM   22  C13 UNL     1       0.818  -1.162  -1.168  1.00  0.00     0.162 C 
HETATM   23  O6  UNL     1       0.835  -1.707  -2.286  1.00  0.00    -0.295 OA
BRANCH  22  24
HETATM   24  C14 UNL     1       1.924  -1.403  -0.267  1.00  0.00     0.058 C 
HETATM   25  C15 UNL     1       2.825  -2.514  -0.874  1.00  0.00     0.018 C 
BRANCH  24  26
HETATM   26  C16 UNL     1       2.841  -0.235   0.023  1.00  0.00    -0.007 C 
HETATM   27  C17 UNL     1       2.217   0.945   0.644  1.00  0.00     0.011 C 
BRANCH  26  28
HETATM   28  C18 UNL     1       4.059  -0.761   0.711  1.00  0.00     0.010 C 
BRANCH  28  29
HETATM   29  C19 UNL     1       5.109   0.229   1.101  1.00  0.00    -0.004 C 
HETATM   30  C20 UNL     1       6.226  -0.541   1.765  1.00  0.00     0.032 C 
HETATM   31  C21 UNL     1       7.572  -0.294   1.255  1.00  0.00    -0.021 C 
HETATM   32  C22 UNL     1       7.893   0.830   0.661  1.00  0.00    -0.059 C 
HETATM   33  C23 UNL     1       9.269   1.072   0.146  1.00  0.00     0.046 C 
HETATM   34  C24 UNL     1       6.837   1.867   0.501  1.00  0.00     0.150 C 
HETATM   35  C25 UNL     1       5.582   1.117   0.002  1.00  0.00     0.019 C 
HETATM   36  C26 UNL     1       5.915   0.428  -1.268  1.00  0.00     0.013 C 
BRANCH  34  37
HETATM   37  O7  UNL     1       7.185   2.828  -0.429  1.00  0.00    -0.391 OA
ATOM     38  H7  UNL     1       6.511   3.490  -0.531  1.00  0.00     0.210 HD
ENDBRANCH  34  37
ENDBRANCH  28  29
ENDBRANCH  26  28
ENDBRANCH  24  26
ENDBRANCH  22  24
ENDBRANCH   1  22
TORSDOF 16
