REMARK  12 active torsions:
REMARK  status: ('A' for Active; 'I' for Inactive)
REMARK    1  A    between atoms: C5_5  and  N1_6 
REMARK    2  A    between atoms: N1_6  and  C6_8 
REMARK    3  A    between atoms: C6_8  and  C7_9 
REMARK    4  A    between atoms: C7_9  and  C8_10 
REMARK    5  A    between atoms: C8_10  and  N2_11 
REMARK    6  A    between atoms: C13_20  and  O2_21 
REMARK    7  A    between atoms: O2_21  and  C14_22 
REMARK    8  A    between atoms: C14_22  and  C15_23 
REMARK    9  A    between atoms: C15_23  and  N4_24 
REMARK   10  A    between atoms: N4_24  and  C16_27 
REMARK   11  A    between atoms: C16_27  and  C17_28 
REMARK   12  A    between atoms: C20_32  and  O3_33 
ROOT
HETATM    1  N2  UNL     1      -3.072   1.818   0.362  1.00  0.00    -0.226 N 
ATOM      2  H2  UNL     1      -3.864   1.543  -0.219  1.00  0.00     0.177 HD
HETATM    3  C9  UNL     1      -1.894   1.402   0.043  1.00  0.00     0.681 A 
HETATM    4  N3  UNL     1      -1.749   0.605  -1.064  1.00  0.00    -0.155 N 
ATOM      5  H3  UNL     1      -2.587   0.365  -1.594  1.00  0.00     0.187 HD
HETATM    6  C10 UNL     1      -0.583   0.125  -1.489  1.00  0.00     0.272 A 
HETATM    7  O1  UNL     1      -0.485  -0.608  -2.514  1.00  0.00    -0.267 OA
HETATM    8  C11 UNL     1       0.568   0.424  -0.803  1.00  0.00     0.065 A 
HETATM    9  C12 UNL     1       1.823  -0.017  -1.170  1.00  0.00     0.057 A 
HETATM   10  C13 UNL     1       2.969   0.303  -0.475  1.00  0.00     0.078 A 
HETATM   11  C18 UNL     1       2.796   1.119   0.653  1.00  0.00     0.007 A 
HETATM   12  C19 UNL     1       4.008   1.479   1.416  1.00  0.00     0.054 C 
HETATM   13  C20 UNL     1       1.571   1.576   1.051  1.00  0.00     0.102 A 
HETATM   14  C21 UNL     1       0.435   1.223   0.310  1.00  0.00     0.098 A 
HETATM   15  N5  UNL     1      -0.766   1.689   0.706  1.00  0.00    -0.188 N 
ATOM     16  H5  UNL     1      -0.818   2.279   1.537  1.00  0.00     0.184 HD
ENDROOT
BRANCH   1  17
HETATM   17  C8  UNL     1      -3.308   2.647   1.494  1.00  0.00     0.139 C 
BRANCH  17  18
HETATM   18  C7  UNL     1      -3.512   1.857   2.779  1.00  0.00     0.040 C 
BRANCH  18  19
HETATM   19  C6  UNL     1      -4.720   0.972   2.613  1.00  0.00     0.123 C 
BRANCH  19  20
HETATM   20  N1  UNL     1      -4.509   0.064   1.540  1.00  0.00    -0.376 N 
ATOM     21  H1  UNL     1      -3.548  -0.239   1.385  1.00  0.00     0.161 HD
BRANCH  20  22
HETATM   22  C5  UNL     1      -5.397  -0.418   0.742  1.00  0.00     0.100 A 
HETATM   23  C4  UNL     1      -5.034  -1.300  -0.262  1.00  0.00     0.049 A 
HETATM   24  C3  UNL     1      -5.952  -1.839  -1.159  1.00  0.00     0.012 A 
HETATM   25  C2  UNL     1      -7.284  -1.494  -1.063  1.00  0.00    -0.046 A 
HETATM   26  C1  UNL     1      -8.340  -2.014  -1.982  1.00  0.00     0.049 C 
HETATM   27  C22 UNL     1      -7.625  -0.614  -0.056  1.00  0.00     0.096 A 
HETATM   28  N6  UNL     1      -6.698  -0.102   0.810  1.00  0.00    -0.352 N 
ATOM     29  H6  UNL     1      -7.009   0.545   1.535  1.00  0.00     0.166 HD
ENDBRANCH  20  22
ENDBRANCH  19  20
ENDBRANCH  18  19
ENDBRANCH  17  18
ENDBRANCH   1  17
BRANCH  13  30
HETATM   30  O3  UNL     1       1.420   2.395   2.190  1.00  0.00    -0.358 OA
ATOM     31  H3  UNL     1       0.568   2.713   2.467  1.00  0.00     0.217 HD
ENDBRANCH  13  30
BRANCH  10  32
HETATM   32  O2  UNL     1       4.233  -0.119  -0.817  1.00  0.00    -0.349 OA
BRANCH  32  33
HETATM   33  C14 UNL     1       4.410  -0.950  -1.957  1.00  0.00     0.203 C 
BRANCH  33  34
HETATM   34  C15 UNL     1       5.905  -1.248  -2.112  1.00  0.00     0.259 C 
BRANCH  34  35
HETATM   35  N4  UNL     1       6.288  -1.913  -0.887  1.00  0.00    -0.072 N 
ATOM     36  H42 UNL     1       5.976  -1.380  -0.076  1.00  0.00     0.277 HD
ATOM     37  H41 UNL     1       5.741  -2.764  -0.754  1.00  0.00     0.277 HD
BRANCH  35  38
HETATM   38  C16 UNL     1       7.708  -2.198  -0.796  1.00  0.00     0.243 C 
BRANCH  38  39
HETATM   39  C17 UNL     1       8.463  -0.888  -0.661  1.00  0.00     0.113 C 
HETATM   40  S1  UNL     1      10.241  -1.181  -0.522  1.00  0.00    -0.096 SA
ENDBRANCH  38  39
ENDBRANCH  35  38
ENDBRANCH  34  35
ENDBRANCH  33  34
ENDBRANCH  32  33
ENDBRANCH  10  32
TORSDOF 12
