REMARK  15 active torsions:
REMARK  status: ('A' for Active; 'I' for Inactive)
REMARK    1  A    between atoms: C2_2  and  C3_3 
REMARK    2  A    between atoms: C2_2  and  C16_21 
REMARK    3  A    between atoms: C3_3  and  C4_4 
REMARK    4  A    between atoms: C4_4  and  C5_5 
REMARK    5  A    between atoms: C9_10  and  O2_11 
REMARK    6  A    between atoms: C14_17  and  C15_18 
REMARK    7  A    between atoms: C17_22  and  O5_23 
REMARK    8  A    between atoms: C18_26  and  C19_27 
REMARK    9  A    between atoms: C19_27  and  C20_28 
REMARK   10  A    between atoms: C20_28  and  O7_29 
REMARK   11  A    between atoms: C20_28  and  C21_31 
REMARK   12  A    between atoms: C21_31  and  C22_32 
REMARK   13  A    between atoms: C22_32  and  C23_33 
REMARK   14  A    between atoms: C23_33  and  C24_34 
REMARK   15  A    between atoms: C24_34  and  O8_35 
ROOT
HETATM    1  C1  UNL     1       1.000   1.220   2.114  1.00  0.00     0.019 C 
HETATM    2  C2  UNL     1       0.456   0.519   1.205  1.00  0.00    -0.056 C 
ENDROOT
BRANCH   2   3
HETATM    3  C3  UNL     1      -0.773   0.810   0.539  1.00  0.00     0.007 C 
BRANCH   3   4
HETATM    4  C4  UNL     1      -1.388   0.129  -0.396  1.00  0.00     0.013 C 
BRANCH   4   5
HETATM    5  C5  UNL     1      -2.629   0.522  -1.000  1.00  0.00     0.011 C 
HETATM    6  C6  UNL     1      -3.488  -0.204   0.283  1.00  0.00     0.163 C 
HETATM    7  O1  UNL     1      -3.181   0.091   1.382  1.00  0.00    -0.292 OA
HETATM    8  C7  UNL     1      -4.428  -1.056  -0.392  1.00  0.00     0.092 C 
HETATM    9  C8  UNL     1      -3.902  -2.441  -0.710  1.00  0.00     0.021 C 
HETATM   10  C9  UNL     1      -4.809  -0.270  -1.611  1.00  0.00     0.091 C 
HETATM   11  C10 UNL     1      -5.962   0.636  -1.261  1.00  0.00     0.051 C 
HETATM   12  C14 UNL     1      -3.821   0.900  -1.579  1.00  0.00     0.117 C 
HETATM   13  C11 UNL     1      -4.919   1.742  -1.057  1.00  0.00    -0.020 C 
HETATM   14  C12 UNL     1      -5.362   2.888  -2.013  1.00  0.00     0.016 C 
HETATM   15  C13 UNL     1      -4.932   2.291   0.320  1.00  0.00     0.016 C 
BRANCH  10  16
HETATM   16  O2  UNL     1      -4.912  -0.973  -2.772  1.00  0.00    -0.387 OA
ATOM     17  H2  UNL     1      -5.153  -0.475  -3.544  1.00  0.00     0.210 HD
ENDBRANCH  10  16
BRANCH  12  18
HETATM   18  C15 UNL     1      -3.620   1.388  -3.052  1.00  0.00     0.190 C 
HETATM   19  O3  UNL     1      -3.140   2.533  -3.165  1.00  0.00    -0.647 OA
HETATM   20  O4  UNL     1      -3.935   0.630  -4.134  1.00  0.00    -0.647 OA
ENDBRANCH  12  18
ENDBRANCH   4   5
ENDBRANCH   3   4
ENDBRANCH   2   3
BRANCH   2  21
HETATM   21  C16 UNL     1       1.156  -0.763   0.784  1.00  0.00     0.102 C 
HETATM   22  C17 UNL     1       0.703  -1.952   1.599  1.00  0.00     0.268 C 
HETATM   23  O6  UNL     1       1.829  -1.876   2.417  1.00  0.00    -0.354 OA
HETATM   24  C18 UNL     1       2.439  -1.024   1.493  1.00  0.00     0.140 C 
BRANCH  22  25
HETATM   25  O5  UNL     1      -0.430  -1.717   2.379  1.00  0.00    -0.370 OA
ATOM     26  H5  UNL     1      -0.715  -2.465   2.891  1.00  0.00     0.212 HD
ENDBRANCH  22  25
BRANCH  24  27
HETATM   27  C19 UNL     1       3.448  -1.841   0.706  1.00  0.00     0.064 C 
BRANCH  27  28
HETATM   28  C20 UNL     1       4.720  -2.049   1.481  1.00  0.00     0.120 C 
BRANCH  28  29
HETATM   29  O7  UNL     1       4.518  -2.711   2.690  1.00  0.00    -0.395 OA
ATOM     30  H7  UNL     1       5.321  -2.842   3.180  1.00  0.00     0.210 HD
ENDBRANCH  28  29
BRANCH  28  31
HETATM   31  C21 UNL     1       5.596  -0.844   1.586  1.00  0.00     0.032 C 
BRANCH  31  32
HETATM   32  C22 UNL     1       6.048  -0.357   0.218  1.00  0.00     0.004 C 
BRANCH  32  33
HETATM   33  C23 UNL     1       6.934   0.865   0.331  1.00  0.00     0.026 C 
BRANCH  33  34
HETATM   34  C24 UNL     1       8.184   0.620   1.152  1.00  0.00     0.164 C 
BRANCH  34  35
HETATM   35  O8  UNL     1       8.946   1.778   1.189  1.00  0.00    -0.401 OA
ATOM     36  H8  UNL     1       9.730   1.624   1.704  1.00  0.00     0.209 HD
ENDBRANCH  34  35
ENDBRANCH  33  34
ENDBRANCH  32  33
ENDBRANCH  31  32
ENDBRANCH  28  31
ENDBRANCH  27  28
ENDBRANCH  24  27
ENDBRANCH   2  21
TORSDOF 15
