REMARK  15 active torsions:
REMARK  status: ('A' for Active; 'I' for Inactive)
REMARK    1  A    between atoms: C3_3  and  C4_4 
REMARK    2  A    between atoms: C5_5  and  C6_6 
REMARK    3  A    between atoms: C6_6  and  O1_7 
REMARK    4  A    between atoms: C6_6  and  C7_9 
REMARK    5  A    between atoms: C9_11  and  O2_12 
REMARK    6  A    between atoms: C10_14  and  C11_15 
REMARK    7  A    between atoms: C11_15  and  C12_16 
REMARK    8  A    between atoms: C13_17  and  O3_18 
REMARK    9  A    between atoms: N2_25  and  C17_27 
REMARK   10  A    between atoms: C17_27  and  C18_28 
REMARK   11  A    between atoms: C18_28  and  C19_29 
REMARK   12  A    between atoms: C19_29  and  C20_30 
REMARK   13  A    between atoms: C20_30  and  O4_31 
REMARK   14  A    between atoms: C21_33  and  O5_34 
REMARK   15  A    between atoms: C23_36  and  C24_37 
ROOT
HETATM    1  C1  UNL     1      -3.545  -1.646   2.443  1.00  0.00     0.025 C 
HETATM    2  C2  UNL     1      -2.486  -1.607   1.622  1.00  0.00    -0.016 A 
HETATM    3  C3  UNL     1      -2.335  -0.668   0.622  1.00  0.00     0.008 A 
HETATM    4  C9  UNL     1      -1.171  -0.717  -0.194  1.00  0.00     0.089 A 
HETATM    5  C10 UNL     1      -0.177  -1.669  -0.031  1.00  0.00     0.033 A 
HETATM    6  C21 UNL     1      -0.393  -2.597   1.006  1.00  0.00     0.096 A 
HETATM    7  C23 UNL     1      -1.495  -2.568   1.796  1.00  0.00     0.054 A 
ENDROOT
BRANCH   5   8
HETATM    8  C11 UNL     1       0.909  -1.763  -0.747  1.00  0.00     0.035 C 
BRANCH   8   9
HETATM    9  C12 UNL     1       1.426  -1.004  -1.847  1.00  0.00     0.042 A 
HETATM   10  C13 UNL     1       1.154  -1.341  -3.169  1.00  0.00     0.081 A 
HETATM   11  C14 UNL     1       1.728  -0.581  -4.154  1.00  0.00     0.054 A 
HETATM   12  C15 UNL     1       2.552   0.487  -3.882  1.00  0.00     0.092 A 
HETATM   13  N1  UNL     1       2.799   0.791  -2.573  1.00  0.00    -0.351 N 
HETATM   14  C16 UNL     1       2.276   0.097  -1.562  1.00  0.00     0.117 A 
ATOM     15  H1  UNL     1       3.408   1.581  -2.361  1.00  0.00     0.166 HD
HETATM   16  N2  UNL     1       2.470   0.334  -0.370  1.00  0.00    -0.355 N 
ATOM     17  H2  UNL     1       1.942  -0.360   0.159  1.00  0.00     0.166 HD
BRANCH  10  18
HETATM   18  O3  UNL     1       0.335  -2.403  -3.481  1.00  0.00    -0.360 OA
ATOM     19  H3  UNL     1       0.149  -2.633  -4.384  1.00  0.00     0.217 HD
ENDBRANCH  10  18
BRANCH  16  20
HETATM   20  C17 UNL     1       3.099   1.140   0.548  1.00  0.00     0.062 C 
BRANCH  20  21
HETATM   21  C18 UNL     1       3.920   2.296   0.075  1.00  0.00     0.046 C 
BRANCH  21  22
HETATM   22  C19 UNL     1       4.522   3.084   1.203  1.00  0.00     0.031 C 
BRANCH  22  23
HETATM   23  C20 UNL     1       5.435   2.247   2.036  1.00  0.00     0.164 C 
BRANCH  23  24
HETATM   24  O4  UNL     1       6.448   1.763   1.193  1.00  0.00    -0.401 OA
ATOM     25  H4  UNL     1       7.029   1.230   1.723  1.00  0.00     0.209 HD
ENDBRANCH  23  24
ENDBRANCH  22  23
ENDBRANCH  21  22
ENDBRANCH  20  21
ENDBRANCH  16  20
ENDBRANCH   8   9
ENDBRANCH   5   8
BRANCH   4  26
HETATM   26  O2  UNL     1      -1.080   0.209  -1.137  1.00  0.00    -0.359 OA
ATOM     27  H2  UNL     1      -0.303   0.176  -1.682  1.00  0.00     0.217 HD
ENDBRANCH   4  26
BRANCH   6  28
HETATM   28  O5  UNL     1       0.588  -3.588   1.216  1.00  0.00    -0.354 OA
HETATM   29  C22 UNL     1       1.664  -3.332   2.115  1.00  0.00     0.210 C 
ENDBRANCH   6  28
BRANCH   3  30
HETATM   30  C4  UNL     1      -3.363   0.333   0.438  1.00  0.00     0.013 C 
HETATM   31  C5  UNL     1      -3.456   1.298  -0.403  1.00  0.00     0.005 C 
BRANCH  31  32
HETATM   32  C6  UNL     1      -4.686   2.196  -0.342  1.00  0.00     0.140 C 
BRANCH  32  33
HETATM   33  O1  UNL     1      -5.772   1.587  -0.962  1.00  0.00    -0.392 OA
ATOM     34  H1  UNL     1      -6.539   2.147  -0.924  1.00  0.00     0.210 HD
ENDBRANCH  32  33
BRANCH  32  35
HETATM   35  C7  UNL     1      -4.388   3.528  -0.976  1.00  0.00     0.031 C 
HETATM   36  C8  UNL     1      -3.991   3.407  -2.418  1.00  0.00     0.008 C 
ENDBRANCH  32  35
ENDBRANCH  31  32
ENDBRANCH   3  30
BRANCH   7  37
HETATM   37  C24 UNL     1      -1.665  -3.571   2.870  1.00  0.00     0.159 C 
HETATM   38  C25 UNL     1      -2.347  -4.848   2.627  1.00  0.00     0.097 C 
HETATM   39  O6  UNL     1      -1.206  -3.299   4.008  1.00  0.00    -0.293 OA
ENDBRANCH   7  37
TORSDOF 15
