REMARK  10 active torsions:
REMARK  status: ('A' for Active; 'I' for Inactive)
REMARK    1  A    between atoms: O1_2  and  C2_3 
REMARK    2  A    between atoms: C2_3  and  C3_5 
REMARK    3  A    between atoms: N1_7  and  C4_8 
REMARK    4  A    between atoms: N4_13  and  C5_14 
REMARK    5  A    between atoms: C5_14  and  C7_25 
REMARK    6  A    between atoms: N5_15  and  N6_17 
REMARK    7  A    between atoms: N6_17  and  C6_19 
REMARK    8  A    between atoms: N7_20  and  N8_22 
REMARK    9  A    between atoms: C8_26  and  O3_27 
REMARK   10  A    between atoms: C11_37  and  O6_38 
ROOT
HETATM    1  C5  UNL     1      -2.559  -0.394  -0.351  1.00  0.00     0.166 C 
HETATM    2  N5  UNL     1      -2.996   0.341  -1.318  1.00  0.00    -0.282 N 
ATOM      3  H5  UNL     1      -3.894   0.086  -1.729  1.00  0.00     0.188 HD
ENDROOT
BRANCH   1   4
HETATM    4  N4  UNL     1      -1.333  -0.092   0.254  1.00  0.00    -0.197 N 
HETATM    5  N3  UNL     1      -1.112   0.671   1.315  1.00  0.00    -0.231 N 
HETATM    6  N2  UNL     1       0.168   0.758   1.607  1.00  0.00    -0.266 N 
ATOM      7  H3  UNL     1      -1.849   1.137   1.844  1.00  0.00     0.209 HD
HETATM    8  C4  UNL     1       0.854   0.029   0.718  1.00  0.00     0.189 A 
ATOM      9  H2  UNL     1       0.569   1.290   2.379  1.00  0.00     0.190 HD
HETATM   10  C11 UNL     1      -0.086  -0.505  -0.132  1.00  0.00     0.212 A 
BRANCH   8  11
HETATM   11  N1  UNL     1       2.281  -0.192   0.615  1.00  0.00    -0.246 N 
HETATM   12  S1  UNL     1       3.338  -1.380   1.112  1.00  0.00     0.005 SA
HETATM   13  C3  UNL     1       4.406  -0.335   0.358  1.00  0.00     0.139 A 
HETATM   14  C12 UNL     1       3.326   0.457   0.087  1.00  0.00     0.155 A 
HETATM   15  N11 UNL     1       3.310   1.711  -0.612  1.00  0.00    -0.080 NA
BRANCH  13  16
HETATM   16  C2  UNL     1       5.868  -0.293   0.102  1.00  0.00     0.304 C 
HETATM   17  O2  UNL     1       6.616  -1.218   0.501  1.00  0.00    -0.259 OA
BRANCH  16  18
HETATM   18  O1  UNL     1       6.441   0.762  -0.578  1.00  0.00    -0.322 OA
HETATM   19  C1  UNL     1       7.824   0.861  -0.853  1.00  0.00     0.213 C 
ENDBRANCH  16  18
ENDBRANCH  13  16
ENDBRANCH   8  11
BRANCH  10  20
HETATM   20  O6  UNL     1       0.092  -1.332  -1.224  1.00  0.00    -0.342 OA
ATOM     21  H6  UNL     1      -0.557  -1.701  -1.811  1.00  0.00     0.219 HD
ENDBRANCH  10  20
ENDBRANCH   1   4
BRANCH   1  22
HETATM   22  C7  UNL     1      -3.363  -1.515   0.077  1.00  0.00     0.130 A 
HETATM   23  C8  UNL     1      -3.003  -2.368   1.096  1.00  0.00     0.164 A 
HETATM   24  N9  UNL     1      -3.779  -3.424   1.485  1.00  0.00    -0.288 N 
HETATM   25  C9  UNL     1      -4.932  -3.608   0.827  1.00  0.00     0.329 A 
ATOM     26  H9  UNL     1      -3.493  -4.044   2.242  1.00  0.00     0.172 HD
HETATM   27  O4  UNL     1      -5.661  -4.573   1.169  1.00  0.00    -0.247 OA
HETATM   28  N10 UNL     1      -5.347  -2.824  -0.169  1.00  0.00    -0.275 N 
HETATM   29  C10 UNL     1      -4.588  -1.794  -0.548  1.00  0.00     0.267 A 
ATOM     30  H10 UNL     1      -6.235  -3.010  -0.636  1.00  0.00     0.173 HD
HETATM   31  O5  UNL     1      -4.925  -1.018  -1.480  1.00  0.00    -0.267 OA
BRANCH  23  32
HETATM   32  O3  UNL     1      -1.803  -2.187   1.789  1.00  0.00    -0.345 OA
ATOM     33  H3  UNL     1      -1.555  -2.776   2.492  1.00  0.00     0.219 HD
ENDBRANCH  23  32
ENDBRANCH   1  22
BRANCH   2  34
HETATM   34  N6  UNL     1      -2.353   1.439  -1.841  1.00  0.00    -0.293 N 
ATOM     35  H6  UNL     1      -2.046   1.385  -2.812  1.00  0.00     0.187 HD
BRANCH  34  36
HETATM   36  C6  UNL     1      -2.082   2.642  -1.136  1.00  0.00     0.213 C 
HETATM   37  N7  UNL     1      -3.042   3.467  -0.893  1.00  0.00    -0.301 N 
ATOM     38  H7  UNL     1      -3.988   3.252  -1.207  1.00  0.00     0.187 HD
BRANCH  37  39
HETATM   39  N8  UNL     1      -2.794   4.638  -0.210  1.00  0.00    -0.344 N 
ATOM     40  H82 UNL     1      -1.842   4.837   0.097  1.00  0.00     0.176 HD
ATOM     41  H81 UNL     1      -3.554   5.291  -0.018  1.00  0.00     0.176 HD
ENDBRANCH  37  39
ENDBRANCH  34  36
ENDBRANCH   2  34
TORSDOF 10
