REMARK  7 active torsions:
REMARK  status: ('A' for Active; 'I' for Inactive)
REMARK    1  A    between atoms: C2_2  and  C3_4 
REMARK       I    between atoms: C3_4  and  N1_6 
REMARK    2  A    between atoms: N1_6  and  C5_8 
REMARK    3  A    between atoms: C5_8  and  C6_9 
REMARK    4  A    between atoms: N5_14  and  C7_15 
REMARK    5  A    between atoms: C7_15  and  C8_16 
REMARK    6  A    between atoms: C7_15  and  C14_32 
REMARK    7  A    between atoms: C13_29  and  O3_30 
ROOT
HETATM    1  C7  UNL     1      -0.961  -1.338  -0.495  1.00  0.00     0.091 C 
ENDROOT
BRANCH   1   2
HETATM    2  N5  UNL     1       0.086  -1.404   0.415  1.00  0.00    -0.227 N 
HETATM    3  C6  UNL     1       1.294  -0.583   0.377  1.00  0.00     0.132 C 
HETATM    4  N2  UNL     1       1.931  -0.745   1.479  1.00  0.00    -0.272 N 
HETATM    5  N3  UNL     1       1.249  -1.615   2.326  1.00  0.00    -0.007 NA
ATOM      6  H2  UNL     1       2.819  -0.296   1.705  1.00  0.00     0.185 HD
HETATM    7  N4  UNL     1       0.295  -2.223   1.523  1.00  0.00     0.000 NA
BRANCH   3   8
HETATM    8  C5  UNL     1       1.743   0.287  -0.765  1.00  0.00     0.204 C 
BRANCH   8   9
HETATM    9  N1  UNL     1       3.216   0.369  -0.759  1.00  0.00    -0.343 N 
HETATM   10  C3  UNL     1       3.937   1.406  -0.149  1.00  0.00     0.289 C 
HETATM   11  O2  UNL     1       3.301   2.393   0.354  1.00  0.00    -0.264 OA
HETATM   12  C4  UNL     1       3.957  -0.738  -1.387  1.00  0.00     0.153 C 
BRANCH  10  13
HETATM   13  C2  UNL     1       5.365   1.412  -0.064  1.00  0.00     0.212 C 
HETATM   14  C1  UNL     1       6.104   2.589   0.520  1.00  0.00     0.102 C 
HETATM   15  O1  UNL     1       6.085   0.483  -0.449  1.00  0.00    -0.288 OA
ENDBRANCH  10  13
ENDBRANCH   8   9
ENDBRANCH   3   8
ENDBRANCH   1   2
BRANCH   1  16
HETATM   16  C8  UNL     1      -1.905  -0.195  -0.461  1.00  0.00     0.068 A 
HETATM   17  S1  UNL     1      -3.037   0.229  -1.671  1.00  0.00    -0.067 SA
HETATM   18  C9  UNL     1      -3.597   1.724  -1.043  1.00  0.00     0.092 A 
HETATM   19  N6  UNL     1      -4.532   2.639  -1.448  1.00  0.00    -0.346 N 
HETATM   20  C12 UNL     1      -2.867   1.846   0.116  1.00  0.00     0.076 A 
HETATM   21  C10 UNL     1      -4.784   3.708  -0.707  1.00  0.00     0.182 A 
ATOM     22  H6  UNL     1      -5.036   2.497  -2.323  1.00  0.00     0.167 HD
HETATM   23  N7  UNL     1      -4.110   3.860   0.422  1.00  0.00    -0.338 N 
HETATM   24  C11 UNL     1      -3.166   3.000   0.892  1.00  0.00     0.115 A 
ATOM     25  H7  UNL     1      -4.314   4.687   0.984  1.00  0.00     0.168 HD
HETATM   26  N8  UNL     1      -2.679   3.244   1.966  1.00  0.00    -0.385 N 
ATOM     27  H82 UNL     1      -2.893   4.072   2.522  1.00  0.00     0.157 HD
ATOM     28  H81 UNL     1      -1.971   2.599   2.318  1.00  0.00     0.157 HD
HETATM   29  C13 UNL     1      -2.003   0.866   0.410  1.00  0.00     0.101 A 
BRANCH  29  30
HETATM   30  O3  UNL     1      -1.168   0.814   1.542  1.00  0.00    -0.358 OA
ATOM     31  H3  UNL     1      -1.236   1.546   2.143  1.00  0.00     0.217 HD
ENDBRANCH  29  30
ENDBRANCH   1  16
BRANCH   1  32
HETATM   32  C14 UNL     1      -1.633  -2.642  -0.787  1.00  0.00     0.260 C 
HETATM   33  N9  UNL     1      -2.720  -2.619  -1.724  1.00  0.00    -0.099 NA
HETATM   34  N10 UNL     1      -3.114  -4.017  -1.563  1.00  0.00    -0.019 NA
HETATM   35  N11 UNL     1      -3.176  -4.122  -0.162  1.00  0.00    -0.019 NA
HETATM   36  N12 UNL     1      -2.365  -3.126   0.381  1.00  0.00    -0.099 NA
ENDBRANCH   1  32
TORSDOF 7
