REMARK  12 active torsions:
REMARK  status: ('A' for Active; 'I' for Inactive)
REMARK    1  A    between atoms: O1_2  and  C2_3 
REMARK       I    between atoms: C2_3  and  N1_5 
REMARK    2  A    between atoms: N1_5  and  O3_7 
REMARK    3  A    between atoms: O3_7  and  N2_8 
REMARK    4  A    between atoms: N2_8  and  O4_9 
REMARK    5  A    between atoms: N2_8  and  N3_11 
REMARK    6  A    between atoms: N3_11  and  C3_12 
REMARK    7  A    between atoms: C3_12  and  C4_13 
REMARK    8  A    between atoms: C7_20  and  N6_21 
REMARK    9  A    between atoms: N6_21  and  O6_22 
REMARK   10  A    between atoms: N6_21  and  O7_24 
REMARK   11  A    between atoms: N7_27  and  O8_29 
REMARK   12  A    between atoms: C12_36  and  O11_37 
ROOT
HETATM    1  C4  UNL     1       0.496   0.549  -0.543  1.00  0.00     0.145 A 
HETATM    2  O5  UNL     1      -0.665   1.012  -1.063  1.00  0.00    -0.287 OA
HETATM    3  C5  UNL     1      -1.794   0.780  -0.450  1.00  0.00     0.168 A 
HETATM    4  N4  UNL     1      -2.867   1.308  -1.115  1.00  0.00    -0.323 N 
ATOM      5  H4  UNL     1      -2.715   2.189  -1.606  1.00  0.00     0.169 HD
HETATM    6  C6  UNL     1      -4.110   0.776  -1.186  1.00  0.00     0.146 C 
HETATM    7  N5  UNL     1      -4.898   1.095  -2.307  1.00  0.00    -0.080 NA
HETATM    8  C7  UNL     1      -4.738  -0.084  -0.283  1.00  0.00     0.139 C 
HETATM    9  C8  UNL     1      -4.321  -0.364   1.021  1.00  0.00     0.134 C 
HETATM   10  N7  UNL     1      -5.210  -0.711   1.850  1.00  0.00    -0.263 N 
ATOM     11  H7  UNL     1      -6.190  -0.776   1.574  1.00  0.00     0.194 HD
HETATM   12  C9  UNL     1      -2.997  -0.279   1.467  1.00  0.00     0.221 C 
HETATM   13  O9  UNL     1      -2.794  -0.557   2.654  1.00  0.00    -0.285 OA
HETATM   14  C10 UNL     1      -1.895   0.085   0.730  1.00  0.00     0.121 A 
HETATM   15  C11 UNL     1      -0.737  -0.406   1.320  1.00  0.00     0.226 A 
HETATM   16  O10 UNL     1      -0.730  -1.032   2.372  1.00  0.00    -0.284 OA
HETATM   17  C12 UNL     1       0.454  -0.139   0.631  1.00  0.00     0.154 A 
ENDROOT
BRANCH   1  18
HETATM   18  C3  UNL     1       1.770   0.761  -1.247  1.00  0.00     0.254 C 
BRANCH  18  19
HETATM   19  N3  UNL     1       2.785   1.423  -0.659  1.00  0.00    -0.284 NA
BRANCH  19  20
HETATM   20  N2  UNL     1       3.733   1.819  -0.071  1.00  0.00     0.041 N 
BRANCH  20  21
HETATM   21  O3  UNL     1       4.660   1.061   0.706  1.00  0.00    -0.096 OA
BRANCH  21  22
HETATM   22  N1  UNL     1       5.778   0.623  -0.007  1.00  0.00    -0.180 N 
HETATM   23  C2  UNL     1       6.617  -0.392   0.486  1.00  0.00     0.386 C 
HETATM   24  O2  UNL     1       6.426  -0.975   1.597  1.00  0.00    -0.236 OA
ATOM     25  H1  UNL     1       5.991   1.050  -0.908  1.00  0.00     0.202 HD
BRANCH  23  26
HETATM   26  O1  UNL     1       7.732  -0.835  -0.229  1.00  0.00    -0.307 OA
HETATM   27  C1  UNL     1       8.651  -1.821   0.129  1.00  0.00     0.215 C 
ENDBRANCH  23  26
ENDBRANCH  21  22
ENDBRANCH  20  21
BRANCH  20  28
HETATM   28  O4  UNL     1       4.070   3.181  -0.098  1.00  0.00    -0.236 OA
ATOM     29  H4  UNL     1       3.453   3.685  -0.615  1.00  0.00     0.250 HD
ENDBRANCH  20  28
ENDBRANCH  19  20
ENDBRANCH  18  19
ENDBRANCH   1  18
BRANCH  17  30
HETATM   30  O11 UNL     1       1.658  -0.628   1.203  1.00  0.00    -0.355 OA
ATOM     31  H11 UNL     1       1.629  -1.108   2.022  1.00  0.00     0.218 HD
ENDBRANCH  17  30
BRANCH   8  32
HETATM   32  N6  UNL     1      -5.900  -0.774  -0.678  1.00  0.00    -0.030 NA
BRANCH  32  33
HETATM   33  O6  UNL     1      -5.709  -2.144  -0.612  1.00  0.00    -0.284 OA
ATOM     34  H6  UNL     1      -6.493  -2.610  -0.879  1.00  0.00     0.240 HD
ENDBRANCH  32  33
BRANCH  32  35
HETATM   35  O7  UNL     1      -7.012  -0.412  -0.019  1.00  0.00    -0.284 OA
ATOM     36  H7  UNL     1      -7.796  -0.878  -0.286  1.00  0.00     0.240 HD
ENDBRANCH  32  35
ENDBRANCH   8  32
BRANCH  10  37
HETATM   37  O8  UNL     1      -4.813  -1.000   3.144  1.00  0.00    -0.289 OA
ATOM     38  H8  UNL     1      -5.481  -1.261   3.767  1.00  0.00     0.244 HD
ENDBRANCH  10  37
TORSDOF 12
