REMARK  9 active torsions:
REMARK  status: ('A' for Active; 'I' for Inactive)
REMARK    1  A    between atoms: N2_4  and  N3_6 
REMARK    2  A    between atoms: N3_6  and  C3_8 
REMARK    3  A    between atoms: C3_8  and  O1_9 
REMARK    4  A    between atoms: C3_8  and  C4_11 
REMARK    5  A    between atoms: N4_15  and  C8_17 
REMARK    6  A    between atoms: C9_22  and  N7_23 
REMARK    7  A    between atoms: C13_33  and  C14_34 
REMARK    8  A    between atoms: C14_34  and  N12_35 
REMARK    9  A    between atoms: C14_34  and  O2_39 
ROOT
HETATM    1  N1  UNL     1       6.909   3.402   1.518  1.00  0.00    -0.191 NA
HETATM    2  C1  UNL     1       6.769   2.464   0.838  1.00  0.00     0.106 C 
HETATM    3  C2  UNL     1       6.596   1.314   0.035  1.00  0.00     0.200 C 
HETATM    4  N2  UNL     1       5.600   1.194  -0.765  1.00  0.00    -0.304 N 
ATOM      5  H2  UNL     1       4.921   1.954  -0.815  1.00  0.00     0.186 HD
ENDROOT
BRANCH   4   6
HETATM    6  N3  UNL     1       5.405   0.075  -1.566  1.00  0.00    -0.303 N 
ATOM      7  H3  UNL     1       5.344   0.174  -2.579  1.00  0.00     0.183 HD
BRANCH   6   8
HETATM    8  C3  UNL     1       5.290  -1.224  -0.958  1.00  0.00     0.270 C 
BRANCH   8   9
HETATM    9  O1  UNL     1       5.099  -2.228  -1.900  1.00  0.00    -0.371 OA
ATOM     10  H1  UNL     1       5.023  -3.086  -1.499  1.00  0.00     0.212 HD
ENDBRANCH   8   9
BRANCH   8  11
HETATM   11  C4  UNL     1       4.099  -1.206  -0.081  1.00  0.00     0.032 A 
HETATM   12  C5  UNL     1       2.939  -0.644  -0.571  1.00  0.00     0.019 A 
HETATM   13  C6  UNL     1       1.798  -0.603   0.209  1.00  0.00     0.050 A 
HETATM   14  C7  UNL     1       1.875  -1.137   1.470  1.00  0.00     0.122 A 
HETATM   15  N4  UNL     1       0.858  -1.136   2.254  1.00  0.00    -0.175 N 
HETATM   16  N14 UNL     1       3.035  -1.687   1.933  1.00  0.00    -0.330 N 
ATOM     17  H4  UNL     1       0.920  -1.535   3.191  1.00  0.00     0.186 HD
HETATM   18  C15 UNL     1       4.157  -1.737   1.187  1.00  0.00     0.128 A 
ATOM     19  H14 UNL     1       3.054  -2.074   2.877  1.00  0.00     0.168 HD
HETATM   20  N15 UNL     1       5.365  -2.308   1.663  1.00  0.00    -0.082 NA
BRANCH  15  21
HETATM   21  C8  UNL     1      -0.371  -0.558   1.778  1.00  0.00     0.699 A 
HETATM   22  N5  UNL     1      -0.723   0.698   2.076  1.00  0.00    -0.130 N 
HETATM   23  N6  UNL     1      -1.846   1.173   1.622  1.00  0.00    -0.268 N 
ATOM     24  H5  UNL     1      -0.116   1.279   2.655  1.00  0.00     0.205 HD
HETATM   25  C9  UNL     1      -2.718   0.464   0.840  1.00  0.00     0.166 A 
ATOM     26  H6  UNL     1      -2.092   2.133   1.864  1.00  0.00     0.189 HD
HETATM   27  C13 UNL     1      -2.372  -0.801   0.529  1.00  0.00     0.129 A 
HETATM   28  N13 UNL     1      -1.175  -1.299   1.019  1.00  0.00    -0.186 N 
ATOM     29  H13 UNL     1      -0.904  -2.256   0.793  1.00  0.00     0.184 HD
BRANCH  25  30
HETATM   30  N7  UNL     1      -3.972   1.035   0.473  1.00  0.00    -0.265 N 
HETATM   31  C10 UNL     1      -3.974   2.466   0.340  1.00  0.00     0.224 A 
HETATM   32  C11 UNL     1      -5.269   3.027   0.035  1.00  0.00     0.115 A 
HETATM   33  N8  UNL     1      -5.344   4.457  -0.110  1.00  0.00    -0.086 NA
HETATM   34  N9  UNL     1      -6.326   2.303  -0.107  1.00  0.00    -0.320 N 
HETATM   35  C12 UNL     1      -6.246   0.875   0.039  1.00  0.00     0.208 A 
ATOM     36  H9  UNL     1      -7.220   2.744  -0.323  1.00  0.00     0.169 HD
HETATM   37  N10 UNL     1      -7.434   0.112  -0.126  1.00  0.00    -0.062 NA
HETATM   38  N11 UNL     1      -5.132   0.335   0.307  1.00  0.00    -0.269 N 
ATOM     39  H11 UNL     1      -5.100  -0.680   0.404  1.00  0.00     0.190 HD
ENDBRANCH  25  30
BRANCH  27  40
HETATM   40  C14 UNL     1      -3.129  -1.661  -0.374  1.00  0.00     0.371 C 
BRANCH  40  41
HETATM   41  N12 UNL     1      -3.414  -0.995  -1.634  1.00  0.00    -0.047 N 
ATOM     42 3H12 UNL     1      -3.886  -0.103  -1.485  1.00  0.00     0.277 HD
ATOM     43 2H12 UNL     1      -2.561  -0.651  -2.075  1.00  0.00     0.277 HD
ATOM     44 1H12 UNL     1      -3.943  -1.596  -2.265  1.00  0.00     0.277 HD
ENDBRANCH  40  41
BRANCH  40  45
HETATM   45  O2  UNL     1      -2.358  -2.770  -0.722  1.00  0.00    -0.365 OA
ATOM     46  H2  UNL     1      -2.851  -3.330  -1.310  1.00  0.00     0.212 HD
ENDBRANCH  40  45
ENDBRANCH  27  40
ENDBRANCH  15  21
ENDBRANCH   8  11
ENDBRANCH   6   8
ENDBRANCH   4   6
TORSDOF 9
