REMARK  10 active torsions:
REMARK  status: ('A' for Active; 'I' for Inactive)
REMARK    1  A    between atoms: C2_2  and  N1_3 
REMARK    2  A    between atoms: C2_2  and  O1_7 
REMARK    3  A    between atoms: O1_7  and  C3_8 
REMARK    4  A    between atoms: C3_8  and  C4_10 
REMARK    5  A    between atoms: C5_15  and  N4_16 
REMARK    6  A    between atoms: N5_21  and  N6_22 
REMARK       I    between atoms: N6_22  and  C6_24 
REMARK    7  A    between atoms: C6_24  and  C7_26 
REMARK    8  A    between atoms: C7_26  and  S2_27 
REMARK    9  A    between atoms: S2_27  and  C8_28 
REMARK   10  A    between atoms: N8_33  and  N9_34 
ROOT
HETATM    1  C4  UNL     1      -2.335  -0.232  -0.387  1.00  0.00     0.328 C 
HETATM    2  N2  UNL     1      -1.793  -1.554  -0.308  1.00  0.00    -0.304 N 
ATOM      3  H2  UNL     1      -1.971  -2.224  -1.056  1.00  0.00     0.183 HD
HETATM    4  N3  UNL     1      -1.053  -1.911   0.747  1.00  0.00    -0.298 N 
ATOM      5  H3  UNL     1      -0.078  -2.179   0.614  1.00  0.00     0.183 HD
HETATM    6  C5  UNL     1      -1.613  -1.920   2.049  1.00  0.00     0.381 C 
HETATM    7  S1  UNL     1      -2.521  -0.337   2.255  1.00  0.00     0.023 SA
HETATM    8  N5  UNL     1      -2.194   0.558   0.757  1.00  0.00    -0.224 N 
ENDROOT
BRANCH   8   9
HETATM    9  N6  UNL     1      -1.197   1.456   0.900  1.00  0.00    -0.259 N 
HETATM   10  C6  UNL     1      -0.037   1.698   0.112  1.00  0.00     0.246 C 
HETATM   11  O3  UNL     1       0.147   0.993  -0.899  1.00  0.00    -0.271 OA
ATOM     12  H6  UNL     1      -1.291   2.066   1.712  1.00  0.00     0.191 HD
BRANCH  10  13
HETATM   13  C7  UNL     1       0.864   2.768   0.554  1.00  0.00     0.186 C 
BRANCH  13  14
HETATM   14  S2  UNL     1       2.330   2.961  -0.408  1.00  0.00    -0.083 SA
BRANCH  14  15
HETATM   15  C8  UNL     1       3.466   1.612  -0.239  1.00  0.00     0.167 A 
HETATM   16  N7  UNL     1       4.332   1.521   0.832  1.00  0.00    -0.320 N 
HETATM   17  C9  UNL     1       5.096   0.442   0.666  1.00  0.00     0.131 A 
ATOM     18  H7  UNL     1       4.379   2.170   1.618  1.00  0.00     0.169 HD
HETATM   19  C10 UNL     1       4.702  -0.134  -0.511  1.00  0.00     0.097 A 
HETATM   20  N11 UNL     1       6.145  -0.196   1.385  1.00  0.00    -0.359 N 
HETATM   21  N8  UNL     1       3.703   0.587  -1.064  1.00  0.00    -0.239 N 
HETATM   22  C11 UNL     1       5.375  -1.356  -0.959  1.00  0.00     0.179 C 
HETATM   23  N10 UNL     1       6.747  -1.458  -0.574  1.00  0.00    -0.401 N 
HETATM   24  C12 UNL     1       7.042  -1.142   0.785  1.00  0.00     0.240 C 
ATOM     25  H10 UNL     1       7.473  -1.740  -1.233  1.00  0.00     0.155 HD
ATOM     26  H11 UNL     1       6.265   0.029   2.373  1.00  0.00     0.162 HD
BRANCH  21  27
HETATM   27  N9  UNL     1       3.084   0.306  -2.309  1.00  0.00    -0.336 N 
ATOM     28  H92 UNL     1       2.329   0.851  -2.727  1.00  0.00     0.177 HD
ATOM     29  H91 UNL     1       3.265  -0.476  -2.938  1.00  0.00     0.177 HD
ENDBRANCH  21  27
ENDBRANCH  14  15
ENDBRANCH  13  14
ENDBRANCH  10  13
ENDBRANCH   8   9
BRANCH   1  30
HETATM   30  C3  UNL     1      -3.827  -0.432  -0.600  1.00  0.00     0.307 C 
HETATM   31  O2  UNL     1      -4.382  -1.530  -0.595  1.00  0.00    -0.261 OA
BRANCH  30  32
HETATM   32  O1  UNL     1      -4.568   0.728  -0.813  1.00  0.00    -0.285 OA
BRANCH  32  33
HETATM   33  C2  UNL     1      -5.967   0.697  -1.032  1.00  0.00     0.323 C 
HETATM   34  C1  UNL     1      -6.693   1.571  -0.046  1.00  0.00     0.071 C 
BRANCH  33  35
HETATM   35  N1  UNL     1      -6.240   1.174  -2.407  1.00  0.00    -0.053 N 
ATOM     36  H13 UNL     1      -7.239   1.231  -2.604  1.00  0.00     0.277 HD
ATOM     37  H12 UNL     1      -6.012   2.161  -2.525  1.00  0.00     0.277 HD
ATOM     38  H11 UNL     1      -5.748   0.581  -3.076  1.00  0.00     0.277 HD
ENDBRANCH  33  35
ENDBRANCH  32  33
ENDBRANCH  30  32
ENDBRANCH   1  30
BRANCH   6  39
HETATM   39  N4  UNL     1      -2.428  -3.037   2.398  1.00  0.00    -0.046 N 
ATOM     40  H43 UNL     1      -3.171  -3.144   1.708  1.00  0.00     0.277 HD
ATOM     41  H42 UNL     1      -1.905  -3.899   2.247  1.00  0.00     0.277 HD
ATOM     42  H41 UNL     1      -2.831  -3.043   3.335  1.00  0.00     0.277 HD
ENDBRANCH   6  39
TORSDOF 10
