REMARK  12 active torsions:
REMARK  status: ('A' for Active; 'I' for Inactive)
REMARK    1  A    between atoms: C2_2  and  O1_3 
REMARK    2  A    between atoms: O1_3  and  C3_4 
REMARK    3  A    between atoms: C6_9  and  N2_10 
REMARK    4  A    between atoms: C9_16  and  O3_17 
REMARK    5  A    between atoms: N4_19  and  C10_20 
REMARK    6  A    between atoms: C10_20  and  O4_21 
REMARK    7  A    between atoms: C10_20  and  C11_23 
REMARK    8  A    between atoms: C11_23  and  C12_25 
REMARK    9  A    between atoms: C12_25  and  N5_26 
REMARK   10  A    between atoms: C12_25  and  O6_30 
REMARK   11  A    between atoms: C14_35  and  O8_36 
REMARK   12  A    between atoms: C15_38  and  O9_39 
ROOT
HETATM    1  N2  UNL     1      -0.049  -1.953  -0.189  1.00  0.00    -0.173 N 
HETATM    2  C7  UNL     1       0.401  -3.219  -0.155  1.00  0.00     0.349 A 
HETATM    3  O2  UNL     1      -0.251  -4.276   0.055  1.00  0.00    -0.244 OA
HETATM    4  N3  UNL     1       1.736  -3.228  -0.391  1.00  0.00    -0.288 N 
ATOM      5  H3  UNL     1       2.351  -4.041  -0.427  1.00  0.00     0.172 HD
HETATM    6  C8  UNL     1       2.081  -1.936  -0.569  1.00  0.00     0.188 A 
HETATM    7  C9  UNL     1       3.125  -1.042  -0.834  1.00  0.00     0.196 A 
HETATM    8  N4  UNL     1       2.660   0.200  -0.863  1.00  0.00    -0.240 N 
HETATM    9  C13 UNL     1       1.338   0.123  -0.622  1.00  0.00     0.354 A 
HETATM   10  O7  UNL     1       0.527   1.076  -0.563  1.00  0.00    -0.244 OA
HETATM   11  N6  UNL     1       0.993  -1.160  -0.445  1.00  0.00    -0.171 N 
ENDROOT
BRANCH   1  12
HETATM   12  C6  UNL     1      -1.402  -1.554   0.015  1.00  0.00     0.169 A 
HETATM   13  N1  UNL     1      -2.346  -1.755  -0.920  1.00  0.00    -0.340 N 
HETATM   14  C4  UNL     1      -3.629  -1.396  -0.768  1.00  0.00     0.043 A 
ATOM     15  H1  UNL     1      -2.072  -2.205  -1.793  1.00  0.00     0.167 HD
HETATM   16  C3  UNL     1      -3.982  -0.782   0.433  1.00  0.00     0.127 A 
HETATM   17  C5  UNL     1      -4.658  -1.638  -1.836  1.00  0.00     0.071 C 
HETATM   18  C15 UNL     1      -3.066  -0.548   1.427  1.00  0.00     0.138 A 
HETATM   19  C14 UNL     1      -1.749  -0.947   1.203  1.00  0.00     0.148 A 
BRANCH  16  20
HETATM   20  O1  UNL     1      -5.291  -0.422   0.576  1.00  0.00    -0.347 OA
BRANCH  20  21
HETATM   21  C2  UNL     1      -5.801   0.809   0.154  1.00  0.00     0.171 C 
HETATM   22  C1  UNL     1      -5.144   1.992   0.821  1.00  0.00     0.034 C 
ENDBRANCH  20  21
ENDBRANCH  16  20
BRANCH  18  23
HETATM   23  O9  UNL     1      -3.382   0.056   2.629  1.00  0.00    -0.356 OA
ATOM     24  H9  UNL     1      -2.748   0.218   3.317  1.00  0.00     0.218 HD
ENDBRANCH  18  23
BRANCH  19  25
HETATM   25  O8  UNL     1      -0.800  -0.722   2.193  1.00  0.00    -0.355 OA
ATOM     26  H8  UNL     1      -1.039  -0.304   3.012  1.00  0.00     0.218 HD
ENDBRANCH  19  25
ENDBRANCH   1  12
BRANCH   7  27
HETATM   27  O3  UNL     1       4.430  -1.426  -1.031  1.00  0.00    -0.343 OA
ATOM     28  H3  UNL     1       5.139  -0.819  -1.211  1.00  0.00     0.219 HD
ENDBRANCH   7  27
BRANCH   8  29
HETATM   29  C10 UNL     1       3.374   1.444  -1.102  1.00  0.00     0.306 C 
BRANCH  29  30
HETATM   30  O4  UNL     1       4.506   1.272  -1.855  1.00  0.00    -0.369 OA
ATOM     31  H4  UNL     1       4.972   2.085  -2.011  1.00  0.00     0.212 HD
ENDBRANCH  29  30
BRANCH  29  32
HETATM   32  C11 UNL     1       3.695   2.146   0.162  1.00  0.00     0.231 C 
HETATM   33  O5  UNL     1       2.870   2.425   1.014  1.00  0.00    -0.288 OA
BRANCH  32  34
HETATM   34  C12 UNL     1       5.104   2.540   0.421  1.00  0.00     0.391 C 
BRANCH  34  35
HETATM   35  N5  UNL     1       6.010   1.410   0.404  1.00  0.00    -0.046 N 
ATOM     36  H53 UNL     1       5.706   0.687   1.056  1.00  0.00     0.277 HD
ATOM     37  H52 UNL     1       5.930   0.889  -0.469  1.00  0.00     0.277 HD
ATOM     38  H51 UNL     1       6.977   1.680   0.582  1.00  0.00     0.277 HD
ENDBRANCH  34  35
BRANCH  34  39
HETATM   39  O6  UNL     1       5.251   3.186   1.638  1.00  0.00    -0.364 OA
ATOM     40  H6  UNL     1       6.152   3.438   1.804  1.00  0.00     0.212 HD
ENDBRANCH  34  39
ENDBRANCH  32  34
ENDBRANCH  29  32
ENDBRANCH   8  29
TORSDOF 12
