REMARK  11 active torsions:
REMARK  status: ('A' for Active; 'I' for Inactive)
REMARK    1  A    between atoms: C2_2  and  O1_3 
REMARK    2  A    between atoms: C2_2  and  C3_5 
REMARK    3  A    between atoms: C2_2  and  C11_27 
REMARK    4  A    between atoms: C5_7  and  O2_8 
REMARK    5  A    between atoms: O2_8  and  C6_9 
REMARK    6  A    between atoms: C6_9  and  O3_10 
REMARK    7  A    between atoms: O3_10  and  C7_11 
REMARK    8  A    between atoms: C7_11  and  O5_13 
REMARK    9  A    between atoms: O5_13  and  N1_14 
REMARK       I    between atoms: N1_14  and  C8_16 
REMARK   10  A    between atoms: C10_24  and  O8_25 
REMARK   11  A    between atoms: C11_27  and  O9_28 
ROOT
HETATM    1  C3  UNL     1      -2.256  -1.351   0.514  1.00  0.00     0.043 A 
HETATM    2  C4  UNL     1      -1.064  -0.673   0.559  1.00  0.00     0.058 A 
HETATM    3  C5  UNL     1       0.116  -1.293   0.885  1.00  0.00     0.147 A 
HETATM    4  C9  UNL     1       0.092  -2.633   1.173  1.00  0.00     0.323 A 
HETATM    5  O6  UNL     1       1.146  -3.281   1.485  1.00  0.00    -0.257 OA
HETATM    6  O7  UNL     1      -1.039  -3.278   1.130  1.00  0.00    -0.249 OA
HETATM    7  C10 UNL     1      -2.184  -2.717   0.823  1.00  0.00     0.196 A 
ENDROOT
BRANCH   1   8
HETATM    8  C2  UNL     1      -3.567  -0.836   0.189  1.00  0.00     0.150 C 
HETATM    9  C1  UNL     1      -4.146  -1.703  -0.928  1.00  0.00     0.058 C 
BRANCH   8  10
HETATM   10  O1  UNL     1      -4.414  -1.047   1.302  1.00  0.00    -0.379 OA
ATOM     11  H1  UNL     1      -4.054  -0.508   1.996  1.00  0.00     0.211 HD
ENDBRANCH   8  10
BRANCH   8  12
HETATM   12  C11 UNL     1      -3.701   0.570  -0.211  1.00  0.00     0.275 C 
HETATM   13  O10 UNL     1      -2.976   0.979  -1.319  1.00  0.00    -0.284 OA
HETATM   14  C12 UNL     1      -2.907   2.380  -1.267  1.00  0.00     0.194 C 
HETATM   15  N4  UNL     1      -2.644   3.182  -2.239  1.00  0.00    -0.377 N 
HETATM   16  C13 UNL     1      -3.192   2.805   0.122  1.00  0.00     0.273 C 
ATOM     17  H42 UNL     1      -2.448   2.889  -3.196  1.00  0.00     0.158 HD
ATOM     18  H41 UNL     1      -2.594   4.200  -2.201  1.00  0.00     0.158 HD
HETATM   19  O11 UNL     1      -3.222   3.987   0.567  1.00  0.00    -0.280 OA
HETATM   20  C14 UNL     1      -3.422   1.562   0.832  1.00  0.00     0.269 C 
HETATM   21  O12 UNL     1      -3.388   1.388   2.056  1.00  0.00    -0.282 OA
BRANCH  12  22
HETATM   22  O9  UNL     1      -5.068   0.762  -0.548  1.00  0.00    -0.356 OA
ATOM     23  H9  UNL     1      -5.155   1.672  -0.807  1.00  0.00     0.213 HD
ENDBRANCH  12  22
ENDBRANCH   8  12
ENDBRANCH   1   8
BRANCH   7  24
HETATM   24  O8  UNL     1      -3.313  -3.526   0.816  1.00  0.00    -0.340 OA
ATOM     25  H8  UNL     1      -3.264  -4.451   1.025  1.00  0.00     0.220 HD
ENDBRANCH   7  24
BRANCH   3  26
HETATM   26  O2  UNL     1       1.290  -0.600   0.925  1.00  0.00    -0.319 OA
BRANCH  26  27
HETATM   27  C6  UNL     1       1.403   0.786   0.641  1.00  0.00     0.357 C 
BRANCH  27  28
HETATM   28  O3  UNL     1       2.725   1.242   0.757  1.00  0.00    -0.271 OA
BRANCH  28  29
HETATM   29  C7  UNL     1       3.750   0.701  -0.043  1.00  0.00     0.430 C 
HETATM   30  O4  UNL     1       3.405  -0.192  -0.842  1.00  0.00    -0.227 OA
BRANCH  29  31
HETATM   31  O5  UNL     1       5.060   1.126   0.044  1.00  0.00    -0.172 OA
BRANCH  31  32
HETATM   32  N1  UNL     1       6.023   0.579  -0.745  1.00  0.00    -0.228 N 
HETATM   33  C8  UNL     1       7.387   0.954  -0.599  1.00  0.00     0.206 C 
HETATM   34  N2  UNL     1       7.770   2.057  -1.130  1.00  0.00    -0.372 N 
HETATM   35  N3  UNL     1       8.313   0.146   0.108  1.00  0.00    -0.062 NA
ATOM     36  H22 UNL     1       7.104   2.638  -1.639  1.00  0.00     0.158 HD
ATOM     37  H21 UNL     1       8.748   2.326  -1.025  1.00  0.00     0.158 HD
ATOM     38  H1  UNL     1       5.763  -0.110  -1.451  1.00  0.00     0.198 HD
ENDBRANCH  31  32
ENDBRANCH  29  31
ENDBRANCH  28  29
ENDBRANCH  27  28
ENDBRANCH  26  27
ENDBRANCH   3  26
TORSDOF 11
