REMARK  10 active torsions:
REMARK  status: ('A' for Active; 'I' for Inactive)
REMARK    1  A    between atoms: O1_2  and  C2_3 
REMARK    2  A    between atoms: C2_3  and  C3_5 
REMARK    3  A    between atoms: C3_5  and  N5_19 
REMARK    4  A    between atoms: N1_6  and  N2_8 
REMARK    5  A    between atoms: C4_10  and  C5_12 
REMARK    6  A    between atoms: C5_12  and  N4_13 
REMARK    7  A    between atoms: C5_12  and  O3_17 
REMARK    8  A    between atoms: N5_19  and  C6_21 
REMARK    9  A    between atoms: C7_24  and  S1_25 
REMARK   10  A    between atoms: C9_29  and  N8_30 
ROOT
HETATM    1  C3  UNL     1      -0.925   1.132   1.033  1.00  0.00     0.211 C 
HETATM    2  N1  UNL     1      -1.848   0.807   0.207  1.00  0.00    -0.279 N 
ATOM      3  H1  UNL     1      -2.708   1.354   0.178  1.00  0.00     0.189 HD
ENDROOT
BRANCH   1   4
HETATM    4  C2  UNL     1      -1.136   2.267   1.898  1.00  0.00     0.329 C 
HETATM    5  O2  UNL     1      -0.269   2.628   2.723  1.00  0.00    -0.256 OA
BRANCH   4   6
HETATM    6  O1  UNL     1      -2.314   2.972   1.821  1.00  0.00    -0.320 OA
HETATM    7  C1  UNL     1      -2.545   4.075   2.646  1.00  0.00     0.213 C 
ENDBRANCH   4   6
ENDBRANCH   1   4
BRANCH   1   8
HETATM    8  N5  UNL     1       0.260   0.351   1.048  1.00  0.00    -0.168 N 
ATOM      9  H5  UNL     1       0.341  -0.412   1.720  1.00  0.00     0.186 HD
BRANCH   8  10
HETATM   10  C6  UNL     1       1.236   0.576   0.239  1.00  0.00     0.700 A 
HETATM   11  N6  UNL     1       2.355  -0.175   0.265  1.00  0.00    -0.169 N 
HETATM   12  C7  UNL     1       3.325   0.125  -0.611  1.00  0.00     0.174 A 
ATOM     13  H6  UNL     1       2.460  -0.944   0.927  1.00  0.00     0.186 HD
HETATM   14  N7  UNL     1       3.213   1.133  -1.496  1.00  0.00    -0.170 N 
HETATM   15  C9  UNL     1       2.094   1.857  -1.498  1.00  0.00     0.692 A 
ATOM     16  H7  UNL     1       3.968   1.338  -2.151  1.00  0.00     0.186 HD
HETATM   17  N9  UNL     1       1.106   1.584  -0.636  1.00  0.00    -0.022 N 
ATOM     18  H9  UNL     1       0.253   2.144  -0.645  1.00  0.00     0.203 HD
BRANCH  12  19
HETATM   19  S1  UNL     1       4.807  -0.860  -0.585  1.00  0.00    -0.097 SA
HETATM   20  C8  UNL     1       4.600  -2.257  -1.710  1.00  0.00     0.099 C 
ENDBRANCH  12  19
BRANCH  15  21
HETATM   21  N8  UNL     1       1.964   2.822  -2.331  1.00  0.00    -0.234 N 
ATOM     22  H82 UNL     1       2.716   3.030  -2.987  1.00  0.00     0.174 HD
ATOM     23  H81 UNL     1       1.108   3.376  -2.333  1.00  0.00     0.174 HD
ENDBRANCH  15  21
ENDBRANCH   8  10
ENDBRANCH   1   8
BRANCH   2  24
HETATM   24  N2  UNL     1      -1.701  -0.276  -0.651  1.00  0.00    -0.286 N 
HETATM   25  C4  UNL     1      -2.059  -1.435  -0.248  1.00  0.00     0.164 C 
HETATM   26  N3  UNL     1      -2.593  -1.598   1.049  1.00  0.00    -0.081 NA
ATOM     27  H2  UNL     1      -1.314  -0.148  -1.586  1.00  0.00     0.188 HD
BRANCH  25  28
HETATM   28  C5  UNL     1      -1.903  -2.602  -1.169  1.00  0.00     0.383 C 
BRANCH  28  29
HETATM   29  N4  UNL     1      -1.010  -3.549  -0.509  1.00  0.00    -0.046 N 
ATOM     30  H43 UNL     1      -0.120  -3.135  -0.232  1.00  0.00     0.277 HD
ATOM     31  H42 UNL     1      -1.325  -3.814   0.424  1.00  0.00     0.277 HD
ATOM     32  H41 UNL     1      -0.904  -4.345  -1.137  1.00  0.00     0.277 HD
ENDBRANCH  28  29
BRANCH  28  33
HETATM   33  O3  UNL     1      -3.161  -3.176  -1.356  1.00  0.00    -0.365 OA
ATOM     34  H3  UNL     1      -3.062  -3.918  -1.941  1.00  0.00     0.212 HD
ENDBRANCH  28  33
ENDBRANCH  25  28
ENDBRANCH   2  24
TORSDOF 10
