REMARK  6 active torsions:
REMARK  status: ('A' for Active; 'I' for Inactive)
REMARK    1  A    between atoms: O1_2  and  C2_3 
REMARK    2  A    between atoms: C3_6  and  N2_7 
REMARK    3  A    between atoms: C4_12  and  N4_13 
REMARK    4  A    between atoms: N4_13  and  N5_15 
REMARK    5  A    between atoms: C5_17  and  C7_19 
REMARK       I    between atoms: N7_22  and  C8_23 
REMARK       I    between atoms: C8_23  and  N9_27 
REMARK    6  A    between atoms: N9_27  and  N10_29 
ROOT
HETATM    1  N5  UNL     1      -0.820  -2.702   0.082  1.00  0.00    -0.287 N 
ATOM      2  H5  UNL     1      -1.523  -3.441   0.083  1.00  0.00     0.187 HD
HETATM    3  C5  UNL     1       0.065  -2.850  -0.792  1.00  0.00     0.075 C 
HETATM    4  C6  UNL     1       0.039  -4.014  -1.713  1.00  0.00     0.074 C 
ENDROOT
BRANCH   1   5
HETATM    5  N4  UNL     1      -1.027  -1.748   1.030  1.00  0.00    -0.131 N 
ATOM      6  H4  UNL     1      -0.599  -1.850   1.950  1.00  0.00     0.205 HD
BRANCH   5   7
HETATM    7  C4  UNL     1      -1.755  -0.720   0.779  1.00  0.00     0.714 A 
HETATM    8  N3  UNL     1      -2.321  -0.579  -0.422  1.00  0.00    -0.021 N 
HETATM    9  C3  UNL     1      -3.079   0.526  -0.647  1.00  0.00     0.693 A 
ATOM     10  H3  UNL     1      -2.188  -1.281  -1.150  1.00  0.00     0.203 HD
HETATM   11  N1  UNL     1      -3.265   1.470   0.314  1.00  0.00    -0.154 N 
HETATM   12  C2  UNL     1      -2.693   1.317   1.510  1.00  0.00     0.252 A 
ATOM     13  H1  UNL     1      -3.839   2.291   0.122  1.00  0.00     0.188 HD
HETATM   14  N11 UNL     1      -1.942   0.213   1.721  1.00  0.00    -0.152 N 
ATOM     15  H11 UNL     1      -1.501   0.086   2.632  1.00  0.00     0.188 HD
BRANCH   9  16
HETATM   16  N2  UNL     1      -3.615   0.640  -1.814  1.00  0.00    -0.234 N 
ATOM     17  H22 UNL     1      -4.184   1.470  -1.983  1.00  0.00     0.174 HD
ATOM     18  H21 UNL     1      -3.475  -0.068  -2.535  1.00  0.00     0.174 HD
ENDBRANCH   9  16
BRANCH  12  19
HETATM   19  O1  UNL     1      -2.820   2.223   2.555  1.00  0.00    -0.326 OA
HETATM   20  C1  UNL     1      -3.619   3.377   2.276  1.00  0.00     0.213 C 
ENDBRANCH  12  19
ENDBRANCH   5   7
ENDBRANCH   1   5
BRANCH   3  21
HETATM   21  C7  UNL     1       1.156  -1.903  -0.926  1.00  0.00     0.192 A 
HETATM   22  N6  UNL     1       1.315  -0.875  -0.187  1.00  0.00    -0.252 N 
HETATM   23  N7  UNL     1       2.441  -0.134  -0.527  1.00  0.00    -0.022 N 
ATOM     24  H6  UNL     1       0.683  -0.624   0.573  1.00  0.00     0.190 HD
HETATM   25  C8  UNL     1       2.933   1.059   0.065  1.00  0.00     0.716 C 
HETATM   26  C9  UNL     1       3.014  -0.845  -1.628  1.00  0.00     0.407 A 
HETATM   27  N8  UNL     1       2.306   1.577   1.056  1.00  0.00    -0.231 N 
HETATM   28  N9  UNL     1       4.109   1.685  -0.429  1.00  0.00    -0.137 N 
ATOM     29  H82 UNL     1       1.462   1.128   1.411  1.00  0.00     0.174 HD
ATOM     30  H81 UNL     1       2.659   2.434   1.481  1.00  0.00     0.174 HD
ATOM     31  H9  UNL     1       4.045   2.244  -1.280  1.00  0.00     0.205 HD
HETATM   32  O2  UNL     1       4.050  -0.552  -2.275  1.00  0.00    -0.235 OA
HETATM   33  O3  UNL     1       2.199  -1.943  -1.860  1.00  0.00    -0.238 OA
BRANCH  28  34
HETATM   34  N10 UNL     1       5.358   1.566   0.206  1.00  0.00    -0.331 N 
ATOM     35 2H10 UNL     1       5.404   1.003   1.055  1.00  0.00     0.177 HD
ATOM     36 1H10 UNL     1       6.202   2.015  -0.149  1.00  0.00     0.177 HD
ENDBRANCH  28  34
ENDBRANCH   3  21
TORSDOF 6
