REMARK  4 active torsions:
REMARK  status: ('A' for Active; 'I' for Inactive)
REMARK    1  A    between atoms: C2_3  and  C3_4 
REMARK    2  A    between atoms: C4_11  and  C5_12 
REMARK    3  A    between atoms: C6_15  and  C7_16 
REMARK       I    between atoms: C7_16  and  N6_18 
REMARK    4  A    between atoms: N6_18  and  C8_20 
ROOT
HETATM    1  C5  UNL     1      -1.376   0.117  -0.469  1.00  0.00     0.121 A 
HETATM    2  N5  UNL     1      -0.548  -0.233   0.499  1.00  0.00    -0.332 N 
ATOM      3  H5  UNL     1      -0.839  -0.587   1.410  1.00  0.00     0.168 HD
HETATM    4  C6  UNL     1       0.744  -0.057   0.116  1.00  0.00     0.176 A 
HETATM    5  N9  UNL     1       0.717   0.413  -1.119  1.00  0.00    -0.324 N 
ATOM      6  H9  UNL     1       1.537   0.645  -1.679  1.00  0.00     0.169 HD
HETATM    7  C11 UNL     1      -0.539   0.536  -1.517  1.00  0.00     0.148 A 
HETATM    8  N10 UNL     1      -0.988   1.005  -2.775  1.00  0.00    -0.080 NA
ENDROOT
BRANCH   1   9
HETATM    9  C4  UNL     1      -2.823   0.114  -0.549  1.00  0.00     0.154 A 
HETATM   10  N1  UNL     1      -3.764  -0.248   0.341  1.00  0.00    -0.315 N 
HETATM   11  C1  UNL     1      -3.439  -0.746   1.653  1.00  0.00     0.159 C 
HETATM   12  C2  UNL     1      -4.986  -0.076  -0.181  1.00  0.00     0.190 A 
HETATM   13  N3  UNL     1      -4.812   0.414  -1.454  1.00  0.00    -0.279 N 
HETATM   14  N4  UNL     1      -3.524   0.518  -1.649  1.00  0.00    -0.282 N 
ATOM     15  H3  UNL     1      -5.548   0.651  -2.119  1.00  0.00     0.189 HD
ATOM     16  H4  UNL     1      -3.098   0.857  -2.511  1.00  0.00     0.188 HD
BRANCH  12  17
HETATM   17  C3  UNL     1      -6.287  -0.335   0.425  1.00  0.00     0.300 C 
HETATM   18  N2  UNL     1      -7.490  -0.078  -0.342  1.00  0.00    -0.054 NA
HETATM   19  O1  UNL     1      -6.493  -0.770   1.577  1.00  0.00    -0.268 OA
ENDBRANCH  12  17
ENDBRANCH   1   9
BRANCH   4  20
HETATM   20  C7  UNL     1       1.945  -0.325   0.888  1.00  0.00     0.287 C 
HETATM   21  O2  UNL     1       1.802  -0.774   2.058  1.00  0.00    -0.264 OA
HETATM   22  N6  UNL     1       3.208  -0.074   0.306  1.00  0.00    -0.326 N 
ATOM     23  H6  UNL     1       3.239   0.290  -0.646  1.00  0.00     0.165 HD
BRANCH  22  24
HETATM   24  C8  UNL     1       4.461  -0.308   0.995  1.00  0.00     0.250 C 
HETATM   25  C9  UNL     1       5.346  -1.291   0.299  1.00  0.00     0.177 C 
HETATM   26  N7  UNL     1       6.291  -0.421  -0.388  1.00  0.00    -0.355 N 
HETATM   27  C10 UNL     1       6.209   0.770   0.102  1.00  0.00     0.229 C 
ATOM     28  H7  UNL     1       6.919  -0.708  -1.139  1.00  0.00     0.162 HD
HETATM   29  N8  UNL     1       7.039   1.835  -0.399  1.00  0.00    -0.056 NA
HETATM   30  O3  UNL     1       5.258   0.828   1.111  1.00  0.00    -0.297 OA
ENDBRANCH  22  24
ENDBRANCH   4  20
TORSDOF 4
