REMARK  9 active torsions:
REMARK  status: ('A' for Active; 'I' for Inactive)
REMARK    1  A    between atoms: C2_2  and  O1_3 
REMARK    2  A    between atoms: O1_3  and  C3_4 
REMARK    3  A    between atoms: C3_4  and  C4_6 
REMARK    4  A    between atoms: C4_6  and  O3_7 
REMARK    5  A    between atoms: O3_7  and  N1_8 
REMARK    6  A    between atoms: N1_8  and  C5_10 
REMARK    7  A    between atoms: C6_13  and  N3_14 
REMARK       I    between atoms: N3_14  and  C7_16 
REMARK    8  A    between atoms: C9_24  and  N7_25 
REMARK    9  A    between atoms: N9_32  and  N10_33 
ROOT
HETATM    1  C5  UNL     1      -0.582   0.571   0.256  1.00  0.00     0.725 A 
HETATM    2  N2  UNL     1      -1.768   1.178   0.104  1.00  0.00    -0.171 N 
ATOM      3  H2  UNL     1      -1.775   2.184  -0.065  1.00  0.00     0.186 HD
HETATM    4  C6  UNL     1      -2.944   0.538   0.161  1.00  0.00     0.153 A 
HETATM    5  C8  UNL     1      -2.947  -0.816   0.386  1.00  0.00     0.124 A 
HETATM    6  N6  UNL     1      -4.124  -1.482   0.447  1.00  0.00    -0.186 N 
ATOM      7  H6  UNL     1      -5.004  -0.981   0.326  1.00  0.00     0.184 HD
HETATM    8  C9  UNL     1      -4.125  -2.803   0.667  1.00  0.00     0.676 A 
HETATM    9  N8  UNL     1      -2.963  -3.432   0.822  1.00  0.00    -0.200 N 
ATOM     10  H8  UNL     1      -2.982  -4.438   0.990  1.00  0.00     0.183 HD
HETATM   11  C10 UNL     1      -1.759  -2.820   0.771  1.00  0.00     0.140 A 
HETATM   12  C11 UNL     1      -1.743  -1.457   0.545  1.00  0.00     0.121 A 
HETATM   13  N9  UNL     1      -0.592  -0.756   0.477  1.00  0.00    -0.087 N 
ENDROOT
BRANCH   1  14
HETATM   14  N1  UNL     1       0.512   1.268   0.187  1.00  0.00    -0.094 N 
ATOM     15  H1  UNL     1       0.432   2.270   0.017  1.00  0.00     0.213 HD
BRANCH  14  16
HETATM   16  O3  UNL     1       1.750   0.745   0.327  1.00  0.00    -0.257 OA
BRANCH  16  17
HETATM   17  C4  UNL     1       2.672   0.890  -0.738  1.00  0.00     0.312 C 
BRANCH  17  18
HETATM   18  C3  UNL     1       3.939   0.229  -0.320  1.00  0.00     0.285 C 
HETATM   19  O2  UNL     1       4.065  -0.331   0.803  1.00  0.00    -0.263 OA
BRANCH  18  20
HETATM   20  O1  UNL     1       5.055   0.195  -1.150  1.00  0.00    -0.320 OA
BRANCH  20  21
HETATM   21  C2  UNL     1       6.253  -0.436  -0.744  1.00  0.00     0.174 C 
HETATM   22  C1  UNL     1       6.742   0.257   0.510  1.00  0.00     0.034 C 
ENDBRANCH  20  21
ENDBRANCH  18  20
ENDBRANCH  17  18
ENDBRANCH  16  17
ENDBRANCH  14  16
ENDBRANCH   1  14
BRANCH  13  23
HETATM   23  N10 UNL     1       0.637  -1.391   0.636  1.00  0.00    -0.324 N 
ATOM     24 2H10 UNL     1       1.507  -0.861   0.585  1.00  0.00     0.178 HD
ATOM     25 1H10 UNL     1       0.629  -2.397   0.804  1.00  0.00     0.178 HD
ENDBRANCH  13  23
BRANCH   4  26
HETATM   26  N3  UNL     1      -4.084   1.131   0.013  1.00  0.00    -0.315 N 
HETATM   27  C7  UNL     1      -4.223   2.518  -0.224  1.00  0.00     0.187 C 
HETATM   28  N4  UNL     1      -4.113   3.052  -1.384  1.00  0.00    -0.373 N 
HETATM   29  N5  UNL     1      -4.499   3.359   0.881  1.00  0.00    -0.064 NA
ATOM     30  H42 UNL     1      -3.914   2.446  -2.180  1.00  0.00     0.158 HD
ATOM     31  H41 UNL     1      -4.213   4.053  -1.555  1.00  0.00     0.158 HD
ATOM     32  H3  UNL     1      -4.931   0.566   0.071  1.00  0.00     0.170 HD
ENDBRANCH   4  26
BRANCH   8  33
HETATM   33  N7  UNL     1      -5.240  -3.465   0.730  1.00  0.00    -0.234 N 
ATOM     34  H72 UNL     1      -6.131  -2.983   0.611  1.00  0.00     0.174 HD
ATOM     35  H71 UNL     1      -5.241  -4.471   0.898  1.00  0.00     0.174 HD
ENDBRANCH   8  33
TORSDOF 9
