REMARK  9 active torsions:
REMARK  status: ('A' for Active; 'I' for Inactive)
REMARK    1  A    between atoms: O1_2  and  C2_3 
REMARK    2  A    between atoms: C2_3  and  O2_4 
REMARK    3  A    between atoms: C3_6  and  N1_7 
REMARK    4  A    between atoms: C4_11  and  N2_12 
REMARK    5  A    between atoms: C4_11  and  C5_17 
REMARK    6  A    between atoms: N2_12  and  N3_14 
REMARK    7  A    between atoms: C6_22  and  N5_23 
REMARK    8  A    between atoms: N5_23  and  N6_25 
REMARK    9  A    between atoms: C7_30  and  O7_31 
ROOT
HETATM    1  C2  UNL     1      -1.237  -0.081   0.282  1.00  0.00     0.245 C 
HETATM    2  C3  UNL     1      -0.186  -1.097   0.008  1.00  0.00     0.310 C 
HETATM    3  C4  UNL     1       1.208  -0.510  -0.083  1.00  0.00     0.244 C 
HETATM    4  N4  UNL     1       1.186   0.630  -0.940  1.00  0.00    -0.360 N 
ATOM      5  H4  UNL     1       1.755   0.681  -1.785  1.00  0.00     0.158 HD
HETATM    6  C6  UNL     1       0.328   1.688  -0.549  1.00  0.00     0.252 C 
HETATM    7  C7  UNL     1      -1.096   1.170  -0.551  1.00  0.00     0.244 C 
HETATM    8  C8  UNL     1      -1.645   1.039  -1.895  1.00  0.00     0.108 C 
HETATM    9  N8  UNL     1      -2.093   0.950  -2.954  1.00  0.00    -0.194 NA
ENDROOT
BRANCH   7  10
HETATM   10  O7  UNL     1      -1.864   2.166   0.097  1.00  0.00    -0.368 OA
ATOM     11  H7  UNL     1      -1.775   2.953  -0.427  1.00  0.00     0.212 HD
ENDBRANCH   7  10
BRANCH   1  12
HETATM   12  O1  UNL     1      -2.495  -0.590   0.059  1.00  0.00    -0.355 OA
HETATM   13  C1  UNL     1      -2.837  -1.679   0.845  1.00  0.00     0.205 C 
ENDBRANCH   1  12
BRANCH   1  14
HETATM   14  O2  UNL     1      -1.078   0.349   1.617  1.00  0.00    -0.360 OA
ATOM     15  H2  UNL     1      -0.209   0.701   1.771  1.00  0.00     0.213 HD
ENDBRANCH   1  14
BRANCH   6  16
HETATM   16  N5  UNL     1       0.563   2.236   0.763  1.00  0.00    -0.295 N 
ATOM     17  H5  UNL     1       1.080   1.705   1.464  1.00  0.00     0.184 HD
BRANCH  16  18
HETATM   18  N6  UNL     1       0.129   3.354   1.019  1.00  0.00    -0.252 N 
HETATM   19  N7  UNL     1      -0.387   4.262   1.688  1.00  0.00    -0.331 N 
ATOM     20  H72 UNL     1      -0.533   3.739   2.551  1.00  0.00     0.178 HD
ATOM     21  H71 UNL     1      -0.748   5.192   1.901  1.00  0.00     0.178 HD
ATOM     22  H6  UNL     1       0.295   3.834   0.135  1.00  0.00     0.207 HD
ENDBRANCH  16  18
ENDBRANCH   6  16
BRANCH   2  23
HETATM   23  N1  UNL     1      -0.446  -1.888  -1.173  1.00  0.00    -0.065 N 
ATOM     24  H13 UNL     1      -1.366  -2.325  -1.120  1.00  0.00     0.275 HD
ATOM     25  H12 UNL     1      -0.590  -1.288  -1.985  1.00  0.00     0.275 HD
ATOM     26  H11 UNL     1       0.275  -2.585  -1.361  1.00  0.00     0.275 HD
ENDBRANCH   2  23
BRANCH   3  27
HETATM   27  N2  UNL     1       1.732  -0.209   1.242  1.00  0.00    -0.236 N 
ATOM     28  H2  UNL     1       1.173  -0.404   2.072  1.00  0.00     0.190 HD
BRANCH  27  29
HETATM   29  N3  UNL     1       2.999   0.345   1.366  1.00  0.00    -0.041 N 
HETATM   30  O3  UNL     1       3.527   0.459   2.503  1.00  0.00    -0.517 OA
HETATM   31  O4  UNL     1       3.764   0.802   0.318  1.00  0.00    -0.517 OA
ENDBRANCH  27  29
ENDBRANCH   3  27
BRANCH   3  32
HETATM   32  C5  UNL     1       2.092  -1.532  -0.683  1.00  0.00     0.228 C 
HETATM   33  O5  UNL     1       3.050  -1.966  -0.005  1.00  0.00    -0.645 OA
HETATM   34  O6  UNL     1       1.953  -2.063  -1.954  1.00  0.00    -0.645 OA
ENDBRANCH   3  32
TORSDOF 9
