REMARK  21 active torsions:
REMARK  status: ('A' for Active; 'I' for Inactive)
REMARK    1  A    between atoms: C2_2  and  C3_3 
REMARK    2  A    between atoms: C3_3  and  N1_4 
REMARK    3  A    between atoms: N1_4  and  C4_5 
REMARK    4  A    between atoms: N1_4  and  C6_7 
REMARK    5  A    between atoms: C6_7  and  S2_9 
REMARK    6  A    between atoms: S2_9  and  S3_10 
REMARK    7  A    between atoms: S3_10  and  C7_11 
REMARK    8  A    between atoms: C7_11  and  N3_15 
REMARK    9  A    between atoms: N3_15  and  C8_17 
REMARK   10  A    between atoms: C8_17  and  C9_18 
REMARK   11  A    between atoms: C9_18  and  C10_19 
REMARK   12  A    between atoms: C10_19  and  C11_20 
REMARK   13  A    between atoms: C11_20  and  C12_21 
REMARK   14  A    between atoms: C12_21  and  C13_22 
REMARK   15  A    between atoms: C13_22  and  C14_23 
REMARK   16  A    between atoms: C14_23  and  C15_24 
REMARK   17  A    between atoms: C15_24  and  O1_25 
REMARK   18  A    between atoms: O1_25  and  C16_26 
REMARK   19  A    between atoms: C17_30  and  O2_31 
REMARK   20  A    between atoms: C18_34  and  S4_35 
REMARK   21  A    between atoms: C20_37  and  O4_38 
ROOT
HETATM    1  C11 UNL     1       1.136  -0.291  -1.341  1.00  0.00     0.000 C 
ENDROOT
BRANCH   1   2
HETATM    2  C10 UNL     1       0.128  -0.117  -0.247  1.00  0.00     0.002 C 
BRANCH   2   3
HETATM    3  C9  UNL     1      -0.685  -1.356  -0.048  1.00  0.00     0.020 C 
BRANCH   3   4
HETATM    4  C8  UNL     1      -1.432  -1.718  -1.312  1.00  0.00     0.121 C 
BRANCH   4   5
HETATM    5  N3  UNL     1      -2.341  -0.672  -1.742  1.00  0.00    -0.370 N 
ATOM      6  H3  UNL     1      -2.134  -0.158  -2.598  1.00  0.00     0.161 HD
BRANCH   5   7
HETATM    7  C7  UNL     1      -3.498  -0.346  -1.013  1.00  0.00     0.144 C 
HETATM    8  N2  UNL     1      -3.595   0.770  -0.382  1.00  0.00    -0.379 N 
ATOM      9  H22 UNL     1      -4.434   1.007   0.147  1.00  0.00     0.158 HD
ATOM     10  H21 UNL     1      -2.811   1.422  -0.419  1.00  0.00     0.158 HD
BRANCH   7  11
HETATM   11  S3  UNL     1      -4.869  -1.487  -0.949  1.00  0.00    -0.015 SA
BRANCH  11  12
HETATM   12  S2  UNL     1      -6.487  -0.751   0.172  1.00  0.00    -0.020 SA
BRANCH  12  13
HETATM   13  C6  UNL     1      -7.621   0.166  -0.836  1.00  0.00     0.148 C 
HETATM   14  S1  UNL     1      -7.220   0.309  -2.441  1.00  0.00    -0.052 SA
BRANCH  13  15
HETATM   15  N1  UNL     1      -8.778   0.736  -0.326  1.00  0.00    -0.363 N 
BRANCH  15  16
HETATM   16  C3  UNL     1      -9.222   0.693   1.016  1.00  0.00     0.150 C 
BRANCH  16  17
HETATM   17  C2  UNL     1      -8.325   0.104   2.017  1.00  0.00    -0.017 C 
HETATM   18  C1  UNL     1      -8.703  -0.974   2.690  1.00  0.00     0.008 C 
ENDBRANCH  16  17
ENDBRANCH  15  16
BRANCH  15  19
HETATM   19  C4  UNL     1      -9.664   1.435  -1.282  1.00  0.00     0.120 C 
HETATM   20  C5  UNL     1     -10.936   0.665  -1.474  1.00  0.00     0.026 C 
ENDBRANCH  15  19
ENDBRANCH  13  15
ENDBRANCH  12  13
ENDBRANCH  11  12
ENDBRANCH   7  11
ENDBRANCH   5   7
ENDBRANCH   4   5
ENDBRANCH   3   4
ENDBRANCH   2   3
ENDBRANCH   1   2
BRANCH   1  21
HETATM   21  C12 UNL     1       1.920   1.000  -1.481  1.00  0.00     0.000 C 
BRANCH  21  22
HETATM   22  C13 UNL     1       2.655   1.389  -0.240  1.00  0.00     0.002 C 
BRANCH  22  23
HETATM   23  C14 UNL     1       3.648   0.327   0.178  1.00  0.00     0.026 C 
BRANCH  23  24
HETATM   24  C15 UNL     1       4.692   0.067  -0.873  1.00  0.00     0.170 C 
BRANCH  24  25
HETATM   25  O1  UNL     1       5.630  -0.882  -0.545  1.00  0.00    -0.357 OA
BRANCH  25  26
HETATM   26  C16 UNL     1       6.358  -0.505   0.549  1.00  0.00     0.359 C 
HETATM   27  N4  UNL     1       6.228  -1.417   1.667  1.00  0.00     0.004 N 
HETATM   28  C17 UNL     1       7.392  -2.208   1.900  1.00  0.00     0.471 C 
ATOM     29  H42 UNL     1       5.960  -0.914   2.513  1.00  0.00     0.286 HD
ATOM     30  H41 UNL     1       5.406  -2.011   1.554  1.00  0.00     0.286 HD
HETATM   31  O3  UNL     1       8.537  -1.480   2.213  1.00  0.00    -0.320 OA
HETATM   32  C18 UNL     1       8.548  -0.235   1.581  1.00  0.00     0.220 C 
HETATM   33  C20 UNL     1       7.848  -0.414   0.250  1.00  0.00     0.213 C 
BRANCH  28  34
HETATM   34  O2  UNL     1       7.133  -3.028   3.004  1.00  0.00    -0.349 OA
ATOM     35  H2  UNL     1       7.908  -3.555   3.159  1.00  0.00     0.214 HD
ENDBRANCH  28  34
BRANCH  32  36
HETATM   36  S4  UNL     1       7.727   0.930   2.667  1.00  0.00    -0.139 SA
HETATM   37  C19 UNL     1       7.625   2.594   2.022  1.00  0.00     0.092 C 
ENDBRANCH  32  36
BRANCH  33  38
HETATM   38  O4  UNL     1       8.133   0.662  -0.588  1.00  0.00    -0.388 OA
ATOM     39  H4  UNL     1       9.063   0.719  -0.775  1.00  0.00     0.210 HD
ENDBRANCH  33  38
ENDBRANCH  25  26
ENDBRANCH  24  25
ENDBRANCH  23  24
ENDBRANCH  22  23
ENDBRANCH  21  22
ENDBRANCH   1  21
TORSDOF 21
