REMARK  16 active torsions:
REMARK  status: ('A' for Active; 'I' for Inactive)
REMARK    1  A    between atoms: C2_2  and  C3_3 
REMARK    2  A    between atoms: C3_3  and  C4_4 
REMARK    3  A    between atoms: C4_4  and  C5_5 
REMARK    4  A    between atoms: C5_5  and  C6_6 
REMARK    5  A    between atoms: C6_6  and  C7_7 
REMARK    6  A    between atoms: C7_7  and  C8_8 
REMARK    7  A    between atoms: C8_8  and  C9_9 
REMARK    8  A    between atoms: C9_9  and  C10_10 
REMARK    9  A    between atoms: C10_10  and  C11_11 
REMARK   10  A    between atoms: C11_11  and  C12_12 
REMARK   11  A    between atoms: C12_12  and  N1_13 
REMARK       I    between atoms: N1_13  and  C13_15 
REMARK       I    between atoms: C13_15  and  N2_17 
REMARK   12  A    between atoms: N2_17  and  C14_18 
REMARK   13  A    between atoms: N2_17  and  C15_21 
REMARK   14  A    between atoms: C14_18  and  O2_19 
REMARK   15  A    between atoms: C16_24  and  N4_25 
REMARK   16  A    between atoms: C19_34  and  C20_35 
ROOT
HETATM    1  C15 UNL     1      -2.569   1.580  -1.294  1.00  0.00     0.158 A 
HETATM    2  N3  UNL     1      -1.922   2.768  -1.494  1.00  0.00    -0.174 N 
ATOM      3  H3  UNL     1      -0.936   2.752  -1.755  1.00  0.00     0.186 HD
HETATM    4  C16 UNL     1      -2.536   3.957  -1.360  1.00  0.00     0.678 A 
HETATM    5  N5  UNL     1      -3.831   4.039  -1.020  1.00  0.00    -0.189 N 
ATOM      6  H5  UNL     1      -4.288   4.946  -0.921  1.00  0.00     0.184 HD
HETATM    7  C17 UNL     1      -4.516   2.895  -0.812  1.00  0.00     0.093 A 
HETATM    8  C18 UNL     1      -3.884   1.648  -0.949  1.00  0.00     0.107 A 
HETATM    9  N6  UNL     1      -4.578   0.514  -0.740  1.00  0.00    -0.347 N 
ATOM     10  H6  UNL     1      -4.100  -0.381  -0.845  1.00  0.00     0.166 HD
HETATM   11  C19 UNL     1      -5.880   0.517  -0.398  1.00  0.00     0.092 A 
HETATM   12  C23 UNL     1      -6.493   1.758  -0.266  1.00  0.00     0.091 A 
HETATM   13  N10 UNL     1      -7.763   2.106   0.060  1.00  0.00    -0.298 N 
ATOM     14  H10 UNL     1      -8.511   1.446   0.271  1.00  0.00     0.187 HD
HETATM   15  N11 UNL     1      -7.894   3.418   0.065  1.00  0.00    -0.310 N 
ATOM     16  H11 UNL     1      -8.753   3.924   0.280  1.00  0.00     0.186 HD
HETATM   17  C24 UNL     1      -6.719   3.983  -0.258  1.00  0.00     0.123 A 
HETATM   18  C25 UNL     1      -5.836   2.950  -0.467  1.00  0.00     0.041 A 
ENDROOT
BRANCH   1  19
HETATM   19  N2  UNL     1      -1.850   0.394  -1.447  1.00  0.00    -0.261 N 
HETATM   20  C13 UNL     1      -0.870   0.085  -0.422  1.00  0.00     0.325 C 
HETATM   21  N1  UNL     1      -0.916   0.810   0.790  1.00  0.00    -0.343 N 
HETATM   22  O1  UNL     1      -0.048  -0.808  -0.688  1.00  0.00    -0.247 OA
ATOM     23  H1  UNL     1      -1.653   1.505   0.910  1.00  0.00     0.164 HD
BRANCH  21  24
HETATM   24  C12 UNL     1       0.020   0.620   1.862  1.00  0.00     0.124 C 
BRANCH  24  25
HETATM   25  C11 UNL     1       0.147  -0.796   2.343  1.00  0.00     0.020 C 
BRANCH  25  26
HETATM   26  C10 UNL     1       1.113  -0.917   3.473  1.00  0.00     0.002 C 
BRANCH  26  27
HETATM   27  C9  UNL     1       2.485  -0.455   3.345  1.00  0.00     0.000 C 
BRANCH  27  28
HETATM   28  C8  UNL     1       3.455  -1.057   2.423  1.00  0.00     0.000 C 
BRANCH  28  29
HETATM   29  C7  UNL     1       3.121  -1.030   0.999  1.00  0.00     0.000 C 
BRANCH  29  30
HETATM   30  C6  UNL     1       4.255  -1.525   0.075  1.00  0.00     0.000 C 
BRANCH  30  31
HETATM   31  C5  UNL     1       5.451  -0.639   0.211  1.00  0.00     0.000 C 
BRANCH  31  32
HETATM   32  C4  UNL     1       6.530  -1.137  -0.761  1.00  0.00     0.000 C 
BRANCH  32  33
HETATM   33  C3  UNL     1       7.751  -0.229  -0.647  1.00  0.00    -0.000 C 
BRANCH  33  34
HETATM   34  C2  UNL     1       8.794  -0.720  -1.603  1.00  0.00    -0.005 C 
HETATM   35  C1  UNL     1      10.041   0.121  -1.584  1.00  0.00     0.005 C 
ENDBRANCH  33  34
ENDBRANCH  32  33
ENDBRANCH  31  32
ENDBRANCH  30  31
ENDBRANCH  29  30
ENDBRANCH  28  29
ENDBRANCH  27  28
ENDBRANCH  26  27
ENDBRANCH  25  26
ENDBRANCH  24  25
ENDBRANCH  21  24
BRANCH  19  36
HETATM   36  C14 UNL     1      -2.021  -0.547  -2.517  1.00  0.00     0.302 C 
BRANCH  36  37
HETATM   37  O2  UNL     1      -1.168  -0.271  -3.583  1.00  0.00    -0.382 OA
ATOM     38  H2  UNL     1      -1.281  -0.894  -4.291  1.00  0.00     0.211 HD
ENDBRANCH  36  37
ENDBRANCH  19  36
ENDBRANCH   1  19
BRANCH   4  39
HETATM   39  N4  UNL     1      -1.831   5.047  -1.571  1.00  0.00    -0.234 N 
ATOM     40  H42 UNL     1      -0.846   4.985  -1.830  1.00  0.00     0.174 HD
ATOM     41  H41 UNL     1      -2.297   5.949  -1.469  1.00  0.00     0.174 HD
ENDBRANCH   4  39
BRANCH  11  42
HETATM   42  C20 UNL     1      -6.645  -0.703  -0.167  1.00  0.00     0.095 A 
HETATM   43  C21 UNL     1      -6.284  -2.015  -0.214  1.00  0.00     0.144 A 
HETATM   44  N7  UNL     1      -7.344  -2.783   0.079  1.00  0.00    -0.291 N 
HETATM   45  C22 UNL     1      -7.431  -4.233   0.153  1.00  0.00     0.178 C 
HETATM   46  N8  UNL     1      -8.354  -1.950   0.308  1.00  0.00    -0.241 N 
HETATM   47  N9  UNL     1      -7.954  -0.710   0.165  1.00  0.00    -0.283 N 
ATOM     48  H8  UNL     1      -9.301  -2.234   0.558  1.00  0.00     0.208 HD
ATOM     49  H9  UNL     1      -8.538   0.117   0.285  1.00  0.00     0.188 HD
ENDBRANCH  11  42
TORSDOF 16
