REMARK  9 active torsions:
REMARK  status: ('A' for Active; 'I' for Inactive)
REMARK    1  A    between atoms: C2_2  and  C3_3 
REMARK    2  A    between atoms: C3_3  and  C4_4 
REMARK    3  A    between atoms: C4_4  and  N1_5 
REMARK    4  A    between atoms: N1_5  and  C5_7 
REMARK    5  A    between atoms: C5_7  and  N2_9 
REMARK    6  A    between atoms: N2_9  and  N3_11 
REMARK    7  A    between atoms: N3_11  and  C6_13 
REMARK    8  A    between atoms: C6_13  and  N4_15 
REMARK    9  A    between atoms: N4_15  and  C7_17 
ROOT
HETATM    1  C6  UNL     1       0.526  -1.180   0.683  1.00  0.00     0.190 C 
HETATM    2  S2  UNL     1       0.464  -0.496   2.128  1.00  0.00    -0.039 SA
ENDROOT
BRANCH   1   3
HETATM    3  N3  UNL     1       1.758  -1.815   0.309  1.00  0.00    -0.274 N 
ATOM      4  H3  UNL     1       2.541  -1.817   0.963  1.00  0.00     0.189 HD
BRANCH   3   5
HETATM    5  N2  UNL     1       1.900  -2.427  -0.929  1.00  0.00    -0.274 N 
ATOM      6  H2  UNL     1       1.307  -3.232  -1.130  1.00  0.00     0.189 HD
BRANCH   5   7
HETATM    7  C5  UNL     1       2.790  -2.022  -1.913  1.00  0.00     0.186 C 
HETATM    8  S1  UNL     1       2.822  -2.882  -3.358  1.00  0.00    -0.040 SA
BRANCH   7   9
HETATM    9  N1  UNL     1       3.684  -0.956  -1.841  1.00  0.00    -0.366 N 
ATOM     10  H1  UNL     1       4.272  -0.782  -2.656  1.00  0.00     0.161 HD
BRANCH   9  11
HETATM   11  C4  UNL     1       3.844  -0.088  -0.721  1.00  0.00     0.122 C 
BRANCH  11  12
HETATM   12  C3  UNL     1       4.898   0.984  -1.069  1.00  0.00     0.019 C 
BRANCH  12  13
HETATM   13  C2  UNL     1       5.032   1.874   0.138  1.00  0.00    -0.003 C 
HETATM   14  C1  UNL     1       5.479   1.028   1.307  1.00  0.00     0.005 C 
ENDBRANCH  12  13
ENDBRANCH  11  12
ENDBRANCH   9  11
ENDBRANCH   7   9
ENDBRANCH   5   7
ENDBRANCH   3   5
ENDBRANCH   1   3
BRANCH   1  15
HETATM   15  N4  UNL     1      -0.534  -1.182  -0.213  1.00  0.00    -0.339 N 
ATOM     16  H4  UNL     1      -0.313  -1.656  -1.088  1.00  0.00     0.168 HD
BRANCH  15  17
HETATM   17  C7  UNL     1      -1.854  -0.672  -0.182  1.00  0.00    -0.003 C 
HETATM   18  C8  UNL     1      -2.820  -1.170   0.821  1.00  0.00     0.032 C 
HETATM   19  C9  UNL     1      -3.130  -0.317   1.999  1.00  0.00     0.015 C 
HETATM   20  C13 UNL     1      -4.182  -1.196   0.035  1.00  0.00     0.015 C 
HETATM   21  C10 UNL     1      -3.453   1.130   1.620  1.00  0.00    -0.013 C 
HETATM   22  C11 UNL     1      -4.747   1.120   0.829  1.00  0.00     0.009 C 
HETATM   23  C16 UNL     1      -2.297   1.632   0.796  1.00  0.00     0.015 C 
HETATM   24  C12 UNL     1      -4.499   0.221  -0.371  1.00  0.00    -0.013 C 
HETATM   25  C14 UNL     1      -3.411   0.861  -1.184  1.00  0.00     0.015 C 
HETATM   26  C15 UNL     1      -2.059   0.785  -0.419  1.00  0.00     0.032 C 
ENDBRANCH  15  17
ENDBRANCH   1  15
TORSDOF 9
