REMARK  4 active torsions:
REMARK  status: ('A' for Active; 'I' for Inactive)
REMARK    1  A    between atoms: C2_2  and  N1_4 
REMARK       I    between atoms: N1_4  and  C4_6 
REMARK       I    between atoms: C4_6  and  N2_8 
REMARK    2  A    between atoms: N5_18  and  C9_20 
REMARK    3  A    between atoms: C9_20  and  C10_21 
REMARK    4  A    between atoms: C10_21  and  C13_24 
ROOT
HETATM    1  N1  UNL     1       5.290   0.701   0.132  1.00  0.00    -0.339 N 
ATOM      2  H1  UNL     1       4.792   0.789  -0.754  1.00  0.00     0.164 HD
HETATM    3  C4  UNL     1       4.601   0.892   1.342  1.00  0.00     0.321 C 
HETATM    4  O1  UNL     1       5.206   0.785   2.428  1.00  0.00    -0.247 OA
HETATM    5  N2  UNL     1       3.225   1.205   1.332  1.00  0.00    -0.309 N 
ATOM      6  H2  UNL     1       2.906   2.155   1.525  1.00  0.00     0.170 HD
HETATM    7  C5  UNL     1       2.377   0.266   1.074  1.00  0.00     0.039 A 
HETATM    8  C6  UNL     1       2.641  -1.149   0.775  1.00  0.00     0.061 A 
HETATM    9  C7  UNL     1       1.467  -1.728   0.578  1.00  0.00     0.064 A 
HETATM   10  N3  UNL     1       0.938  -2.927   0.281  1.00  0.00    -0.298 N 
ATOM     11  H3  UNL     1       1.460  -3.788   0.120  1.00  0.00     0.187 HD
HETATM   12  N4  UNL     1      -0.375  -2.797   0.234  1.00  0.00    -0.285 N 
ATOM     13  H4  UNL     1      -1.024  -3.556   0.028  1.00  0.00     0.188 HD
HETATM   14  C8  UNL     1      -0.742  -1.528   0.495  1.00  0.00     0.128 A 
HETATM   15  N5  UNL     1      -1.947  -1.082   0.525  1.00  0.00    -0.374 N 
ATOM     16  H5  UNL     1      -2.714  -1.728   0.338  1.00  0.00     0.161 HD
HETATM   17  C17 UNL     1       0.436  -0.828   0.719  1.00  0.00     0.039 A 
HETATM   18  C18 UNL     1       0.910   0.373   1.013  1.00  0.00     0.047 A 
ENDROOT
BRANCH  15  19
HETATM   19  C9  UNL     1      -2.258   0.304   0.815  1.00  0.00     0.130 C 
BRANCH  19  20
HETATM   20  C10 UNL     1      -3.749   0.521   0.860  1.00  0.00    -0.025 C 
HETATM   21  C11 UNL     1      -4.340  -0.353   1.940  1.00  0.00     0.017 C 
HETATM   22  C12 UNL     1      -3.972   1.959   1.297  1.00  0.00     0.017 C 
BRANCH  20  23
HETATM   23  C13 UNL     1      -4.411   0.336  -0.464  1.00  0.00    -0.043 C 
HETATM   24  C14 UNL     1      -3.890   1.289  -1.517  1.00  0.00     0.015 C 
HETATM   25  C15 UNL     1      -5.908   0.589  -0.367  1.00  0.00     0.015 C 
HETATM   26  C16 UNL     1      -4.238  -1.063  -1.018  1.00  0.00     0.015 C 
ENDBRANCH  20  23
ENDBRANCH  19  20
ENDBRANCH  15  19
BRANCH   1  27
HETATM   27  C2  UNL     1       6.698   0.381   0.135  1.00  0.00     0.078 C 
HETATM   28  C1  UNL     1       7.419   1.450  -0.663  1.00  0.00     0.032 C 
HETATM   29  C3  UNL     1       6.852  -0.976  -0.536  1.00  0.00     0.032 C 
ENDBRANCH   1  27
TORSDOF 4
