REMARK  7 active torsions:
REMARK  status: ('A' for Active; 'I' for Inactive)
REMARK    1  A    between atoms: C2_2  and  N1_4 
REMARK       I    between atoms: N1_4  and  C4_5 
REMARK       I    between atoms: C4_5  and  N2_7 
REMARK    2  A    between atoms: N2_7  and  C5_9 
REMARK    3  A    between atoms: C5_9  and  C6_13 
REMARK    4  A    between atoms: C6_13  and  C7_14 
REMARK    5  A    between atoms: C7_14  and  N4_15 
REMARK       I    between atoms: N4_15  and  C8_17 
REMARK       I    between atoms: C8_17  and  N5_19 
REMARK    6  A    between atoms: N5_19  and  C9_21 
REMARK    7  A    between atoms: C13_27  and  C14_28 
ROOT
HETATM    1  N4  UNL     1      -0.363   0.285  -0.760  1.00  0.00    -0.342 N 
ATOM      2  H4  UNL     1      -0.659  -0.402  -1.453  1.00  0.00     0.164 HD
HETATM    3  C8  UNL     1      -1.200   0.633   0.340  1.00  0.00     0.321 C 
HETATM    4  O2  UNL     1      -0.857   1.478   1.206  1.00  0.00    -0.247 OA
HETATM    5  N5  UNL     1      -2.488   0.032   0.518  1.00  0.00    -0.294 N 
ATOM      6  H5  UNL     1      -2.530  -0.898   0.935  1.00  0.00     0.172 HD
ENDROOT
BRANCH   1   7
HETATM    7  C7  UNL     1       0.919   0.940  -0.857  1.00  0.00     0.132 C 
BRANCH   7   8
HETATM    8  C6  UNL     1       1.712   0.498  -2.048  1.00  0.00     0.096 C 
BRANCH   8   9
HETATM    9  C5  UNL     1       3.012   1.203  -2.048  1.00  0.00     0.081 C 
HETATM   10  N3  UNL     1       3.111   2.345  -2.724  1.00  0.00    -0.389 N 
ATOM     11  H32 UNL     1       4.008   2.831  -2.724  1.00  0.00     0.157 HD
ATOM     12  H31 UNL     1       2.263   2.619  -3.219  1.00  0.00     0.157 HD
BRANCH   9  13
HETATM   13  N2  UNL     1       4.171   0.828  -1.371  1.00  0.00    -0.286 N 
HETATM   14  C4  UNL     1       4.375  -0.348  -0.594  1.00  0.00     0.399 C 
HETATM   15  N1  UNL     1       5.533  -0.595   0.017  1.00  0.00    -0.362 NA
HETATM   16  O1  UNL     1       3.373  -1.167  -0.514  1.00  0.00    -0.230 OA
ATOM     17  H2  UNL     1       4.962   1.468  -1.440  1.00  0.00     0.173 HD
BRANCH  15  18
HETATM   18  C2  UNL     1       6.606  -0.860   0.456  1.00  0.00     0.060 C 
HETATM   19  C1  UNL     1       7.699  -1.506  -0.395  1.00  0.00     0.079 C 
HETATM   20  C3  UNL     1       7.059  -0.609   1.891  1.00  0.00     0.079 C 
ENDBRANCH  15  18
ENDBRANCH   9  13
ENDBRANCH   8   9
ENDBRANCH   7   8
ENDBRANCH   1   7
BRANCH   5  21
HETATM   21  C9  UNL     1      -3.596   0.597   0.183  1.00  0.00     0.115 A 
HETATM   22  N6  UNL     1      -3.656   1.804  -0.365  1.00  0.00    -0.352 N 
HETATM   23  C10 UNL     1      -4.832   2.346  -0.699  1.00  0.00     0.089 A 
ATOM     24  H6  UNL     1      -2.795   2.324  -0.533  1.00  0.00     0.166 HD
HETATM   25  C11 UNL     1      -5.992   1.642  -0.471  1.00  0.00     0.018 A 
HETATM   26  C12 UNL     1      -5.956   0.388   0.097  1.00  0.00     0.012 A 
HETATM   27  C13 UNL     1      -4.753  -0.149   0.430  1.00  0.00    -0.011 A 
BRANCH  27  28
HETATM   28  C14 UNL     1      -4.629  -1.500   1.049  1.00  0.00     0.014 C 
HETATM   29  C15 UNL     1      -5.998  -2.134   1.045  1.00  0.00     0.015 C 
HETATM   30  C16 UNL     1      -4.104  -1.312   2.457  1.00  0.00     0.015 C 
ENDBRANCH  27  28
ENDBRANCH   5  21
TORSDOF 7
