REMARK  5 active torsions:
REMARK  status: ('A' for Active; 'I' for Inactive)
REMARK    1  A    between atoms: C2_2  and  C3_3 
REMARK    2  A    between atoms: C4_4  and  C5_5 
REMARK    3  A    between atoms: C10_14  and  C11_15 
REMARK    4  A    between atoms: C11_15  and  C12_16 
REMARK    5  A    between atoms: C15_25  and  C16_26 
ROOT
HETATM    1  C3  UNL     1       2.318  -0.135   0.372  1.00  0.00     0.001 A 
HETATM    2  C4  UNL     1       3.428  -0.109  -0.424  1.00  0.00     0.021 A 
HETATM    3  N1  UNL     1       3.042  -0.426  -1.697  1.00  0.00    -0.344 N 
ATOM      4  H1  UNL     1       3.657  -0.485  -2.509  1.00  0.00     0.167 HD
HETATM    5  C7  UNL     1       1.731  -0.644  -1.698  1.00  0.00     0.118 A 
HETATM    6  N2  UNL     1       0.724  -0.973  -2.516  1.00  0.00    -0.342 N 
ATOM      7  H2  UNL     1       0.802  -1.159  -3.516  1.00  0.00     0.167 HD
HETATM    8  C8  UNL     1      -0.434  -1.017  -1.777  1.00  0.00     0.035 A 
HETATM    9  C9  UNL     1      -1.605  -1.303  -2.302  1.00  0.00     0.044 C 
HETATM   10  C10 UNL     1      -0.140  -0.709  -0.472  1.00  0.00     0.007 A 
HETATM   11  C18 UNL     1       1.243  -0.474  -0.440  1.00  0.00     0.033 A 
ENDROOT
BRANCH  10  12
HETATM   12  C11 UNL     1      -0.891  -0.652   0.590  1.00  0.00     0.045 C 
BRANCH  12  13
HETATM   13  C12 UNL     1      -2.310  -0.904   0.746  1.00  0.00     0.046 A 
HETATM   14  N3  UNL     1      -2.779  -2.159   0.820  1.00  0.00    -0.332 N 
HETATM   15  C13 UNL     1      -4.084  -2.436   1.014  1.00  0.00     0.179 A 
ATOM     16  H3  UNL     1      -2.122  -2.934   0.726  1.00  0.00     0.168 HD
HETATM   17  S1  UNL     1      -4.671  -3.955   1.111  1.00  0.00    -0.040 SA
HETATM   18  N4  UNL     1      -4.932  -1.389   1.135  1.00  0.00    -0.300 N 
HETATM   19  C14 UNL     1      -4.553  -0.109   1.074  1.00  0.00     0.256 A 
ATOM     20  H4  UNL     1      -5.921  -1.589   1.282  1.00  0.00     0.171 HD
HETATM   21  O1  UNL     1      -5.367   0.842   1.190  1.00  0.00    -0.267 OA
HETATM   22  C15 UNL     1      -3.183   0.141   0.871  1.00  0.00     0.036 A 
BRANCH  22  23
HETATM   23  C16 UNL     1      -2.773   1.549   0.834  1.00  0.00     0.042 C 
HETATM   24  C17 UNL     1      -2.542   2.156  -0.497  1.00  0.00     0.010 C 
ENDBRANCH  22  23
ENDBRANCH  12  13
ENDBRANCH  10  12
BRANCH   1  25
HETATM   25  C2  UNL     1       2.223   0.130   1.788  1.00  0.00     0.004 C 
HETATM   26  C1  UNL     1       2.581   1.189   2.446  1.00  0.00     0.012 C 
ENDBRANCH   1  25
BRANCH   2  27
HETATM   27  C5  UNL     1       4.818   0.191  -0.096  1.00  0.00     0.053 C 
HETATM   28  C6  UNL     1       5.197   1.620   0.004  1.00  0.00     0.011 C 
ENDBRANCH   2  27
TORSDOF 5
