REMARK  5 active torsions:
REMARK  status: ('A' for Active; 'I' for Inactive)
REMARK    1  A    between atoms: C5_10  and  C6_11 
REMARK    2  A    between atoms: C6_11  and  N3_12 
REMARK       I    between atoms: N3_12  and  C7_14 
REMARK    3  A    between atoms: C7_14  and  C8_16 
REMARK    4  A    between atoms: C8_16  and  C9_17 
REMARK    5  A    between atoms: N4_20  and  C12_21 
ROOT
HETATM    1  C6  UNL     1      -2.108  -2.204   1.317  1.00  0.00     0.068 C 
ENDROOT
BRANCH   1   2
HETATM    2  C5  UNL     1      -3.232  -1.294   1.040  1.00  0.00     0.024 C 
HETATM    3  C4  UNL     1      -3.026   0.167   1.112  1.00  0.00     0.014 C 
HETATM    4  C3  UNL     1      -4.446   0.796   1.173  1.00  0.00     0.054 C 
HETATM    5  C2  UNL     1      -5.107   0.488  -0.129  1.00  0.00     0.108 C 
HETATM    6  N2  UNL     1      -6.363   1.201  -0.246  1.00  0.00    -0.336 N 
HETATM    7  C18 UNL     1      -5.203  -0.992  -0.415  1.00  0.00     0.054 C 
HETATM    8  N5  UNL     1      -4.654   1.307  -1.223  1.00  0.00    -0.336 N 
HETATM    9  C1  UNL     1      -5.653   2.252  -0.887  1.00  0.00     0.172 C 
ATOM     10  H2  UNL     1      -7.333   1.025   0.017  1.00  0.00     0.165 HD
HETATM   11  N1  UNL     1      -5.875   3.525  -1.059  1.00  0.00    -0.371 N 
ATOM     12  H12 UNL     1      -6.595   4.206  -0.817  1.00  0.00     0.159 HD
ATOM     13  H11 UNL     1      -5.365   4.279  -1.519  1.00  0.00     0.159 HD
HETATM   14  C17 UNL     1      -3.845  -1.603  -0.328  1.00  0.00     0.014 C 
ATOM     15  H5  UNL     1      -3.926   1.237  -1.934  1.00  0.00     0.165 HD
ENDBRANCH   1   2
BRANCH   1  16
HETATM   16  N3  UNL     1      -0.943  -2.182   0.525  1.00  0.00    -0.340 N 
HETATM   17  C7  UNL     1       0.016  -1.202   0.327  1.00  0.00     0.221 C 
HETATM   18  O1  UNL     1       0.013  -0.092   0.870  1.00  0.00    -0.273 OA
ATOM     19  H3  UNL     1      -0.775  -3.042   0.004  1.00  0.00     0.167 HD
BRANCH  17  20
HETATM   20  C8  UNL     1       1.168  -1.463  -0.612  1.00  0.00     0.108 C 
BRANCH  20  21
HETATM   21  C9  UNL     1       2.115  -0.294  -0.683  1.00  0.00     0.000 C 
HETATM   22  C10 UNL     1       2.739   0.060   0.619  1.00  0.00     0.049 C 
HETATM   23  C11 UNL     1       4.230  -0.081   0.684  1.00  0.00     0.059 C 
HETATM   24  N4  UNL     1       4.963   0.306  -0.452  1.00  0.00    -0.389 N 
HETATM   25  C15 UNL     1       4.281   0.373  -1.698  1.00  0.00     0.122 C 
HETATM   26  C16 UNL     1       3.135  -0.615  -1.750  1.00  0.00     0.025 C 
BRANCH  24  27
HETATM   27  C12 UNL     1       6.012   1.246  -0.307  1.00  0.00     0.083 A 
HETATM   28  C13 UNL     1       7.208   0.986   0.528  1.00  0.00     0.027 A 
HETATM   29  C14 UNL     1       6.228   2.120   0.864  1.00  0.00     0.027 A 
ENDBRANCH  24  27
ENDBRANCH  20  21
ENDBRANCH  17  20
ENDBRANCH   1  16
TORSDOF 5
