REMARK  4 active torsions:
REMARK  status: ('A' for Active; 'I' for Inactive)
REMARK    1  A    between atoms: N1_1  and  C1_4 
REMARK    2  A    between atoms: C2_9  and  C3_10 
REMARK    3  A    between atoms: N4_13  and  C6_14 
REMARK    4  A    between atoms: C6_14  and  C7_15 
ROOT
HETATM    1  C3  UNL     1       2.521  -0.456   0.546  1.00  0.00     0.042 C 
HETATM    2  C4  UNL     1       1.379   0.305   1.107  1.00  0.00     0.041 C 
HETATM    3  C5  UNL     1       0.041   0.150   0.535  1.00  0.00     0.273 C 
HETATM    4  N4  UNL     1      -0.257  -0.907  -0.340  1.00  0.00     0.092 N 
HETATM    5  C14 UNL     1       0.856  -1.801  -0.603  1.00  0.00     0.273 C 
HETATM    6  C15 UNL     1       2.126  -1.050  -0.822  1.00  0.00     0.041 C 
ENDROOT
BRANCH   1   7
HETATM    7  C2  UNL     1       3.771   0.318   0.389  1.00  0.00     0.051 A 
HETATM    8  N3  UNL     1       3.946   1.644   0.361  1.00  0.00    -0.301 N 
HETATM    9  N2  UNL     1       5.221   1.974   0.176  1.00  0.00    -0.284 N 
ATOM     10  H3  UNL     1       3.191   2.322   0.469  1.00  0.00     0.186 HD
HETATM   11  C1  UNL     1       5.895   0.815   0.081  1.00  0.00     0.133 A 
ATOM     12  H2  UNL     1       5.609   2.916   0.118  1.00  0.00     0.188 HD
HETATM   13  C16 UNL     1       5.028  -0.243   0.208  1.00  0.00     0.080 A 
HETATM   14 BR1  UNL     1       5.374  -2.119   0.174  1.00  0.00    -0.045 Br
BRANCH  11  15
HETATM   15  N1  UNL     1       7.185   0.682  -0.100  1.00  0.00    -0.383 N 
ATOM     16  H12 UNL     1       7.829   1.468  -0.194  1.00  0.00     0.157 HD
ATOM     17  H11 UNL     1       7.696  -0.198  -0.172  1.00  0.00     0.157 HD
ENDBRANCH  11  15
ENDBRANCH   1   7
BRANCH   4  18
HETATM   18  C6  UNL     1      -1.370  -1.760   0.017  1.00  0.00     0.313 C 
BRANCH  18  19
HETATM   19  C7  UNL     1      -2.608  -1.076   0.372  1.00  0.00    -0.006 A 
HETATM   20  C8  UNL     1      -3.382  -1.480   1.467  1.00  0.00     0.097 A 
HETATM   21  N5  UNL     1      -4.483  -0.765   1.539  1.00  0.00    -0.368 N 
HETATM   22  C9  UNL     1      -4.466   0.111   0.514  1.00  0.00     0.016 A 
ATOM     23  H5  UNL     1      -5.216  -0.856   2.242  1.00  0.00     0.165 HD
HETATM   24  C10 UNL     1      -3.320  -0.061  -0.218  1.00  0.00    -0.026 A 
HETATM   25  C13 UNL     1      -5.308   1.177  -0.072  1.00  0.00     0.058 C 
HETATM   26  C11 UNL     1      -3.255   0.900  -1.324  1.00  0.00     0.041 C 
HETATM   27  C12 UNL     1      -4.679   1.441  -1.404  1.00  0.00     0.011 C 
ENDBRANCH  18  19
ENDBRANCH   4  18
TORSDOF 4
