REMARK  6 active torsions:
REMARK  status: ('A' for Active; 'I' for Inactive)
REMARK    1  A    between atoms: N1_2  and  C2_4 
REMARK    2  A    between atoms: C2_4  and  N2_6 
REMARK    3  A    between atoms: N2_6  and  C3_8 
REMARK    4  A    between atoms: C5_10  and  N3_11 
REMARK       I    between atoms: N3_11  and  C6_13 
REMARK       I    between atoms: C6_13  and  N5_19 
REMARK    5  A    between atoms: N4_14  and  C7_16 
REMARK    6  A    between atoms: N5_19  and  C10_21 
ROOT
HETATM    1  N3  UNL     1       0.432  -0.288   0.672  1.00  0.00    -0.177 N 
ATOM      2  H3  UNL     1       0.791  -0.430   1.616  1.00  0.00     0.185 HD
HETATM    3  C6  UNL     1      -0.946   0.043   0.532  1.00  0.00     0.676 C 
HETATM    4  N4  UNL     1      -1.778  -0.863   0.845  1.00  0.00    -0.222 N 
ATOM      5  H4  UNL     1      -2.761  -0.611   0.740  1.00  0.00     0.178 HD
HETATM    6  N5  UNL     1      -1.373   1.320   0.070  1.00  0.00    -0.222 N 
ATOM      7  H5  UNL     1      -0.734   2.101   0.219  1.00  0.00     0.178 HD
ENDROOT
BRANCH   1   8
HETATM    8  C5  UNL     1       1.241  -0.418  -0.287  1.00  0.00     0.123 A 
HETATM    9  C4  UNL     1       2.578  -0.746  -0.037  1.00  0.00     0.082 A 
HETATM   10  C3  UNL     1       3.524  -0.906  -1.016  1.00  0.00     0.078 A 
HETATM   11  C17 UNL     1       3.038  -0.712  -2.325  1.00  0.00     0.158 A 
HETATM   12  C16 UNL     1       1.725  -0.390  -2.571  1.00  0.00     0.134 A 
HETATM   13  F1  UNL     1       3.915  -0.847  -3.361  1.00  0.00    -0.202 F 
HETATM   14  N6  UNL     1       0.847  -0.248  -1.554  1.00  0.00    -0.349 N 
ATOM     15  H6  UNL     1      -0.124  -0.009  -1.754  1.00  0.00     0.167 HD
BRANCH  10  16
HETATM   16  N2  UNL     1       4.868  -1.271  -0.848  1.00  0.00    -0.331 N 
ATOM     17  H2  UNL     1       5.306  -1.560  -1.723  1.00  0.00     0.168 HD
BRANCH  16  18
HETATM   18  C2  UNL     1       5.735  -1.331   0.220  1.00  0.00     0.171 C 
HETATM   19  S1  UNL     1       7.280  -1.898  -0.148  1.00  0.00    -0.041 SA
BRANCH  18  20
HETATM   20  N1  UNL     1       5.520  -0.993   1.549  1.00  0.00    -0.371 N 
HETATM   21  C1  UNL     1       6.629  -1.164   2.528  1.00  0.00     0.148 C 
ATOM     22  H1  UNL     1       4.615  -0.632   1.851  1.00  0.00     0.161 HD
ENDBRANCH  18  20
ENDBRANCH  16  18
ENDBRANCH  10  16
ENDBRANCH   1   8
BRANCH   4  23
HETATM   23  C7  UNL     1      -1.531  -2.181   1.322  1.00  0.00     0.091 C 
HETATM   24  C8  UNL     1      -0.853  -2.197   2.681  1.00  0.00     0.032 C 
HETATM   25  C9  UNL     1      -0.814  -3.080   0.352  1.00  0.00     0.032 C 
ENDBRANCH   4  23
BRANCH   6  26
HETATM   26  C10 UNL     1      -2.607   1.612  -0.581  1.00  0.00     0.099 C 
HETATM   27  C11 UNL     1      -2.620   3.106  -0.942  1.00  0.00     0.026 C 
HETATM   28  C12 UNL     1      -3.768   3.462  -1.827  1.00  0.00     0.002 C 
HETATM   29  C13 UNL     1      -5.041   3.182  -1.058  1.00  0.00     0.000 C 
HETATM   30  C14 UNL     1      -5.055   1.786  -0.545  1.00  0.00     0.002 C 
HETATM   31  C15 UNL     1      -3.837   1.412   0.274  1.00  0.00     0.026 C 
ENDBRANCH   6  26
TORSDOF 6
