REMARK  5 active torsions:
REMARK  status: ('A' for Active; 'I' for Inactive)
REMARK    1  A    between atoms: C2_2  and  C3_3 
REMARK    2  A    between atoms: C2_2  and  N1_5 
REMARK    3  A    between atoms: C2_2  and  C9_22 
REMARK       I    between atoms: N1_5  and  C4_7 
REMARK       I    between atoms: C4_7  and  N2_9 
REMARK    4  A    between atoms: N2_9  and  C5_11 
REMARK    5  A    between atoms: C8_16  and  N4_17 
ROOT
HETATM    1  N1  UNL     1       0.894  -0.406  -0.075  1.00  0.00    -0.332 N 
ATOM      2  H1  UNL     1       1.189  -1.334   0.227  1.00  0.00     0.165 HD
HETATM    3  C4  UNL     1       1.567   0.638   0.529  1.00  0.00     0.322 C 
HETATM    4  O1  UNL     1       1.414   1.851   0.320  1.00  0.00    -0.247 OA
HETATM    5  N2  UNL     1       2.592   0.380   1.541  1.00  0.00    -0.294 N 
ATOM      6  H2  UNL     1       2.341   0.182   2.510  1.00  0.00     0.172 HD
ENDROOT
BRANCH   1   7
HETATM    7  C2  UNL     1      -0.180  -0.400  -1.084  1.00  0.00     0.051 C 
HETATM    8  C1  UNL     1      -0.172  -1.874  -1.634  1.00  0.00     0.040 C 
BRANCH   7   9
HETATM    9  C3  UNL     1       0.302   0.441  -2.206  1.00  0.00     0.146 C 
HETATM   10 CL1  UNL     1      -0.612   0.368  -3.701  1.00  0.00    -0.128 Cl
ENDBRANCH   7   9
BRANCH   7  11
HETATM   11  C9  UNL     1      -1.539  -0.159  -0.524  1.00  0.00    -0.013 C 
HETATM   12  C10 UNL     1      -2.680  -0.304  -1.482  1.00  0.00     0.017 C 
HETATM   13  C11 UNL     1      -4.011  -0.099  -0.775  1.00  0.00    -0.013 C 
HETATM   14  C12 UNL     1      -4.032   1.309  -0.246  1.00  0.00     0.009 C 
HETATM   15  C16 UNL     1      -4.238  -1.149   0.254  1.00  0.00     0.009 C 
HETATM   16  C13 UNL     1      -3.001   1.395   0.824  1.00  0.00    -0.013 C 
HETATM   17  C14 UNL     1      -3.193   0.327   1.895  1.00  0.00     0.009 C 
HETATM   18  C18 UNL     1      -1.609   1.129   0.253  1.00  0.00     0.017 C 
HETATM   19  C15 UNL     1      -3.083  -1.016   1.254  1.00  0.00    -0.013 C 
HETATM   20  C17 UNL     1      -1.782  -1.262   0.538  1.00  0.00     0.017 C 
ENDBRANCH   7  11
ENDBRANCH   1   7
BRANCH   5  21
HETATM   21  C5  UNL     1       3.823   0.412   1.162  1.00  0.00     0.126 A 
HETATM   22  C6  UNL     1       4.209   0.676  -0.140  1.00  0.00     0.067 A 
HETATM   23  C7  UNL     1       5.540   0.701  -0.509  1.00  0.00     0.110 A 
HETATM   24  N3  UNL     1       6.436   0.455   0.471  1.00  0.00    -0.202 N 
HETATM   25  C8  UNL     1       6.069   0.198   1.738  1.00  0.00     0.677 A 
ATOM     26  H3  UNL     1       7.430   0.465   0.241  1.00  0.00     0.183 HD
HETATM   27  N5  UNL     1       4.764   0.173   2.098  1.00  0.00    -0.177 N 
ATOM     28  H5  UNL     1       4.497  -0.024   3.063  1.00  0.00     0.185 HD
BRANCH  25  29
HETATM   29  N4  UNL     1       6.919  -0.039   2.687  1.00  0.00    -0.234 N 
ATOM     30  H42 UNL     1       7.902  -0.020   2.416  1.00  0.00     0.174 HD
ATOM     31  H41 UNL     1       6.640  -0.234   3.649  1.00  0.00     0.174 HD
ENDBRANCH  25  29
ENDBRANCH   5  21
TORSDOF 5
