REMARK  5 active torsions:
REMARK  status: ('A' for Active; 'I' for Inactive)
REMARK    1  A    between atoms: C2_2  and  N1_4 
REMARK       I    between atoms: N1_4  and  C4_6 
REMARK    2  A    between atoms: C4_6  and  C5_8 
REMARK    3  A    between atoms: C5_8  and  N2_10 
REMARK    4  A    between atoms: N2_10  and  N3_11 
REMARK       I    between atoms: N3_11  and  C7_13 
REMARK       I    between atoms: C7_13  and  N4_15 
REMARK    5  A    between atoms: N4_15  and  C8_17 
ROOT
HETATM    1  N3  UNL     1       0.589  -0.806   2.110  1.00  0.00    -0.255 N 
ATOM      2  H3  UNL     1       0.707   0.010   2.711  1.00  0.00     0.187 HD
HETATM    3  C7  UNL     1      -0.435  -0.809   1.128  1.00  0.00     0.332 C 
HETATM    4  O2  UNL     1      -0.580  -1.830   0.389  1.00  0.00    -0.246 OA
HETATM    5  N4  UNL     1      -1.259   0.345   1.014  1.00  0.00    -0.333 N 
ATOM      6  H4  UNL     1      -1.073   1.125   1.644  1.00  0.00     0.165 HD
ENDROOT
BRANCH   1   7
HETATM    7  N2  UNL     1       1.432  -1.896   2.264  1.00  0.00    -0.123 NA
BRANCH   7   8
HETATM    8  C5  UNL     1       2.386  -1.925   1.182  1.00  0.00     0.187 C 
HETATM    9  C6  UNL     1       3.251  -3.182   1.235  1.00  0.00     0.040 C 
BRANCH   8  10
HETATM   10  C4  UNL     1       3.215  -0.713   1.231  1.00  0.00     0.238 C 
HETATM   11  N1  UNL     1       4.223  -0.510   0.262  1.00  0.00    -0.356 N 
ATOM     12  H1  UNL     1       4.368  -1.211  -0.464  1.00  0.00     0.162 HD
HETATM   13  O1  UNL     1       3.039   0.140   2.115  1.00  0.00    -0.272 OA
BRANCH  11  14
HETATM   14  C2  UNL     1       5.055   0.678   0.282  1.00  0.00     0.076 C 
HETATM   15  C1  UNL     1       4.994   1.428  -1.017  1.00  0.00     0.032 C 
HETATM   16  C3  UNL     1       6.477   0.198   0.571  1.00  0.00     0.032 C 
ENDBRANCH  11  14
ENDBRANCH   8  10
ENDBRANCH   7   8
ENDBRANCH   1   7
BRANCH   5  17
HETATM   17  C8  UNL     1      -2.338   0.488   0.070  1.00  0.00     0.038 C 
HETATM   18  C9  UNL     1      -1.896   0.346  -1.368  1.00  0.00     0.036 C 
HETATM   19  C10 UNL     1      -3.086   0.415  -2.268  1.00  0.00    -0.009 C 
HETATM   20  C11 UNL     1      -3.676   1.818  -2.168  1.00  0.00     0.009 C 
HETATM   21  C15 UNL     1      -4.185  -0.547  -1.924  1.00  0.00     0.048 C 
HETATM   22  C12 UNL     1      -4.027   2.081  -0.739  1.00  0.00    -0.009 C 
HETATM   23  C13 UNL     1      -5.126   1.089  -0.365  1.00  0.00     0.048 C 
HETATM   24  C17 UNL     1      -2.913   1.885   0.232  1.00  0.00     0.036 C 
HETATM   25  C14 UNL     1      -4.600  -0.316  -0.485  1.00  0.00     0.106 C 
HETATM   26  F1  UNL     1      -5.573  -1.195  -0.067  1.00  0.00    -0.243 F 
HETATM   27  C16 UNL     1      -3.368  -0.558   0.363  1.00  0.00     0.074 C 
ENDBRANCH   5  17
TORSDOF 5
