REMARK  7 active torsions:
REMARK  status: ('A' for Active; 'I' for Inactive)
REMARK       I    between atoms: C1_2  and  N1_3 
REMARK       I    between atoms: C1_2  and  N5_21 
REMARK    1  A    between atoms: N1_3  and  C2_5 
REMARK    2  A    between atoms: C2_5  and  C3_6 
REMARK    3  A    between atoms: N2_7  and  N3_9 
REMARK    4  A    between atoms: N3_9  and  C4_11 
REMARK    5  A    between atoms: C4_11  and  N4_13 
REMARK    6  A    between atoms: N4_13  and  C5_15 
REMARK    7  A    between atoms: N5_21  and  C11_23 
ROOT
HETATM    1  C3  UNL     1       0.455  -0.843   0.538  1.00  0.00     0.100 C 
HETATM    2  N2  UNL     1      -0.348  -0.022  -0.065  1.00  0.00    -0.312 N 
ATOM      3  H2  UNL     1      -0.686   0.807   0.424  1.00  0.00     0.185 HD
ENDROOT
BRANCH   1   4
HETATM    4  C2  UNL     1       0.862  -0.543   1.943  1.00  0.00     0.170 C 
BRANCH   4   5
HETATM    5  N1  UNL     1       2.230  -0.955   2.092  1.00  0.00    -0.338 N 
HETATM    6  C1  UNL     1       3.245  -0.371   1.274  1.00  0.00     0.316 C 
HETATM    7  O1  UNL     1       2.895   0.516   0.420  1.00  0.00    -0.247 OA
HETATM    8  N5  UNL     1       4.587  -0.778   1.423  1.00  0.00    -0.338 N 
ATOM      9  H5  UNL     1       4.809  -1.489   2.120  1.00  0.00     0.164 HD
ATOM     10  H1  UNL     1       2.477  -1.665   2.782  1.00  0.00     0.164 HD
BRANCH   8  11
HETATM   11  C11 UNL     1       5.657  -0.230   0.630  1.00  0.00     0.088 C 
HETATM   12  C12 UNL     1       5.435  -0.335  -0.856  1.00  0.00     0.028 C 
HETATM   13  C13 UNL     1       5.721   1.034  -1.442  1.00  0.00     0.039 C 
HETATM   14  C14 UNL     1       6.594   1.676  -0.383  1.00  0.00     0.172 C 
HETATM   15  F1  UNL     1       7.826   1.078  -0.401  1.00  0.00    -0.249 F 
HETATM   16  C15 UNL     1       5.885   1.256   0.885  1.00  0.00     0.062 C 
ENDBRANCH   8  11
ENDBRANCH   4   5
ENDBRANCH   1   4
BRANCH   2  17
HETATM   17  N3  UNL     1      -0.751  -0.266  -1.376  1.00  0.00    -0.277 N 
ATOM     18  H3  UNL     1      -0.078  -0.226  -2.142  1.00  0.00     0.189 HD
BRANCH  17  19
HETATM   19  C4  UNL     1      -2.107  -0.570  -1.627  1.00  0.00     0.186 C 
HETATM   20  S1  UNL     1      -2.551  -0.855  -3.177  1.00  0.00    -0.040 SA
BRANCH  19  21
HETATM   21  N4  UNL     1      -3.083  -0.640  -0.618  1.00  0.00    -0.361 N 
ATOM     22  H4  UNL     1      -2.829  -0.468   0.355  1.00  0.00     0.162 HD
BRANCH  21  23
HETATM   23  C5  UNL     1      -4.450  -0.957  -0.967  1.00  0.00     0.083 C 
HETATM   24  C6  UNL     1      -4.973   0.090  -1.893  1.00  0.00     0.025 C 
HETATM   25  C7  UNL     1      -6.263   0.717  -1.414  1.00  0.00     0.002 C 
HETATM   26  C8  UNL     1      -6.186   1.193   0.017  1.00  0.00     0.000 C 
HETATM   27  C9  UNL     1      -5.596   0.185   0.943  1.00  0.00     0.002 C 
HETATM   28  C10 UNL     1      -5.312  -1.137   0.264  1.00  0.00     0.025 C 
ENDBRANCH  21  23
ENDBRANCH  19  21
ENDBRANCH  17  19
ENDBRANCH   2  17
TORSDOF 7
