REMARK  5 active torsions:
REMARK  status: ('A' for Active; 'I' for Inactive)
REMARK    1  A    between atoms: C1_2  and  C2_3 
REMARK       I    between atoms: C1_2  and  N2_12 
REMARK    2  A    between atoms: C2_3  and  N1_4 
REMARK    3  A    between atoms: N1_4  and  C3_6 
REMARK    4  A    between atoms: C3_6  and  C4_7 
REMARK    5  A    between atoms: C16_26  and  C17_27 
ROOT
HETATM    1  O1  UNL     1      -0.620   0.335   2.687  1.00  0.00    -0.271 OA
HETATM    2  C1  UNL     1      -0.847   0.083   1.476  1.00  0.00     0.240 C 
HETATM    3  N2  UNL     1       0.185  -0.554   0.732  1.00  0.00    -0.313 N 
ATOM      4  H2  UNL     1       0.013  -1.484   0.350  1.00  0.00     0.170 HD
HETATM    5  C9  UNL     1       1.345   0.010   0.520  1.00  0.00     0.123 C 
HETATM    6  N3  UNL     1       2.444  -0.521  -0.196  1.00  0.00    -0.345 N 
ATOM      7  H3  UNL     1       2.401  -1.183  -0.971  1.00  0.00     0.163 HD
HETATM    8  C10 UNL     1       3.660   0.062   0.389  1.00  0.00     0.200 C 
HETATM    9  C11 UNL     1       4.250  -1.016   1.289  1.00  0.00     0.061 C 
HETATM   10  C12 UNL     1       5.176  -1.886   0.465  1.00  0.00     0.004 C 
HETATM   11  C13 UNL     1       6.326  -1.142  -0.149  1.00  0.00     0.000 C 
HETATM   12  C14 UNL     1       6.032   0.344  -0.043  1.00  0.00     0.004 C 
HETATM   13  C15 UNL     1       4.627   0.497  -0.655  1.00  0.00     0.061 C 
HETATM   14  N4  UNL     1       3.221   1.163   1.183  1.00  0.00    -0.028 N 
ATOM     15  H41 UNL     1       3.752   2.015   1.000  1.00  0.00     0.281 HD
ATOM     16  H42 UNL     1       3.463   1.057   2.168  1.00  0.00     0.281 HD
HETATM   17  C16 UNL     1       1.801   1.337   0.975  1.00  0.00     0.355 C 
ENDROOT
BRANCH  17  18
HETATM   18  C17 UNL     1       1.512   2.339  -0.075  1.00  0.00     0.212 C 
HETATM   19  O2  UNL     1       2.411   3.211  -0.343  1.00  0.00    -0.646 OA
HETATM   20  O3  UNL     1       0.356   2.430  -0.813  1.00  0.00    -0.646 OA
ENDBRANCH  17  18
BRANCH   2  21
HETATM   21  C2  UNL     1      -2.171   0.461   0.883  1.00  0.00     0.221 C 
BRANCH  21  22
HETATM   22  N1  UNL     1      -2.273   0.083  -0.480  1.00  0.00    -0.393 N 
ATOM     23  H1  UNL     1      -1.550  -0.497  -0.906  1.00  0.00     0.159 HD
BRANCH  22  24
HETATM   24  C3  UNL     1      -3.377   0.512  -1.242  1.00  0.00     0.060 C 
BRANCH  24  25
HETATM   25  C4  UNL     1      -4.719  -0.004  -1.048  1.00  0.00     0.024 C 
HETATM   26  C5  UNL     1      -5.422   0.137   0.270  1.00  0.00     0.010 C 
HETATM   27  C6  UNL     1      -6.763  -0.537  -0.181  1.00  0.00     0.001 C 
HETATM   28  C7  UNL     1      -6.246  -1.850  -0.713  1.00  0.00     0.001 C 
HETATM   29  C8  UNL     1      -4.929  -1.487  -1.375  1.00  0.00     0.010 C 
ENDBRANCH  24  25
ENDBRANCH  22  24
ENDBRANCH  21  22
ENDBRANCH   2  21
TORSDOF 5
