REMARK  5 active torsions:
REMARK  status: ('A' for Active; 'I' for Inactive)
REMARK    1  A    between atoms: C4_8  and  N3_9 
REMARK       I    between atoms: N3_9  and  C5_11 
REMARK       I    between atoms: C5_11  and  N4_13 
REMARK    2  A    between atoms: N4_13  and  C6_15 
REMARK    3  A    between atoms: C6_15  and  C7_16 
REMARK    4  A    between atoms: C7_16  and  C8_17 
REMARK       I    between atoms: C8_17  and  N5_19 
REMARK    5  A    between atoms: N5_19  and  N6_20 
ROOT
HETATM    1  N3  UNL     1       3.703  -0.532  -0.679  1.00  0.00    -0.141 N 
ATOM      2  H3  UNL     1       4.391  -0.956  -1.302  1.00  0.00     0.189 HD
HETATM    3  C5  UNL     1       2.356  -0.458  -1.105  1.00  0.00     0.334 C 
HETATM    4  O1  UNL     1       1.576   0.200  -0.394  1.00  0.00    -0.247 OA
HETATM    5  N4  UNL     1       1.858  -1.102  -2.291  1.00  0.00    -0.342 N 
ATOM      6  H4  UNL     1       2.501  -1.652  -2.861  1.00  0.00     0.164 HD
ENDROOT
BRANCH   5   7
HETATM    7  C6  UNL     1       0.475  -0.996  -2.703  1.00  0.00     0.135 C 
BRANCH   7   8
HETATM    8  C7  UNL     1      -0.462  -1.402  -1.637  1.00  0.00     0.140 C 
BRANCH   8   9
HETATM    9  C8  UNL     1      -1.925  -1.404  -2.033  1.00  0.00     0.307 C 
HETATM   10  O2  UNL     1      -2.258  -2.056  -3.044  1.00  0.00    -0.256 OA
HETATM   11  N5  UNL     1      -2.836  -0.686  -1.284  1.00  0.00    -0.312 NA
BRANCH  11  12
HETATM   12  N6  UNL     1      -3.719   0.001  -0.570  1.00  0.00    -0.153 NA
HETATM   13  C9  UNL     1      -3.674   1.422  -0.989  1.00  0.00     0.129 C 
HETATM   14  C10 UNL     1      -4.247   2.184   0.172  1.00  0.00     0.019 C 
HETATM   15  C11 UNL     1      -4.513   1.162   1.255  1.00  0.00     0.029 C 
HETATM   16  C12 UNL     1      -3.515   0.051   0.853  1.00  0.00     0.037 C 
HETATM   17  C13 UNL     1      -2.159   0.603   1.239  1.00  0.00     0.035 C 
HETATM   18  C14 UNL     1      -3.859  -1.183   1.599  1.00  0.00     0.035 C 
ENDBRANCH  11  12
ENDBRANCH   8   9
ENDBRANCH   7   8
ENDBRANCH   5   7
BRANCH   1  19
HETATM   19  C4  UNL     1       4.132  -0.046   0.567  1.00  0.00     0.689 A 
HETATM   20  N1  UNL     1       5.417   0.198   0.953  1.00  0.00    -0.175 N 
HETATM   21  C1  UNL     1       6.577   0.155   0.057  1.00  0.00     0.176 C 
HETATM   22  C2  UNL     1       5.495   0.511   2.217  1.00  0.00     0.137 A 
HETATM   23 CL1  UNL     1       6.883   0.922   3.195  1.00  0.00    -0.062 Cl
HETATM   24  C3  UNL     1       4.172   0.476   2.696  1.00  0.00     0.149 A 
HETATM   25  N2  UNL     1       3.390   0.133   1.655  1.00  0.00    -0.198 N 
ATOM     26  H2  UNL     1       2.376   0.026   1.695  1.00  0.00     0.183 HD
ENDBRANCH   1  19
TORSDOF 5
