REMARK  6 active torsions:
REMARK  status: ('A' for Active; 'I' for Inactive)
REMARK    1  A    between atoms: C5_5  and  N1_6 
REMARK    2  A    between atoms: N1_6  and  C6_8 
REMARK    3  A    between atoms: C6_8  and  C7_9 
REMARK       I    between atoms: C7_9  and  N2_11 
REMARK    4  A    between atoms: N2_11  and  C8_12 
REMARK    5  A    between atoms: C10_14  and  N3_15 
REMARK       I    between atoms: N3_15  and  C11_17 
REMARK    6  A    between atoms: C11_17  and  C12_19 
ROOT
HETATM    1  C8  UNL     1      -1.642  -0.865  -1.175  1.00  0.00     0.201 A 
HETATM    2  C9  UNL     1      -2.820  -0.096  -1.074  1.00  0.00     0.115 A 
HETATM    3  C10 UNL     1      -3.801  -0.804  -0.432  1.00  0.00     0.127 A 
HETATM    4  N4  UNL     1      -3.210  -2.003  -0.148  1.00  0.00    -0.283 N 
ATOM      5  H4  UNL     1      -3.676  -2.772   0.333  1.00  0.00     0.188 HD
HETATM    6  N5  UNL     1      -1.981  -2.042  -0.567  1.00  0.00    -0.272 N 
ATOM      7  H5  UNL     1      -1.355  -2.840  -0.458  1.00  0.00     0.189 HD
ENDROOT
BRANCH   1   8
HETATM    8  N2  UNL     1      -0.585  -0.589  -1.664  1.00  0.00    -0.349 NA
HETATM    9  C7  UNL     1       0.579  -0.333  -2.184  1.00  0.00     0.310 C 
HETATM   10  O1  UNL     1       0.703  -0.135  -3.458  1.00  0.00    -0.255 OA
BRANCH   9  11
HETATM   11  C6  UNL     1       1.904  -0.225  -1.445  1.00  0.00     0.234 C 
BRANCH  11  12
HETATM   12  N1  UNL     1       1.737  -0.462  -0.056  1.00  0.00    -0.408 N 
ATOM     13  H1  UNL     1       0.846  -0.749   0.349  1.00  0.00     0.154 HD
BRANCH  12  14
HETATM   14  C5  UNL     1       2.921  -0.266   0.737  1.00  0.00     0.077 C 
HETATM   15  C4  UNL     1       3.340   1.205   0.654  1.00  0.00     0.025 C 
HETATM   16  C3  UNL     1       4.475   1.325   1.661  1.00  0.00     0.006 C 
HETATM   17  C2  UNL     1       5.652   0.659   0.979  1.00  0.00    -0.019 C 
HETATM   18  C1  UNL     1       6.020   1.528  -0.225  1.00  0.00     0.010 C 
HETATM   19  C16 UNL     1       5.407  -0.754   0.607  1.00  0.00     0.006 C 
HETATM   20  C15 UNL     1       4.020  -1.218   0.441  1.00  0.00     0.025 C 
ENDBRANCH  12  14
ENDBRANCH  11  12
ENDBRANCH   9  11
ENDBRANCH   1   8
BRANCH   3  21
HETATM   21  N3  UNL     1      -5.125  -0.418  -0.114  1.00  0.00    -0.312 N 
HETATM   22  C11 UNL     1      -5.652   0.844  -0.438  1.00  0.00     0.227 C 
HETATM   23  O2  UNL     1      -5.038   1.764  -1.028  1.00  0.00    -0.273 OA
ATOM     24  H3  UNL     1      -5.724  -1.086   0.372  1.00  0.00     0.170 HD
BRANCH  22  25
HETATM   25  C12 UNL     1      -7.079   1.175  -0.065  1.00  0.00     0.078 A 
HETATM   26  C13 UNL     1      -7.493   0.629   1.301  1.00  0.00     0.015 A 
HETATM   27  C14 UNL     1      -8.052   0.057   0.066  1.00  0.00     0.015 A 
ENDBRANCH  22  25
ENDBRANCH   3  21
TORSDOF 6
