REMARK  7 active torsions:
REMARK  status: ('A' for Active; 'I' for Inactive)
REMARK       I    between atoms: C1_2  and  N1_3 
REMARK       I    between atoms: C1_2  and  N5_21 
REMARK    1  A    between atoms: N1_3  and  N2_5 
REMARK    2  A    between atoms: N2_5  and  C2_7 
REMARK    3  A    between atoms: C2_7  and  N3_9 
REMARK    4  A    between atoms: N3_9  and  C3_11 
REMARK    5  A    between atoms: C3_11  and  C4_12 
REMARK    6  A    between atoms: C4_12  and  N4_13 
REMARK    7  A    between atoms: N5_21  and  C11_23 
ROOT
HETATM    1  C2  UNL     1      -0.159  -1.383  -0.811  1.00  0.00     0.186 C 
HETATM    2  S1  UNL     1      -1.312  -2.560  -0.850  1.00  0.00    -0.040 SA
ENDROOT
BRANCH   1   3
HETATM    3  N2  UNL     1       0.993  -1.625  -1.609  1.00  0.00    -0.272 N 
ATOM      4  H2  UNL     1       1.056  -2.483  -2.157  1.00  0.00     0.189 HD
BRANCH   3   5
HETATM    5  N1  UNL     1       2.054  -0.686  -1.650  1.00  0.00    -0.249 N 
HETATM    6  C1  UNL     1       3.332  -1.159  -1.242  1.00  0.00     0.335 C 
HETATM    7  O1  UNL     1       3.522  -2.334  -0.866  1.00  0.00    -0.246 OA
HETATM    8  N5  UNL     1       4.408  -0.199  -1.288  1.00  0.00    -0.337 N 
ATOM      9  H5  UNL     1       4.245   0.759  -1.597  1.00  0.00     0.164 HD
ATOM     10  H1  UNL     1       1.909   0.276  -1.955  1.00  0.00     0.192 HD
BRANCH   8  11
HETATM   11  C11 UNL     1       5.710  -0.632  -0.887  1.00  0.00     0.086 C 
HETATM   12  C12 UNL     1       6.601  -0.527  -2.131  1.00  0.00     0.025 C 
HETATM   13  C13 UNL     1       7.972  -0.668  -1.503  1.00  0.00     0.002 C 
HETATM   14  C14 UNL     1       7.853   0.342  -0.357  1.00  0.00     0.002 C 
HETATM   15  C15 UNL     1       6.401   0.326   0.044  1.00  0.00     0.025 C 
ENDBRANCH   8  11
ENDBRANCH   3   5
ENDBRANCH   1   3
BRANCH   1  16
HETATM   16  N3  UNL     1      -0.290  -0.219  -0.043  1.00  0.00    -0.364 N 
ATOM     17  H3  UNL     1       0.474   0.456  -0.072  1.00  0.00     0.162 HD
BRANCH  16  18
HETATM   18  C3  UNL     1      -1.434   0.093   0.789  1.00  0.00     0.152 C 
BRANCH  18  19
HETATM   19  C4  UNL     1      -2.658   0.374  -0.033  1.00  0.00     0.292 C 
BRANCH  19  20
HETATM   20  N4  UNL     1      -3.826   0.694   0.753  1.00  0.00     0.092 N 
HETATM   21  C5  UNL     1      -4.361  -0.377   1.524  1.00  0.00     0.272 C 
HETATM   22  C6  UNL     1      -5.218   0.109   2.673  1.00  0.00     0.030 C 
HETATM   23  C7  UNL     1      -6.655   0.258   2.314  1.00  0.00     0.004 C 
HETATM   24  C8  UNL     1      -6.912   0.729   0.923  1.00  0.00     0.039 C 
HETATM   25  C9  UNL     1      -5.974   1.865   0.607  1.00  0.00     0.198 C 
HETATM   26  F1  UNL     1      -6.604   2.755  -0.232  1.00  0.00    -0.248 F 
HETATM   27  C10 UNL     1      -4.798   1.287  -0.151  1.00  0.00     0.309 C 
ENDBRANCH  19  20
ENDBRANCH  18  19
ENDBRANCH  16  18
ENDBRANCH   1  16
TORSDOF 7
