REMARK  8 active torsions:
REMARK  status: ('A' for Active; 'I' for Inactive)
REMARK    1  A    between atoms: C2_2  and  C3_3 
REMARK    2  A    between atoms: C4_4  and  C5_5 
REMARK    3  A    between atoms: C7_7  and  C8_8 
REMARK    4  A    between atoms: C9_9  and  C10_10 
REMARK    5  A    between atoms: C13_16  and  C14_17 
REMARK    6  A    between atoms: C14_17  and  C15_18 
REMARK    7  A    between atoms: C16_19  and  O1_20 
REMARK    8  A    between atoms: C17_26  and  N4_27 
ROOT
HETATM    1  C10 UNL     1      -1.226  -1.601  -1.017  1.00  0.00     0.040 A 
HETATM    2  N1  UNL     1      -0.791  -2.335  -2.034  1.00  0.00    -0.364 N 
ATOM      3  H1  UNL     1       0.189  -2.525  -2.243  1.00  0.00     0.165 HD
HETATM    4  C11 UNL     1      -1.829  -2.788  -2.742  1.00  0.00     0.108 A 
HETATM    5  C12 UNL     1      -2.981  -2.351  -2.189  1.00  0.00     0.035 A 
HETATM    6 BR1  UNL     1      -4.786  -2.738  -2.747  1.00  0.00    -0.049 Br
HETATM    7  C13 UNL     1      -2.625  -1.582  -1.080  1.00  0.00    -0.008 A 
ENDROOT
BRANCH   7   8
HETATM    8  C14 UNL     1      -3.592  -0.897  -0.177  1.00  0.00     0.089 C 
BRANCH   8   9
HETATM    9  C15 UNL     1      -3.656   0.569  -0.305  1.00  0.00     0.043 A 
HETATM   10  C16 UNL     1      -4.069   1.366  -1.374  1.00  0.00     0.165 A 
HETATM   11  N2  UNL     1      -4.028   2.684  -1.013  1.00  0.00    -0.278 N 
HETATM   12  N3  UNL     1      -3.613   2.731   0.219  1.00  0.00    -0.283 N 
ATOM     13  H2  UNL     1      -4.276   3.481  -1.599  1.00  0.00     0.189 HD
HETATM   14  C17 UNL     1      -3.376   1.497   0.694  1.00  0.00     0.124 A 
ATOM     15  H3  UNL     1      -3.485   3.590   0.753  1.00  0.00     0.188 HD
BRANCH  10  16
HETATM   16  O1  UNL     1      -4.455   0.895  -2.600  1.00  0.00    -0.345 OA
ATOM     17  H1  UNL     1      -4.736   1.437  -3.328  1.00  0.00     0.219 HD
ENDBRANCH  10  16
BRANCH  14  18
HETATM   18  N4  UNL     1      -2.988   1.291   1.891  1.00  0.00    -0.384 N 
ATOM     19  H42 UNL     1      -2.808   0.354   2.252  1.00  0.00     0.157 HD
ATOM     20  H41 UNL     1      -2.783   1.971   2.623  1.00  0.00     0.157 HD
ENDBRANCH  14  18
ENDBRANCH   8   9
ENDBRANCH   7   8
BRANCH   1  21
HETATM   21  C9  UNL     1      -0.425  -0.924  -0.019  1.00  0.00     0.030 C 
HETATM   22  C8  UNL     1       0.829  -0.700   0.084  1.00  0.00     0.003 C 
BRANCH  22  23
HETATM   23  C7  UNL     1       1.964  -1.008  -0.724  1.00  0.00     0.016 C 
HETATM   24  C5  UNL     1       3.214  -0.663  -0.388  1.00  0.00    -0.009 C 
HETATM   25  C6  UNL     1       4.309  -1.037  -1.307  1.00  0.00     0.058 C 
BRANCH  24  26
HETATM   26  C4  UNL     1       3.403   0.049   0.844  1.00  0.00    -0.072 C 
HETATM   27  C3  UNL     1       3.580   0.637   1.890  1.00  0.00    -0.102 C 
BRANCH  27  28
HETATM   28  C2  UNL     1       3.779   1.348   3.169  1.00  0.00     0.090 C 
HETATM   29  C1  UNL     1       5.028   2.212   3.130  1.00  0.00     0.018 C 
ENDBRANCH  27  28
ENDBRANCH  24  26
ENDBRANCH  22  23
ENDBRANCH   1  21
TORSDOF 8
