REMARK  7 active torsions:
REMARK  status: ('A' for Active; 'I' for Inactive)
REMARK    1  A    between atoms: C2_2  and  C3_3 
REMARK    2  A    between atoms: C3_3  and  C4_4 
REMARK    3  A    between atoms: C4_4  and  N1_5 
REMARK    4  A    between atoms: N1_5  and  C5_7 
REMARK    5  A    between atoms: C5_7  and  N2_9 
REMARK    6  A    between atoms: N2_9  and  N3_11 
REMARK    7  A    between atoms: N3_11  and  C6_13 
ROOT
HETATM    1  C6  UNL     1      -0.626   0.852   0.014  1.00  0.00     0.698 A 
HETATM    2  N4  UNL     1      -1.046  -0.408   0.212  1.00  0.00    -0.188 N 
ATOM      3  H4  UNL     1      -0.431  -1.193   0.428  1.00  0.00     0.184 HD
HETATM    4  C7  UNL     1      -2.385  -0.501   0.089  1.00  0.00     0.078 A 
HETATM    5  C8  UNL     1      -3.289  -1.560   0.197  1.00  0.00     0.052 A 
HETATM    6  C9  UNL     1      -4.637  -1.337   0.011  1.00  0.00     0.019 A 
HETATM    7 BR1  UNL     1      -5.919  -2.761   0.146  1.00  0.00    -0.050 Br
HETATM    8  C10 UNL     1      -5.112  -0.076  -0.281  1.00  0.00    -0.036 A 
HETATM    9  C11 UNL     1      -6.584   0.170  -0.481  1.00  0.00     0.050 C 
HETATM   10  C12 UNL     1      -4.197   0.959  -0.382  1.00  0.00    -0.025 A 
HETATM   11  C13 UNL     1      -4.671   2.313  -0.692  1.00  0.00     0.051 C 
HETATM   12  C14 UNL     1      -2.834   0.766  -0.201  1.00  0.00     0.083 A 
HETATM   13  N5  UNL     1      -1.753   1.563  -0.241  1.00  0.00    -0.188 N 
ATOM     14  H5  UNL     1      -1.776   2.564  -0.436  1.00  0.00     0.184 HD
ENDROOT
BRANCH   1  15
HETATM   15  N3  UNL     1       0.592   1.331   0.048  1.00  0.00    -0.130 N 
ATOM     16  H3  UNL     1       0.794   2.316  -0.120  1.00  0.00     0.205 HD
BRANCH  15  17
HETATM   17  N2  UNL     1       1.616   0.382   0.336  1.00  0.00    -0.262 N 
ATOM     18  H2  UNL     1       2.062   0.336   1.252  1.00  0.00     0.190 HD
BRANCH  17  19
HETATM   19  C5  UNL     1       1.980  -0.489  -0.711  1.00  0.00     0.186 C 
HETATM   20  S1  UNL     1       1.234  -0.395  -2.173  1.00  0.00    -0.040 SA
BRANCH  19  21
HETATM   21  N1  UNL     1       2.987  -1.456  -0.541  1.00  0.00    -0.366 N 
ATOM     22  H1  UNL     1       3.205  -2.089  -1.311  1.00  0.00     0.161 HD
BRANCH  21  23
HETATM   23  C4  UNL     1       3.711  -1.573   0.684  1.00  0.00     0.122 C 
BRANCH  23  24
HETATM   24  C3  UNL     1       4.688  -0.459   0.893  1.00  0.00     0.019 C 
BRANCH  24  25
HETATM   25  C2  UNL     1       5.717  -0.449  -0.235  1.00  0.00    -0.003 C 
HETATM   26  C1  UNL     1       6.681   0.688   0.013  1.00  0.00     0.005 C 
ENDBRANCH  24  25
ENDBRANCH  23  24
ENDBRANCH  21  23
ENDBRANCH  19  21
ENDBRANCH  17  19
ENDBRANCH  15  17
ENDBRANCH   1  15
TORSDOF 7
