REMARK  3 active torsions:
REMARK  status: ('A' for Active; 'I' for Inactive)
REMARK    1  A    between atoms: C5_7  and  C6_8 
REMARK       I    between atoms: C6_8  and  N2_10 
REMARK    2  A    between atoms: N2_10  and  C7_12 
REMARK    3  A    between atoms: C7_12  and  C12_22 
ROOT
HETATM    1  C6  UNL     1       0.863   0.041   0.246  1.00  0.00     0.259 C 
HETATM    2  O1  UNL     1       0.686   0.444   1.444  1.00  0.00    -0.267 OA
HETATM    3  N2  UNL     1      -0.286   0.099  -0.611  1.00  0.00    -0.325 N 
ATOM      4  H2  UNL     1      -0.232  -0.216  -1.580  1.00  0.00     0.169 HD
ENDROOT
BRANCH   3   5
HETATM    5  C7  UNL     1      -1.539   0.622  -0.061  1.00  0.00     0.033 C 
HETATM    6  C8  UNL     1      -2.612  -0.294   0.242  1.00  0.00     0.080 A 
HETATM    7  C9  UNL     1      -2.806  -1.580  -0.284  1.00  0.00     0.039 A 
HETATM    8  C11 UNL     1      -3.566  -0.216   1.279  1.00  0.00     0.274 A 
HETATM    9  C10 UNL     1      -2.114  -2.167  -1.472  1.00  0.00     0.071 C 
HETATM   10  N3  UNL     1      -3.786  -2.171   0.400  1.00  0.00    -0.301 N 
HETATM   11  N4  UNL     1      -4.253  -1.387   1.326  1.00  0.00    -0.266 N 
ATOM     12  H3  UNL     1      -4.125  -3.116   0.220  1.00  0.00     0.186 HD
ATOM     13  H4  UNL     1      -5.006  -1.612   1.976  1.00  0.00     0.190 HD
HETATM   14  O2  UNL     1      -3.800   0.726   2.075  1.00  0.00    -0.266 OA
BRANCH   5  15
HETATM   15  C12 UNL     1      -1.779   2.019  -0.408  1.00  0.00     0.028 C 
HETATM   16  C13 UNL     1      -0.600   2.927   0.018  1.00  0.00     0.016 C 
HETATM   17  C14 UNL     1      -2.983   2.746   0.091  1.00  0.00     0.016 C 
ENDBRANCH   5  15
ENDBRANCH   3   5
BRANCH   1  18
HETATM   18  C5  UNL     1       2.174  -0.417  -0.141  1.00  0.00     0.073 A 
HETATM   19  C3  UNL     1       3.335  -0.070   0.594  1.00  0.00     0.022 A 
HETATM   20  N1  UNL     1       4.396  -0.656   0.047  1.00  0.00    -0.361 N 
HETATM   21  C4  UNL     1       3.343   0.849   1.771  1.00  0.00     0.069 C 
HETATM   22  C2  UNL     1       4.020  -1.381  -1.022  1.00  0.00     0.024 A 
ATOM     23  H1  UNL     1       5.353  -0.569   0.388  1.00  0.00     0.165 HD
HETATM   24  C1  UNL     1       4.976  -2.177  -1.865  1.00  0.00     0.069 C 
HETATM   25  C15 UNL     1       2.647  -1.230  -1.134  1.00  0.00     0.050 A 
HETATM   26 BR1  UNL     1       1.641  -2.048  -2.499  1.00  0.00    -0.048 Br
ENDBRANCH   1  18
TORSDOF 3
