REMARK  7 active torsions:
REMARK  status: ('A' for Active; 'I' for Inactive)
REMARK    1  A    between atoms: C2_2  and  C3_3 
REMARK    2  A    between atoms: C3_3  and  C4_4 
REMARK    3  A    between atoms: C4_4  and  N1_5 
REMARK    4  A    between atoms: N1_5  and  C5_7 
REMARK    5  A    between atoms: C5_7  and  N2_9 
REMARK    6  A    between atoms: N2_9  and  N3_11 
REMARK       I    between atoms: N3_11  and  C6_13 
REMARK       I    between atoms: C6_13  and  N4_15 
REMARK    7  A    between atoms: N4_15  and  C7_17 
ROOT
HETATM    1  N3  UNL     1       0.374   0.132  -2.595  1.00  0.00    -0.249 N 
ATOM      2  H3  UNL     1       0.175  -0.762  -3.044  1.00  0.00     0.192 HD
HETATM    3  C6  UNL     1      -0.533   0.643  -1.639  1.00  0.00     0.339 C 
HETATM    4  O1  UNL     1      -0.261   1.731  -1.115  1.00  0.00    -0.245 OA
HETATM    5  N4  UNL     1      -1.692  -0.071  -1.311  1.00  0.00    -0.307 N 
ATOM      6  H4  UNL     1      -1.816  -0.955  -1.804  1.00  0.00     0.170 HD
ENDROOT
BRANCH   1   7
HETATM    7  N2  UNL     1       1.532   0.823  -2.937  1.00  0.00    -0.272 N 
ATOM      8  H2  UNL     1       1.539   1.340  -3.816  1.00  0.00     0.189 HD
BRANCH   7   9
HETATM    9  C5  UNL     1       2.694   0.852  -2.144  1.00  0.00     0.186 C 
HETATM   10  S1  UNL     1       3.983   1.711  -2.678  1.00  0.00    -0.040 SA
BRANCH   9  11
HETATM   11  N1  UNL     1       2.768   0.160  -0.909  1.00  0.00    -0.366 N 
ATOM     12  H1  UNL     1       1.956  -0.370  -0.592  1.00  0.00     0.161 HD
BRANCH  11  13
HETATM   13  C4  UNL     1       3.951   0.179  -0.086  1.00  0.00     0.122 C 
BRANCH  13  14
HETATM   14  C3  UNL     1       3.752  -0.636   1.159  1.00  0.00     0.019 C 
BRANCH  14  15
HETATM   15  C2  UNL     1       4.968  -0.640   2.046  1.00  0.00    -0.003 C 
HETATM   16  C1  UNL     1       6.148  -1.231   1.272  1.00  0.00     0.005 C 
ENDBRANCH  14  15
ENDBRANCH  13  14
ENDBRANCH  11  13
ENDBRANCH   9  11
ENDBRANCH   7   9
ENDBRANCH   1   7
BRANCH   5  17
HETATM   17  C7  UNL     1      -2.710   0.260  -0.397  1.00  0.00     0.043 A 
HETATM   18  C8  UNL     1      -2.760   1.390   0.373  1.00  0.00     0.049 A 
HETATM   19  C9  UNL     1      -3.811   1.654   1.265  1.00  0.00     0.019 A 
HETATM   20 BR1  UNL     1      -3.799   3.248   2.294  1.00  0.00    -0.051 Br
HETATM   21  C10 UNL     1      -4.847   0.755   1.388  1.00  0.00    -0.044 A 
HETATM   22  C11 UNL     1      -5.968   1.020   2.328  1.00  0.00     0.049 C 
HETATM   23  C12 UNL     1      -4.820  -0.387   0.626  1.00  0.00     0.017 A 
HETATM   24  C13 UNL     1      -3.774  -0.624  -0.244  1.00  0.00    -0.035 A 
HETATM   25  C14 UNL     1      -3.775  -1.859  -1.049  1.00  0.00     0.050 C 
ENDBRANCH   5  17
TORSDOF 7
