REMARK  6 active torsions:
REMARK  status: ('A' for Active; 'I' for Inactive)
REMARK       I    between atoms: N1_3  and  C3_5 
REMARK       I    between atoms: C3_5  and  N3_9 
REMARK    1  A    between atoms: N3_9  and  C4_11 
REMARK    2  A    between atoms: C4_11  and  N4_13 
REMARK    3  A    between atoms: N4_13  and  C5_15 
REMARK    4  A    between atoms: C10_21  and  N5_22 
REMARK       I    between atoms: N5_22  and  C11_24 
REMARK    5  A    between atoms: C11_24  and  C12_26 
REMARK    6  A    between atoms: C12_26  and  S2_27 
ROOT
HETATM    1  C1  UNL     1       7.443   2.807   1.153  1.00  0.00     0.037 C 
HETATM    2  C2  UNL     1       6.585   1.979   1.333  1.00  0.00     0.015 C 
HETATM    3  N1  UNL     1       5.586   1.013   1.563  1.00  0.00    -0.150 N 
ATOM      4  H1  UNL     1       5.272   0.822   2.514  1.00  0.00     0.195 HD
HETATM    5  C3  UNL     1       5.017   0.306   0.475  1.00  0.00     0.685 C 
HETATM    6  N2  UNL     1       5.766  -0.446  -0.242  1.00  0.00    -0.234 N 
ATOM      7  H21 UNL     1       5.356  -0.955  -1.025  1.00  0.00     0.174 HD
ATOM      8  H22 UNL     1       6.762  -0.547  -0.047  1.00  0.00     0.174 HD
HETATM    9  N3  UNL     1       3.646   0.445   0.206  1.00  0.00    -0.166 N 
ATOM     10  H3  UNL     1       3.226   1.371   0.129  1.00  0.00     0.186 HD
ENDROOT
BRANCH   9  11
HETATM   11  C4  UNL     1       2.835  -0.746   0.039  1.00  0.00     0.191 C 
HETATM   12  S1  UNL     1       3.611  -2.138   0.243  1.00  0.00    -0.040 SA
BRANCH  11  13
HETATM   13  N4  UNL     1       1.460  -0.623  -0.231  1.00  0.00    -0.331 N 
ATOM     14  H4  UNL     1       1.078   0.321  -0.278  1.00  0.00     0.168 HD
BRANCH  13  15
HETATM   15  C5  UNL     1       0.567  -1.687  -0.441  1.00  0.00     0.061 A 
HETATM   16  C6  UNL     1       0.886  -2.938  -0.880  1.00  0.00     0.033 A 
HETATM   17  C7  UNL     1      -0.085  -3.903  -1.163  1.00  0.00     0.026 A 
HETATM   18  C8  UNL     1      -1.401  -3.625  -1.009  1.00  0.00     0.036 A 
HETATM   19 CL1  UNL     1      -2.612  -4.811  -1.357  1.00  0.00    -0.084 Cl
HETATM   20  C9  UNL     1      -1.776  -2.357  -0.561  1.00  0.00     0.055 A 
HETATM   21  C10 UNL     1      -0.823  -1.402  -0.279  1.00  0.00     0.063 A 
BRANCH  21  22
HETATM   22  N5  UNL     1      -1.153  -0.141   0.261  1.00  0.00    -0.325 N 
HETATM   23  C11 UNL     1      -2.433   0.427   0.235  1.00  0.00     0.230 C 
HETATM   24  O1  UNL     1      -3.423  -0.101  -0.272  1.00  0.00    -0.272 OA
ATOM     25  H5  UNL     1      -0.406   0.395   0.702  1.00  0.00     0.169 HD
BRANCH  23  26
HETATM   26  C12 UNL     1      -2.686   1.782   0.853  1.00  0.00     0.165 C 
BRANCH  26  27
HETATM   27  S2  UNL     1      -4.378   2.278   0.688  1.00  0.00    -0.219 SA
HETATM   28  C13 UNL     1      -5.490   1.162   1.462  1.00  0.00     0.078 C 
HETATM   29  C14 UNL     1      -4.710   2.463  -1.054  1.00  0.00     0.078 C 
ENDBRANCH  26  27
ENDBRANCH  23  26
ENDBRANCH  21  22
ENDBRANCH  13  15
ENDBRANCH  11  13
ENDBRANCH   9  11
TORSDOF 6
