REMARK  8 active torsions:
REMARK  status: ('A' for Active; 'I' for Inactive)
REMARK    1  A    between atoms: C1_2  and  C2_3 
REMARK       I    between atoms: C1_2  and  N1_11 
REMARK    2  A    between atoms: C2_3  and  C3_4 
REMARK    3  A    between atoms: C3_4  and  C4_5 
REMARK    4  A    between atoms: N1_11  and  N2_12 
REMARK    5  A    between atoms: N2_12  and  C10_13 
REMARK    6  A    between atoms: C10_13  and  N3_15 
REMARK    7  A    between atoms: N3_15  and  N4_17 
REMARK       I    between atoms: N4_17  and  C11_19 
REMARK    8  A    between atoms: C11_19  and  C12_21 
ROOT
HETATM    1  C10 UNL     1      -1.135  -0.186   0.571  1.00  0.00     0.302 C 
HETATM    2  S1  UNL     1      -2.053  -1.520   1.060  1.00  0.00    -0.020 SA
ENDROOT
BRANCH   1   3
HETATM    3  N2  UNL     1       0.030  -0.324   0.024  1.00  0.00    -0.213 NA
BRANCH   3   4
HETATM    4  N1  UNL     1       1.184  -0.472  -0.515  1.00  0.00    -0.207 NA
HETATM    5  C1  UNL     1       2.388  -0.712  -1.067  1.00  0.00     0.331 C 
HETATM    6  O1  UNL     1       3.069  -1.713  -1.167  1.00  0.00    -0.254 OA
BRANCH   5   7
HETATM    7  C2  UNL     1       3.058   0.554  -1.773  1.00  0.00     0.150 C 
BRANCH   7   8
HETATM    8  C3  UNL     1       4.492   0.401  -1.641  1.00  0.00    -0.005 C 
BRANCH   8   9
HETATM    9  C4  UNL     1       5.153   0.527  -0.357  1.00  0.00    -0.040 A 
HETATM   10  C5  UNL     1       5.516   1.872  -0.033  1.00  0.00     0.011 A 
HETATM   11  C6  UNL     1       6.219   2.151   1.061  1.00  0.00     0.001 A 
HETATM   12  C7  UNL     1       6.664   1.205   1.978  1.00  0.00     0.000 A 
HETATM   13  C8  UNL     1       6.324  -0.108   1.692  1.00  0.00     0.001 A 
HETATM   14  C9  UNL     1       5.566  -0.418   0.513  1.00  0.00     0.011 A 
ENDBRANCH   8   9
ENDBRANCH   7   8
ENDBRANCH   5   7
ENDBRANCH   3   4
ENDBRANCH   1   3
BRANCH   1  15
HETATM   15  N3  UNL     1      -1.813   1.076   0.696  1.00  0.00    -0.259 N 
ATOM     16  H3  UNL     1      -1.386   1.982   0.503  1.00  0.00     0.190 HD
BRANCH  15  17
HETATM   17  N4  UNL     1      -3.186   0.891   1.134  1.00  0.00    -0.263 N 
HETATM   18  C11 UNL     1      -3.885   0.400  -0.102  1.00  0.00     0.270 C 
HETATM   19  O2  UNL     1      -3.191   0.308  -1.077  1.00  0.00    -0.266 OA
ATOM     20  H4  UNL     1      -3.581   1.055   2.060  1.00  0.00     0.190 HD
BRANCH  18  21
HETATM   21  C12 UNL     1      -5.285   0.103  -0.021  1.00  0.00     0.033 A 
HETATM   22  C13 UNL     1      -5.977   0.090  -1.266  1.00  0.00     0.019 A 
HETATM   23  C14 UNL     1      -7.331  -0.158  -1.305  1.00  0.00     0.025 A 
HETATM   24  C15 UNL     1      -8.054  -0.403  -0.161  1.00  0.00     0.034 A 
HETATM   25 CL1  UNL     1      -9.807  -0.681  -0.256  1.00  0.00    -0.084 Cl
HETATM   26  C16 UNL     1      -7.404  -0.400   1.046  1.00  0.00     0.025 A 
HETATM   27  C17 UNL     1      -6.027  -0.142   1.077  1.00  0.00     0.019 A 
ENDBRANCH  18  21
ENDBRANCH  15  17
ENDBRANCH   1  15
TORSDOF 8
