REMARK  6 active torsions:
REMARK  status: ('A' for Active; 'I' for Inactive)
REMARK    1  A    between atoms: C2_2  and  N1_3 
REMARK    2  A    between atoms: C2_2  and  C13_22 
REMARK       I    between atoms: N1_3  and  C3_5 
REMARK       I    between atoms: C3_5  and  N2_7 
REMARK    3  A    between atoms: N2_7  and  C4_9 
REMARK    4  A    between atoms: C8_16  and  C9_17 
REMARK    5  A    between atoms: C9_17  and  C12_20 
REMARK    6  A    between atoms: C13_22  and  O2_25 
ROOT
HETATM    1  C4  UNL     1       1.385  -1.006   0.668  1.00  0.00     0.116 A 
HETATM    2  N3  UNL     1       1.167  -1.550   1.869  1.00  0.00    -0.350 N 
ATOM      3  H3  UNL     1       0.206  -1.763   2.136  1.00  0.00     0.166 HD
HETATM    4  C5  UNL     1       2.162  -1.836   2.757  1.00  0.00     0.108 A 
HETATM    5  C6  UNL     1       3.468  -1.570   2.441  1.00  0.00     0.027 A 
HETATM    6 BR1  UNL     1       4.883  -1.961   3.648  1.00  0.00    -0.050 Br
HETATM    7  C7  UNL     1       3.769  -1.002   1.203  1.00  0.00     0.032 A 
HETATM    8  C8  UNL     1       2.733  -0.731   0.344  1.00  0.00    -0.004 A 
ENDROOT
BRANCH   1   9
HETATM    9  N2  UNL     1       0.510  -0.722  -0.219  1.00  0.00    -0.294 N 
HETATM   10  C3  UNL     1      -0.864  -0.952  -0.046  1.00  0.00     0.322 C 
HETATM   11  N1  UNL     1      -1.835   0.075  -0.400  1.00  0.00    -0.336 N 
HETATM   12  O1  UNL     1      -1.379  -2.019   0.409  1.00  0.00    -0.247 OA
ATOM     13  H1  UNL     1      -1.514   0.966  -0.778  1.00  0.00     0.164 HD
ATOM     14  H2  UNL     1       0.826  -0.308  -1.096  1.00  0.00     0.172 HD
BRANCH  11  15
HETATM   15  C2  UNL     1      -3.234  -0.157  -0.222  1.00  0.00     0.115 C 
HETATM   16  C1  UNL     1      -3.947  -0.351  -1.568  1.00  0.00     0.035 C 
BRANCH  15  17
HETATM   17  C13 UNL     1      -3.924   0.954   0.515  1.00  0.00     0.070 C 
HETATM   18  C14 UNL     1      -3.323   1.130   1.904  1.00  0.00     0.047 C 
HETATM   19  C15 UNL     1      -3.864   2.273  -0.192  1.00  0.00     0.047 C 
BRANCH  17  20
HETATM   20  O2  UNL     1      -5.283   0.603   0.625  1.00  0.00    -0.389 OA
ATOM     21  H2  UNL     1      -5.720   1.306   1.091  1.00  0.00     0.210 HD
ENDBRANCH  17  20
ENDBRANCH  15  17
ENDBRANCH  11  15
ENDBRANCH   1   9
BRANCH   8  22
HETATM   22  C9  UNL     1       2.971  -0.106  -0.992  1.00  0.00    -0.008 C 
HETATM   23  C10 UNL     1       2.289   1.211  -1.152  1.00  0.00     0.021 C 
HETATM   24  C11 UNL     1       2.596  -1.092  -2.100  1.00  0.00     0.021 C 
BRANCH  22  25
HETATM   25  C12 UNL     1       4.459   0.123  -1.132  1.00  0.00     0.099 C 
HETATM   26  S1  UNL     1       4.864   0.914  -2.718  1.00  0.00    -0.097 SA
ENDBRANCH  22  25
ENDBRANCH   8  22
TORSDOF 6
