REMARK  8 active torsions:
REMARK  status: ('A' for Active; 'I' for Inactive)
REMARK    1  A    between atoms: C2_2  and  C3_3 
REMARK    2  A    between atoms: C4_4  and  C5_5 
REMARK    3  A    between atoms: C5_5  and  N1_6 
REMARK       I    between atoms: N1_6  and  C6_7 
REMARK    4  A    between atoms: C6_7  and  C7_9 
REMARK    5  A    between atoms: C8_10  and  C9_11 
REMARK       I    between atoms: C9_11  and  N2_13 
REMARK    6  A    between atoms: N2_13  and  C10_15 
REMARK    7  A    between atoms: C10_15  and  C11_16 
REMARK    8  A    between atoms: C20_28  and  N5_29 
ROOT
HETATM    1  C7  UNL     1       1.417  -0.059  -1.308  1.00  0.00     0.125 A 
HETATM    2  C8  UNL     1       0.069  -0.243  -1.302  1.00  0.00     0.137 A 
HETATM    3  N3  UNL     1      -0.250  -1.043  -2.364  1.00  0.00    -0.291 N 
ATOM      4  H3  UNL     1      -1.189  -1.354  -2.612  1.00  0.00     0.187 HD
HETATM    5  N4  UNL     1       0.844  -1.343  -3.008  1.00  0.00    -0.280 N 
HETATM    6  C19 UNL     1       1.002  -2.166  -4.216  1.00  0.00     0.179 C 
HETATM    7  C20 UNL     1       1.912  -0.745  -2.379  1.00  0.00     0.135 A 
ENDROOT
BRANCH   2   8
HETATM    8  C9  UNL     1      -0.963   0.379  -0.428  1.00  0.00     0.271 C 
HETATM    9  O2  UNL     1      -0.705   1.551  -0.095  1.00  0.00    -0.266 OA
HETATM   10  N2  UNL     1      -2.068  -0.375  -0.079  1.00  0.00    -0.345 N 
ATOM     11  H2  UNL     1      -2.074  -1.327  -0.445  1.00  0.00     0.163 HD
BRANCH  10  12
HETATM   12  C10 UNL     1      -3.229  -0.016   0.734  1.00  0.00     0.047 A 
HETATM   13  C15 UNL     1      -2.756   0.505   2.099  1.00  0.00     0.043 A 
HETATM   14  C16 UNL     1      -3.413  -0.890   1.894  1.00  0.00    -0.019 A 
HETATM   15  C17 UNL     1      -4.608  -1.052   2.751  1.00  0.00     0.017 C 
HETATM   16  C18 UNL     1      -2.418  -2.048   2.078  1.00  0.00     0.017 C 
BRANCH  12  17
HETATM   17  C11 UNL     1      -4.200   0.831   0.057  1.00  0.00    -0.025 C 
HETATM   18  C12 UNL     1      -3.683   2.158  -0.406  1.00  0.00     0.017 C 
HETATM   19  C13 UNL     1      -4.663   0.066  -1.209  1.00  0.00     0.017 C 
HETATM   20  C14 UNL     1      -5.482   1.128   0.786  1.00  0.00     0.017 C 
ENDBRANCH  12  17
ENDBRANCH  10  12
ENDBRANCH   2   8
BRANCH   1  21
HETATM   21  C6  UNL     1       2.187   0.668  -0.244  1.00  0.00     0.332 C 
HETATM   22  N1  UNL     1       3.353   1.287  -0.444  1.00  0.00    -0.370 NA
HETATM   23  O1  UNL     1       1.566   0.613   0.886  1.00  0.00    -0.251 OA
BRANCH  22  24
HETATM   24  C5  UNL     1       4.579   1.937  -0.654  1.00  0.00     0.250 C 
BRANCH  24  25
HETATM   25  C4  UNL     1       5.658   1.385   0.213  1.00  0.00    -0.047 C 
HETATM   26  C3  UNL     1       6.509   0.926   0.936  1.00  0.00    -0.100 C 
BRANCH  26  27
HETATM   27  C2  UNL     1       7.505   0.363   1.820  1.00  0.00     0.090 C 
HETATM   28  C1  UNL     1       8.930   0.719   1.446  1.00  0.00     0.018 C 
ENDBRANCH  26  27
ENDBRANCH  24  25
ENDBRANCH  22  24
ENDBRANCH   1  21
BRANCH   7  29
HETATM   29  N5  UNL     1       3.132  -0.855  -2.752  1.00  0.00    -0.383 N 
ATOM     30  H52 UNL     1       3.924  -0.412  -2.286  1.00  0.00     0.157 HD
ATOM     31  H51 UNL     1       3.502  -1.368  -3.552  1.00  0.00     0.157 HD
ENDBRANCH   7  29
TORSDOF 8
