REMARK  8 active torsions:
REMARK  status: ('A' for Active; 'I' for Inactive)
REMARK    1  A    between atoms: O1_2  and  N1_3 
REMARK       I    between atoms: N1_3  and  C2_5 
REMARK       I    between atoms: C2_5  and  N3_9 
REMARK    2  A    between atoms: N3_9  and  C3_11 
REMARK    3  A    between atoms: C3_11  and  C4_12 
REMARK    4  A    between atoms: C4_12  and  C5_13 
REMARK    5  A    between atoms: C5_13  and  N4_14 
REMARK    6  A    between atoms: N4_14  and  C6_16 
REMARK    7  A    between atoms: C7_19  and  N6_20 
REMARK    8  A    between atoms: N6_20  and  C8_22 
ROOT
HETATM    1  C6  UNL     1       1.096   2.407  -0.200  1.00  0.00     0.135 A 
HETATM    2  N5  UNL     1       0.205   1.510  -0.635  1.00  0.00    -0.176 N 
ATOM      3  H5  UNL     1       0.361   1.078  -1.546  1.00  0.00     0.186 HD
HETATM    4  C7  UNL     1      -0.906   1.139   0.075  1.00  0.00     0.680 A 
HETATM    5  N7  UNL     1      -1.068   1.734   1.266  1.00  0.00    -0.201 N 
ATOM      6  H7  UNL     1      -1.883   1.486   1.827  1.00  0.00     0.183 HD
HETATM    7  C18 UNL     1      -0.195   2.654   1.760  1.00  0.00     0.129 A 
HETATM    8  C19 UNL     1       0.917   3.020   1.041  1.00  0.00     0.071 A 
HETATM    9 BR1  UNL     1       2.166   4.302   1.694  1.00  0.00    -0.046 Br
ENDROOT
BRANCH   1  10
HETATM   10  N4  UNL     1       2.137   2.771  -0.847  1.00  0.00    -0.375 N 
ATOM     11  H4  UNL     1       2.748   3.465  -0.417  1.00  0.00     0.161 HD
BRANCH  10  12
HETATM   12  C5  UNL     1       2.497   2.268  -2.130  1.00  0.00     0.123 C 
BRANCH  12  13
HETATM   13  C4  UNL     1       3.339   0.988  -2.035  1.00  0.00     0.040 C 
BRANCH  13  14
HETATM   14  C3  UNL     1       4.579   1.372  -1.262  1.00  0.00     0.139 C 
BRANCH  14  15
HETATM   15  N3  UNL     1       5.496   0.298  -1.070  1.00  0.00    -0.225 N 
HETATM   16  C2  UNL     1       5.273  -0.832  -0.264  1.00  0.00     0.691 C 
HETATM   17  N1  UNL     1       5.627  -0.804   1.111  1.00  0.00    -0.097 N 
HETATM   18  N2  UNL     1       4.752  -1.917  -0.721  1.00  0.00    -0.233 N 
ATOM     19  H1  UNL     1       5.075  -0.250   1.766  1.00  0.00     0.213 HD
ATOM     20  H22 UNL     1       4.590  -2.737  -0.136  1.00  0.00     0.174 HD
ATOM     21  H21 UNL     1       4.498  -1.937  -1.709  1.00  0.00     0.174 HD
ATOM     22  H3  UNL     1       6.390   0.354  -1.559  1.00  0.00     0.177 HD
BRANCH  17  23
HETATM   23  O1  UNL     1       6.691  -1.508   1.556  1.00  0.00    -0.272 OA
HETATM   24  C1  UNL     1       7.852  -1.214   0.831  1.00  0.00     0.238 C 
ENDBRANCH  17  23
ENDBRANCH  14  15
ENDBRANCH  13  14
ENDBRANCH  12  13
ENDBRANCH  10  12
ENDBRANCH   1  10
BRANCH   4  25
HETATM   25  N6  UNL     1      -1.660   0.289  -0.448  1.00  0.00    -0.217 N 
ATOM     26  H6  UNL     1      -1.325  -0.016  -1.362  1.00  0.00     0.178 HD
BRANCH  25  27
HETATM   27  C8  UNL     1      -2.857  -0.347  -0.079  1.00  0.00     0.048 C 
HETATM   28  C9  UNL     1      -2.804  -1.227   1.132  1.00  0.00     0.036 C 
HETATM   29  C10 UNL     1      -4.150  -1.891   1.314  1.00  0.00    -0.012 C 
HETATM   30  C11 UNL     1      -5.222  -0.865   1.450  1.00  0.00     0.009 C 
HETATM   31  C15 UNL     1      -4.472  -2.819   0.168  1.00  0.00     0.009 C 
HETATM   32  C12 UNL     1      -5.332  -0.104   0.148  1.00  0.00    -0.012 C 
HETATM   33  C13 UNL     1      -5.627  -1.023  -0.996  1.00  0.00     0.009 C 
HETATM   34  C17 UNL     1      -4.022   0.624  -0.050  1.00  0.00     0.036 C 
HETATM   35  C14 UNL     1      -4.479  -1.999  -1.092  1.00  0.00    -0.012 C 
HETATM   36  C16 UNL     1      -3.171  -1.306  -1.253  1.00  0.00     0.036 C 
ENDBRANCH  25  27
ENDBRANCH   4  25
TORSDOF 8
