REMARK  13 active torsions:
REMARK  status: ('A' for Active; 'I' for Inactive)
REMARK    1  A    between atoms: C2_2  and  C4_4 
REMARK    2  A    between atoms: C2_2  and  N4_20 
REMARK    3  A    between atoms: C4_4  and  O1_5 
REMARK    4  A    between atoms: O1_5  and  C5_6 
REMARK       I    between atoms: C5_6  and  N1_8 
REMARK    5  A    between atoms: N1_8  and  N2_10 
REMARK    6  A    between atoms: N2_10  and  C6_12 
REMARK    7  A    between atoms: C6_12  and  N3_14 
REMARK    8  A    between atoms: N3_14  and  C7_16 
REMARK    9  A    between atoms: C7_16  and  C8_17 
REMARK   10  A    between atoms: C8_17  and  C9_18 
REMARK   11  A    between atoms: N4_20  and  C10_22 
REMARK   12  A    between atoms: C10_22  and  N5_24 
REMARK   13  A    between atoms: N5_24  and  C11_26 
ROOT
HETATM    1  C1  UNL     1      -1.282   0.289   1.832  1.00  0.00     0.040 C 
HETATM    2  C2  UNL     1      -1.887  -0.394   0.629  1.00  0.00     0.047 C 
HETATM    3  C3  UNL     1      -1.351  -1.837   0.701  1.00  0.00     0.040 C 
ENDROOT
BRANCH   2   4
HETATM    4  C4  UNL     1      -1.471   0.280  -0.633  1.00  0.00     0.210 C 
BRANCH   4   5
HETATM    5  O1  UNL     1      -0.167   0.529  -0.839  1.00  0.00    -0.300 OA
BRANCH   5   6
HETATM    6  C5  UNL     1       0.953  -0.098  -1.072  1.00  0.00     0.379 C 
HETATM    7  O2  UNL     1       0.976  -1.354  -1.196  1.00  0.00    -0.237 OA
HETATM    8  N1  UNL     1       2.195   0.638  -1.190  1.00  0.00    -0.243 N 
ATOM      9  H1  UNL     1       2.219   1.655  -1.113  1.00  0.00     0.192 HD
BRANCH   8  10
HETATM   10  N2  UNL     1       3.340  -0.091  -1.410  1.00  0.00    -0.272 N 
ATOM     11  H2  UNL     1       3.501  -0.558  -2.302  1.00  0.00     0.189 HD
BRANCH  10  12
HETATM   12  C6  UNL     1       4.305  -0.176  -0.345  1.00  0.00     0.186 C 
HETATM   13  S1  UNL     1       3.914   0.551   1.036  1.00  0.00    -0.040 SA
BRANCH  12  14
HETATM   14  N3  UNL     1       5.473  -0.917  -0.504  1.00  0.00    -0.366 N 
ATOM     15  H3  UNL     1       5.592  -1.416  -1.386  1.00  0.00     0.161 HD
BRANCH  14  16
HETATM   16  C7  UNL     1       6.510  -1.038   0.452  1.00  0.00     0.123 C 
BRANCH  16  17
HETATM   17  C8  UNL     1       7.496   0.057   0.515  1.00  0.00     0.030 C 
BRANCH  17  18
HETATM   18  C9  UNL     1       7.120   1.445   0.798  1.00  0.00     0.086 C 
HETATM   19 BR1  UNL     1       8.791   2.489   0.794  1.00  0.00    -0.096 Br
ENDBRANCH  17  18
ENDBRANCH  16  17
ENDBRANCH  14  16
ENDBRANCH  12  14
ENDBRANCH  10  12
ENDBRANCH   8  10
ENDBRANCH   5   6
ENDBRANCH   4   5
ENDBRANCH   2   4
BRANCH   2  20
HETATM   20  N4  UNL     1      -3.340  -0.484   0.698  1.00  0.00    -0.356 N 
ATOM     21  H4  UNL     1      -3.744  -1.412   0.573  1.00  0.00     0.162 HD
BRANCH  20  22
HETATM   22  C10 UNL     1      -4.243   0.564   0.917  1.00  0.00     0.173 C 
HETATM   23  S2  UNL     1      -3.697   2.084   1.128  1.00  0.00    -0.041 SA
BRANCH  22  24
HETATM   24  N5  UNL     1      -5.635   0.371   0.973  1.00  0.00    -0.318 N 
ATOM     25  H5  UNL     1      -6.020   0.211   1.904  1.00  0.00     0.170 HD
BRANCH  24  26
HETATM   26  C11 UNL     1      -6.474   0.369   0.028  1.00  0.00     0.123 A 
HETATM   27  C12 UNL     1      -6.258   0.556  -1.314  1.00  0.00     0.068 A 
HETATM   28  C13 UNL     1      -7.475   0.459  -1.992  1.00  0.00     0.111 A 
HETATM   29  N6  UNL     1      -8.382   0.216  -1.025  1.00  0.00    -0.310 N 
HETATM   30  N7  UNL     1      -7.798   0.162   0.170  1.00  0.00    -0.286 N 
ATOM     31  H6  UNL     1      -9.381   0.090  -1.187  1.00  0.00     0.186 HD
ATOM     32  H7  UNL     1      -8.277  -0.009   1.054  1.00  0.00     0.188 HD
ENDBRANCH  24  26
ENDBRANCH  22  24
ENDBRANCH  20  22
ENDBRANCH   2  20
TORSDOF 13
