REMARK  11 active torsions:
REMARK  status: ('A' for Active; 'I' for Inactive)
REMARK    1  A    between atoms: N1_2  and  C2_4 
REMARK    2  A    between atoms: C3_8  and  N3_9 
REMARK    3  A    between atoms: N3_9  and  C4_11 
REMARK    4  A    between atoms: C4_11  and  C5_12 
REMARK    5  A    between atoms: C5_12  and  N4_13 
REMARK    6  A    between atoms: C5_12  and  N5_16 
REMARK    7  A    between atoms: N5_16  and  C6_18 
REMARK    8  A    between atoms: C6_18  and  C7_19 
REMARK    9  A    between atoms: C7_19  and  C8_20 
REMARK   10  A    between atoms: C9_23  and  N7_24 
REMARK   11  A    between atoms: N7_24  and  C10_26 
ROOT
HETATM    1  N5  UNL     1       0.811   0.808   1.427  1.00  0.00    -0.378 N 
ATOM      2  H5  UNL     1       0.378   0.295   2.195  1.00  0.00     0.160 HD
ENDROOT
BRANCH   1   3
HETATM    3  C5  UNL     1       1.691   0.122   0.523  1.00  0.00     0.088 C 
BRANCH   3   4
HETATM    4  C4  UNL     1       3.034   0.696   0.241  1.00  0.00     0.197 C 
BRANCH   4   5
HETATM    5  N3  UNL     1       3.849  -0.170  -0.595  1.00  0.00    -0.362 N 
ATOM      6  H3  UNL     1       3.431  -0.694  -1.363  1.00  0.00     0.162 HD
BRANCH   5   7
HETATM    7  C3  UNL     1       5.141  -0.265  -0.341  1.00  0.00     0.176 A 
HETATM    8  S1  UNL     1       6.046   0.509   0.875  1.00  0.00     0.039 SA
HETATM    9  N2  UNL     1       7.555  -0.143   0.512  1.00  0.00    -0.157 N 
HETATM   10  C2  UNL     1       7.289  -0.930  -0.535  1.00  0.00     0.686 A 
ATOM     11  H2  UNL     1       8.449   0.021   0.975  1.00  0.00     0.193 HD
HETATM   12  N9  UNL     1       6.061  -0.991  -0.968  1.00  0.00    -0.169 N 
ATOM     13  H9  UNL     1       5.813  -1.578  -1.764  1.00  0.00     0.186 HD
BRANCH  10  14
HETATM   14  N1  UNL     1       8.270  -1.623  -1.094  1.00  0.00    -0.230 N 
HETATM   15  C1  UNL     1       9.609  -1.564  -0.622  1.00  0.00     0.165 C 
ATOM     16  H1  UNL     1       8.056  -2.221  -1.892  1.00  0.00     0.177 HD
ENDBRANCH  10  14
ENDBRANCH   5   7
ENDBRANCH   4   5
ENDBRANCH   3   4
BRANCH   3  17
HETATM   17  N4  UNL     1       1.364  -0.968  -0.052  1.00  0.00    -0.388 N 
ATOM     18  H42 UNL     1       1.989  -1.455  -0.694  1.00  0.00     0.157 HD
ATOM     19  H41 UNL     1       0.443  -1.362   0.141  1.00  0.00     0.157 HD
ENDBRANCH   3  17
ENDBRANCH   1   3
BRANCH   1  20
HETATM   20  C6  UNL     1       0.532   2.210   1.264  1.00  0.00     0.127 C 
BRANCH  20  21
HETATM   21  C7  UNL     1      -0.311   2.470   0.009  1.00  0.00     0.080 C 
BRANCH  21  22
HETATM   22  C8  UNL     1      -1.594   1.742   0.175  1.00  0.00     0.062 A 
HETATM   23  N6  UNL     1      -1.993   0.604  -0.393  1.00  0.00    -0.193 N 
HETATM   24  C9  UNL     1      -3.223   0.283   0.033  1.00  0.00     0.679 A 
ATOM     25  H6  UNL     1      -1.443   0.057  -1.055  1.00  0.00     0.184 HD
HETATM   26  N8  UNL     1      -3.585   1.258   0.888  1.00  0.00    -0.183 N 
HETATM   27  C15 UNL     1      -2.619   2.167   1.002  1.00  0.00     0.119 A 
ATOM     28  H8  UNL     1      -4.477   1.295   1.381  1.00  0.00     0.185 HD
HETATM   29 BR1  UNL     1      -2.616   3.734   2.072  1.00  0.00    -0.029 Br
BRANCH  24  30
HETATM   30  N7  UNL     1      -3.932  -0.748  -0.297  1.00  0.00    -0.221 N 
ATOM     31  H7  UNL     1      -3.576  -1.441  -0.955  1.00  0.00     0.178 HD
BRANCH  30  32
HETATM   32  C10 UNL     1      -5.250  -0.890   0.297  1.00  0.00     0.099 C 
HETATM   33  C11 UNL     1      -5.828  -2.243   0.063  1.00  0.00     0.026 C 
HETATM   34  C12 UNL     1      -6.653  -2.125  -1.170  1.00  0.00     0.002 C 
HETATM   35  C13 UNL     1      -6.851  -0.673  -1.459  1.00  0.00     0.002 C 
HETATM   36  C14 UNL     1      -6.182   0.091  -0.345  1.00  0.00     0.026 C 
ENDBRANCH  30  32
ENDBRANCH  24  30
ENDBRANCH  21  22
ENDBRANCH  20  21
ENDBRANCH   1  20
TORSDOF 11
