REMARK  9 active torsions:
REMARK  status: ('A' for Active; 'I' for Inactive)
REMARK    1  A    between atoms: C3_3  and  C4_4 
REMARK    2  A    between atoms: C5_7  and  N2_8 
REMARK       I    between atoms: N2_8  and  C6_10 
REMARK       I    between atoms: C6_10  and  N3_12 
REMARK    3  A    between atoms: N3_12  and  C7_14 
REMARK    4  A    between atoms: C7_14  and  C8_15 
REMARK    5  A    between atoms: C8_15  and  C9_16 
REMARK    6  A    between atoms: C9_16  and  N5_20 
REMARK    7  A    between atoms: N5_20  and  C10_22 
REMARK    8  A    between atoms: C10_22  and  C11_23 
REMARK    9  A    between atoms: C11_23  and  N6_24 
ROOT
HETATM    1  C1  UNL     1       9.432   3.166  -1.082  1.00  0.00     0.112 C 
HETATM    2  C2  UNL     1       8.057   2.711  -0.875  1.00  0.00    -0.104 C 
HETATM    3  C3  UNL     1       6.920   2.318  -0.707  1.00  0.00    -0.046 C 
ENDROOT
BRANCH   3   4
HETATM    4  C4  UNL     1       5.569   1.834  -0.511  1.00  0.00     0.137 A 
HETATM    5  N1  UNL     1       4.619   1.637  -1.428  1.00  0.00    -0.181 N 
HETATM    6  C5  UNL     1       3.469   1.175  -0.854  1.00  0.00     0.688 A 
ATOM      7  H1  UNL     1       4.737   1.809  -2.426  1.00  0.00     0.185 HD
HETATM    8  N8  UNL     1       3.723   1.085   0.460  1.00  0.00    -0.182 N 
HETATM    9  C18 UNL     1       5.008   1.485   0.697  1.00  0.00     0.132 A 
ATOM     10  H8  UNL     1       3.062   0.768   1.169  1.00  0.00     0.185 HD
HETATM   11 BR1  UNL     1       5.885   1.553   2.382  1.00  0.00    -0.028 Br
BRANCH   6  12
HETATM   12  N2  UNL     1       2.387   0.895  -1.489  1.00  0.00    -0.141 N 
HETATM   13  C6  UNL     1       1.219   0.418  -0.843  1.00  0.00     0.335 C 
HETATM   14  O1  UNL     1       0.512   1.288  -0.277  1.00  0.00    -0.246 OA
HETATM   15  N3  UNL     1       0.922  -0.957  -0.870  1.00  0.00    -0.331 N 
ATOM     16  H3  UNL     1       1.582  -1.565  -1.355  1.00  0.00     0.165 HD
ATOM     17  H2  UNL     1       2.368   1.021  -2.501  1.00  0.00     0.189 HD
BRANCH  15  18
HETATM   18  C7  UNL     1      -0.242  -1.591  -0.269  1.00  0.00     0.065 C 
HETATM   19  C14 UNL     1      -0.130  -3.093  -0.478  1.00  0.00     0.035 C 
HETATM   20  C15 UNL     1       0.548  -3.750   0.706  1.00  0.00     0.030 C 
HETATM   21  C16 UNL     1       1.524  -2.785   1.337  1.00  0.00     0.232 C 
HETATM   22  N7  UNL     1       0.902  -1.623   1.894  1.00  0.00    -0.073 N 
HETATM   23  C17 UNL     1      -0.333  -1.270   1.206  1.00  0.00     0.263 C 
ATOM     24  H72 UNL     1       0.746  -1.734   2.896  1.00  0.00     0.277 HD
ATOM     25  H71 UNL     1       1.549  -0.835   1.916  1.00  0.00     0.277 HD
BRANCH  18  26
HETATM   26  C8  UNL     1      -1.463  -1.052  -0.960  1.00  0.00     0.108 C 
BRANCH  26  27
HETATM   27  C9  UNL     1      -2.750  -1.587  -0.507  1.00  0.00     0.072 C 
HETATM   28  N4  UNL     1      -3.375  -2.425  -1.296  1.00  0.00    -0.389 N 
ATOM     29  H42 UNL     1      -2.922  -2.652  -2.181  1.00  0.00     0.157 HD
ATOM     30  H41 UNL     1      -4.271  -2.797  -0.981  1.00  0.00     0.157 HD
BRANCH  27  31
HETATM   31  N5  UNL     1      -3.375  -1.274   0.714  1.00  0.00    -0.378 N 
ATOM     32  H5  UNL     1      -3.428  -1.999   1.429  1.00  0.00     0.160 HD
BRANCH  31  33
HETATM   33  C10 UNL     1      -3.946   0.020   1.009  1.00  0.00     0.151 C 
BRANCH  33  34
HETATM   34  C11 UNL     1      -5.187   0.263   0.145  1.00  0.00     0.290 C 
BRANCH  34  35
HETATM   35  N6  UNL     1      -5.719   1.539   0.470  1.00  0.00     0.081 N 
HETATM   36  C12 UNL     1      -4.932   2.669   0.093  1.00  0.00     0.309 C 
HETATM   37  C13 UNL     1      -7.091   1.762   0.157  1.00  0.00     0.309 C 
ENDBRANCH  34  35
ENDBRANCH  33  34
ENDBRANCH  31  33
ENDBRANCH  27  31
ENDBRANCH  26  27
ENDBRANCH  18  26
ENDBRANCH  15  18
ENDBRANCH   6  12
ENDBRANCH   3   4
TORSDOF 9
