REMARK  8 active torsions:
REMARK  status: ('A' for Active; 'I' for Inactive)
REMARK    1  A    between atoms: C2_2  and  C3_3 
REMARK    2  A    between atoms: C5_5  and  C6_6 
REMARK    3  A    between atoms: C6_6  and  N1_7 
REMARK    4  A    between atoms: N1_7  and  C7_9 
REMARK    5  A    between atoms: N3_17  and  C12_19 
REMARK    6  A    between atoms: C12_19  and  C13_20 
REMARK    7  A    between atoms: C12_19  and  C15_22 
REMARK    8  A    between atoms: C15_22  and  O1_23 
REMARK       I    between atoms: N5_27  and  C16_28 
REMARK       I    between atoms: C16_28  and  N7_32 
ROOT
HETATM    1  C3  UNL     1      -3.662  -0.743  -2.274  1.00  0.00     0.006 C 
HETATM    2  C4  UNL     1      -2.998  -1.606  -1.222  1.00  0.00     0.033 C 
HETATM    3  C5  UNL     1      -2.761  -0.688  -0.029  1.00  0.00     0.120 C 
HETATM    4  N5  UNL     1      -3.416   0.550  -0.393  1.00  0.00    -0.211 N 
HETATM    5  C16 UNL     1      -3.963   1.447   0.565  1.00  0.00     0.683 C 
HETATM    6  N6  UNL     1      -4.468   2.560   0.160  1.00  0.00    -0.234 N 
ATOM      7  H61 UNL     1      -4.860   3.203   0.847  1.00  0.00     0.174 HD
ATOM      8  H62 UNL     1      -4.469   2.783  -0.835  1.00  0.00     0.174 HD
HETATM    9  N7  UNL     1      -3.961   1.137   1.947  1.00  0.00    -0.126 N 
ATOM     10  H7  UNL     1      -3.299   1.603   2.568  1.00  0.00     0.197 HD
HETATM   11  C17 UNL     1      -4.861   0.195   2.470  1.00  0.00     0.196 C 
HETATM   12  N8  UNL     1      -5.621  -0.577   2.919  1.00  0.00    -0.171 NA
HETATM   13  C18 UNL     1      -3.374   0.628  -1.815  1.00  0.00     0.146 C 
ENDROOT
BRANCH   3  14
HETATM   14  C6  UNL     1      -1.273  -0.411   0.008  1.00  0.00     0.164 C 
BRANCH  14  15
HETATM   15  N1  UNL     1      -0.906   0.459   1.107  1.00  0.00    -0.224 N 
ATOM     16  H1  UNL     1      -1.607   0.841   1.742  1.00  0.00     0.177 HD
BRANCH  15  17
HETATM   17  C7  UNL     1       0.350   0.729   1.246  1.00  0.00     0.680 A 
HETATM   18  N2  UNL     1       0.676   1.537   2.270  1.00  0.00    -0.195 N 
HETATM   19  C8  UNL     1       1.970   1.873   2.489  1.00  0.00     0.043 A 
ATOM     20  H2  UNL     1      -0.054   1.898   2.884  1.00  0.00     0.184 HD
HETATM   21  C9  UNL     1       2.358   2.765   3.616  1.00  0.00     0.070 C 
HETATM   22  C10 UNL     1       2.963   1.372   1.641  1.00  0.00     0.077 A 
HETATM   23 BR1  UNL     1       4.744   1.913   2.048  1.00  0.00    -0.045 Br
HETATM   24  C11 UNL     1       2.631   0.551   0.600  1.00  0.00     0.136 A 
HETATM   25  N3  UNL     1       3.427   0.066  -0.194  1.00  0.00    -0.368 N 
HETATM   26  N4  UNL     1       1.298   0.253   0.439  1.00  0.00    -0.176 N 
ATOM     27  H3  UNL     1       2.921  -0.506  -0.870  1.00  0.00     0.161 HD
ATOM     28  H4  UNL     1       1.023  -0.358  -0.330  1.00  0.00     0.186 HD
BRANCH  25  29
HETATM   29  C12 UNL     1       4.795   0.028  -0.491  1.00  0.00     0.106 C 
BRANCH  29  30
HETATM   30  C13 UNL     1       5.527  -1.102   0.195  1.00  0.00     0.023 C 
HETATM   31  C14 UNL     1       6.987  -1.033  -0.151  1.00  0.00     0.007 C 
ENDBRANCH  29  30
BRANCH  29  32
HETATM   32  C15 UNL     1       4.857  -0.288  -2.013  1.00  0.00     0.189 C 
BRANCH  32  33
HETATM   33  O1  UNL     1       6.126  -0.339  -2.510  1.00  0.00    -0.399 OA
ATOM     34  H1  UNL     1       6.164  -0.532  -3.439  1.00  0.00     0.209 HD
ENDBRANCH  32  33
ENDBRANCH  29  32
ENDBRANCH  25  29
ENDBRANCH  15  17
ENDBRANCH  14  15
ENDBRANCH   3  14
BRANCH   1  35
HETATM   35  C2  UNL     1      -5.101  -1.102  -2.402  1.00  0.00     0.002 C 
HETATM   36  C1  UNL     1      -5.922  -0.947  -1.186  1.00  0.00     0.005 C 
ENDBRANCH   1  35
TORSDOF 8
