REMARK  9 active torsions:
REMARK  status: ('A' for Active; 'I' for Inactive)
REMARK    1  A    between atoms: C2_2  and  C4_4 
REMARK    2  A    between atoms: C4_4  and  C5_5 
REMARK    3  A    between atoms: C5_5  and  N1_6 
REMARK    4  A    between atoms: C5_5  and  C16_25 
REMARK       I    between atoms: N1_6  and  C6_8 
REMARK    5  A    between atoms: C6_8  and  C7_10 
REMARK       I    between atoms: C7_10  and  N2_12 
REMARK    6  A    between atoms: N2_12  and  C8_14 
REMARK       I    between atoms: C16_25  and  N4_27 
REMARK    7  A    between atoms: N4_27  and  C17_29 
REMARK    8  A    between atoms: C17_29  and  C18_30 
REMARK    9  A    between atoms: C17_29  and  C19_33 
ROOT
HETATM    1  C5  UNL     1       1.401   0.003  -1.476  1.00  0.00     0.177 C 
ENDROOT
BRANCH   1   2
HETATM    2  C4  UNL     1       1.883  -0.668  -2.698  1.00  0.00     0.038 C 
BRANCH   2   3
HETATM    3  C2  UNL     1       1.836  -2.139  -2.780  1.00  0.00    -0.020 C 
HETATM    4  C1  UNL     1       2.417  -2.507  -4.163  1.00  0.00     0.009 C 
HETATM    5  C3  UNL     1       0.511  -2.796  -2.699  1.00  0.00     0.009 C 
ENDBRANCH   2   3
ENDBRANCH   1   2
BRANCH   1   6
HETATM    6  N1  UNL     1       0.035  -0.191  -1.118  1.00  0.00    -0.340 N 
HETATM    7  C6  UNL     1      -0.930   0.875  -1.045  1.00  0.00     0.310 C 
HETATM    8  O1  UNL     1      -0.523   2.041  -1.313  1.00  0.00    -0.262 OA
ATOM      9  H1  UNL     1      -0.276  -1.138  -0.901  1.00  0.00     0.163 HD
BRANCH   7  10
HETATM   10  C7  UNL     1      -2.304   0.672  -0.688  1.00  0.00     0.309 C 
HETATM   11  O2  UNL     1      -2.709  -0.492  -0.455  1.00  0.00    -0.262 OA
HETATM   12  N2  UNL     1      -3.233   1.738  -0.585  1.00  0.00    -0.346 N 
ATOM     13  H2  UNL     1      -2.921   2.692  -0.769  1.00  0.00     0.163 HD
BRANCH  12  14
HETATM   14  C8  UNL     1      -4.623   1.500  -0.222  1.00  0.00     0.122 C 
HETATM   15  C9  UNL     1      -5.601   2.233  -1.079  1.00  0.00     0.065 C 
HETATM   16  C10 UNL     1      -6.222   3.246  -0.171  1.00  0.00     0.121 C 
HETATM   17  C11 UNL     1      -7.679   3.424  -0.562  1.00  0.00     0.046 C 
HETATM   18  C12 UNL     1      -5.496   4.544  -0.255  1.00  0.00     0.046 C 
HETATM   19  N3  UNL     1      -6.095   2.723   1.174  1.00  0.00    -0.057 N 
HETATM   20  C13 UNL     1      -4.913   1.926   1.201  1.00  0.00     0.139 C 
ATOM     21  H32 UNL     1      -6.105   3.450   1.889  1.00  0.00     0.279 HD
ATOM     22  H31 UNL     1      -6.925   2.220   1.489  1.00  0.00     0.279 HD
HETATM   23  C14 UNL     1      -3.788   2.719   1.798  1.00  0.00     0.048 C 
HETATM   24  C15 UNL     1      -5.202   0.713   2.093  1.00  0.00     0.048 C 
ENDBRANCH  12  14
ENDBRANCH   7  10
ENDBRANCH   1   6
BRANCH   1  25
HETATM   25  C16 UNL     1       2.289  -0.148  -0.280  1.00  0.00     0.241 C 
HETATM   26  O3  UNL     1       1.709  -0.369   0.806  1.00  0.00    -0.271 OA
HETATM   27  N4  UNL     1       3.684  -0.054  -0.315  1.00  0.00    -0.344 N 
ATOM     28  H4  UNL     1       4.079   0.117  -1.240  1.00  0.00     0.163 HD
BRANCH  27  29
HETATM   29  C17 UNL     1       4.634  -0.158   0.725  1.00  0.00     0.189 C 
BRANCH  29  30
HETATM   30  C18 UNL     1       4.363   0.799   1.855  1.00  0.00     0.197 C 
HETATM   31  O4  UNL     1       3.417   1.614   1.837  1.00  0.00    -0.646 OA
HETATM   32  O5  UNL     1       5.169   0.817   2.987  1.00  0.00    -0.646 OA
ENDBRANCH  29  30
BRANCH  29  33
HETATM   33  C19 UNL     1       4.937  -1.481   1.300  1.00  0.00     0.019 C 
HETATM   34  C20 UNL     1       5.459  -2.502   0.310  1.00  0.00     0.007 C 
HETATM   35  C21 UNL     1       5.401  -3.887   0.963  1.00  0.00     0.000 C 
HETATM   36  C22 UNL     1       5.819  -3.699   2.427  1.00  0.00     0.000 C 
HETATM   37  C23 UNL     1       4.636  -3.073   3.120  1.00  0.00     0.000 C 
HETATM   38  C24 UNL     1       3.906  -2.120   2.156  1.00  0.00     0.007 C 
ENDBRANCH  29  33
ENDBRANCH  27  29
ENDBRANCH   1  25
TORSDOF 9
