REMARK  11 active torsions:
REMARK  status: ('A' for Active; 'I' for Inactive)
REMARK    1  A    between atoms: C1_4  and  C2_6 
REMARK    2  A    between atoms: C2_6  and  C3_7 
REMARK    3  A    between atoms: C3_7  and  N3_8 
REMARK       I    between atoms: N3_8  and  C4_10 
REMARK    4  A    between atoms: C4_10  and  C5_12 
REMARK    5  A    between atoms: C8_15  and  N4_16 
REMARK       I    between atoms: N4_16  and  C9_18 
REMARK       I    between atoms: C9_18  and  N6_23 
REMARK    6  A    between atoms: N5_19  and  O2_21 
REMARK    7  A    between atoms: N7_29  and  C15_30 
REMARK    8  A    between atoms: C15_30  and  C16_31 
REMARK    9  A    between atoms: C16_31  and  C17_32 
REMARK   10  A    between atoms: C17_32  and  C18_33 
REMARK   11  A    between atoms: N8_38  and  O3_40 
ROOT
HETATM    1  C5  UNL     1       1.998  -0.419  -0.403  1.00  0.00     0.096 C 
HETATM    2  C6  UNL     1       1.521  -1.030   0.927  1.00  0.00     0.019 C 
HETATM    3  C7  UNL     1       0.302  -1.842   0.555  1.00  0.00     0.048 C 
HETATM    4  C8  UNL     1      -0.702  -1.030  -0.155  1.00  0.00     0.202 C 
HETATM    5  N7  UNL     1      -0.305   0.306  -0.554  1.00  0.00    -0.347 N 
HETATM    6  C23 UNL     1       1.047   0.754  -0.622  1.00  0.00     0.140 C 
ENDROOT
BRANCH   4   7
HETATM    7  N4  UNL     1      -1.199  -1.808  -1.288  1.00  0.00    -0.203 N 
HETATM    8  C9  UNL     1      -1.858  -3.030  -1.027  1.00  0.00     0.697 C 
HETATM    9  N5  UNL     1      -1.462  -4.182  -1.450  1.00  0.00    -0.099 N 
HETATM   10  N6  UNL     1      -3.056  -3.016  -0.238  1.00  0.00    -0.216 N 
ATOM     11  H5  UNL     1      -2.023  -4.996  -1.197  1.00  0.00     0.213 HD
HETATM   12  C10 UNL     1      -3.037  -3.757   1.009  1.00  0.00     0.141 C 
HETATM   13  C14 UNL     1      -4.230  -2.307  -0.646  1.00  0.00     0.141 C 
HETATM   14  C11 UNL     1      -4.224  -4.710   0.965  1.00  0.00     0.020 C 
HETATM   15  C12 UNL     1      -5.467  -3.873   0.884  1.00  0.00     0.003 C 
HETATM   16  C13 UNL     1      -5.517  -2.958  -0.283  1.00  0.00     0.020 C 
ATOM     17  H4  UNL     1      -1.073  -1.477  -2.244  1.00  0.00     0.180 HD
BRANCH   9  18
HETATM   18  O2  UNL     1      -0.358  -4.393  -2.205  1.00  0.00    -0.276 OA
ATOM     19  H2  UNL     1      -0.066  -5.242  -2.517  1.00  0.00     0.245 HD
ENDBRANCH   9  18
ENDBRANCH   4   7
BRANCH   5  20
HETATM   20  C15 UNL     1      -1.361   1.177  -0.888  1.00  0.00     0.101 C 
HETATM   21  N8  UNL     1      -2.192   0.807  -1.806  1.00  0.00    -0.257 N 
ATOM     22  H8  UNL     1      -2.036  -0.103  -2.240  1.00  0.00     0.195 HD
BRANCH  20  23
HETATM   23  C16 UNL     1      -1.581   2.481  -0.262  1.00  0.00     0.078 C 
BRANCH  23  24
HETATM   24  C17 UNL     1      -0.693   3.529  -0.824  1.00  0.00     0.012 C 
BRANCH  24  25
HETATM   25  C18 UNL     1      -0.908   4.890  -0.200  1.00  0.00    -0.014 C 
HETATM   26  C19 UNL     1      -2.282   5.425  -0.367  1.00  0.00     0.004 C 
HETATM   27  C20 UNL     1      -2.315   6.586   0.631  1.00  0.00     0.000 C 
HETATM   28  C21 UNL     1      -1.251   6.292   1.651  1.00  0.00     0.000 C 
HETATM   29  C22 UNL     1      -0.651   4.934   1.265  1.00  0.00     0.004 C 
ENDBRANCH  24  25
ENDBRANCH  23  24
ENDBRANCH  20  23
BRANCH  21  30
HETATM   30  O3  UNL     1      -3.252   1.527  -2.238  1.00  0.00    -0.288 OA
ATOM     31  H3  UNL     1      -3.863   1.255  -2.913  1.00  0.00     0.244 HD
ENDBRANCH  21  30
ENDBRANCH   5  20
BRANCH   1  32
HETATM   32  C4  UNL     1       3.387  -0.004  -0.338  1.00  0.00     0.223 C 
HETATM   33  N3  UNL     1       4.408  -0.948  -0.062  1.00  0.00    -0.360 N 
ATOM     34  H3  UNL     1       4.139  -1.920   0.088  1.00  0.00     0.162 HD
HETATM   35  O1  UNL     1       3.708   1.188  -0.523  1.00  0.00    -0.273 OA
BRANCH  33  36
HETATM   36  C3  UNL     1       5.803  -0.606   0.017  1.00  0.00     0.129 C 
BRANCH  36  37
HETATM   37  C2  UNL     1       6.603  -1.848   0.324  1.00  0.00     0.092 C 
BRANCH  37  38
HETATM   38  C1  UNL     1       8.046  -1.536   0.413  1.00  0.00     0.088 C 
HETATM   39  N1  UNL     1       8.451  -0.325   0.235  1.00  0.00    -0.391 N 
ATOM     40  H12 UNL     1       9.446  -0.110   0.296  1.00  0.00     0.157 HD
ATOM     41  H11 UNL     1       7.789   0.424   0.032  1.00  0.00     0.157 HD
HETATM   42  N2  UNL     1       8.963  -2.573   0.694  1.00  0.00    -0.088 NA
ENDBRANCH  37  38
ENDBRANCH  36  37
ENDBRANCH  33  36
ENDBRANCH   1  32
TORSDOF 11
