REMARK  9 active torsions:
REMARK  status: ('A' for Active; 'I' for Inactive)
REMARK       I    between atoms: C1_2  and  N1_3 
REMARK    1  A    between atoms: C1_2  and  C15_23 
REMARK       I    between atoms: N1_3  and  C2_5 
REMARK       I    between atoms: C2_5  and  N2_6 
REMARK       I    between atoms: C2_5  and  N3_13 
REMARK    2  A    between atoms: N2_6  and  C3_7 
REMARK    3  A    between atoms: N3_13  and  C9_15 
REMARK    4  A    between atoms: C14_20  and  O2_21 
REMARK    5  A    between atoms: C18_26  and  N4_27 
REMARK    6  A    between atoms: N4_27  and  S1_29 
REMARK    7  A    between atoms: S1_29  and  N5_32 
REMARK    8  A    between atoms: N5_32  and  C19_34 
REMARK    9  A    between atoms: C19_34  and  C20_35 
ROOT
HETATM    1  O1  UNL     1      -0.141   0.821   1.910  1.00  0.00    -0.266 OA
HETATM    2  C1  UNL     1       0.142  -0.160   1.213  1.00  0.00     0.275 C 
HETATM    3  N1  UNL     1      -0.813  -0.945   0.535  1.00  0.00    -0.282 N 
ATOM      4  H1  UNL     1      -0.478  -1.737  -0.014  1.00  0.00     0.173 HD
HETATM    5  C2  UNL     1      -2.226  -0.699   0.569  1.00  0.00     0.253 C 
HETATM    6  N2  UNL     1      -2.967  -1.448  -0.030  1.00  0.00    -0.410 NA
HETATM    7  N3  UNL     1      -2.714   0.417   1.310  1.00  0.00    -0.344 N 
ATOM      8  H3  UNL     1      -2.851   0.297   2.314  1.00  0.00     0.164 HD
ENDROOT
BRANCH   2   9
HETATM    9  C15 UNL     1       1.579  -0.499   1.109  1.00  0.00     0.102 A 
HETATM   10  C16 UNL     1       2.106  -1.522   0.353  1.00  0.00     0.039 A 
HETATM   11  C17 UNL     1       3.492  -1.545   0.508  1.00  0.00     0.051 A 
HETATM   12  C18 UNL     1       3.785  -0.517   1.370  1.00  0.00     0.116 A 
HETATM   13  N6  UNL     1       2.607   0.086   1.707  1.00  0.00    -0.338 N 
ATOM     14  H6  UNL     1       2.528   0.884   2.338  1.00  0.00     0.167 HD
BRANCH  12  15
HETATM   15  N4  UNL     1       5.078  -0.171   1.817  1.00  0.00    -0.253 N 
ATOM     16  H4  UNL     1       5.178   0.615   2.459  1.00  0.00     0.182 HD
BRANCH  15  17
HETATM   17  S1  UNL     1       6.481  -1.011   1.330  1.00  0.00     0.320 S 
HETATM   18  O3  UNL     1       7.522  -0.868   2.428  1.00  0.00    -0.182 OA
HETATM   19  O4  UNL     1       6.295  -2.461   1.092  1.00  0.00    -0.182 OA
BRANCH  17  20
HETATM   20  N5  UNL     1       7.193  -0.302  -0.078  1.00  0.00    -0.302 N 
ATOM     21  H5  UNL     1       6.985  -0.583  -1.036  1.00  0.00     0.173 HD
BRANCH  20  22
HETATM   22  C19 UNL     1       8.128   0.749   0.290  1.00  0.00     0.138 C 
BRANCH  22  23
HETATM   23  C20 UNL     1       8.770   1.393  -0.890  1.00  0.00     0.004 A 
HETATM   24  C21 UNL     1       9.589   0.613  -1.847  1.00  0.00     0.007 A 
HETATM   25  C22 UNL     1      10.315   1.443  -0.857  1.00  0.00     0.007 A 
ENDBRANCH  22  23
ENDBRANCH  20  22
ENDBRANCH  17  20
ENDBRANCH  15  17
ENDBRANCH  12  15
ENDBRANCH   2   9
BRANCH   6  26
HETATM   26  C3  UNL     1      -3.800  -2.241  -0.669  1.00  0.00     0.167 C 
HETATM   27  C4  UNL     1      -4.187  -1.900  -2.105  1.00  0.00     0.039 C 
HETATM   28  C5  UNL     1      -4.993  -3.054  -2.640  1.00  0.00     0.003 C 
HETATM   29  C6  UNL     1      -6.217  -3.350  -1.844  1.00  0.00     0.000 C 
HETATM   30  C7  UNL     1      -5.812  -3.634  -0.395  1.00  0.00     0.003 C 
HETATM   31  C8  UNL     1      -5.131  -2.389   0.115  1.00  0.00     0.039 C 
ENDBRANCH   6  26
BRANCH   7  32
HETATM   32  C9  UNL     1      -3.029   1.711   0.737  1.00  0.00     0.114 C 
HETATM   33  C10 UNL     1      -4.042   1.515  -0.345  1.00  0.00     0.028 C 
HETATM   34  C11 UNL     1      -4.877   2.680  -0.711  1.00  0.00     0.002 C 
HETATM   35  C12 UNL     1      -4.148   3.939  -0.284  1.00  0.00     0.003 C 
HETATM   36  C13 UNL     1      -4.165   3.900   1.230  1.00  0.00     0.034 C 
HETATM   37  C14 UNL     1      -3.432   2.714   1.775  1.00  0.00     0.140 C 
BRANCH  37  38
HETATM   38  O2  UNL     1      -2.366   3.202   2.518  1.00  0.00    -0.394 OA
ATOM     39  H2  UNL     1      -2.621   3.838   3.176  1.00  0.00     0.210 HD
ENDBRANCH  37  38
ENDBRANCH   7  32
TORSDOF 9
