REMARK  9 active torsions:
REMARK  status: ('A' for Active; 'I' for Inactive)
REMARK    1  A    between atoms: C2_2  and  O1_3 
REMARK    2  A    between atoms: C2_2  and  C3_5 
REMARK    3  A    between atoms: C3_5  and  C4_6 
REMARK    4  A    between atoms: C3_5  and  N2_19 
REMARK    5  A    between atoms: C4_6  and  C5_7 
REMARK    6  A    between atoms: C7_11  and  C8_12 
REMARK    7  A    between atoms: N2_19  and  S1_21 
REMARK    8  A    between atoms: S1_21  and  N3_24 
REMARK       I    between atoms: N3_24  and  C15_26 
REMARK       I    between atoms: C15_26  and  N4_28 
REMARK    9  A    between atoms: N4_28  and  C16_30 
ROOT
HETATM    1  N2  UNL     1      -1.556  -1.419   0.862  1.00  0.00    -0.295 N 
ATOM      2  H2  UNL     1      -1.035  -1.429   1.739  1.00  0.00     0.174 HD
ENDROOT
BRANCH   1   3
HETATM    3  C3  UNL     1      -0.967  -1.181  -0.438  1.00  0.00     0.127 C 
BRANCH   3   4
HETATM    4  C2  UNL     1      -0.077  -2.318  -0.805  1.00  0.00     0.137 C 
HETATM    5  C1  UNL     1       0.967  -2.704   0.165  1.00  0.00     0.041 C 
BRANCH   4   6
HETATM    6  O1  UNL     1       0.529  -2.128  -2.063  1.00  0.00    -0.394 OA
ATOM      7  H1  UNL     1      -0.143  -1.880  -2.687  1.00  0.00     0.210 HD
ENDBRANCH   4   6
ENDBRANCH   3   4
BRANCH   3   8
HETATM    8  C4  UNL     1      -0.433   0.186  -0.611  1.00  0.00     0.068 C 
BRANCH   8   9
HETATM    9  C5  UNL     1       0.764   0.555   0.126  1.00  0.00    -0.039 A 
HETATM   10  C6  UNL     1       0.855   1.098   1.383  1.00  0.00     0.095 A 
HETATM   11  N1  UNL     1       2.151   1.287   1.665  1.00  0.00    -0.368 N 
HETATM   12  C7  UNL     1       2.907   0.881   0.622  1.00  0.00     0.013 A 
ATOM     13  H1  UNL     1       2.512   1.678   2.535  1.00  0.00     0.165 HD
HETATM   14  C14 UNL     1       2.049   0.429  -0.330  1.00  0.00     0.034 A 
BRANCH  12  15
HETATM   15  C8  UNL     1       4.387   0.909   0.494  1.00  0.00     0.035 C 
HETATM   16  C9  UNL     1       4.981  -0.478   0.345  1.00  0.00     0.011 C 
HETATM   17  C10 UNL     1       6.472  -0.328   0.557  1.00  0.00     0.001 C 
HETATM   18  C11 UNL     1       7.113   0.688  -0.321  1.00  0.00     0.000 C 
HETATM   19  C12 UNL     1       6.323   1.925  -0.567  1.00  0.00     0.001 C 
HETATM   20  C13 UNL     1       4.845   1.702  -0.712  1.00  0.00     0.011 C 
ENDBRANCH  12  15
ENDBRANCH   8   9
ENDBRANCH   3   8
ENDBRANCH   1   3
BRANCH   1  21
HETATM   21  S1  UNL     1      -3.256  -1.684   0.735  1.00  0.00     0.323 S 
HETATM   22  O2  UNL     1      -3.722  -2.574   1.879  1.00  0.00    -0.182 OA
HETATM   23  O3  UNL     1      -3.550  -2.449  -0.527  1.00  0.00    -0.182 OA
BRANCH  21  24
HETATM   24  N3  UNL     1      -4.149  -0.226   0.831  1.00  0.00    -0.219 N 
HETATM   25  C15 UNL     1      -5.411  -0.198   1.441  1.00  0.00     0.336 C 
HETATM   26  O4  UNL     1      -5.917  -1.241   1.931  1.00  0.00    -0.246 OA
HETATM   27  N4  UNL     1      -6.123   1.029   1.502  1.00  0.00    -0.293 N 
ATOM     28  H4  UNL     1      -5.790   1.767   2.122  1.00  0.00     0.172 HD
ATOM     29  H3  UNL     1      -3.759   0.631   0.440  1.00  0.00     0.185 HD
BRANCH  27  30
HETATM   30  C16 UNL     1      -7.193   1.235   0.785  1.00  0.00     0.126 A 
HETATM   31  C17 UNL     1      -7.819   0.406  -0.103  1.00  0.00     0.093 A 
HETATM   32  C18 UNL     1      -8.918   1.065  -0.618  1.00  0.00     0.121 A 
HETATM   33 CL1  UNL     1     -10.014   0.381  -1.794  1.00  0.00    -0.063 Cl
HETATM   34  N5  UNL     1      -8.936   2.269  -0.036  1.00  0.00    -0.288 N 
HETATM   35  N6  UNL     1      -7.907   2.369   0.799  1.00  0.00    -0.284 N 
ATOM     36  H5  UNL     1      -9.631   2.996  -0.206  1.00  0.00     0.188 HD
ATOM     37  H6  UNL     1      -7.692   3.188   1.367  1.00  0.00     0.188 HD
ENDBRANCH  27  30
ENDBRANCH  21  24
ENDBRANCH   1  21
TORSDOF 9
