REMARK  10 active torsions:
REMARK  status: ('A' for Active; 'I' for Inactive)
REMARK    1  A    between atoms: N3_9  and  C5_11 
REMARK    2  A    between atoms: C7_13  and  N4_14 
REMARK    3  A    between atoms: N4_14  and  C8_16 
REMARK    4  A    between atoms: C11_19  and  N5_20 
REMARK    5  A    between atoms: C14_28  and  N7_29 
REMARK    6  A    between atoms: N7_29  and  C15_31 
REMARK    7  A    between atoms: C15_31  and  C16_32 
REMARK    8  A    between atoms: C16_32  and  C17_33 
REMARK    9  A    between atoms: C17_33  and  C18_34 
REMARK   10  A    between atoms: C18_34  and  C19_35 
ROOT
HETATM    1  C5  UNL     1      -1.350  -1.241  -1.709  1.00  0.00     0.127 A 
HETATM    2  C6  UNL     1      -0.121  -1.001  -1.126  1.00  0.00     0.097 A 
HETATM    3  C7  UNL     1       0.335   0.264  -0.843  1.00  0.00     0.120 A 
HETATM    4  N6  UNL     1      -0.497   1.286  -1.172  1.00  0.00    -0.177 N 
ATOM      5  H6  UNL     1      -0.196   2.241  -0.979  1.00  0.00     0.185 HD
HETATM    6  C14 UNL     1      -1.689   1.096  -1.736  1.00  0.00     0.681 A 
HETATM    7  N8  UNL     1      -2.106  -0.172  -2.001  1.00  0.00    -0.176 N 
ATOM      8  H8  UNL     1      -3.019  -0.314  -2.434  1.00  0.00     0.186 HD
ENDROOT
BRANCH   1   9
HETATM    9  N3  UNL     1      -1.755  -2.564  -1.964  1.00  0.00    -0.312 N 
HETATM   10  C4  UNL     1      -1.714  -3.519  -1.103  1.00  0.00     0.201 A 
HETATM   11  N2  UNL     1      -1.289  -3.518   0.234  1.00  0.00    -0.269 N 
HETATM   12  N9  UNL     1      -2.133  -4.843  -1.413  1.00  0.00    -0.312 N 
HETATM   13  N1  UNL     1      -1.433  -4.805   0.758  1.00  0.00    -0.283 N 
ATOM     14  H2  UNL     1      -0.932  -2.708   0.742  1.00  0.00     0.190 HD
HETATM   15  C3  UNL     1      -1.963  -5.676  -0.250  1.00  0.00     0.118 A 
ATOM     16  H1  UNL     1      -1.197  -5.082   1.711  1.00  0.00     0.188 HD
HETATM   17  C2  UNL     1      -2.243  -6.958  -0.156  1.00  0.00     0.019 C 
HETATM   18  C1  UNL     1      -2.018  -7.686   1.103  1.00  0.00     0.040 C 
ATOM     19  H9  UNL     1      -2.496  -5.153  -2.315  1.00  0.00     0.170 HD
ATOM     20  H3  UNL     1      -2.106  -2.781  -2.897  1.00  0.00     0.170 HD
ENDBRANCH   1   9
BRANCH   3  21
HETATM   21  N4  UNL     1       1.447   0.571  -0.311  1.00  0.00    -0.371 N 
ATOM     22  H4  UNL     1       1.614   1.568  -0.177  1.00  0.00     0.161 HD
BRANCH  21  23
HETATM   23  C8  UNL     1       2.492  -0.296   0.123  1.00  0.00     0.083 C 
HETATM   24  C9  UNL     1       3.773   0.187  -0.543  1.00  0.00     0.027 C 
HETATM   25  C10 UNL     1       4.945  -0.716  -0.246  1.00  0.00     0.035 C 
HETATM   26  C11 UNL     1       5.094  -0.873   1.231  1.00  0.00     0.183 C 
HETATM   27  C12 UNL     1       4.130  -0.018   1.999  1.00  0.00     0.035 C 
HETATM   28  C13 UNL     1       2.694  -0.255   1.626  1.00  0.00     0.027 C 
BRANCH  26  29
HETATM   29  N5  UNL     1       6.441  -0.445   1.619  1.00  0.00    -0.075 N 
ATOM     30  H53 UNL     1       7.170  -0.935   1.100  1.00  0.00     0.274 HD
ATOM     31  H52 UNL     1       6.655   0.502   1.305  1.00  0.00     0.274 HD
ATOM     32  H51 UNL     1       6.543  -0.552   2.628  1.00  0.00     0.274 HD
ENDBRANCH  26  29
ENDBRANCH  21  23
ENDBRANCH   3  21
BRANCH   6  33
HETATM   33  N7  UNL     1      -2.511   2.036  -2.063  1.00  0.00    -0.226 N 
ATOM     34  H7  UNL     1      -3.397   1.763  -2.489  1.00  0.00     0.177 HD
BRANCH  33  35
HETATM   35  C15 UNL     1      -2.269   3.441  -1.871  1.00  0.00     0.138 C 
BRANCH  35  36
HETATM   36  C16 UNL     1      -2.867   3.918  -0.575  1.00  0.00     0.020 C 
BRANCH  36  37
HETATM   37  C17 UNL     1      -2.578   5.394  -0.434  1.00  0.00     0.002 C 
BRANCH  37  38
HETATM   38  C18 UNL     1      -3.171   5.896   0.866  1.00  0.00     0.011 C 
BRANCH  38  39
HETATM   39  C19 UNL     1      -2.924   7.364   1.080  1.00  0.00     0.085 C 
HETATM   40 BR1  UNL     1      -3.740   7.844   2.773  1.00  0.00    -0.097 Br
ENDBRANCH  38  39
ENDBRANCH  37  38
ENDBRANCH  36  37
ENDBRANCH  35  36
ENDBRANCH  33  35
ENDBRANCH   6  33
TORSDOF 10
