REMARK  8 active torsions:
REMARK  status: ('A' for Active; 'I' for Inactive)
REMARK    1  A    between atoms: C2_2  and  N1_4 
REMARK    2  A    between atoms: N1_4  and  C5_6 
REMARK    3  A    between atoms: C5_6  and  O1_7 
REMARK    4  A    between atoms: C5_6  and  C6_9 
REMARK    5  A    between atoms: C7_12  and  C8_13 
REMARK       I    between atoms: N3_16  and  C11_17 
REMARK       I    between atoms: C11_17  and  N4_19 
REMARK    6  A    between atoms: N4_19  and  C12_21 
REMARK    7  A    between atoms: C12_21  and  C13_22 
REMARK    8  A    between atoms: C13_22  and  N5_23 
REMARK       I    between atoms: N5_23  and  C14_25 
ROOT
HETATM    1  C6  UNL     1      -2.993  -0.418   0.330  1.00  0.00     0.065 A 
HETATM    2  N2  UNL     1      -1.680  -0.638   0.320  1.00  0.00    -0.355 N 
ATOM      3  H2  UNL     1      -1.231  -1.554   0.337  1.00  0.00     0.166 HD
HETATM    4  C7  UNL     1      -1.030   0.573   0.283  1.00  0.00     0.042 A 
HETATM    5  C17 UNL     1      -1.983   1.539   0.269  1.00  0.00    -0.021 A 
HETATM    6  C18 UNL     1      -3.238   0.961   0.300  1.00  0.00    -0.022 A 
HETATM    7  C19 UNL     1      -4.527   1.694   0.337  1.00  0.00     0.043 C 
HETATM    8  C20 UNL     1      -4.251   3.112   0.805  1.00  0.00     0.025 C 
HETATM    9  C21 UNL     1      -3.149   3.711  -0.044  1.00  0.00     0.087 C 
HETATM   10 CL1  UNL     1      -3.059   5.435   0.316  1.00  0.00    -0.125 Cl
HETATM   11  C22 UNL     1      -1.858   3.016   0.291  1.00  0.00     0.061 C 
ENDROOT
BRANCH   4  12
HETATM   12  C8  UNL     1       0.452   0.610   0.168  1.00  0.00    -0.050 C 
HETATM   13  C9  UNL     1       1.051  -0.378   1.138  1.00  0.00     0.056 C 
HETATM   14  C10 UNL     1       2.470  -0.641   0.935  1.00  0.00     0.132 C 
HETATM   15  N3  UNL     1       3.186   0.466   0.334  1.00  0.00    -0.333 N 
HETATM   16  C11 UNL     1       4.624   0.340   0.468  1.00  0.00     0.322 C 
HETATM   17  C15 UNL     1       2.640   1.615  -0.274  1.00  0.00     0.132 C 
HETATM   18  O2  UNL     1       5.061  -0.564   1.236  1.00  0.00    -0.247 OA
HETATM   19  N4  UNL     1       5.515   1.169  -0.209  1.00  0.00    -0.318 N 
ATOM     20  H4  UNL     1       5.057   1.857  -0.807  1.00  0.00     0.170 HD
HETATM   21  C16 UNL     1       1.145   1.847   0.033  1.00  0.00     0.056 C 
BRANCH  19  22
HETATM   22  C12 UNL     1       6.922   1.248  -0.234  1.00  0.00     0.110 C 
BRANCH  22  23
HETATM   23  C13 UNL     1       7.833   0.183  -0.653  1.00  0.00     0.107 C 
BRANCH  23  24
HETATM   24  N5  UNL     1       7.934  -1.043   0.033  1.00  0.00    -0.340 N 
HETATM   25  C14 UNL     1       9.123  -1.876  -0.126  1.00  0.00     0.185 C 
HETATM   26  N6  UNL     1       9.320  -2.577  -1.133  1.00  0.00    -0.374 N 
HETATM   27  N7  UNL     1      10.036  -1.810   0.978  1.00  0.00    -0.064 NA
ATOM     28  H62 UNL     1       8.671  -2.624  -1.918  1.00  0.00     0.158 HD
ATOM     29  H61 UNL     1      10.150  -3.159  -1.244  1.00  0.00     0.158 HD
ATOM     30  H5  UNL     1       7.175  -1.350   0.642  1.00  0.00     0.167 HD
ENDBRANCH  23  24
ENDBRANCH  22  23
ENDBRANCH  19  22
ENDBRANCH   4  12
BRANCH   1  31
HETATM   31  C5  UNL     1      -3.997  -1.492   0.458  1.00  0.00     0.267 C 
BRANCH  31  32
HETATM   32  N1  UNL     1      -5.227  -1.335  -0.173  1.00  0.00    -0.384 N 
HETATM   33  C4  UNL     1      -5.394  -1.194  -1.547  1.00  0.00     0.146 C 
BRANCH  32  34
HETATM   34  C2  UNL     1      -6.204  -2.163   0.461  1.00  0.00     0.073 C 
HETATM   35  C1  UNL     1      -7.594  -1.550   0.409  1.00  0.00     0.031 C 
HETATM   36  C3  UNL     1      -6.352  -3.543  -0.154  1.00  0.00     0.031 C 
ENDBRANCH  32  34
ENDBRANCH  31  32
BRANCH  31  37
HETATM   37  O1  UNL     1      -3.399  -2.702   0.004  1.00  0.00    -0.371 OA
ATOM     38  H1  UNL     1      -2.559  -2.809   0.435  1.00  0.00     0.212 HD
ENDBRANCH  31  37
ENDBRANCH   1  31
TORSDOF 8
