REMARK  10 active torsions:
REMARK  status: ('A' for Active; 'I' for Inactive)
REMARK    1  A    between atoms: C9_9  and  N1_10 
REMARK       I    between atoms: N1_10  and  C10_12 
REMARK       I    between atoms: C10_12  and  N2_14 
REMARK    2  A    between atoms: N2_14  and  N3_16 
REMARK    3  A    between atoms: N3_16  and  C11_18 
REMARK    4  A    between atoms: C11_18  and  C12_19 
REMARK    5  A    between atoms: C12_19  and  C13_20 
REMARK    6  A    between atoms: C13_20  and  C14_21 
REMARK    7  A    between atoms: C14_21  and  C15_22 
REMARK    8  A    between atoms: C15_22  and  C16_23 
REMARK    9  A    between atoms: C16_23  and  N4_24 
REMARK       I    between atoms: N4_24  and  C17_26 
REMARK   10  A    between atoms: N7_31  and  C18_33 
ROOT
HETATM    1  N3  UNL     1       1.398  -1.830   1.683  1.00  0.00    -0.285 N 
ATOM      2  H3  UNL     1       1.859  -2.463   2.337  1.00  0.00     0.188 HD
ENDROOT
BRANCH   1   3
HETATM    3  N2  UNL     1       0.047  -1.582   1.873  1.00  0.00    -0.250 N 
HETATM    4  C10 UNL     1      -0.905  -1.773   0.854  1.00  0.00     0.335 C 
HETATM    5  N1  UNL     1      -2.287  -1.522   1.061  1.00  0.00    -0.333 N 
HETATM    6  O1  UNL     1      -0.539  -2.177  -0.274  1.00  0.00    -0.246 OA
ATOM      7  H1  UNL     1      -2.584  -1.192   1.979  1.00  0.00     0.165 HD
ATOM      8  H2  UNL     1      -0.268  -1.249   2.784  1.00  0.00     0.192 HD
BRANCH   5   9
HETATM    9  C9  UNL     1      -3.298  -1.708   0.041  1.00  0.00     0.115 C 
HETATM   10  C4  UNL     1      -4.075  -0.454  -0.066  1.00  0.00    -0.053 C 
HETATM   11  C3  UNL     1      -4.182   0.156  -1.220  1.00  0.00     0.013 C 
HETATM   12  C5  UNL     1      -4.728   0.065   1.142  1.00  0.00     0.045 C 
HETATM   13  C2  UNL     1      -4.971   1.410  -1.393  1.00  0.00     0.241 C 
HETATM   14  C1  UNL     1      -4.444   2.242  -2.539  1.00  0.00     0.047 C 
HETATM   15  N8  UNL     1      -4.971   2.127  -0.147  1.00  0.00     0.092 N 
HETATM   16  C21 UNL     1      -5.580   1.280   0.863  1.00  0.00     0.281 C 
HETATM   17  C22 UNL     1      -5.861   3.287  -0.295  1.00  0.00     0.310 C 
HETATM   18  C6  UNL     1      -5.550  -0.968   1.850  1.00  0.00     0.011 C 
HETATM   19  C7  UNL     1      -4.885  -2.325   1.872  1.00  0.00     0.003 C 
HETATM   20  C8  UNL     1      -4.319  -2.751   0.544  1.00  0.00     0.030 C 
ENDBRANCH   5   9
ENDBRANCH   1   3
BRANCH   1  21
HETATM   21  C11 UNL     1       2.190  -1.264   0.639  1.00  0.00     0.093 C 
HETATM   22  N7  UNL     1       2.833  -1.889  -0.237  1.00  0.00    -0.357 N 
ATOM     23  H7  UNL     1       3.328  -1.276  -0.885  1.00  0.00     0.162 HD
BRANCH  21  24
HETATM   24  C12 UNL     1       2.206   0.232   0.601  1.00  0.00     0.077 C 
BRANCH  24  25
HETATM   25  C13 UNL     1       3.422   0.764  -0.183  1.00  0.00     0.007 C 
BRANCH  25  26
HETATM   26  C14 UNL     1       4.706   0.415   0.456  1.00  0.00     0.002 C 
BRANCH  26  27
HETATM   27  C15 UNL     1       5.950   0.801  -0.240  1.00  0.00     0.020 C 
BRANCH  27  28
HETATM   28  C16 UNL     1       6.202   2.232  -0.537  1.00  0.00     0.122 C 
BRANCH  28  29
HETATM   29  N4  UNL     1       5.300   2.820  -1.475  1.00  0.00    -0.365 N 
HETATM   30  C17 UNL     1       5.354   4.236  -1.778  1.00  0.00     0.181 C 
HETATM   31  N5  UNL     1       4.417   5.040  -1.398  1.00  0.00    -0.374 N 
HETATM   32  N6  UNL     1       6.469   4.725  -2.504  1.00  0.00    -0.064 NA
ATOM     33  H52 UNL     1       3.615   4.688  -0.876  1.00  0.00     0.158 HD
ATOM     34  H51 UNL     1       4.455   6.037  -1.611  1.00  0.00     0.158 HD
ATOM     35  H4  UNL     1       4.606   2.234  -1.939  1.00  0.00     0.162 HD
ENDBRANCH  28  29
ENDBRANCH  27  28
ENDBRANCH  26  27
ENDBRANCH  25  26
ENDBRANCH  24  25
ENDBRANCH  21  24
BRANCH  22  36
HETATM   36  C18 UNL     1       3.018  -3.254  -0.518  1.00  0.00     0.101 C 
HETATM   37  C19 UNL     1       2.443  -4.244   0.436  1.00  0.00     0.056 C 
HETATM   38  C20 UNL     1       4.504  -3.581  -0.689  1.00  0.00     0.056 C 
HETATM   39 CL1  UNL     1       2.287  -3.605  -2.122  1.00  0.00    -0.096 Cl
ENDBRANCH  22  36
ENDBRANCH   1  21
TORSDOF 10
