REMARK  7 active torsions:
REMARK  status: ('A' for Active; 'I' for Inactive)
REMARK       I    between atoms: C1_2  and  N1_3 
REMARK    1  A    between atoms: C1_2  and  C7_17 
REMARK    2  A    between atoms: N1_3  and  C2_5 
REMARK    3  A    between atoms: C2_5  and  N2_7 
REMARK    4  A    between atoms: N2_7  and  N3_9 
REMARK    5  A    between atoms: N3_9  and  C3_10 
REMARK    6  A    between atoms: C3_10  and  N4_12 
REMARK    7  A    between atoms: N4_12  and  C4_14 
ROOT
HETATM    1  N2  UNL     1      -0.208   0.374  -0.816  1.00  0.00    -0.206 N 
ATOM      2  H2  UNL     1      -0.821   1.001  -1.337  1.00  0.00     0.204 HD
ENDROOT
BRANCH   1   3
HETATM    3  C2  UNL     1      -0.751  -0.878  -0.358  1.00  0.00     0.203 C 
HETATM    4  S1  UNL     1       0.215  -1.881   0.451  1.00  0.00    -0.038 SA
BRANCH   3   5
HETATM    5  N1  UNL     1      -2.116  -1.186  -0.630  1.00  0.00    -0.302 N 
HETATM    6  C1  UNL     1      -2.674  -2.421  -0.178  1.00  0.00     0.228 C 
HETATM    7  O1  UNL     1      -1.929  -3.236   0.470  1.00  0.00    -0.273 OA
ATOM      8  H1  UNL     1      -2.695  -0.524  -1.148  1.00  0.00     0.171 HD
BRANCH   6   9
HETATM    9  C7  UNL     1      -4.064  -2.844  -0.401  1.00  0.00     0.078 A 
HETATM   10  C8  UNL     1      -4.889  -2.357  -1.534  1.00  0.00     0.015 A 
HETATM   11  C9  UNL     1      -5.102  -1.759  -0.119  1.00  0.00     0.015 A 
ENDBRANCH   6   9
ENDBRANCH   3   5
ENDBRANCH   1   3
BRANCH   1  12
HETATM   12  N3  UNL     1       1.055   0.763  -0.598  1.00  0.00    -0.293 NA
BRANCH  12  13
HETATM   13  C3  UNL     1       2.282   1.170  -0.330  1.00  0.00     0.269 C 
HETATM   14  S2  UNL     1       3.607   0.899  -1.264  1.00  0.00    -0.023 SA
BRANCH  13  15
HETATM   15  N4  UNL     1       2.510   1.908   0.889  1.00  0.00    -0.349 N 
ATOM     16  H4  UNL     1       1.689   2.078   1.470  1.00  0.00     0.163 HD
BRANCH  15  17
HETATM   17  C4  UNL     1       3.712   2.415   1.367  1.00  0.00     0.085 A 
HETATM   18  C5  UNL     1       4.745   3.044   0.507  1.00  0.00     0.027 A 
HETATM   19  C6  UNL     1       5.044   1.762   1.217  1.00  0.00     0.027 A 
ENDBRANCH  15  17
ENDBRANCH  13  15
ENDBRANCH  12  13
ENDBRANCH   1  12
TORSDOF 7
