REMARK  6 active torsions:
REMARK  status: ('A' for Active; 'I' for Inactive)
REMARK    1  A    between atoms: C2_2  and  N1_3 
REMARK       I    between atoms: N1_3  and  C3_5 
REMARK       I    between atoms: C3_5  and  N2_7 
REMARK    2  A    between atoms: N2_7  and  C4_9 
REMARK    3  A    between atoms: C4_9  and  N3_10 
REMARK    4  A    between atoms: C4_9  and  S1_20 
REMARK    5  A    between atoms: N3_10  and  N4_12 
REMARK       I    between atoms: N4_12  and  C5_14 
REMARK    6  A    between atoms: C5_14  and  C6_16 
ROOT
HETATM    1  C4  UNL     1      -0.797  -1.310   0.032  1.00  0.00     0.162 C 
ENDROOT
BRANCH   1   2
HETATM    2  N2  UNL     1      -1.413  -0.162  -0.461  1.00  0.00    -0.288 N 
HETATM    3  C3  UNL     1      -2.804   0.037  -0.345  1.00  0.00     0.322 C 
HETATM    4  N1  UNL     1      -3.444   1.220  -0.816  1.00  0.00    -0.343 N 
HETATM    5  O1  UNL     1      -3.551  -0.821   0.180  1.00  0.00    -0.247 OA
ATOM      6  H1  UNL     1      -2.861   1.933  -1.254  1.00  0.00     0.164 HD
ATOM      7  H2  UNL     1      -0.844   0.552  -0.917  1.00  0.00     0.172 HD
BRANCH   4   8
HETATM    8  C2  UNL     1      -4.856   1.478  -0.717  1.00  0.00     0.120 C 
HETATM    9  C1  UNL     1      -5.397   1.533   0.671  1.00  0.00     0.026 C 
ENDBRANCH   4   8
ENDBRANCH   1   2
BRANCH   1  10
HETATM   10  N3  UNL     1       0.569  -1.524  -0.213  1.00  0.00    -0.277 N 
ATOM     11  H3  UNL     1       0.966  -2.385   0.164  1.00  0.00     0.189 HD
BRANCH  10  12
HETATM   12  N4  UNL     1       1.442  -0.698  -0.910  1.00  0.00    -0.268 N 
HETATM   13  C5  UNL     1       2.678  -0.268  -0.351  1.00  0.00     0.240 C 
HETATM   14  O2  UNL     1       2.959  -0.654   0.791  1.00  0.00    -0.271 OA
ATOM     15  H4  UNL     1       1.190  -0.391  -1.849  1.00  0.00     0.190 HD
BRANCH  13  16
HETATM   16  C6  UNL     1       3.574   0.602  -1.113  1.00  0.00     0.083 A 
HETATM   17  C7  UNL     1       5.038   0.313  -0.966  1.00  0.00     0.019 A 
HETATM   18  C8  UNL     1       4.467   1.616  -0.542  1.00  0.00    -0.005 A 
HETATM   19  C9  UNL     1       4.391   2.059   0.877  1.00  0.00     0.011 C 
ENDBRANCH  13  16
ENDBRANCH  10  12
ENDBRANCH   1  10
BRANCH   1  20
HETATM   20  S1  UNL     1      -1.668  -2.410   0.905  1.00  0.00    -0.097 SA
HETATM   21  C10 UNL     1      -0.713  -3.910   1.501  1.00  0.00     0.099 C 
ENDBRANCH   1  20
TORSDOF 6
