REMARK  2 active torsions:
REMARK  status: ('A' for Active; 'I' for Inactive)
REMARK       I    between atoms: C1_2  and  N2_4 
REMARK    1  A    between atoms: N2_4  and  C2_6 
REMARK    2  A    between atoms: C8_12  and  C9_13 
ROOT
HETATM    1  C2  UNL     1       0.988   0.110   0.006  1.00  0.00     0.052 C 
HETATM    2  C3  UNL     1       0.727   1.271   1.006  1.00  0.00     0.037 C 
HETATM    3  C4  UNL     1      -0.654   1.779   0.829  1.00  0.00    -0.010 C 
HETATM    4  C5  UNL     1      -0.703   2.434  -0.547  1.00  0.00     0.011 C 
HETATM    5  C6  UNL     1      -0.397   1.389  -1.567  1.00  0.00     0.008 C 
HETATM    6  C7  UNL     1      -1.487   0.327  -1.466  1.00  0.00     0.025 C 
HETATM    7  C8  UNL     1      -1.471  -0.323  -0.112  1.00  0.00     0.041 C 
HETATM    8  C10 UNL     1      -1.717   0.735   0.954  1.00  0.00     0.023 C 
HETATM    9  C11 UNL     1      -0.107  -0.907   0.196  1.00  0.00     0.051 C 
HETATM   10  C12 UNL     1       0.945   0.693  -1.365  1.00  0.00     0.114 C 
HETATM   11 CL1  UNL     1       1.031  -0.542  -2.627  1.00  0.00    -0.122 Cl
ENDROOT
BRANCH   1  12
HETATM   12  N2  UNL     1       2.222  -0.476   0.421  1.00  0.00    -0.335 N 
HETATM   13  C1  UNL     1       2.886  -1.619  -0.000  1.00  0.00     0.329 C 
HETATM   14  N1  UNL     1       4.146  -1.955   0.606  1.00  0.00    -0.040 NA
HETATM   15  O1  UNL     1       2.438  -2.366  -0.884  1.00  0.00    -0.251 OA
ATOM     16  H2  UNL     1       2.702   0.038   1.160  1.00  0.00     0.164 HD
ENDBRANCH   1  12
BRANCH   7  17
HETATM   17  C9  UNL     1      -2.466  -1.398  -0.087  1.00  0.00     0.240 C 
HETATM   18  N3  UNL     1      -2.659  -2.181   1.084  1.00  0.00    -0.061 NA
HETATM   19  O2  UNL     1      -3.183  -1.669  -1.090  1.00  0.00    -0.276 OA
ENDBRANCH   7  17
TORSDOF 2
