REMARK  4 active torsions:
REMARK  status: ('A' for Active; 'I' for Inactive)
REMARK    1  A    between atoms: C5_5  and  N1_6 
REMARK    2  A    between atoms: N1_6  and  C6_8 
REMARK    3  A    between atoms: C6_8  and  N2_10 
REMARK    4  A    between atoms: N2_10  and  N3_12 
ROOT
HETATM    1  N1  UNL     1       0.151   1.182  -0.916  1.00  0.00    -0.361 N 
ATOM      2  H1  UNL     1      -0.294   1.313  -1.824  1.00  0.00     0.162 HD
ENDROOT
BRANCH   1   3
HETATM    3  C5  UNL     1      -0.705   1.014   0.243  1.00  0.00     0.086 C 
HETATM    4  C4  UNL     1      -2.145   1.130  -0.192  1.00  0.00     0.035 C 
HETATM    5  C2  UNL     1      -2.718  -0.263  -0.099  1.00  0.00    -0.029 C 
HETATM    6  C1  UNL     1      -4.188  -0.141   0.232  1.00  0.00     0.016 C 
HETATM    7  C3  UNL     1      -2.583  -1.054  -1.360  1.00  0.00     0.016 C 
HETATM    8  C9  UNL     1      -1.927  -0.905   0.986  1.00  0.00     0.092 C 
HETATM    9  C8  UNL     1      -0.544  -0.312   0.899  1.00  0.00     0.046 C 
HETATM   10 CL1  UNL     1      -2.660  -0.657   2.593  1.00  0.00    -0.124 Cl
ENDBRANCH   1   3
BRANCH   1  11
HETATM   11  C6  UNL     1       1.562   1.175  -0.865  1.00  0.00     0.186 C 
HETATM   12  S1  UNL     1       2.401   1.371  -2.250  1.00  0.00    -0.040 SA
BRANCH  11  13
HETATM   13  N2  UNL     1       2.318   1.008   0.318  1.00  0.00    -0.274 N 
ATOM     14  H2  UNL     1       1.813   0.884   1.196  1.00  0.00     0.189 HD
BRANCH  13  15
HETATM   15  N3  UNL     1       3.700   1.002   0.358  1.00  0.00    -0.274 N 
HETATM   16  C7  UNL     1       4.435  -0.054   0.221  1.00  0.00     0.215 C 
HETATM   17  N4  UNL     1       5.838   0.128   0.290  1.00  0.00    -0.065 NA
HETATM   18  N5  UNL     1       3.913  -1.356   0.012  1.00  0.00    -0.065 NA
ATOM     19  H3  UNL     1       4.174   1.893   0.506  1.00  0.00     0.189 HD
ENDBRANCH  13  15
ENDBRANCH  11  13
ENDBRANCH   1  11
TORSDOF 4
