REMARK  4 active torsions:
REMARK  status: ('A' for Active; 'I' for Inactive)
REMARK       I    between atoms: C1_4  and  N2_5 
REMARK       I    between atoms: C1_4  and  N5_21 
REMARK       I    between atoms: C2_7  and  N4_9 
REMARK    1  A    between atoms: N4_9  and  C3_11 
REMARK    2  A    between atoms: C16_25  and  C17_26 
REMARK    3  A    between atoms: C17_26  and  C18_27 
REMARK    4  A    between atoms: C18_27  and  N6_28 
REMARK       I    between atoms: N6_28  and  C19_30 
ROOT
HETATM    1  N1  UNL     1       1.274  -2.274  -0.048  1.00  0.00    -0.234 N 
ATOM      2  H11 UNL     1       1.793  -2.680   0.731  1.00  0.00     0.174 HD
ATOM      3  H12 UNL     1       0.652  -2.799  -0.663  1.00  0.00     0.174 HD
HETATM    4  C1  UNL     1       1.427  -1.007  -0.254  1.00  0.00     0.676 C 
HETATM    5  N2  UNL     1       0.703  -0.440  -1.341  1.00  0.00    -0.164 N 
ATOM      6  H2  UNL     1       1.200  -0.238  -2.209  1.00  0.00     0.187 HD
HETATM    7  C2  UNL     1      -0.572  -0.169  -1.270  1.00  0.00     0.203 C 
HETATM    8  N3  UNL     1      -1.107   0.393  -2.462  1.00  0.00    -0.063 NA
HETATM    9  N4  UNL     1      -1.325  -0.424  -0.093  1.00  0.00    -0.355 N 
ATOM     10  H4  UNL     1      -0.804  -0.616   0.762  1.00  0.00     0.163 HD
HETATM   11  N5  UNL     1       2.277  -0.289   0.586  1.00  0.00    -0.213 N 
HETATM   12  C13 UNL     1       2.085  -0.049   1.998  1.00  0.00     0.141 C 
HETATM   13  C14 UNL     1       2.746   1.287   2.291  1.00  0.00     0.022 C 
HETATM   14  C15 UNL     1       3.220   1.744   0.904  1.00  0.00     0.028 C 
HETATM   15  C16 UNL     1       3.563   0.403   0.282  1.00  0.00     0.107 C 
ENDROOT
BRANCH  15  16
HETATM   16  C17 UNL     1       3.809   0.432  -1.159  1.00  0.00     0.070 C 
BRANCH  16  17
HETATM   17  C18 UNL     1       5.036   1.100  -1.627  1.00  0.00     0.067 C 
BRANCH  17  18
HETATM   18  N6  UNL     1       6.309   0.649  -1.271  1.00  0.00    -0.325 N 
HETATM   19  C19 UNL     1       7.066   0.583  -0.109  1.00  0.00     0.332 C 
HETATM   20  N7  UNL     1       8.389   0.003  -0.129  1.00  0.00    -0.040 NA
HETATM   21  O1  UNL     1       6.677   1.001   0.993  1.00  0.00    -0.251 OA
ATOM     22  H6  UNL     1       6.813   0.270  -2.072  1.00  0.00     0.169 HD
ENDBRANCH  17  18
ENDBRANCH  16  17
ENDBRANCH  15  16
BRANCH   9  23
HETATM   23  C3  UNL     1      -2.745  -0.434  -0.006  1.00  0.00     0.033 C 
HETATM   24  C4  UNL     1      -3.377  -1.458  -0.945  1.00  0.00     0.035 C 
HETATM   25  C5  UNL     1      -4.864  -1.455  -0.746  1.00  0.00    -0.012 C 
HETATM   26  C6  UNL     1      -5.499  -0.109  -0.980  1.00  0.00     0.009 C 
HETATM   27  C10 UNL     1      -5.257  -1.895   0.654  1.00  0.00     0.009 C 
HETATM   28  C7  UNL     1      -4.865   0.857   0.024  1.00  0.00    -0.012 C 
HETATM   29  C8  UNL     1      -5.159   0.451   1.427  1.00  0.00     0.009 C 
HETATM   30  C12 UNL     1      -3.393   0.898  -0.309  1.00  0.00     0.035 C 
HETATM   31  C9  UNL     1      -4.606  -0.950   1.619  1.00  0.00    -0.012 C 
HETATM   32  C11 UNL     1      -3.131  -0.884   1.405  1.00  0.00     0.035 C 
ENDBRANCH   9  23
TORSDOF 4
