REMARK  6 active torsions:
REMARK  status: ('A' for Active; 'I' for Inactive)
REMARK       I    between atoms: N1_2  and  C2_4 
REMARK       I    between atoms: C2_4  and  N5_17 
REMARK       I    between atoms: N2_5  and  C3_7 
REMARK       I    between atoms: C3_7  and  N4_11 
REMARK    1  A    between atoms: N4_11  and  C4_13 
REMARK       I    between atoms: N5_17  and  C8_19 
REMARK    2  A    between atoms: C8_19  and  C9_21 
REMARK    3  A    between atoms: C9_21  and  N6_23 
REMARK       I    between atoms: N6_23  and  C11_25 
REMARK    4  A    between atoms: C11_25  and  C12_27 
REMARK    5  A    between atoms: C12_27  and  C13_28 
REMARK    6  A    between atoms: C13_28  and  N7_29 
ROOT
HETATM    1  C1  UNL     1      -1.691  -2.350   2.839  1.00  0.00     0.165 C 
HETATM    2  N1  UNL     1      -2.191  -2.156   1.474  1.00  0.00    -0.230 N 
ATOM      3  H1  UNL     1      -2.222  -2.941   0.824  1.00  0.00     0.177 HD
HETATM    4  C2  UNL     1      -2.628  -0.880   1.064  1.00  0.00     0.695 C 
HETATM    5  N2  UNL     1      -3.765  -0.438   1.540  1.00  0.00    -0.023 N 
ATOM      6  H2  UNL     1      -4.316  -1.002   2.187  1.00  0.00     0.203 HD
HETATM    7  C3  UNL     1      -4.209   0.843   1.132  1.00  0.00     0.686 C 
HETATM    8  N3  UNL     1      -3.926   1.921   1.796  1.00  0.00    -0.234 N 
ATOM      9  H31 UNL     1      -4.246   2.844   1.502  1.00  0.00     0.174 HD
ATOM     10  H32 UNL     1      -3.363   1.811   2.639  1.00  0.00     0.174 HD
HETATM   11  N4  UNL     1      -5.005   0.998  -0.059  1.00  0.00    -0.218 N 
ATOM     12  H4  UNL     1      -4.578   1.101  -0.980  1.00  0.00     0.178 HD
HETATM   13  N5  UNL     1      -1.860  -0.095   0.161  1.00  0.00    -0.158 N 
ATOM     14  H5  UNL     1      -2.183   0.828  -0.130  1.00  0.00     0.187 HD
HETATM   15  C8  UNL     1      -0.636  -0.619  -0.327  1.00  0.00     0.258 C 
HETATM   16  O1  UNL     1      -0.228  -1.751   0.024  1.00  0.00    -0.270 OA
ENDROOT
BRANCH  15  17
HETATM   17  C9  UNL     1       0.163   0.181  -1.257  1.00  0.00     0.173 C 
HETATM   18  C10 UNL     1      -0.619   0.558  -2.505  1.00  0.00     0.042 C 
BRANCH  17  19
HETATM   19  N6  UNL     1       1.380  -0.474  -1.670  1.00  0.00    -0.348 N 
HETATM   20  C11 UNL     1       2.683   0.109  -1.487  1.00  0.00     0.219 C 
HETATM   21  O2  UNL     1       2.702   1.228  -0.946  1.00  0.00    -0.274 OA
ATOM     22  H6  UNL     1       1.314  -1.391  -2.111  1.00  0.00     0.163 HD
BRANCH  20  23
HETATM   23  C12 UNL     1       3.905  -0.567  -1.910  1.00  0.00     0.130 C 
BRANCH  23  24
HETATM   24  C13 UNL     1       5.200  -0.026  -1.477  1.00  0.00     0.246 C 
BRANCH  24  25
HETATM   25  N7  UNL     1       5.535  -0.014  -0.098  1.00  0.00    -0.070 N 
HETATM   26  C14 UNL     1       5.464   1.328   0.422  1.00  0.00     0.272 C 
HETATM   27  C15 UNL     1       6.928  -0.462   0.103  1.00  0.00     0.237 C 
HETATM   28  C16 UNL     1       6.999  -0.612   1.600  1.00  0.00     0.029 C 
HETATM   29  C17 UNL     1       5.579  -0.811   2.074  1.00  0.00     0.029 C 
HETATM   30  C18 UNL     1       4.836  -0.907   0.755  1.00  0.00     0.237 C 
ENDBRANCH  24  25
ENDBRANCH  23  24
ENDBRANCH  20  23
ENDBRANCH  17  19
ENDBRANCH  15  17
BRANCH  11  31
HETATM   31  C4  UNL     1      -6.439   1.000   0.119  1.00  0.00     0.036 C 
HETATM   32  C5  UNL     1      -7.063   1.176  -1.270  1.00  0.00     0.038 C 
HETATM   33  C6  UNL     1      -6.935  -0.332   0.637  1.00  0.00     0.038 C 
HETATM   34  C7  UNL     1      -6.911   2.151   0.970  1.00  0.00     0.038 C 
ENDBRANCH  11  31
TORSDOF 6
