REMARK  6 active torsions:
REMARK  status: ('A' for Active; 'I' for Inactive)
REMARK       I    between atoms: N1_2  and  C2_4 
REMARK    1  A    between atoms: C2_4  and  C3_6 
REMARK    2  A    between atoms: C6_9  and  C7_10 
REMARK    3  A    between atoms: C7_10  and  N2_11 
REMARK    4  A    between atoms: N2_11  and  C8_13 
REMARK    5  A    between atoms: C8_13  and  N3_15 
REMARK       I    between atoms: N3_15  and  C9_17 
REMARK       I    between atoms: C9_17  and  N4_19 
REMARK    6  A    between atoms: N4_19  and  C10_21 
ROOT
HETATM    1  N2  UNL     1       0.101  -1.512   0.907  1.00  0.00    -0.367 N 
ATOM      2  H2  UNL     1      -0.735  -1.969   1.272  1.00  0.00     0.161 HD
ENDROOT
BRANCH   1   3
HETATM    3  C7  UNL     1      -0.147  -0.598  -0.156  1.00  0.00     0.126 C 
BRANCH   3   4
HETATM    4  C6  UNL     1      -1.674  -0.601  -0.418  1.00  0.00     0.003 C 
HETATM    5  C5  UNL     1      -2.426  -0.177   0.805  1.00  0.00     0.007 C 
HETATM    6  C4  UNL     1      -3.241   1.086   0.563  1.00  0.00     0.014 C 
HETATM    7  C3  UNL     1      -4.165   0.943  -0.603  1.00  0.00     0.078 C 
HETATM    8  C15 UNL     1      -3.511   0.249  -1.753  1.00  0.00     0.014 C 
HETATM    9  C14 UNL     1      -2.010   0.328  -1.565  1.00  0.00     0.007 C 
BRANCH   7  10
HETATM   10  C2  UNL     1      -5.389   0.248  -0.139  1.00  0.00     0.221 C 
HETATM   11  N1  UNL     1      -6.154   0.848   0.880  1.00  0.00    -0.365 N 
HETATM   12  C1  UNL     1      -7.348   0.190   1.347  1.00  0.00     0.149 C 
ATOM     13  H1  UNL     1      -5.866   1.739   1.283  1.00  0.00     0.161 HD
HETATM   14  O1  UNL     1      -5.736  -0.848  -0.641  1.00  0.00    -0.273 OA
ENDBRANCH   7  10
ENDBRANCH   3   4
ENDBRANCH   1   3
BRANCH   1  15
HETATM   15  C8  UNL     1       1.270  -1.887   1.528  1.00  0.00     0.175 C 
HETATM   16  S1  UNL     1       1.040  -3.052   2.787  1.00  0.00    -0.041 SA
BRANCH  15  17
HETATM   17  N3  UNL     1       2.584  -1.535   1.364  1.00  0.00    -0.286 N 
HETATM   18  C9  UNL     1       3.276  -0.673   0.523  1.00  0.00     0.323 C 
HETATM   19  O2  UNL     1       2.797   0.033  -0.345  1.00  0.00    -0.247 OA
HETATM   20  N4  UNL     1       4.734  -0.595   0.689  1.00  0.00    -0.335 N 
ATOM     21  H4  UNL     1       5.190  -1.164   1.402  1.00  0.00     0.165 HD
ATOM     22  H3  UNL     1       3.201  -2.022   2.014  1.00  0.00     0.173 HD
BRANCH  20  23
HETATM   23  C10 UNL     1       5.530   0.275  -0.142  1.00  0.00     0.023 C 
HETATM   24  C11 UNL     1       5.353  -0.124  -1.594  1.00  0.00     0.037 C 
HETATM   25  C12 UNL     1       6.976   0.165   0.285  1.00  0.00     0.037 C 
HETATM   26  C13 UNL     1       5.021   1.693   0.042  1.00  0.00     0.037 C 
ENDBRANCH  20  23
ENDBRANCH  15  17
ENDBRANCH   1  15
TORSDOF 6
