REMARK  3 active torsions:
REMARK  status: ('A' for Active; 'I' for Inactive)
REMARK    1  A    between atoms: C2_2  and  N1_4 
REMARK    2  A    between atoms: C6_7  and  N2_8 
REMARK       I    between atoms: N2_8  and  C7_10 
REMARK       I    between atoms: C7_10  and  N3_12 
REMARK    3  A    between atoms: N3_12  and  C8_14 
ROOT
HETATM    1  N2  UNL     1       0.851   0.452  -0.517  1.00  0.00    -0.338 N 
ATOM      2  H2  UNL     1       0.751   0.697  -1.502  1.00  0.00     0.164 HD
HETATM    3  C7  UNL     1      -0.302   0.259   0.256  1.00  0.00     0.316 C 
HETATM    4  O1  UNL     1      -0.185  -0.042   1.467  1.00  0.00    -0.247 OA
HETATM    5  N3  UNL     1      -1.609   0.390  -0.273  1.00  0.00    -0.336 N 
ATOM      6  H3  UNL     1      -1.701   0.636  -1.259  1.00  0.00     0.164 HD
ENDROOT
BRANCH   5   7
HETATM    7  C8  UNL     1      -2.823   0.198   0.492  1.00  0.00     0.122 C 
HETATM    8  C9  UNL     1      -3.550   1.506   0.662  1.00  0.00     0.032 C 
HETATM    9  C10 UNL     1      -5.040   1.237   0.520  1.00  0.00    -0.010 C 
HETATM   10  C11 UNL     1      -5.565   0.291   1.532  1.00  0.00     0.037 C 
HETATM   11  C15 UNL     1      -5.228   0.791  -0.915  1.00  0.00     0.012 C 
HETATM   12  C12 UNL     1      -5.563  -1.150   1.188  1.00  0.00     0.187 C 
HETATM   13  C13 UNL     1      -5.917  -1.424  -0.281  1.00  0.00     0.040 C 
HETATM   14  N4  UNL     1      -4.178  -1.648   1.164  1.00  0.00    -0.060 N 
HETATM   15  C14 UNL     1      -4.744  -0.666  -0.930  1.00  0.00     0.026 C 
HETATM   16  C16 UNL     1      -3.641  -0.938   0.019  1.00  0.00     0.146 C 
HETATM   17  C17 UNL     1      -2.690  -1.920  -0.684  1.00  0.00     0.049 C 
ATOM     18  H42 UNL     1      -3.657  -1.532   2.033  1.00  0.00     0.278 HD
ATOM     19  H41 UNL     1      -4.079  -2.663   1.134  1.00  0.00     0.278 HD
ENDBRANCH   5   7
BRANCH   1  20
HETATM   20  C6  UNL     1       2.169   0.315   0.037  1.00  0.00     0.089 C 
HETATM   21  C5  UNL     1       3.017   1.534  -0.171  1.00  0.00     0.055 C 
HETATM   22  C4  UNL     1       4.349   1.160  -0.833  1.00  0.00     0.275 C 
HETATM   23  N1  UNL     1       4.965   0.162  -0.008  1.00  0.00     0.092 N 
HETATM   24  C19 UNL     1       4.244  -1.070  -0.151  1.00  0.00     0.275 C 
HETATM   25  C18 UNL     1       2.838  -0.868  -0.642  1.00  0.00     0.055 C 
BRANCH  23  26
HETATM   26  C2  UNL     1       6.357  -0.064  -0.343  1.00  0.00     0.215 C 
HETATM   27  C1  UNL     1       7.209   1.149  -0.137  1.00  0.00     0.042 C 
HETATM   28  C3  UNL     1       6.851  -1.162   0.606  1.00  0.00     0.042 C 
ENDBRANCH  23  26
ENDBRANCH   1  20
TORSDOF 3
