REMARK  6 active torsions:
REMARK  status: ('A' for Active; 'I' for Inactive)
REMARK       I    between atoms: N1_2  and  C2_4 
REMARK       I    between atoms: C2_4  and  N3_8 
REMARK    1  A    between atoms: N3_8  and  C3_10 
REMARK    2  A    between atoms: C3_10  and  C17_29 
REMARK    3  A    between atoms: C6_13  and  C7_14 
REMARK    4  A    between atoms: C7_14  and  C8_15 
REMARK    5  A    between atoms: C8_15  and  N4_16 
REMARK    6  A    between atoms: N5_20  and  C11_23 
ROOT
HETATM    1  C3  UNL     1      -1.180  -0.148  -0.466  1.00  0.00     0.053 C 
HETATM    2  C4  UNL     1      -0.790  -0.957   0.716  1.00  0.00     0.038 C 
HETATM    3  C5  UNL     1       0.163  -2.066   0.503  1.00  0.00     0.059 C 
HETATM    4  C6  UNL     1       1.572  -1.700  -0.038  1.00  0.00     0.009 C 
HETATM    5  N5  UNL     1       1.457  -0.494  -0.612  1.00  0.00    -0.357 N 
HETATM    6  C9  UNL     1       0.847  -0.678  -1.943  1.00  0.00     0.131 C 
HETATM    7  C10 UNL     1      -0.583  -0.744  -1.746  1.00  0.00     0.052 C 
ENDROOT
BRANCH   1   8
HETATM    8  N3  UNL     1      -2.597  -0.513  -0.687  1.00  0.00    -0.217 N 
HETATM    9  C2  UNL     1      -3.591  -0.409   0.292  1.00  0.00     0.667 C 
HETATM   10  N1  UNL     1      -4.789  -1.156   0.141  1.00  0.00    -0.231 N 
HETATM   11  N2  UNL     1      -3.465   0.334   1.325  1.00  0.00    -0.235 N 
HETATM   12  C1  UNL     1      -4.772  -2.551   0.506  1.00  0.00     0.165 C 
ATOM     13  H1  UNL     1      -5.638  -0.718  -0.216  1.00  0.00     0.177 HD
ATOM     14  H22 UNL     1      -4.190   0.410   2.039  1.00  0.00     0.174 HD
ATOM     15  H21 UNL     1      -2.604   0.871   1.433  1.00  0.00     0.174 HD
ATOM     16  H3  UNL     1      -2.865  -0.861  -1.608  1.00  0.00     0.178 HD
ENDBRANCH   1   8
BRANCH   1  17
HETATM   17  C17 UNL     1      -1.023   1.326  -0.398  1.00  0.00     0.019 C 
HETATM   18  C16 UNL     1      -0.182   1.862  -1.572  1.00  0.00     0.018 C 
HETATM   19  C15 UNL     1       1.245   1.822  -1.320  1.00  0.00     0.032 C 
HETATM   20  C11 UNL     1       1.851   0.775  -0.369  1.00  0.00    -0.006 C 
HETATM   21  C14 UNL     1       1.479   3.079  -0.433  1.00  0.00     0.015 C 
HETATM   22  C12 UNL     1       1.879   1.377   0.981  1.00  0.00     0.058 C 
HETATM   23  C13 UNL     1       0.881   2.519   0.824  1.00  0.00    -0.004 C 
HETATM   24  C18 UNL     1      -0.545   2.063   0.767  1.00  0.00    -0.008 C 
HETATM   25  C19 UNL     1      -1.319   3.402   0.922  1.00  0.00     0.011 C 
ENDBRANCH   1  17
BRANCH   4  26
HETATM   26  C7  UNL     1       2.594  -2.309   0.801  1.00  0.00     0.025 C 
BRANCH  26  27
HETATM   27  C8  UNL     1       4.041  -2.219   0.523  1.00  0.00     0.259 C 
BRANCH  27  28
HETATM   28  N4  UNL     1       4.686  -0.950   0.541  1.00  0.00    -0.076 N 
ATOM     29  H43 UNL     1       4.194  -0.327  -0.099  1.00  0.00     0.274 HD
ATOM     30  H42 UNL     1       4.500  -0.505   1.440  1.00  0.00     0.274 HD
ATOM     31  H41 UNL     1       5.686  -0.888   0.349  1.00  0.00     0.274 HD
ENDBRANCH  27  28
ENDBRANCH  26  27
ENDBRANCH   4  26
TORSDOF 6
