REMARK  5 active torsions:
REMARK  status: ('A' for Active; 'I' for Inactive)
REMARK    1  A    between atoms: C2_2  and  N1_3 
REMARK    2  A    between atoms: C5_6  and  N2_7 
REMARK       I    between atoms: N2_7  and  C6_9 
REMARK       I    between atoms: C6_9  and  N3_11 
REMARK    3  A    between atoms: N3_11  and  C7_13 
REMARK    4  A    between atoms: C7_13  and  N4_15 
REMARK    5  A    between atoms: N4_15  and  C8_17 
ROOT
HETATM    1  N2  UNL     1       1.514  -0.833  -1.235  1.00  0.00    -0.338 N 
ATOM      2  H2  UNL     1       1.643  -1.060  -2.221  1.00  0.00     0.164 HD
HETATM    3  C6  UNL     1       0.204  -0.646  -0.713  1.00  0.00     0.322 C 
HETATM    4  O1  UNL     1       0.129  -0.368   0.509  1.00  0.00    -0.247 OA
HETATM    5  N3  UNL     1      -0.863  -0.789  -1.601  1.00  0.00    -0.286 N 
ATOM      6  H3  UNL     1      -0.631  -1.016  -2.568  1.00  0.00     0.173 HD
ENDROOT
BRANCH   5   7
HETATM    7  C7  UNL     1      -2.211  -0.652  -1.295  1.00  0.00     0.175 C 
HETATM    8  S1  UNL     1      -3.358  -0.863  -2.507  1.00  0.00    -0.041 SA
BRANCH   7   9
HETATM    9  N4  UNL     1      -2.685  -0.372   0.003  1.00  0.00    -0.362 N 
ATOM     10  H4  UNL     1      -2.014  -0.276   0.765  1.00  0.00     0.162 HD
BRANCH   9  11
HETATM   11  C8  UNL     1      -4.134  -0.213   0.293  1.00  0.00     0.083 C 
HETATM   12  C9  UNL     1      -4.553   1.092  -0.248  1.00  0.00     0.025 C 
HETATM   13  C10 UNL     1      -5.952   1.379   0.264  1.00  0.00     0.006 C 
HETATM   14  C11 UNL     1      -5.831   1.600   1.731  1.00  0.00    -0.019 C 
HETATM   15  C12 UNL     1      -5.044   2.887   1.940  1.00  0.00     0.010 C 
HETATM   16  C13 UNL     1      -5.208   0.470   2.479  1.00  0.00     0.006 C 
HETATM   17  C14 UNL     1      -4.427  -0.494   1.704  1.00  0.00     0.025 C 
ENDBRANCH   9  11
ENDBRANCH   7   9
ENDBRANCH   5   7
BRANCH   1  18
HETATM   18  C5  UNL     1       2.650  -0.702  -0.377  1.00  0.00     0.089 C 
HETATM   19  C4  UNL     1       3.432  -2.015  -0.332  1.00  0.00     0.055 C 
HETATM   20  C3  UNL     1       4.457  -1.961  -1.421  1.00  0.00     0.274 C 
HETATM   21  N1  UNL     1       5.573  -1.095  -1.002  1.00  0.00     0.088 N 
HETATM   22  C16 UNL     1       5.031   0.080  -0.358  1.00  0.00     0.274 C 
HETATM   23  C15 UNL     1       3.613   0.375  -0.835  1.00  0.00     0.055 C 
BRANCH  21  24
HETATM   24  C2  UNL     1       6.333  -0.814  -2.187  1.00  0.00     0.268 C 
HETATM   25  C1  UNL     1       7.537   0.041  -1.956  1.00  0.00     0.037 C 
ENDBRANCH  21  24
ENDBRANCH   1  18
TORSDOF 5
