REMARK  2 active torsions:
REMARK  status: ('A' for Active; 'I' for Inactive)
REMARK    1  A    between atoms: C6_6  and  N1_7 
REMARK       I    between atoms: N1_7  and  C7_9 
REMARK       I    between atoms: C7_9  and  N2_11 
REMARK    2  A    between atoms: N2_11  and  C8_13 
ROOT
HETATM    1  N1  UNL     1      -0.099   0.414   0.605  1.00  0.00    -0.330 N 
ATOM      2  H1  UNL     1      -0.266   1.361   0.944  1.00  0.00     0.165 HD
HETATM    3  C7  UNL     1       1.205   0.031   0.242  1.00  0.00     0.317 C 
HETATM    4  O1  UNL     1       1.472  -1.121  -0.181  1.00  0.00    -0.247 OA
HETATM    5  N2  UNL     1       2.284   0.954   0.345  1.00  0.00    -0.338 N 
ATOM      6  H2  UNL     1       2.112   1.900   0.685  1.00  0.00     0.164 HD
ENDROOT
BRANCH   1   7
HETATM    7  C6  UNL     1      -1.197  -0.502   0.507  1.00  0.00     0.061 C 
HETATM    8  C5  UNL     1      -1.322  -0.935  -0.999  1.00  0.00     0.042 C 
HETATM    9  C4  UNL     1      -2.739  -1.481  -1.060  1.00  0.00     0.004 C 
HETATM   10  C2  UNL     1      -3.586  -0.184  -1.222  1.00  0.00    -0.039 C 
HETATM   11  C15 UNL     1      -3.045  -2.198   0.212  1.00  0.00     0.013 C 
HETATM   12  C1  UNL     1      -5.039  -0.404  -1.158  1.00  0.00     0.015 C 
HETATM   13  C3  UNL     1      -3.330   0.153  -2.715  1.00  0.00     0.015 C 
HETATM   14  C19 UNL     1      -2.950   0.817  -0.369  1.00  0.00     0.006 A 
HETATM   15  C17 UNL     1      -2.487   0.012   0.904  1.00  0.00    -0.006 A 
HETATM   16  C18 UNL     1      -3.100   1.300   0.954  1.00  0.00     0.019 A 
HETATM   17  C16 UNL     1      -3.430  -1.104   1.208  1.00  0.00     0.021 C 
HETATM   18  C14 UNL     1      -1.839  -2.750   0.902  1.00  0.00    -0.023 C 
HETATM   19  C13 UNL     1      -0.867  -1.846   1.064  1.00  0.00     0.001 C 
ENDBRANCH   1   7
BRANCH   5  20
HETATM   20  C8  UNL     1       3.607   0.561  -0.025  1.00  0.00     0.094 C 
HETATM   21  C9  UNL     1       4.047   1.444  -1.184  1.00  0.00     0.045 C 
HETATM   22  C10 UNL     1       5.367   0.934  -1.718  1.00  0.00     0.123 C 
HETATM   23  N3  UNL     1       6.344   1.127  -0.662  1.00  0.00    -0.380 N 
HETATM   24  C11 UNL     1       5.905   1.207   0.694  1.00  0.00     0.072 C 
ATOM     25  H3  UNL     1       7.336   1.205  -0.887  1.00  0.00     0.160 HD
HETATM   26  N4  UNL     1       6.692   1.760   1.554  1.00  0.00    -0.389 N 
HETATM   27  C12 UNL     1       4.590   0.676   1.122  1.00  0.00     0.101 C 
ATOM     28  H42 UNL     1       7.597   2.126   1.259  1.00  0.00     0.157 HD
ATOM     29  H41 UNL     1       6.378   1.817   2.523  1.00  0.00     0.157 HD
ENDBRANCH   5  20
TORSDOF 2
