REMARK  7 active torsions:
REMARK  status: ('A' for Active; 'I' for Inactive)
REMARK    1  A    between atoms: C2_2  and  C3_3 
REMARK    2  A    between atoms: C3_3  and  C4_4 
REMARK    3  A    between atoms: C5_9  and  N3_10 
REMARK    4  A    between atoms: N3_10  and  C6_12 
REMARK    5  A    between atoms: C8_17  and  N5_18 
REMARK       I    between atoms: N5_18  and  C9_20 
REMARK       I    between atoms: C9_20  and  N6_22 
REMARK    6  A    between atoms: N6_22  and  C10_24 
REMARK    7  A    between atoms: C14_28  and  C15_29 
ROOT
HETATM    1  C4  UNL     1      -2.813   0.326   0.364  1.00  0.00     0.034 A 
HETATM    2  N1  UNL     1      -2.698  -0.978   0.759  1.00  0.00    -0.303 N 
ATOM      3  H1  UNL     1      -3.535  -1.467   1.078  1.00  0.00     0.186 HD
HETATM    4  N2  UNL     1      -1.562  -1.625   0.746  1.00  0.00    -0.283 N 
ATOM      5  H2  UNL     1      -1.547  -2.597   1.054  1.00  0.00     0.188 HD
HETATM    6  C5  UNL     1      -0.401  -1.050   0.337  1.00  0.00     0.149 A 
HETATM    7  C8  UNL     1      -0.426   0.249  -0.072  1.00  0.00     0.090 A 
HETATM    8  C14 UNL     1      -1.650   0.930  -0.053  1.00  0.00    -0.004 A 
ENDROOT
BRANCH   7   9
HETATM    9  N5  UNL     1       0.627   0.850  -0.467  1.00  0.00    -0.305 N 
HETATM   10  C9  UNL     1       1.930   0.410  -0.579  1.00  0.00     0.321 C 
HETATM   11  O1  UNL     1       2.318  -0.159  -1.654  1.00  0.00    -0.247 OA
HETATM   12  N6  UNL     1       2.931   0.535   0.429  1.00  0.00    -0.335 N 
ATOM     13  H6  UNL     1       2.661   0.981   1.306  1.00  0.00     0.165 HD
ATOM     14  H5  UNL     1       0.482   1.820  -0.748  1.00  0.00     0.171 HD
BRANCH  12  15
HETATM   15  C10 UNL     1       4.277   0.087   0.310  1.00  0.00     0.023 C 
HETATM   16  C11 UNL     1       5.043   0.397   1.597  1.00  0.00     0.037 C 
HETATM   17  C12 UNL     1       4.446  -1.383   0.052  1.00  0.00     0.037 C 
HETATM   18  C13 UNL     1       4.922   0.915  -0.807  1.00  0.00     0.037 C 
ENDBRANCH  12  15
ENDBRANCH   7   9
BRANCH   6  19
HETATM   19  N3  UNL     1       0.704  -1.726   0.339  1.00  0.00    -0.330 N 
ATOM     20  H3  UNL     1       1.558  -1.265   0.026  1.00  0.00     0.168 HD
BRANCH  19  21
HETATM   21  C6  UNL     1       0.779  -3.076   0.756  1.00  0.00     0.072 C 
HETATM   22  C7  UNL     1       0.570  -4.215  -0.191  1.00  0.00     0.088 C 
HETATM   23  N4  UNL     1       1.033  -3.370   1.984  1.00  0.00    -0.389 N 
ATOM     24  H42 UNL     1       1.176  -2.593   2.630  1.00  0.00     0.157 HD
ATOM     25  H41 UNL     1       1.087  -4.343   2.285  1.00  0.00     0.157 HD
ENDBRANCH  19  21
ENDBRANCH   6  19
BRANCH   8  26
HETATM   26  C15 UNL     1      -1.665   2.341  -0.463  1.00  0.00     0.039 C 
HETATM   27  C16 UNL     1      -1.753   3.234   0.760  1.00  0.00     0.010 C 
ENDBRANCH   8  26
BRANCH   1  28
HETATM   28  C3  UNL     1      -4.148   0.975   0.381  1.00  0.00     0.059 C 
BRANCH  28  29
HETATM   29  C2  UNL     1      -4.868   0.985  -0.918  1.00  0.00     0.002 C 
HETATM   30  C1  UNL     1      -6.233   1.677  -0.806  1.00  0.00     0.005 C 
ENDBRANCH  28  29
ENDBRANCH   1  28
TORSDOF 7
