REMARK  2 active torsions:
REMARK  status: ('A' for Active; 'I' for Inactive)
REMARK    1  A    between atoms: C4_4  and  N1_5 
REMARK       I    between atoms: N1_5  and  C5_7 
REMARK       I    between atoms: C5_7  and  N2_9 
REMARK    2  A    between atoms: N2_9  and  C6_11 
ROOT
HETATM    1  N1  UNL     1       0.074   0.246  -0.433  1.00  0.00    -0.332 N 
ATOM      2  H1  UNL     1       0.430  -0.041  -1.345  1.00  0.00     0.165 HD
HETATM    3  C5  UNL     1       0.934   0.903   0.471  1.00  0.00     0.322 C 
HETATM    4  O1  UNL     1       0.510   1.259   1.591  1.00  0.00    -0.247 OA
HETATM    5  N2  UNL     1       2.289   1.175   0.142  1.00  0.00    -0.293 N 
ATOM      6  H2  UNL     1       2.531   2.075  -0.272  1.00  0.00     0.172 HD
ENDROOT
BRANCH   1   7
HETATM    7  C4  UNL     1      -1.281  -0.024  -0.097  1.00  0.00     0.059 C 
HETATM    8  C3  UNL     1      -2.080   1.225   0.207  1.00  0.00     0.044 C 
HETATM    9  C2  UNL     1      -3.492   0.699   0.086  1.00  0.00    -0.008 C 
HETATM   10  C1  UNL     1      -4.460   1.815   0.122  1.00  0.00     0.018 C 
HETATM   11  C13 UNL     1      -3.807  -0.425   1.034  1.00  0.00     0.212 C 
HETATM   12  C16 UNL     1      -3.439  -0.022  -1.236  1.00  0.00    -0.000 C 
HETATM   13  N5  UNL     1      -2.798  -1.434   1.061  1.00  0.00    -0.066 N 
HETATM   14  C14 UNL     1      -5.006  -1.062   0.310  1.00  0.00     0.114 C 
HETATM   15  C12 UNL     1      -1.450  -0.925   1.125  1.00  0.00     0.263 C 
ATOM     16  H52 UNL     1      -2.903  -2.064   0.266  1.00  0.00     0.277 HD
ATOM     17  H51 UNL     1      -2.968  -2.088   1.825  1.00  0.00     0.277 HD
HETATM   18 CL1  UNL     1      -6.495  -0.199   0.588  1.00  0.00    -0.123 Cl
HETATM   19  C15 UNL     1      -4.533  -1.056  -1.111  1.00  0.00     0.028 C 
HETATM   20  C17 UNL     1      -2.063  -0.609  -1.258  1.00  0.00     0.038 C 
ENDBRANCH   1   7
BRANCH   5  21
HETATM   21  C6  UNL     1       3.221   0.307   0.356  1.00  0.00     0.132 A 
HETATM   22  N3  UNL     1       3.093  -0.914   0.886  1.00  0.00    -0.285 N 
HETATM   23  N4  UNL     1       4.281  -1.487   0.936  1.00  0.00    -0.303 N 
ATOM     24  H3  UNL     1       2.219  -1.335   1.201  1.00  0.00     0.188 HD
HETATM   25  C7  UNL     1       5.200  -0.647   0.440  1.00  0.00     0.036 A 
ATOM     26  H4  UNL     1       4.470  -2.423   1.296  1.00  0.00     0.186 HD
HETATM   27  C8  UNL     1       4.548   0.526   0.054  1.00  0.00     0.011 A 
HETATM   28  C11 UNL     1       6.649  -0.540   0.165  1.00  0.00     0.059 C 
HETATM   29  C9  UNL     1       5.585   1.446  -0.494  1.00  0.00     0.045 C 
HETATM   30  C10 UNL     1       6.721   0.516  -0.896  1.00  0.00     0.011 C 
ENDBRANCH   5  21
TORSDOF 2
