REMARK  4 active torsions:
REMARK  status: ('A' for Active; 'I' for Inactive)
REMARK       I    between atoms: C1_2  and  N4_19 
REMARK       I    between atoms: N2_3  and  C2_5 
REMARK       I    between atoms: C2_5  and  N3_7 
REMARK    1  A    between atoms: N3_7  and  C3_9 
REMARK    2  A    between atoms: N4_19  and  C13_21 
REMARK    3  A    between atoms: C13_21  and  N5_23 
REMARK    4  A    between atoms: N5_23  and  C14_25 
ROOT
HETATM    1  N1  UNL     1       2.464  -1.489  -0.211  1.00  0.00    -0.063 NA
HETATM    2  C1  UNL     1       3.005  -0.211   0.182  1.00  0.00     0.198 C 
HETATM    3  N2  UNL     1       2.265   0.730   0.663  1.00  0.00    -0.283 N 
ATOM      4  H2  UNL     1       2.660   1.630   0.937  1.00  0.00     0.173 HD
HETATM    5  C2  UNL     1       0.875   0.460   0.795  1.00  0.00     0.323 C 
HETATM    6  O1  UNL     1       0.481   0.164   1.950  1.00  0.00    -0.247 OA
HETATM    7  N3  UNL     1      -0.031   0.515  -0.298  1.00  0.00    -0.334 N 
ATOM      8  H3  UNL     1       0.348   0.760  -1.213  1.00  0.00     0.165 HD
HETATM    9  N4  UNL     1       4.387   0.013   0.034  1.00  0.00    -0.307 N 
ATOM     10  H4  UNL     1       4.749   0.376  -0.848  1.00  0.00     0.171 HD
ENDROOT
BRANCH   7  11
HETATM   11  C3  UNL     1      -1.433   0.253  -0.212  1.00  0.00     0.035 C 
HETATM   12  C4  UNL     1      -1.759  -1.137   0.287  1.00  0.00     0.035 C 
HETATM   13  C5  UNL     1      -3.257  -1.314   0.266  1.00  0.00    -0.012 C 
HETATM   14  C6  UNL     1      -3.871  -0.331   1.216  1.00  0.00     0.009 C 
HETATM   15  C10 UNL     1      -3.822  -1.173  -1.126  1.00  0.00     0.009 C 
HETATM   16  C7  UNL     1      -3.602   1.070   0.666  1.00  0.00    -0.012 C 
HETATM   17  C8  UNL     1      -4.178   1.243  -0.701  1.00  0.00     0.009 C 
HETATM   18  C12 UNL     1      -2.100   1.268   0.683  1.00  0.00     0.035 C 
HETATM   19  C9  UNL     1      -3.518   0.215  -1.620  1.00  0.00    -0.012 C 
HETATM   20  C11 UNL     1      -2.044   0.438  -1.589  1.00  0.00     0.035 C 
ENDBRANCH   7  11
BRANCH   9  21
HETATM   21  C13 UNL     1       5.271  -0.260   1.092  1.00  0.00     0.174 C 
HETATM   22  S1  UNL     1       4.658  -0.853   2.511  1.00  0.00    -0.041 SA
BRANCH  21  23
HETATM   23  N5  UNL     1       6.655  -0.035   0.954  1.00  0.00    -0.354 N 
ATOM     24  H5  UNL     1       7.277  -0.249   1.733  1.00  0.00     0.163 HD
BRANCH  23  25
HETATM   25  C14 UNL     1       7.204   0.489  -0.263  1.00  0.00     0.237 C 
HETATM   26 CL1  UNL     1       6.678   2.147  -0.596  1.00  0.00    -0.109 Cl
ENDBRANCH  23  25
ENDBRANCH  21  23
ENDBRANCH   9  21
TORSDOF 4
