REMARK  2 active torsions:
REMARK  status: ('A' for Active; 'I' for Inactive)
REMARK    1  A    between atoms: C8_8  and  N1_9 
REMARK       I    between atoms: N1_9  and  C9_11 
REMARK       I    between atoms: C9_11  and  N2_13 
REMARK       I    between atoms: N2_13  and  C10_15 
REMARK       I    between atoms: C10_15  and  N3_16 
REMARK       I    between atoms: C10_15  and  N4_19 
REMARK    2  A    between atoms: C11_21  and  C12_22 
ROOT
HETATM    1  N1  UNL     1      -0.196   0.704   0.867  1.00  0.00    -0.337 N 
ATOM      2  H1  UNL     1       0.216   1.589   0.573  1.00  0.00     0.164 HD
HETATM    3  C9  UNL     1       0.594  -0.283   1.511  1.00  0.00     0.334 C 
HETATM    4  O1  UNL     1       0.122  -1.383   1.867  1.00  0.00    -0.246 OA
HETATM    5  N2  UNL     1       2.017  -0.074   1.784  1.00  0.00    -0.142 N 
ATOM      6  H2  UNL     1       2.468   0.816   1.573  1.00  0.00     0.189 HD
HETATM    7  C10 UNL     1       2.729  -1.121   2.336  1.00  0.00     0.679 C 
HETATM    8  N3  UNL     1       3.325  -1.996   2.798  1.00  0.00    -0.234 N 
ATOM      9  H31 UNL     1       3.851  -2.769   3.206  1.00  0.00     0.174 HD
ATOM     10  H32 UNL     1       2.467  -2.546   2.761  1.00  0.00     0.174 HD
HETATM   11  N4  UNL     1       4.225  -0.163   2.401  1.00  0.00    -0.205 N 
ATOM     12  H4  UNL     1       4.647   0.337   3.184  1.00  0.00     0.183 HD
HETATM   13  C11 UNL     1       4.621  -0.276   1.201  1.00  0.00     0.089 C 
ENDROOT
BRANCH   1  14
HETATM   14  C8  UNL     1      -1.585   0.432   0.638  1.00  0.00     0.096 C 
HETATM   15  C7  UNL     1      -2.402   1.186  -0.303  1.00  0.00     0.022 C 
HETATM   16  C2  UNL     1      -3.031  -0.116  -0.754  1.00  0.00    -0.015 C 
HETATM   17  C6  UNL     1      -1.616   1.785  -1.465  1.00  0.00     0.016 C 
HETATM   18  C1  UNL     1      -4.193  -0.562   0.074  1.00  0.00     0.020 C 
HETATM   19  C3  UNL     1      -3.305  -0.225  -2.185  1.00  0.00    -0.020 C 
HETATM   20  C13 UNL     1      -1.713  -0.783  -0.378  1.00  0.00     0.022 C 
HETATM   21  C4  UNL     1      -2.336   0.151  -3.051  1.00  0.00    -0.025 C 
HETATM   22  C5  UNL     1      -1.110   0.634  -2.314  1.00  0.00     0.009 C 
HETATM   23  C14 UNL     1      -0.698  -0.543  -1.424  1.00  0.00     0.016 C 
ENDBRANCH   1  14
BRANCH  13  24
HETATM   24  C12 UNL     1       5.916   0.425   0.838  1.00  0.00     0.130 C 
HETATM   25 BR1  UNL     1       6.508  -0.196  -0.848  1.00  0.00    -0.091 Br
ENDBRANCH  13  24
TORSDOF 2
