REMARK  2 active torsions:
REMARK  status: ('A' for Active; 'I' for Inactive)
REMARK       I    between atoms: N3_8  and  C4_10 
REMARK       I    between atoms: C4_10  and  N4_12 
REMARK    1  A    between atoms: N4_12  and  C5_14 
REMARK       I    between atoms: N5_17  and  C8_18 
REMARK       I    between atoms: C8_18  and  N6_20 
REMARK    2  A    between atoms: N6_20  and  C9_22 
ROOT
HETATM    1  C1  UNL     1      -8.210   0.079   1.183  1.00  0.00     0.071 C 
HETATM    2  C2  UNL     1      -6.792   0.202   0.752  1.00  0.00     0.047 A 
HETATM    3  N1  UNL     1      -5.752   0.639   1.480  1.00  0.00    -0.302 N 
ATOM      4  H1  UNL     1      -5.788   0.954   2.449  1.00  0.00     0.186 HD
HETATM    5  N2  UNL     1      -4.672   0.589   0.718  1.00  0.00    -0.284 N 
ATOM      6  H2  UNL     1      -3.736   0.864   1.017  1.00  0.00     0.188 HD
HETATM    7  C3  UNL     1      -4.977   0.129  -0.495  1.00  0.00     0.148 A 
HETATM    8  N3  UNL     1      -4.202  -0.068  -1.528  1.00  0.00    -0.292 N 
ATOM      9  H3  UNL     1      -4.582  -0.430  -2.403  1.00  0.00     0.172 HD
HETATM   10  C4  UNL     1      -2.817   0.232  -1.408  1.00  0.00     0.322 C 
HETATM   11  O1  UNL     1      -2.466   1.425  -1.565  1.00  0.00    -0.247 OA
HETATM   12  N4  UNL     1      -1.822  -0.735  -1.123  1.00  0.00    -0.338 N 
ATOM     13  H4  UNL     1      -2.082  -1.712  -0.991  1.00  0.00     0.164 HD
HETATM   14  C14 UNL     1      -6.334  -0.128  -0.501  1.00  0.00     0.103 A 
HETATM   15 CL1  UNL     1      -7.271  -0.755  -1.863  1.00  0.00    -0.078 Cl
ENDROOT
BRANCH  12  16
HETATM   16  C5  UNL     1      -0.452  -0.339  -1.021  1.00  0.00     0.089 C 
HETATM   17  C6  UNL     1       0.179  -0.714   0.295  1.00  0.00     0.045 C 
HETATM   18  C7  UNL     1       1.523  -0.032   0.377  1.00  0.00     0.129 C 
HETATM   19  N5  UNL     1       2.279  -0.049  -0.835  1.00  0.00    -0.334 N 
HETATM   20  C8  UNL     1       3.698   0.070  -0.795  1.00  0.00     0.318 C 
HETATM   21  C12 UNL     1       1.671  -0.177  -2.158  1.00  0.00     0.129 C 
HETATM   22  O2  UNL     1       4.358   0.048  -1.866  1.00  0.00    -0.247 OA
HETATM   23  N6  UNL     1       4.389   0.213   0.430  1.00  0.00    -0.339 N 
ATOM     24  H6  UNL     1       3.871   0.233   1.309  1.00  0.00     0.164 HD
HETATM   25  C13 UNL     1       0.418  -1.017  -2.087  1.00  0.00     0.045 C 
BRANCH  23  26
HETATM   26  C9  UNL     1       5.850   0.332   0.437  1.00  0.00     0.078 C 
HETATM   27  C10 UNL     1       6.448  -0.869   1.146  1.00  0.00     0.032 C 
HETATM   28  C11 UNL     1       6.213   1.618   1.121  1.00  0.00     0.032 C 
ENDBRANCH  23  26
ENDBRANCH  12  16
TORSDOF 2
