REMARK  4 active torsions:
REMARK  status: ('A' for Active; 'I' for Inactive)
REMARK    1  A    between atoms: C2_2  and  N1_4 
REMARK    2  A    between atoms: N1_4  and  C3_6 
REMARK    3  A    between atoms: C9_17  and  N5_18 
REMARK    4  A    between atoms: C11_22  and  C12_23 
ROOT
HETATM    1  C3  UNL     1       1.504  -0.512  -0.353  1.00  0.00     0.107 C 
HETATM    2  C4  UNL     1       0.936  -0.063  -1.668  1.00  0.00     0.148 C 
HETATM    3  N2  UNL     1      -0.364   0.442  -1.365  1.00  0.00    -0.380 N 
HETATM    4  C5  UNL     1      -1.431  -0.124  -2.077  1.00  0.00     0.064 C 
HETATM    5  C6  UNL     1      -2.442  -0.881  -1.269  1.00  0.00     0.089 C 
HETATM    6  C7  UNL     1      -2.726  -0.252   0.027  1.00  0.00     0.018 A 
HETATM    7  C8  UNL     1      -1.787   0.533   0.617  1.00  0.00     0.059 A 
HETATM    8  N3  UNL     1      -2.315   0.963   1.765  1.00  0.00    -0.300 N 
ATOM      9  H3  UNL     1      -1.845   1.575   2.433  1.00  0.00     0.186 HD
HETATM   10  N4  UNL     1      -3.548   0.474   1.910  1.00  0.00    -0.285 N 
ATOM     11  H4  UNL     1      -4.164   0.655   2.703  1.00  0.00     0.188 HD
HETATM   12  C9  UNL     1      -3.856  -0.300   0.841  1.00  0.00     0.122 A 
HETATM   13  C10 UNL     1      -0.482   0.767  -0.021  1.00  0.00     0.142 C 
HETATM   14  C11 UNL     1       0.662   0.149   0.708  1.00  0.00     0.049 C 
ENDROOT
BRANCH   1  15
HETATM   15  N1  UNL     1       2.907  -0.286  -0.207  1.00  0.00    -0.378 N 
ATOM     16  H1  UNL     1       3.490  -1.115  -0.093  1.00  0.00     0.160 HD
BRANCH  15  17
HETATM   17  C2  UNL     1       3.575   0.951  -0.203  1.00  0.00     0.069 C 
HETATM   18  C1  UNL     1       5.046   0.973  -0.041  1.00  0.00     0.081 C 
HETATM   19  S1  UNL     1       2.808   2.368  -0.362  1.00  0.00    -0.066 SA
ENDBRANCH  15  17
ENDBRANCH   1  15
BRANCH  14  20
HETATM   20  C12 UNL     1       0.240  -0.887   1.725  1.00  0.00     0.094 C 
HETATM   21 BR1  UNL     1       1.896  -1.609   2.478  1.00  0.00    -0.096 Br
ENDBRANCH  14  20
BRANCH  12  22
HETATM   22  N5  UNL     1      -4.948  -0.944   0.611  1.00  0.00    -0.384 N 
ATOM     23  H52 UNL     1      -5.180  -1.527  -0.194  1.00  0.00     0.157 HD
ATOM     24  H51 UNL     1      -5.775  -0.979   1.207  1.00  0.00     0.157 HD
ENDBRANCH  12  22
TORSDOF 4
