REMARK  3 active torsions:
REMARK  status: ('A' for Active; 'I' for Inactive)
REMARK    1  A    between atoms: C10_14  and  O1_15 
REMARK    2  A    between atoms: C14_23  and  C15_24 
REMARK    3  A    between atoms: C15_24  and  C16_25 
ROOT
HETATM    1  C1  UNL     1       3.813  -0.409   2.201  1.00  0.00     0.037 C 
HETATM    2  C2  UNL     1       2.668  -0.567   1.202  1.00  0.00     0.111 C 
HETATM    3  C3  UNL     1       1.326  -0.608   1.898  1.00  0.00     0.080 C 
HETATM    4  N1  UNL     1       0.620  -1.712   1.492  1.00  0.00    -0.395 N 
ATOM      5  H1  UNL     1       1.008  -2.611   1.779  1.00  0.00     0.159 HD
HETATM    6  C4  UNL     1      -0.549  -1.777   0.745  1.00  0.00     0.088 C 
HETATM    7  C5  UNL     1      -0.429  -2.994  -0.141  1.00  0.00     0.026 C 
HETATM    8  C6  UNL     1      -1.214  -2.921  -1.394  1.00  0.00     0.010 C 
HETATM    9  C7  UNL     1      -0.853  -1.710  -2.131  1.00  0.00     0.030 C 
HETATM   10  C8  UNL     1       0.568  -1.257  -2.199  1.00  0.00     0.036 C 
HETATM   11  C9  UNL     1      -0.060   0.121  -2.151  1.00  0.00     0.124 C 
HETATM   12  N2  UNL     1       0.713   1.248  -1.895  1.00  0.00    -0.365 N 
ATOM     13  H2  UNL     1       1.007   1.691  -2.766  1.00  0.00     0.161 HD
HETATM   14  C10 UNL     1       1.204   1.950  -0.793  1.00  0.00     0.134 C 
HETATM   15  C11 UNL     1       2.243   1.630   0.221  1.00  0.00     0.147 C 
HETATM   16  C12 UNL     1       3.377   2.655  -0.024  1.00  0.00     0.040 C 
HETATM   17  N3  UNL     1       2.839   0.390   0.208  1.00  0.00    -0.402 N 
ATOM     18  H3  UNL     1       3.444   0.158  -0.580  1.00  0.00     0.154 HD
HETATM   19  C13 UNL     1      -1.143  -0.418  -1.320  1.00  0.00     0.133 C 
HETATM   20  F1  UNL     1      -2.360   0.017  -1.826  1.00  0.00    -0.240 F 
HETATM   21  C14 UNL     1      -1.102  -0.544   0.098  1.00  0.00     0.055 C 
ENDROOT
BRANCH  21  22
HETATM   22  C15 UNL     1      -2.378  -0.243   0.841  1.00  0.00     0.050 C 
BRANCH  22  23
HETATM   23  C16 UNL     1      -3.168   0.914   0.487  1.00  0.00    -0.041 A 
HETATM   24  C17 UNL     1      -2.891   2.248   0.809  1.00  0.00     0.025 A 
HETATM   25  C18 UNL     1      -3.908   3.070   0.392  1.00  0.00     0.088 A 
HETATM   26  N4  UNL     1      -4.809   2.258  -0.184  1.00  0.00    -0.375 N 
HETATM   27  C19 UNL     1      -4.392   0.988  -0.138  1.00  0.00     0.094 A 
ATOM     28  H4  UNL     1      -5.688   2.567  -0.599  1.00  0.00     0.164 HD
ENDBRANCH  22  23
ENDBRANCH  21  22
BRANCH  14  29
HETATM   29  O1  UNL     1       0.688   3.121  -0.561  1.00  0.00    -0.348 OA
ATOM     30  H1  UNL     1       1.022   3.599   0.189  1.00  0.00     0.219 HD
ENDBRANCH  14  29
TORSDOF 3
