REMARK  5 active torsions:
REMARK  status: ('A' for Active; 'I' for Inactive)
REMARK    1  A    between atoms: C2_2  and  N1_5 
REMARK    2  A    between atoms: N1_5  and  C4_7 
REMARK    3  A    between atoms: C5_10  and  N3_11 
REMARK       I    between atoms: N3_11  and  C6_13 
REMARK       I    between atoms: C6_13  and  N4_15 
REMARK    4  A    between atoms: N4_15  and  C7_17 
REMARK    5  A    between atoms: C12_27  and  C13_28 
ROOT
HETATM    1  C4  UNL     1      -2.421   0.109   0.317  1.00  0.00     0.126 A 
HETATM    2  N2  UNL     1      -1.372   0.937   0.179  1.00  0.00    -0.176 N 
ATOM      3  H2  UNL     1      -1.535   1.932   0.025  1.00  0.00     0.186 HD
HETATM    4  C5  UNL     1      -0.107   0.474   0.241  1.00  0.00     0.687 A 
HETATM    5  N6  UNL     1       0.122  -0.832   0.444  1.00  0.00    -0.201 N 
ATOM      6  H6  UNL     1       1.082  -1.175   0.490  1.00  0.00     0.183 HD
HETATM    7  C11 UNL     1      -0.905  -1.698   0.588  1.00  0.00     0.117 A 
HETATM    8  C12 UNL     1      -2.202  -1.270   0.531  1.00  0.00     0.006 A 
ENDROOT
BRANCH   4   9
HETATM    9  N3  UNL     1       0.871   1.298   0.104  1.00  0.00    -0.141 N 
HETATM   10  C6  UNL     1       2.232   0.919   0.152  1.00  0.00     0.334 C 
HETATM   11  O1  UNL     1       2.753   0.798   1.287  1.00  0.00    -0.246 OA
HETATM   12  N4  UNL     1       3.002   0.679  -1.011  1.00  0.00    -0.336 N 
ATOM     13  H4  UNL     1       2.535   0.789  -1.911  1.00  0.00     0.164 HD
ATOM     14  H3  UNL     1       0.652   2.282  -0.048  1.00  0.00     0.189 HD
BRANCH  12  15
HETATM   15  C7  UNL     1       4.383   0.294  -1.031  1.00  0.00     0.113 C 
HETATM   16  C8  UNL     1       4.587  -0.976  -0.250  1.00  0.00     0.054 C 
HETATM   17  C9  UNL     1       5.751  -0.666   0.678  1.00  0.00     0.234 C 
HETATM   18  N5  UNL     1       6.439   0.441  -0.006  1.00  0.00    -0.073 N 
HETATM   19  C10 UNL     1       5.301   1.274  -0.348  1.00  0.00     0.257 C 
ATOM     20  H52 UNL     1       7.181   0.898   0.524  1.00  0.00     0.277 HD
ATOM     21  H51 UNL     1       7.045   0.176  -0.783  1.00  0.00     0.277 HD
ENDBRANCH  12  15
ENDBRANCH   4   9
BRANCH   1  22
HETATM   22  N1  UNL     1      -3.634   0.471   0.269  1.00  0.00    -0.353 N 
ATOM     23  H1  UNL     1      -4.317  -0.277   0.391  1.00  0.00     0.163 HD
BRANCH  22  24
HETATM   24  C2  UNL     1      -4.185   1.776   0.069  1.00  0.00     0.101 C 
HETATM   25  C1  UNL     1      -3.798   2.753   1.156  1.00  0.00     0.056 C 
HETATM   26  C3  UNL     1      -3.818   2.383  -1.265  1.00  0.00     0.056 C 
HETATM   27 CL1  UNL     1      -5.987   1.621   0.053  1.00  0.00    -0.096 Cl
ENDBRANCH  22  24
ENDBRANCH   1  22
BRANCH   8  28
HETATM   28  C13 UNL     1      -3.350  -2.173   0.684  1.00  0.00     0.024 A 
HETATM   29  C14 UNL     1      -3.154  -3.667   0.855  1.00  0.00     0.010 A 
HETATM   30  C15 UNL     1      -3.789  -3.083  -0.407  1.00  0.00     0.010 A 
ENDBRANCH   8  28
TORSDOF 5
