REMARK  7 active torsions:
REMARK  status: ('A' for Active; 'I' for Inactive)
REMARK    1  A    between atoms: C7_8  and  C8_9 
REMARK    2  A    between atoms: C8_9  and  C9_10 
REMARK    3  A    between atoms: C8_9  and  N5_20 
REMARK    4  A    between atoms: C9_10  and  N1_11 
REMARK    5  A    between atoms: N1_11  and  C10_13 
REMARK    6  A    between atoms: C10_13  and  N2_15 
REMARK       I    between atoms: N5_20  and  C12_22 
REMARK       I    between atoms: C12_22  and  N6_24 
REMARK    7  A    between atoms: N6_24  and  C13_26 
ROOT
HETATM    1  C8  UNL     1      -0.615   0.729  -0.349  1.00  0.00     0.108 C 
ENDROOT
BRANCH   1   2
HETATM    2  C7  UNL     1      -1.072   2.070   0.194  1.00  0.00     0.015 C 
HETATM    3  C2  UNL     1       0.015   2.822   0.863  1.00  0.00     0.006 C 
HETATM    4  C1  UNL     1      -0.443   3.253   2.238  1.00  0.00     0.012 C 
HETATM    5  C3  UNL     1       0.546   4.010   0.084  1.00  0.00     0.086 C 
HETATM    6 CL1  UNL     1       1.477   3.487  -1.330  1.00  0.00    -0.125 Cl
HETATM    7  C4  UNL     1      -0.553   4.979  -0.272  1.00  0.00     0.020 C 
HETATM    8  C5  UNL     1      -1.888   4.286  -0.412  1.00  0.00     0.002 C 
HETATM    9  C6  UNL     1      -1.661   2.866  -0.927  1.00  0.00     0.007 C 
ENDBRANCH   1   2
BRANCH   1  10
HETATM   10  C9  UNL     1      -1.798   0.074  -0.998  1.00  0.00     0.147 C 
BRANCH  10  11
HETATM   11  N1  UNL     1      -1.503  -1.217  -1.545  1.00  0.00    -0.365 N 
ATOM     12  H1  UNL     1      -0.562  -1.604  -1.471  1.00  0.00     0.161 HD
BRANCH  11  13
HETATM   13  C10 UNL     1      -2.522  -1.946  -2.185  1.00  0.00     0.173 C 
HETATM   14  S1  UNL     1      -4.033  -1.346  -2.313  1.00  0.00    -0.041 SA
BRANCH  13  15
HETATM   15  N2  UNL     1      -2.243  -3.221  -2.729  1.00  0.00    -0.310 N 
HETATM   16  C11 UNL     1      -2.977  -4.259  -2.507  1.00  0.00     0.203 C 
HETATM   17  N3  UNL     1      -2.636  -5.511  -3.088  1.00  0.00    -0.066 NA
HETATM   18  N4  UNL     1      -4.130  -4.195  -1.691  1.00  0.00    -0.066 NA
ATOM     19  H2  UNL     1      -1.422  -3.325  -3.326  1.00  0.00     0.170 HD
ENDBRANCH  13  15
ENDBRANCH  11  13
ENDBRANCH  10  11
ENDBRANCH   1  10
BRANCH   1  20
HETATM   20  N5  UNL     1       0.005  -0.086   0.653  1.00  0.00    -0.337 N 
HETATM   21  C12 UNL     1       1.340  -0.566   0.564  1.00  0.00     0.317 C 
HETATM   22  O1  UNL     1       2.073  -0.283  -0.446  1.00  0.00    -0.247 OA
HETATM   23  N6  UNL     1       1.929  -1.372   1.570  1.00  0.00    -0.335 N 
ATOM     24  H6  UNL     1       1.375  -1.618   2.390  1.00  0.00     0.165 HD
ATOM     25  H5  UNL     1      -0.542  -0.336   1.477  1.00  0.00     0.164 HD
BRANCH  23  26
HETATM   26  C13 UNL     1       3.284  -1.857   1.475  1.00  0.00     0.023 C 
HETATM   27  C14 UNL     1       3.669  -2.688   2.668  1.00  0.00     0.037 C 
HETATM   28  C15 UNL     1       3.497  -2.680   0.206  1.00  0.00     0.037 C 
HETATM   29  C16 UNL     1       4.278  -0.693   1.405  1.00  0.00     0.037 C 
ENDBRANCH  23  26
ENDBRANCH   1  20
TORSDOF 7
