REMARK  4 active torsions:
REMARK  status: ('A' for Active; 'I' for Inactive)
REMARK    1  A    between atoms: C2_2  and  N1_3 
REMARK       I    between atoms: N1_3  and  C3_5 
REMARK       I    between atoms: C3_5  and  N2_7 
REMARK    2  A    between atoms: N2_7  and  C4_9 
REMARK    3  A    between atoms: C4_9  and  C5_10 
REMARK    4  A    between atoms: C9_14  and  N3_15 
REMARK       I    between atoms: N3_15  and  C10_17 
REMARK       I    between atoms: C10_17  and  N4_19 
REMARK       I    between atoms: N5_24  and  C15_25 
ROOT
HETATM    1  N3  UNL     1      -0.052   0.503  -1.117  1.00  0.00    -0.338 N 
ATOM      2  H3  UNL     1      -0.544   1.332  -1.451  1.00  0.00     0.164 HD
HETATM    3  C10 UNL     1      -0.438  -0.047   0.115  1.00  0.00     0.318 C 
HETATM    4  O2  UNL     1       0.223  -1.092   0.467  1.00  0.00    -0.247 OA
HETATM    5  N4  UNL     1      -1.451   0.431   0.963  1.00  0.00    -0.333 N 
HETATM    6  C11 UNL     1      -2.143   1.615   0.532  1.00  0.00     0.129 C 
HETATM    7  C12 UNL     1      -3.337   1.257  -0.325  1.00  0.00     0.045 C 
HETATM    8  C13 UNL     1      -4.095   0.079   0.245  1.00  0.00     0.084 C 
HETATM    9  C14 UNL     1      -3.627  -1.211  -0.433  1.00  0.00     0.032 C 
HETATM   10  N5  UNL     1      -4.107  -0.008   1.661  1.00  0.00    -0.350 N 
HETATM   11  C15 UNL     1      -5.420  -0.121   2.250  1.00  0.00     0.184 C 
HETATM   12  N6  UNL     1      -6.405   0.504   1.710  1.00  0.00    -0.374 N 
ATOM     13  H61 UNL     1      -7.333   0.424   2.126  1.00  0.00     0.158 HD
ATOM     14  H62 UNL     1      -6.250   1.070   0.876  1.00  0.00     0.158 HD
HETATM   15  N7  UNL     1      -5.635  -0.907   3.409  1.00  0.00    -0.064 NA
HETATM   16  C16 UNL     1      -3.075  -0.010   2.663  1.00  0.00     0.146 C 
HETATM   17  C17 UNL     1      -1.705  -0.324   2.178  1.00  0.00     0.147 C 
ENDROOT
BRANCH   1  18
HETATM   18  C9  UNL     1       1.013  -0.046  -1.945  1.00  0.00     0.091 C 
HETATM   19  C5  UNL     1       2.010   1.052  -2.205  1.00  0.00     0.026 C 
HETATM   20  C6  UNL     1       1.747   1.557  -3.614  1.00  0.00     0.008 C 
HETATM   21  C7  UNL     1       0.392   0.961  -3.970  1.00  0.00     0.002 C 
HETATM   22  C8  UNL     1       0.501  -0.403  -3.322  1.00  0.00     0.026 C 
BRANCH  19  23
HETATM   23  C4  UNL     1       3.404   0.544  -2.041  1.00  0.00     0.131 C 
BRANCH  23  24
HETATM   24  N2  UNL     1       3.588   0.083  -0.688  1.00  0.00    -0.343 N 
HETATM   25  C3  UNL     1       4.833  -0.445  -0.295  1.00  0.00     0.316 C 
HETATM   26  N1  UNL     1       5.017  -0.898   1.028  1.00  0.00    -0.344 N 
HETATM   27  O1  UNL     1       5.766  -0.512  -1.112  1.00  0.00    -0.247 OA
ATOM     28  H1  UNL     1       4.252  -0.844   1.700  1.00  0.00     0.164 HD
ATOM     29  H2  UNL     1       2.820   0.139  -0.019  1.00  0.00     0.164 HD
BRANCH  26  30
HETATM   30  C2  UNL     1       6.296  -1.439   1.425  1.00  0.00     0.120 C 
HETATM   31  C1  UNL     1       6.243  -1.855   2.887  1.00  0.00     0.026 C 
ENDBRANCH  26  30
ENDBRANCH  23  24
ENDBRANCH  19  23
ENDBRANCH   1  18
TORSDOF 4
