REMARK  3 active torsions:
REMARK  status: ('A' for Active; 'I' for Inactive)
REMARK       I    between atoms: C1_4  and  N2_5 
REMARK       I    between atoms: C1_4  and  N4_22 
REMARK       I    between atoms: N2_5  and  C2_7 
REMARK       I    between atoms: C2_7  and  N3_9 
REMARK    1  A    between atoms: N3_9  and  C3_11 
REMARK    2  A    between atoms: C3_11  and  C4_12 
REMARK    3  A    between atoms: N4_22  and  C14_24 
ROOT
HETATM    1  N1  UNL     1       4.057   1.593   2.331  1.00  0.00    -0.235 N 
ATOM      2  H11 UNL     1       5.009   1.582   1.964  1.00  0.00     0.174 HD
ATOM      3  H12 UNL     1       3.818   1.608   3.323  1.00  0.00     0.174 HD
HETATM    4  C1  UNL     1       3.106   1.592   1.462  1.00  0.00     0.676 C 
HETATM    5  N2  UNL     1       1.788   1.607   1.970  1.00  0.00    -0.142 N 
ATOM      6  H2  UNL     1       1.672   1.610   2.983  1.00  0.00     0.189 HD
HETATM    7  C2  UNL     1       0.597   1.619   1.164  1.00  0.00     0.338 C 
HETATM    8  O1  UNL     1       0.757   1.620  -0.060  1.00  0.00    -0.246 OA
HETATM    9  N3  UNL     1      -0.678   1.627   1.761  1.00  0.00    -0.321 N 
ATOM     10  H3  UNL     1      -0.703   1.662   2.780  1.00  0.00     0.169 HD
HETATM   11  N4  UNL     1       3.433   1.571   0.103  1.00  0.00    -0.222 N 
ATOM     12  H4  UNL     1       3.034   2.334  -0.444  1.00  0.00     0.178 HD
ENDROOT
BRANCH   9  13
HETATM   13  C3  UNL     1      -1.914   1.592   1.108  1.00  0.00     0.075 C 
BRANCH  13  14
HETATM   14  C4  UNL     1      -2.390   0.409   0.358  1.00  0.00    -0.007 C 
HETATM   15  C5  UNL     1      -1.621  -0.109  -0.783  1.00  0.00     0.019 C 
HETATM   16  C6  UNL     1      -2.418  -1.226  -1.469  1.00  0.00    -0.013 C 
HETATM   17  C7  UNL     1      -3.738  -0.759  -1.989  1.00  0.00     0.009 C 
HETATM   18  C11 UNL     1      -2.626  -2.380  -0.519  1.00  0.00     0.009 C 
HETATM   19  C8  UNL     1      -4.550  -0.265  -0.781  1.00  0.00    -0.013 C 
HETATM   20  C9  UNL     1      -4.743  -1.398   0.169  1.00  0.00     0.009 C 
HETATM   21  C13 UNL     1      -3.774   0.851  -0.189  1.00  0.00     0.019 C 
HETATM   22  C10 UNL     1      -3.390  -1.857   0.670  1.00  0.00    -0.013 C 
HETATM   23  C12 UNL     1      -2.610  -0.770   1.320  1.00  0.00     0.019 C 
ENDBRANCH  13  14
ENDBRANCH   9  13
BRANCH  11  24
HETATM   24  C14 UNL     1       4.220   0.672  -0.629  1.00  0.00     0.103 C 
HETATM   25  C15 UNL     1       3.404  -0.805  -0.275  1.00  0.00     0.052 C 
HETATM   26  C16 UNL     1       4.442  -1.478  -0.845  1.00  0.00    -0.029 C 
HETATM   27  C17 UNL     1       5.277  -1.435  -1.178  1.00  0.00    -0.030 C 
HETATM   28  C18 UNL     1       6.357  -0.666  -1.408  1.00  0.00     0.029 C 
HETATM   29  C19 UNL     1       5.648   0.579  -0.421  1.00  0.00     0.029 C 
ENDBRANCH  11  24
TORSDOF 3
