REMARK  2 active torsions:
REMARK  status: ('A' for Active; 'I' for Inactive)
REMARK    1  A    between atoms: C10_10  and  N1_11 
REMARK       I    between atoms: N1_11  and  C11_13 
REMARK       I    between atoms: C11_13  and  N2_15 
REMARK    2  A    between atoms: N2_15  and  C12_17 
REMARK       I    between atoms: N3_20  and  C15_21 
ROOT
HETATM    1  N1  UNL     1      -0.735  -0.619   0.080  1.00  0.00    -0.338 N 
ATOM      2  H1  UNL     1      -0.860  -0.969  -0.870  1.00  0.00     0.164 HD
HETATM    3  C11 UNL     1       0.555  -0.179   0.450  1.00  0.00     0.316 C 
HETATM    4  O1  UNL     1       0.740   0.260   1.618  1.00  0.00    -0.247 OA
HETATM    5  N2  UNL     1       1.670  -0.198  -0.415  1.00  0.00    -0.338 N 
ATOM      6  H2  UNL     1       1.528  -0.552  -1.361  1.00  0.00     0.164 HD
ENDROOT
BRANCH   1   7
HETATM    7  C10 UNL     1      -1.878  -0.610   0.937  1.00  0.00     0.091 C 
HETATM    8  C9  UNL     1      -2.996   0.272   0.431  1.00  0.00     0.012 C 
HETATM    9  C4  UNL     1      -4.010  -0.611  -0.265  1.00  0.00    -0.008 C 
HETATM   10  C8  UNL     1      -2.536   1.310  -0.535  1.00  0.00     0.007 C 
HETATM   11  C3  UNL     1      -4.789  -1.322   0.835  1.00  0.00     0.009 C 
HETATM   12  C5  UNL     1      -4.889   0.171  -1.184  1.00  0.00     0.005 C 
HETATM   13  C2  UNL     1      -3.787  -1.883   1.811  1.00  0.00    -0.016 C 
HETATM   14  C1  UNL     1      -4.271  -3.267   2.211  1.00  0.00     0.010 C 
HETATM   15  C18 UNL     1      -2.406  -2.008   1.211  1.00  0.00     0.029 C 
HETATM   16  C6  UNL     1      -5.003   1.625  -0.828  1.00  0.00     0.000 C 
HETATM   17  C7  UNL     1      -3.681   2.316  -0.697  1.00  0.00     0.000 C 
ENDBRANCH   1   7
BRANCH   5  18
HETATM   18  C12 UNL     1       2.985   0.242  -0.063  1.00  0.00     0.089 C 
HETATM   19  C13 UNL     1       3.969  -0.877  -0.107  1.00  0.00     0.045 C 
HETATM   20  C14 UNL     1       5.266  -0.529  -0.814  1.00  0.00     0.127 C 
HETATM   21  N3  UNL     1       5.693   0.754  -0.320  1.00  0.00    -0.356 N 
HETATM   22  C15 UNL     1       6.943   0.871   0.323  1.00  0.00     0.183 C 
HETATM   23  C16 UNL     1       4.824   1.886  -0.499  1.00  0.00     0.127 C 
HETATM   24  N4  UNL     1       7.212   0.169   1.394  1.00  0.00    -0.374 N 
HETATM   25  N5  UNL     1       7.972   1.742  -0.143  1.00  0.00    -0.064 NA
ATOM     26  H42 UNL     1       6.476  -0.454   1.727  1.00  0.00     0.158 HD
ATOM     27  H41 UNL     1       8.116   0.254   1.859  1.00  0.00     0.158 HD
HETATM   28  C17 UNL     1       3.409   1.478  -0.825  1.00  0.00     0.045 C 
ENDBRANCH   5  18
TORSDOF 2
