REMARK  6 active torsions:
REMARK  status: ('A' for Active; 'I' for Inactive)
REMARK    1  A    between atoms: C5_8  and  N2_9 
REMARK    2  A    between atoms: N2_9  and  C6_11 
REMARK    3  A    between atoms: C6_11  and  N3_13 
REMARK    4  A    between atoms: N3_13  and  C7_15 
REMARK    5  A    between atoms: C7_15  and  C8_16 
REMARK    6  A    between atoms: C8_16  and  C9_17 
ROOT
HETATM    1  C6  UNL     1      -1.648   1.938  -0.773  1.00  0.00     0.168 C 
HETATM    2  S1  UNL     1      -0.606   2.802  -1.743  1.00  0.00    -0.041 SA
ENDROOT
BRANCH   1   3
HETATM    3  N2  UNL     1      -3.006   2.210  -0.918  1.00  0.00    -0.354 N 
ATOM      4  H2  UNL     1      -3.284   2.897  -1.619  1.00  0.00     0.162 HD
BRANCH   3   5
HETATM    5  C5  UNL     1      -4.038   1.585  -0.145  1.00  0.00     0.176 C 
HETATM    6  C4  UNL     1      -3.911   1.797   1.321  1.00  0.00     0.240 C 
HETATM    7  N1  UNL     1      -4.690   0.970   2.217  1.00  0.00    -0.359 N 
HETATM    8  O1  UNL     1      -3.162   2.658   1.833  1.00  0.00    -0.271 OA
HETATM    9  C3  UNL     1      -5.451  -0.138   1.605  1.00  0.00     0.127 C 
ATOM     10  H1  UNL     1      -4.712   1.144   3.222  1.00  0.00     0.162 HD
HETATM   11  C2  UNL     1      -4.489  -0.733   0.600  1.00  0.00     0.002 C 
HETATM   12  C1  UNL     1      -5.084  -2.077   0.159  1.00  0.00     0.011 C 
HETATM   13  C17 UNL     1      -4.151   0.141  -0.535  1.00  0.00     0.040 C 
ENDBRANCH   3   5
ENDBRANCH   1   3
BRANCH   1  14
HETATM   14  N3  UNL     1      -1.108   1.030   0.137  1.00  0.00    -0.367 N 
ATOM     15  H3  UNL     1      -1.725   0.520   0.769  1.00  0.00     0.161 HD
BRANCH  14  16
HETATM   16  C7  UNL     1       0.330   0.803   0.194  1.00  0.00     0.122 C 
BRANCH  16  17
HETATM   17  C8  UNL     1       0.786   0.049  -1.008  1.00  0.00     0.024 C 
BRANCH  17  18
HETATM   18  C9  UNL     1       2.294  -0.169  -0.933  1.00  0.00    -0.013 C 
HETATM   19  C10 UNL     1       2.769  -0.918  -2.165  1.00  0.00     0.005 C 
HETATM   20  C11 UNL     1       4.158  -0.388  -2.546  1.00  0.00     0.000 C 
HETATM   21  C12 UNL     1       5.228  -0.860  -1.618  1.00  0.00     0.000 C 
HETATM   22  C13 UNL     1       5.446  -0.038  -0.399  1.00  0.00     0.000 C 
HETATM   23  C14 UNL     1       4.901  -0.658   0.873  1.00  0.00     0.000 C 
HETATM   24  C15 UNL     1       3.481  -0.168   1.181  1.00  0.00     0.000 C 
HETATM   25  C16 UNL     1       2.567  -0.985   0.319  1.00  0.00     0.005 C 
ENDBRANCH  17  18
ENDBRANCH  16  17
ENDBRANCH  14  16
ENDBRANCH   1  14
TORSDOF 6
