REMARK  8 active torsions:
REMARK  status: ('A' for Active; 'I' for Inactive)
REMARK    1  A    between atoms: N1_1  and  C1_4 
REMARK    2  A    between atoms: C3_8  and  C4_9 
REMARK    3  A    between atoms: C5_10  and  C6_11 
REMARK    4  A    between atoms: C6_11  and  C7_12 
REMARK    5  A    between atoms: C7_12  and  N3_13 
REMARK    6  A    between atoms: N3_13  and  C8_14 
REMARK       I    between atoms: N3_13  and  C9_16 
REMARK    7  A    between atoms: C9_16  and  C10_18 
REMARK    8  A    between atoms: C20_28  and  N4_29 
ROOT
HETATM    1  C6  UNL     1       1.259   0.265  -1.620  1.00  0.00     0.114 C 
ENDROOT
BRANCH   1   2
HETATM    2  C5  UNL     1       2.590   0.121  -1.089  1.00  0.00    -0.099 C 
HETATM    3  C4  UNL     1       3.717  -0.011  -0.684  1.00  0.00    -0.062 C 
BRANCH   3   4
HETATM    4  C3  UNL     1       5.057  -0.176  -0.195  1.00  0.00     0.077 A 
HETATM    5  C2  UNL     1       5.337  -0.310   1.151  1.00  0.00     0.130 A 
HETATM    6  N2  UNL     1       6.622  -0.464   1.573  1.00  0.00    -0.201 N 
HETATM    7  C1  UNL     1       7.654  -0.493   0.710  1.00  0.00     0.677 A 
ATOM      8  H2  UNL     1       6.808  -0.560   2.571  1.00  0.00     0.183 HD
HETATM    9  N5  UNL     1       7.396  -0.364  -0.603  1.00  0.00    -0.176 N 
HETATM   10  C20 UNL     1       6.138  -0.210  -1.055  1.00  0.00     0.135 A 
ATOM     11  H5  UNL     1       8.168  -0.383  -1.269  1.00  0.00     0.186 HD
BRANCH   7  12
HETATM   12  N1  UNL     1       8.888  -0.639   1.096  1.00  0.00    -0.234 N 
ATOM     13  H12 UNL     1       9.084  -0.737   2.092  1.00  0.00     0.174 HD
ATOM     14  H11 UNL     1       9.670  -0.661   0.442  1.00  0.00     0.174 HD
ENDBRANCH   7  12
BRANCH  10  15
HETATM   15  N4  UNL     1       5.896  -0.086  -2.319  1.00  0.00    -0.384 N 
ATOM     16  H42 UNL     1       4.942   0.031  -2.662  1.00  0.00     0.157 HD
ATOM     17  H41 UNL     1       6.694  -0.111  -2.954  1.00  0.00     0.157 HD
ENDBRANCH  10  15
ENDBRANCH   3   4
ENDBRANCH   1   2
BRANCH   1  18
HETATM   18  C7  UNL     1       0.404   1.353  -1.123  1.00  0.00     0.144 C 
BRANCH  18  19
HETATM   19  N3  UNL     1      -0.006   1.388   0.241  1.00  0.00    -0.317 N 
HETATM   20  C9  UNL     1      -1.188   0.710   0.653  1.00  0.00     0.229 C 
HETATM   21  O1  UNL     1      -1.458   0.749   1.902  1.00  0.00    -0.273 OA
BRANCH  19  22
HETATM   22  C8  UNL     1       0.666   2.176   1.240  1.00  0.00     0.179 C 
HETATM   23 CL1  UNL     1       1.840   1.360   2.231  1.00  0.00    -0.078 Cl
ENDBRANCH  19  22
BRANCH  20  24
HETATM   24  C10 UNL     1      -2.136  -0.022  -0.171  1.00  0.00     0.086 C 
HETATM   25  C11 UNL     1      -2.820  -1.165   0.545  1.00  0.00    -0.000 C 
HETATM   26  C12 UNL     1      -3.333  -2.090  -0.568  1.00  0.00     0.010 C 
HETATM   27  C16 UNL     1      -3.959  -0.795   1.415  1.00  0.00     0.010 C 
HETATM   28  C13 UNL     1      -4.306  -1.302  -1.409  1.00  0.00    -0.013 C 
HETATM   29  C14 UNL     1      -5.494  -0.952  -0.544  1.00  0.00     0.009 C 
HETATM   30  C19 UNL     1      -3.679  -0.079  -2.031  1.00  0.00     0.010 C 
HETATM   31  C15 UNL     1      -4.992  -0.066   0.580  1.00  0.00    -0.013 C 
HETATM   32  C17 UNL     1      -4.377   1.156  -0.067  1.00  0.00     0.010 C 
HETATM   33  C18 UNL     1      -3.163   0.815  -0.891  1.00  0.00    -0.000 C 
ENDBRANCH  20  24
ENDBRANCH  18  19
ENDBRANCH   1  18
TORSDOF 8
