REMARK  7 active torsions:
REMARK  status: ('A' for Active; 'I' for Inactive)
REMARK    1  A    between atoms: C2_2  and  N1_4 
REMARK       I    between atoms: N1_4  and  C4_6 
REMARK       I    between atoms: C4_6  and  N2_8 
REMARK       I    between atoms: C5_10  and  N3_11 
REMARK       I    between atoms: C5_10  and  N5_26 
REMARK    2  A    between atoms: N3_11  and  C6_13 
REMARK    3  A    between atoms: C6_13  and  N4_15 
REMARK    4  A    between atoms: N4_15  and  C7_17 
REMARK    5  A    between atoms: C7_17  and  C8_18 
REMARK    6  A    between atoms: C8_18  and  C9_19 
REMARK    7  A    between atoms: N5_26  and  C15_28 
ROOT
HETATM    1  N1  UNL     1      -3.231   1.407   0.350  1.00  0.00    -0.339 N 
ATOM      2  H1  UNL     1      -3.732   1.288   1.230  1.00  0.00     0.164 HD
HETATM    3  C4  UNL     1      -2.474   0.330  -0.176  1.00  0.00     0.334 C 
HETATM    4  O1  UNL     1      -1.870   0.530  -1.274  1.00  0.00    -0.246 OA
HETATM    5  N2  UNL     1      -2.337  -0.933   0.418  1.00  0.00    -0.141 N 
ATOM      6  H2  UNL     1      -3.064  -1.612   0.194  1.00  0.00     0.189 HD
HETATM    7  C5  UNL     1      -1.419  -1.338   1.201  1.00  0.00     0.685 C 
HETATM    8  N3  UNL     1      -0.357  -0.477   1.584  1.00  0.00    -0.166 N 
ATOM      9  H3  UNL     1      -0.503   0.113   2.403  1.00  0.00     0.186 HD
HETATM   10  N5  UNL     1      -1.503  -2.679   1.678  1.00  0.00    -0.218 N 
ATOM     11  H5  UNL     1      -0.918  -2.968   2.462  1.00  0.00     0.178 HD
ENDROOT
BRANCH   8  12
HETATM   12  C6  UNL     1       0.887  -0.372   0.921  1.00  0.00     0.186 C 
HETATM   13  S1  UNL     1       1.195  -1.292  -0.367  1.00  0.00    -0.040 SA
BRANCH  12  14
HETATM   14  N4  UNL     1       1.862   0.522   1.402  1.00  0.00    -0.366 N 
ATOM     15  H4  UNL     1       1.649   1.072   2.234  1.00  0.00     0.161 HD
BRANCH  14  16
HETATM   16  C7  UNL     1       3.145   0.696   0.776  1.00  0.00     0.126 C 
BRANCH  16  17
HETATM   17  C8  UNL     1       3.103   1.386  -0.560  1.00  0.00     0.058 C 
BRANCH  17  18
HETATM   18  C9  UNL     1       4.514   1.496  -1.059  1.00  0.00    -0.057 A 
HETATM   19  C10 UNL     1       5.291   2.596  -0.750  1.00  0.00     0.010 A 
HETATM   20  C11 UNL     1       6.590   2.735  -1.193  1.00  0.00     0.043 A 
HETATM   21  C12 UNL     1       7.149   1.735  -1.983  1.00  0.00     0.116 A 
HETATM   22  F1  UNL     1       8.413   1.808  -2.450  1.00  0.00    -0.206 F 
HETATM   23  C13 UNL     1       6.401   0.627  -2.308  1.00  0.00     0.043 A 
HETATM   24  C14 UNL     1       5.109   0.524  -1.846  1.00  0.00     0.010 A 
ENDBRANCH  17  18
ENDBRANCH  16  17
ENDBRANCH  14  16
ENDBRANCH  12  14
ENDBRANCH   8  12
BRANCH  10  25
HETATM   25  C15 UNL     1      -2.397  -3.635   1.076  1.00  0.00     0.036 C 
HETATM   26  C16 UNL     1      -3.842  -3.162   1.159  1.00  0.00     0.038 C 
HETATM   27  C17 UNL     1      -2.037  -3.938  -0.369  1.00  0.00     0.038 C 
HETATM   28  C18 UNL     1      -2.333  -4.940   1.836  1.00  0.00     0.038 C 
ENDBRANCH  10  25
BRANCH   1  29
HETATM   29  C2  UNL     1      -3.301   2.669  -0.345  1.00  0.00     0.078 C 
HETATM   30  C1  UNL     1      -2.809   3.815   0.506  1.00  0.00     0.032 C 
HETATM   31  C3  UNL     1      -4.717   2.931  -0.870  1.00  0.00     0.032 C 
ENDBRANCH   1  29
TORSDOF 7
