REMARK  5 active torsions:
REMARK  status: ('A' for Active; 'I' for Inactive)
REMARK       I    between atoms: C2_2  and  N1_4 
REMARK    1  A    between atoms: N1_4  and  C3_6 
REMARK    2  A    between atoms: C3_6  and  C4_7 
REMARK    3  A    between atoms: C3_6  and  C10_21 
REMARK       I    between atoms: C4_7  and  N2_9 
REMARK    4  A    between atoms: N2_9  and  N3_11 
REMARK       I    between atoms: N3_11  and  C5_13 
REMARK       I    between atoms: C5_13  and  N4_15 
REMARK    5  A    between atoms: N4_15  and  C6_17 
ROOT
HETATM    1  C4  UNL     1       0.914   0.677   0.948  1.00  0.00     0.263 C 
HETATM    2  O2  UNL     1       0.295   1.642   0.412  1.00  0.00    -0.269 OA
HETATM    3  N2  UNL     1       0.194  -0.279   1.669  1.00  0.00    -0.264 N 
ATOM      4  H2  UNL     1       0.694  -1.055   2.102  1.00  0.00     0.190 HD
ENDROOT
BRANCH   1   5
HETATM    5  C3  UNL     1       2.388   0.645   0.761  1.00  0.00     0.211 C 
BRANCH   5   6
HETATM    6  N1  UNL     1       2.842   1.753  -0.035  1.00  0.00    -0.344 N 
HETATM    7  C2  UNL     1       3.629   2.816   0.466  1.00  0.00     0.214 C 
HETATM    8  C1  UNL     1       4.095   3.954  -0.352  1.00  0.00     0.117 C 
HETATM    9  O1  UNL     1       3.949   2.791   1.676  1.00  0.00    -0.274 OA
ATOM     10  H1  UNL     1       2.581   1.774  -1.021  1.00  0.00     0.163 HD
ENDBRANCH   5   6
BRANCH   5  11
HETATM   11  C10 UNL     1       2.878  -0.655   0.309  1.00  0.00    -0.026 A 
HETATM   12  C11 UNL     1       3.387  -1.572   1.196  1.00  0.00     0.011 A 
HETATM   13  C12 UNL     1       3.853  -2.809   0.795  1.00  0.00     0.019 A 
HETATM   14  C13 UNL     1       3.811  -3.146  -0.537  1.00  0.00     0.011 A 
HETATM   15 BR1  UNL     1       4.456  -4.865  -1.114  1.00  0.00    -0.051 Br
HETATM   16  C14 UNL     1       3.308  -2.253  -1.461  1.00  0.00     0.019 A 
HETATM   17  C15 UNL     1       2.847  -1.015  -1.017  1.00  0.00     0.011 A 
ENDBRANCH   5  11
ENDBRANCH   1   5
BRANCH   3  18
HETATM   18  N3  UNL     1      -1.191  -0.199   1.812  1.00  0.00    -0.249 N 
HETATM   19  C5  UNL     1      -2.067  -0.252   0.702  1.00  0.00     0.335 C 
HETATM   20  O3  UNL     1      -1.580  -0.373  -0.443  1.00  0.00    -0.246 OA
HETATM   21  N4  UNL     1      -3.461  -0.172   0.860  1.00  0.00    -0.334 N 
ATOM     22  H4  UNL     1      -3.856  -0.075   1.795  1.00  0.00     0.165 HD
ATOM     23  H3  UNL     1      -1.585  -0.099   2.747  1.00  0.00     0.192 HD
BRANCH  21  24
HETATM   24  C6  UNL     1      -4.334  -0.225  -0.274  1.00  0.00     0.023 C 
HETATM   25  C7  UNL     1      -4.125  -1.522  -0.989  1.00  0.00     0.037 C 
HETATM   26  C8  UNL     1      -5.789  -0.121   0.169  1.00  0.00     0.037 C 
HETATM   27  C9  UNL     1      -4.099   0.981  -1.173  1.00  0.00     0.037 C 
ENDBRANCH  21  24
ENDBRANCH   3  18
TORSDOF 5
