REMARK  7 active torsions:
REMARK  status: ('A' for Active; 'I' for Inactive)
REMARK    1  A    between atoms: C2_2  and  N1_3 
REMARK    2  A    between atoms: N1_3  and  C3_5 
REMARK    3  A    between atoms: C3_5  and  N2_7 
REMARK    4  A    between atoms: N2_7  and  C4_9 
REMARK    5  A    between atoms: C7_12  and  C8_13 
REMARK       I    between atoms: C8_13  and  N3_15 
REMARK    6  A    between atoms: N3_15  and  N4_17 
REMARK       I    between atoms: N4_17  and  C9_19 
REMARK    7  A    between atoms: C9_19  and  C10_21 
ROOT
HETATM    1  C8  UNL     1      -1.077   0.440  -0.724  1.00  0.00     0.270 C 
HETATM    2  O1  UNL     1      -1.497   0.350  -1.927  1.00  0.00    -0.266 OA
HETATM    3  N3  UNL     1      -1.955   0.710   0.347  1.00  0.00    -0.263 N 
ATOM      4  H3  UNL     1      -1.609   0.781   1.304  1.00  0.00     0.190 HD
ENDROOT
BRANCH   1   5
HETATM    5  C7  UNL     1       0.331   0.256  -0.491  1.00  0.00     0.033 A 
HETATM    6  C6  UNL     1       0.834   0.132   0.769  1.00  0.00     0.019 A 
HETATM    7  C5  UNL     1       2.215  -0.038   0.932  1.00  0.00     0.030 A 
HETATM    8  C4  UNL     1       3.108  -0.092  -0.094  1.00  0.00     0.034 A 
HETATM    9  C17 UNL     1       2.548   0.041  -1.379  1.00  0.00     0.030 A 
HETATM   10  C16 UNL     1       1.202   0.209  -1.556  1.00  0.00     0.019 A 
BRANCH   8  11
HETATM   11  N2  UNL     1       4.502  -0.297   0.037  1.00  0.00    -0.333 N 
ATOM     12  H2  UNL     1       5.131   0.251  -0.550  1.00  0.00     0.168 HD
BRANCH  11  13
HETATM   13  C3  UNL     1       5.059  -1.216   0.935  1.00  0.00     0.172 C 
HETATM   14  S1  UNL     1       4.067  -2.178   1.838  1.00  0.00    -0.041 SA
BRANCH  13  15
HETATM   15  N1  UNL     1       6.473  -1.376   1.063  1.00  0.00    -0.367 N 
ATOM     16  H1  UNL     1       6.842  -2.062   1.722  1.00  0.00     0.161 HD
BRANCH  15  17
HETATM   17  C2  UNL     1       7.386  -0.587   0.279  1.00  0.00     0.117 C 
HETATM   18  C1  UNL     1       7.364   0.861   0.717  1.00  0.00     0.026 C 
ENDBRANCH  15  17
ENDBRANCH  13  15
ENDBRANCH  11  13
ENDBRANCH   8  11
ENDBRANCH   1   5
BRANCH   3  19
HETATM   19  N4  UNL     1      -3.315   0.878   0.058  1.00  0.00    -0.263 N 
HETATM   20  C9  UNL     1      -4.205  -0.168   0.318  1.00  0.00     0.270 C 
HETATM   21  O2  UNL     1      -3.782  -1.242   0.804  1.00  0.00    -0.266 OA
ATOM     22  H4  UNL     1      -3.653   1.755  -0.338  1.00  0.00     0.190 HD
BRANCH  20  23
HETATM   23  C10 UNL     1      -5.648  -0.083   0.047  1.00  0.00     0.033 A 
HETATM   24  C11 UNL     1      -6.203   1.039  -0.529  1.00  0.00     0.019 A 
HETATM   25  C12 UNL     1      -7.578   1.090  -0.772  1.00  0.00     0.025 A 
HETATM   26  C13 UNL     1      -8.422   0.052  -0.457  1.00  0.00     0.034 A 
HETATM   27 CL1  UNL     1     -10.143   0.163  -0.781  1.00  0.00    -0.084 Cl
HETATM   28  C14 UNL     1      -7.860  -1.066   0.119  1.00  0.00     0.025 A 
HETATM   29  C15 UNL     1      -6.502  -1.117   0.359  1.00  0.00     0.019 A 
ENDBRANCH  20  23
ENDBRANCH   3  19
TORSDOF 7
