REMARK  5 active torsions:
REMARK  status: ('A' for Active; 'I' for Inactive)
REMARK    1  A    between atoms: C2_2  and  N1_5 
REMARK       I    between atoms: N1_5  and  C5_7 
REMARK       I    between atoms: C5_7  and  N2_9 
REMARK    2  A    between atoms: N2_9  and  C6_11 
REMARK    3  A    between atoms: C6_11  and  C7_12 
REMARK    4  A    between atoms: C15_21  and  C16_22 
REMARK    5  A    between atoms: C16_22  and  N4_26 
ROOT
HETATM    1  C7  UNL     1      -0.185  -1.836  -0.189  1.00  0.00    -0.004 C 
HETATM    2  C8  UNL     1      -0.985  -3.165  -0.223  1.00  0.00     0.016 C 
HETATM    3  C9  UNL     1      -2.416  -2.827  -0.082  1.00  0.00     0.015 C 
HETATM    4  C10 UNL     1      -2.693  -1.512   0.541  1.00  0.00     0.007 C 
HETATM    5  C11 UNL     1      -4.082  -1.429   1.089  1.00  0.00     0.020 C 
HETATM    6  C12 UNL     1      -1.700  -1.034   1.532  1.00  0.00     0.114 C 
HETATM    7  F1  UNL     1      -2.015  -1.114   2.855  1.00  0.00    -0.242 F 
HETATM    8  C13 UNL     1      -0.243  -1.335   1.195  1.00  0.00     0.059 C 
HETATM    9  C14 UNL     1      -1.955   0.367   0.924  1.00  0.00     0.062 C 
HETATM   10  C15 UNL     1      -2.240  -0.384  -0.359  1.00  0.00     0.032 C 
HETATM   11  C18 UNL     1      -0.984  -0.846  -1.061  1.00  0.00     0.033 C 
ENDROOT
BRANCH   1  12
HETATM   12  C6  UNL     1       1.127  -2.068  -0.836  1.00  0.00     0.075 C 
BRANCH  12  13
HETATM   13  N2  UNL     1       2.097  -1.070  -0.935  1.00  0.00    -0.322 N 
HETATM   14  C5  UNL     1       2.868  -0.439   0.060  1.00  0.00     0.320 C 
HETATM   15  N1  UNL     1       3.780   0.617  -0.311  1.00  0.00    -0.335 N 
HETATM   16  O1  UNL     1       2.849  -0.705   1.280  1.00  0.00    -0.247 OA
ATOM     17  H1  UNL     1       3.847   0.886  -1.293  1.00  0.00     0.165 HD
ATOM     18  H2  UNL     1       2.277  -0.744  -1.884  1.00  0.00     0.169 HD
BRANCH  15  19
HETATM   19  C2  UNL     1       4.604   1.309   0.660  1.00  0.00     0.023 C 
HETATM   20  C1  UNL     1       5.437   2.354  -0.042  1.00  0.00     0.037 C 
HETATM   21  C3  UNL     1       3.732   1.939   1.732  1.00  0.00     0.037 C 
HETATM   22  C4  UNL     1       5.555   0.349   1.352  1.00  0.00     0.037 C 
ENDBRANCH  15  19
ENDBRANCH  12  13
ENDBRANCH   1  12
BRANCH  10  23
HETATM   23  C16 UNL     1      -3.263   0.198  -1.224  1.00  0.00     0.086 C 
HETATM   24  N3  UNL     1      -4.489  -0.180  -1.277  1.00  0.00    -0.388 N 
ATOM     25  H32 UNL     1      -4.762  -0.947  -0.662  1.00  0.00     0.157 HD
ATOM     26  H31 UNL     1      -5.203   0.226  -1.881  1.00  0.00     0.157 HD
BRANCH  23  27
HETATM   27  N4  UNL     1      -2.882   1.268  -2.082  1.00  0.00    -0.322 N 
HETATM   28  C17 UNL     1      -3.322   2.467  -1.897  1.00  0.00     0.202 C 
HETATM   29  N5  UNL     1      -2.882   3.465  -2.807  1.00  0.00    -0.066 NA
HETATM   30  N6  UNL     1      -4.204   2.814  -0.846  1.00  0.00    -0.066 NA
ATOM     31  H4  UNL     1      -2.248   1.083  -2.859  1.00  0.00     0.169 HD
ENDBRANCH  23  27
ENDBRANCH  10  23
TORSDOF 5
