REMARK  6 active torsions:
REMARK  status: ('A' for Active; 'I' for Inactive)
REMARK    1  A    between atoms: C2_2  and  N1_5 
REMARK       I    between atoms: C5_7  and  N3_9 
REMARK    2  A    between atoms: N3_9  and  N4_11 
REMARK       I    between atoms: N4_11  and  C6_13 
REMARK    3  A    between atoms: C6_13  and  C7_15 
REMARK    4  A    between atoms: C7_15  and  N5_16 
REMARK    5  A    between atoms: C7_15  and  C15_27 
REMARK       I    between atoms: N5_16  and  C8_18 
REMARK    6  A    between atoms: C8_18  and  C9_20 
ROOT
HETATM    1  C7  UNL     1       1.539  -0.801  -0.570  1.00  0.00     0.089 C 
ENDROOT
BRANCH   1   2
HETATM    2  C6  UNL     1       0.301  -0.135  -0.891  1.00  0.00     0.283 C 
HETATM    3  N4  UNL     1      -0.889  -0.687  -1.320  1.00  0.00    -0.262 N 
ATOM      4  H4  UNL     1      -0.943  -1.700  -1.431  1.00  0.00     0.190 HD
HETATM    5  O1  UNL     1       0.305   1.157  -0.756  1.00  0.00    -0.265 OA
BRANCH   3   6
HETATM    6  N3  UNL     1      -2.038   0.085  -1.613  1.00  0.00    -0.271 N 
HETATM    7  C5  UNL     1      -3.238  -0.078  -0.899  1.00  0.00     0.203 C 
HETATM    8  N1  UNL     1      -3.965   0.935  -0.674  1.00  0.00    -0.355 N 
HETATM    9  N2  UNL     1      -3.639  -1.359  -0.447  1.00  0.00    -0.062 NA
ATOM     10  H1  UNL     1      -3.610   1.823  -1.028  1.00  0.00     0.163 HD
ATOM     11  H3  UNL     1      -1.995   0.777  -2.361  1.00  0.00     0.189 HD
BRANCH   8  12
HETATM   12  C2  UNL     1      -5.220   0.995   0.013  1.00  0.00     0.021 C 
HETATM   13  C1  UNL     1      -5.633   2.448   0.117  1.00  0.00     0.037 C 
HETATM   14  C3  UNL     1      -5.194   0.377   1.393  1.00  0.00     0.037 C 
HETATM   15  C4  UNL     1      -6.310   0.325  -0.840  1.00  0.00     0.037 C 
ENDBRANCH   8  12
ENDBRANCH   3   6
ENDBRANCH   1   2
BRANCH   1  16
HETATM   16  N5  UNL     1       2.494   0.101   0.094  1.00  0.00    -0.321 N 
HETATM   17  C8  UNL     1       3.654   0.580  -0.507  1.00  0.00     0.256 C 
HETATM   18  O2  UNL     1       3.908   0.216  -1.681  1.00  0.00    -0.267 OA
ATOM     19  H5  UNL     1       2.294   0.392   1.051  1.00  0.00     0.169 HD
BRANCH  17  20
HETATM   20  C9  UNL     1       4.561   1.472   0.168  1.00  0.00     0.032 A 
HETATM   21  C10 UNL     1       5.695   1.922  -0.515  1.00  0.00     0.018 A 
HETATM   22  C11 UNL     1       6.545   2.776   0.129  1.00  0.00     0.025 A 
HETATM   23  C12 UNL     1       6.334   3.218   1.433  1.00  0.00     0.034 A 
HETATM   24 CL1  UNL     1       7.466   4.306   2.173  1.00  0.00    -0.084 Cl
HETATM   25  C13 UNL     1       5.225   2.784   2.113  1.00  0.00     0.025 A 
HETATM   26  C14 UNL     1       4.363   1.921   1.469  1.00  0.00     0.018 A 
ENDBRANCH  17  20
ENDBRANCH   1  16
BRANCH   1  27
HETATM   27  C15 UNL     1       1.555  -2.177  -0.038  1.00  0.00    -0.003 C 
HETATM   28  C16 UNL     1       2.975  -2.643   0.289  1.00  0.00     0.021 C 
HETATM   29  C17 UNL     1       1.122  -3.119  -1.176  1.00  0.00     0.021 C 
HETATM   30  C18 UNL     1       0.683  -2.411   1.133  1.00  0.00     0.021 C 
ENDBRANCH   1  27
TORSDOF 6
