REMARK  6 active torsions:
REMARK  status: ('A' for Active; 'I' for Inactive)
REMARK    1  A    between atoms: C2_2  and  C4_4 
REMARK    2  A    between atoms: C6_6  and  N1_7 
REMARK       I    between atoms: N1_7  and  C7_9 
REMARK       I    between atoms: C7_9  and  N2_11 
REMARK    3  A    between atoms: N2_11  and  C8_13 
REMARK    4  A    between atoms: C11_16  and  N3_17 
REMARK       I    between atoms: N3_17  and  C12_19 
REMARK    5  A    between atoms: C12_19  and  O3_21 
REMARK    6  A    between atoms: O3_21  and  C13_22 
ROOT
HETATM    1  C8  UNL     1       0.514  -1.834  -0.705  1.00  0.00     0.106 C 
HETATM    2  C9  UNL     1      -0.038  -1.899  -2.113  1.00  0.00     0.084 C 
HETATM    3  C10 UNL     1      -1.318  -1.082  -2.093  1.00  0.00     0.037 C 
HETATM    4  C11 UNL     1      -2.286  -1.599  -1.074  1.00  0.00     0.087 C 
HETATM    5  C17 UNL     1      -1.705  -2.481  -0.018  1.00  0.00     0.037 C 
HETATM    6  C18 UNL     1      -0.343  -3.036  -0.408  1.00  0.00     0.084 C 
HETATM    7  C19 UNL     1      -0.289  -3.383  -1.882  1.00  0.00     0.255 C 
HETATM    8  F1  UNL     1       0.791  -4.123  -2.232  1.00  0.00    -0.205 F 
HETATM    9  F2  UNL     1      -1.499  -3.821  -2.397  1.00  0.00    -0.205 F 
ENDROOT
BRANCH   1  10
HETATM   10  N2  UNL     1       1.929  -2.001  -0.674  1.00  0.00    -0.337 N 
HETATM   11  C7  UNL     1       2.724  -0.997  -0.006  1.00  0.00     0.316 C 
HETATM   12  N1  UNL     1       4.129  -1.099   0.063  1.00  0.00    -0.338 N 
HETATM   13  O1  UNL     1       2.145  -0.016   0.523  1.00  0.00    -0.247 OA
ATOM     14  H1  UNL     1       4.538  -1.918  -0.388  1.00  0.00     0.164 HD
ATOM     15  H2  UNL     1       2.369  -2.810  -1.113  1.00  0.00     0.164 HD
BRANCH  12  16
HETATM   16  C6  UNL     1       5.049  -0.208   0.680  1.00  0.00     0.087 C 
HETATM   17  C5  UNL     1       4.858   1.219   0.201  1.00  0.00     0.034 C 
HETATM   18  C4  UNL     1       5.093   1.656   1.633  1.00  0.00     0.017 C 
HETATM   19  C20 UNL     1       4.718   0.287   2.074  1.00  0.00     0.034 C 
BRANCH  18  20
HETATM   20  C2  UNL     1       6.453   2.148   1.864  1.00  0.00    -0.089 C 
HETATM   21  C1  UNL     1       7.448   1.509   2.437  1.00  0.00     0.014 C 
HETATM   22  C3  UNL     1       6.700   3.566   1.371  1.00  0.00     0.043 C 
ENDBRANCH  18  20
ENDBRANCH  12  16
ENDBRANCH   1  10
BRANCH   4  23
HETATM   23  N3  UNL     1      -2.886  -0.441  -0.440  1.00  0.00    -0.332 N 
HETATM   24  C12 UNL     1      -4.277  -0.190  -0.532  1.00  0.00     0.361 C 
HETATM   25  O2  UNL     1      -5.056  -0.972  -1.175  1.00  0.00    -0.238 OA
ATOM     26  H3  UNL     1      -2.295   0.205   0.082  1.00  0.00     0.165 HD
BRANCH  24  27
HETATM   27  O3  UNL     1      -4.882   0.905   0.061  1.00  0.00    -0.294 OA
BRANCH  27  28
HETATM   28  C13 UNL     1      -6.248   1.179  -0.012  1.00  0.00     0.061 C 
HETATM   29  C14 UNL     1      -6.477   2.472   0.779  1.00  0.00     0.046 C 
HETATM   30  C15 UNL     1      -6.726   1.484  -1.420  1.00  0.00     0.046 C 
HETATM   31  C16 UNL     1      -7.123   0.133   0.614  1.00  0.00     0.046 C 
ENDBRANCH  27  28
ENDBRANCH  24  27
ENDBRANCH   4  23
TORSDOF 6
