REMARK  5 active torsions:
REMARK  status: ('A' for Active; 'I' for Inactive)
REMARK    1  A    between atoms: C5_8  and  C6_10 
REMARK    2  A    between atoms: C6_10  and  N2_11 
REMARK    3  A    between atoms: C6_10  and  C11_20 
REMARK       I    between atoms: N2_11  and  C7_13 
REMARK       I    between atoms: C7_13  and  N3_15 
REMARK    4  A    between atoms: N3_15  and  C8_17 
REMARK       I    between atoms: C11_20  and  N4_22 
REMARK    5  A    between atoms: N4_22  and  C12_24 
ROOT
HETATM    1  C6  UNL     1       1.003   0.133   1.160  1.00  0.00     0.223 C 
ENDROOT
BRANCH   1   2
HETATM    2  C5  UNL     1       0.834  -1.080   2.042  1.00  0.00     0.170 C 
HETATM    3  C1  UNL     1       1.809  -1.147   3.148  1.00  0.00     0.022 C 
HETATM    4  N1  UNL     1       2.183  -0.108   3.811  1.00  0.00    -0.403 N 
HETATM    5  C2  UNL     1       2.221  -2.546   3.319  1.00  0.00     0.056 C 
ATOM      6  H12 UNL     1       2.857  -0.154   4.575  1.00  0.00     0.155 HD
ATOM      7  H11 UNL     1       1.897   0.864   3.692  1.00  0.00     0.155 HD
HETATM    8  C3  UNL     1       1.370  -3.347   2.394  1.00  0.00     0.010 C 
HETATM    9  C4  UNL     1       0.899  -2.365   1.321  1.00  0.00     0.053 C 
HETATM   10  F1  UNL     1      -0.419  -1.034   2.669  1.00  0.00    -0.234 F 
ENDBRANCH   1   2
BRANCH   1  11
HETATM   11  N2  UNL     1       2.337   0.105   0.591  1.00  0.00    -0.326 N 
HETATM   12  C7  UNL     1       3.249   1.173   0.660  1.00  0.00     0.317 C 
HETATM   13  O1  UNL     1       2.833   2.200   1.255  1.00  0.00    -0.247 OA
HETATM   14  N3  UNL     1       4.549   1.089   0.093  1.00  0.00    -0.339 N 
ATOM     15  H3  UNL     1       4.808   0.219  -0.373  1.00  0.00     0.164 HD
ATOM     16  H2  UNL     1       2.633  -0.744   0.110  1.00  0.00     0.165 HD
BRANCH  14  17
HETATM   17  C8  UNL     1       5.521   2.139   0.130  1.00  0.00     0.086 A 
HETATM   18  C9  UNL     1       6.620   2.288  -0.811  1.00  0.00     0.027 A 
HETATM   19  C10 UNL     1       6.918   1.668   0.546  1.00  0.00     0.027 A 
ENDBRANCH  14  17
ENDBRANCH   1  11
BRANCH   1  20
HETATM   20  C11 UNL     1      -0.030   0.066   0.085  1.00  0.00     0.244 C 
HETATM   21  O2  UNL     1       0.413  -0.154  -1.083  1.00  0.00    -0.271 OA
HETATM   22  N4  UNL     1      -1.388   0.240   0.371  1.00  0.00    -0.350 N 
ATOM     23  H4  UNL     1      -1.650   0.419   1.340  1.00  0.00     0.163 HD
BRANCH  22  24
HETATM   24  C12 UNL     1      -2.447   0.184  -0.615  1.00  0.00     0.034 C 
HETATM   25  C13 UNL     1      -2.522  -1.118  -1.342  1.00  0.00     0.035 C 
HETATM   26  C14 UNL     1      -3.662  -1.033  -2.333  1.00  0.00    -0.012 C 
HETATM   27  C15 UNL     1      -3.484   0.110  -3.314  1.00  0.00     0.009 C 
HETATM   28  C19 UNL     1      -4.991  -0.812  -1.644  1.00  0.00     0.009 C 
HETATM   29  C16 UNL     1      -3.415   1.417  -2.562  1.00  0.00    -0.012 C 
HETATM   30  C17 UNL     1      -4.673   1.675  -1.800  1.00  0.00     0.009 C 
HETATM   31  C21 UNL     1      -2.248   1.306  -1.597  1.00  0.00     0.035 C 
HETATM   32  C18 UNL     1      -4.916   0.490  -0.892  1.00  0.00    -0.012 C 
HETATM   33  C20 UNL     1      -3.774   0.418   0.069  1.00  0.00     0.035 C 
ENDBRANCH  22  24
ENDBRANCH   1  20
TORSDOF 5
