REMARK  8 active torsions:
REMARK  status: ('A' for Active; 'I' for Inactive)
REMARK    1  A    between atoms: C3_3  and  C5_5 
REMARK       I    between atoms: C5_5  and  N1_7 
REMARK    2  A    between atoms: N1_7  and  C6_9 
REMARK    3  A    between atoms: C9_12  and  C10_13 
REMARK    4  A    between atoms: C10_13  and  N2_15 
REMARK    5  A    between atoms: N2_15  and  N3_17 
REMARK    6  A    between atoms: N3_17  and  C11_19 
REMARK    7  A    between atoms: C11_19  and  N4_21 
REMARK       I    between atoms: N4_21  and  C12_23 
REMARK    8  A    between atoms: C12_23  and  C13_25 
ROOT
HETATM    1  C6  UNL     1      -1.621   0.560   0.357  1.00  0.00     0.035 A 
HETATM    2  C7  UNL     1      -1.245   1.864  -0.013  1.00  0.00     0.030 A 
HETATM    3  C8  UNL     1       0.011   2.354   0.214  1.00  0.00     0.017 A 
HETATM    4  C9  UNL     1       0.993   1.606   0.820  1.00  0.00     0.003 A 
HETATM    5  C14 UNL     1       0.653   0.329   1.190  1.00  0.00     0.017 A 
HETATM    6  C15 UNL     1      -0.635  -0.177   0.959  1.00  0.00     0.030 A 
ENDROOT
BRANCH   4   7
HETATM    7  C10 UNL     1       2.336   2.140   1.059  1.00  0.00     0.125 C 
HETATM    8  S1  UNL     1       2.627   2.890   2.454  1.00  0.00    -0.058 SA
BRANCH   7   9
HETATM    9  N2  UNL     1       3.320   1.975   0.057  1.00  0.00    -0.287 N 
ATOM     10  H2  UNL     1       3.061   1.489  -0.801  1.00  0.00     0.188 HD
BRANCH   9  11
HETATM   11  N3  UNL     1       4.624   2.444   0.185  1.00  0.00    -0.275 N 
ATOM     12  H3  UNL     1       4.773   3.370   0.585  1.00  0.00     0.189 HD
BRANCH  11  13
HETATM   13  C11 UNL     1       5.750   1.690  -0.216  1.00  0.00     0.193 C 
HETATM   14  S2  UNL     1       7.257   2.242  -0.064  1.00  0.00    -0.039 SA
BRANCH  13  15
HETATM   15  N4  UNL     1       5.522   0.397  -0.774  1.00  0.00    -0.302 N 
HETATM   16  C12 UNL     1       6.581  -0.437  -1.206  1.00  0.00     0.237 C 
HETATM   17  O2  UNL     1       7.768  -0.056  -1.110  1.00  0.00    -0.272 OA
ATOM     18  H4  UNL     1       4.563   0.062  -0.865  1.00  0.00     0.171 HD
BRANCH  16  19
HETATM   19  C13 UNL     1       6.292  -1.769  -1.776  1.00  0.00     0.217 C 
HETATM   20 CL1  UNL     1       6.070  -1.703  -3.540  1.00  0.00    -0.121 Cl
ENDBRANCH  16  19
ENDBRANCH  13  15
ENDBRANCH  11  13
ENDBRANCH   9  11
ENDBRANCH   7   9
ENDBRANCH   4   7
BRANCH   1  21
HETATM   21  N1  UNL     1      -2.935   0.122   0.067  1.00  0.00    -0.323 N 
HETATM   22  C5  UNL     1      -3.570  -0.974   0.677  1.00  0.00     0.251 C 
HETATM   23  O1  UNL     1      -3.049  -1.685   1.553  1.00  0.00    -0.268 OA
ATOM     24  H1  UNL     1      -3.461   0.640  -0.637  1.00  0.00     0.169 HD
BRANCH  22  25
HETATM   25  C3  UNL     1      -4.924  -1.321   0.278  1.00  0.00     0.002 C 
HETATM   26  C2  UNL     1      -5.531  -2.334   0.832  1.00  0.00    -0.019 C 
HETATM   27  C1  UNL     1      -6.908  -2.695   0.433  1.00  0.00     0.036 C 
HETATM   28  C4  UNL     1      -5.592  -0.506  -0.762  1.00  0.00     0.054 C 
ENDBRANCH  22  25
ENDBRANCH   1  21
TORSDOF 8
