REMARK  13 active torsions:
REMARK  status: ('A' for Active; 'I' for Inactive)
REMARK    1  A    between atoms: C4_4  and  C5_5 
REMARK    2  A    between atoms: C5_5  and  C6_6 
REMARK    3  A    between atoms: C6_6  and  C7_7 
REMARK    4  A    between atoms: C9_9  and  C10_10 
REMARK    5  A    between atoms: C10_10  and  C11_11 
REMARK    6  A    between atoms: C16_16  and  O1_17 
REMARK    7  A    between atoms: O1_17  and  C17_18 
REMARK    8  A    between atoms: C17_18  and  O2_19 
REMARK    9  A    between atoms: O2_19  and  C18_20 
REMARK   10  A    between atoms: C19_21  and  O3_22 
REMARK   11  A    between atoms: C21_25  and  O4_26 
REMARK   12  A    between atoms: C22_28  and  O5_29 
REMARK   13  A    between atoms: C23_31  and  O6_32 
ROOT
HETATM    1  C11 UNL     1       1.385   0.985  -1.432  1.00  0.00    -0.002 C 
HETATM    2  C12 UNL     1       0.340   1.096  -2.472  1.00  0.00    -0.005 C 
HETATM    3  C13 UNL     1      -0.771   0.139  -2.381  1.00  0.00     0.005 C 
HETATM    4  C14 UNL     1      -2.132   0.745  -2.656  1.00  0.00     0.003 C 
HETATM    5  C15 UNL     1      -2.452   1.914  -1.778  1.00  0.00     0.032 C 
HETATM    6  C16 UNL     1      -1.696   1.864  -0.472  1.00  0.00     0.129 C 
HETATM    7  C24 UNL     1      -0.457   2.709  -0.705  1.00  0.00     0.024 A 
HETATM    8  C25 UNL     1       0.891   2.227  -0.758  1.00  0.00     0.002 A 
HETATM    9  C26 UNL     1       0.068   2.492  -2.040  1.00  0.00     0.002 A 
ENDROOT
BRANCH   6  10
HETATM   10  O1  UNL     1      -2.491   2.473   0.493  1.00  0.00    -0.361 OA
BRANCH  10  11
HETATM   11  C17 UNL     1      -2.688   1.742   1.642  1.00  0.00     0.339 C 
BRANCH  11  12
HETATM   12  O2  UNL     1      -3.282   0.543   1.584  1.00  0.00    -0.356 OA
BRANCH  12  13
HETATM   13  C18 UNL     1      -4.550   0.409   1.112  1.00  0.00     0.184 C 
HETATM   14  C19 UNL     1      -5.550   0.133   2.254  1.00  0.00     0.152 C 
HETATM   15  C20 UNL     1      -6.917   0.381   1.660  1.00  0.00     0.069 C 
HETATM   16  C21 UNL     1      -7.203  -0.617   0.589  1.00  0.00     0.152 C 
HETATM   17  C22 UNL     1      -6.021  -1.371   0.081  1.00  0.00     0.178 C 
HETATM   18  C23 UNL     1      -4.758  -0.548  -0.014  1.00  0.00     0.180 C 
BRANCH  14  19
HETATM   19  O3  UNL     1      -5.441  -1.132   2.755  1.00  0.00    -0.393 OA
ATOM     20  H3  UNL     1      -6.057  -1.302   3.458  1.00  0.00     0.210 HD
ENDBRANCH  14  19
BRANCH  16  21
HETATM   21  O4  UNL     1      -7.891   0.050  -0.447  1.00  0.00    -0.393 OA
ATOM     22  H4  UNL     1      -8.073  -0.586  -1.129  1.00  0.00     0.210 HD
ENDBRANCH  16  21
BRANCH  17  23
HETATM   23  O5  UNL     1      -6.305  -1.815  -1.232  1.00  0.00    -0.390 OA
ATOM     24  H5  UNL     1      -5.552  -2.295  -1.556  1.00  0.00     0.210 HD
ENDBRANCH  17  23
BRANCH  18  25
HETATM   25  O6  UNL     1      -3.686  -1.438  -0.165  1.00  0.00    -0.390 OA
ATOM     26  H6  UNL     1      -3.818  -2.047  -0.882  1.00  0.00     0.210 HD
ENDBRANCH  18  25
ENDBRANCH  12  13
ENDBRANCH  11  12
ENDBRANCH  10  11
ENDBRANCH   6  10
BRANCH   1  27
HETATM   27  C10 UNL     1       1.468  -0.240  -0.585  1.00  0.00     0.033 C 
BRANCH  27  28
HETATM   28  C9  UNL     1       2.613  -0.057   0.348  1.00  0.00    -0.024 C 
HETATM   29  C7  UNL     1       3.652  -0.876   0.375  1.00  0.00    -0.087 C 
HETATM   30  C8  UNL     1       3.687  -2.031  -0.562  1.00  0.00     0.043 C 
BRANCH  29  31
HETATM   31  C6  UNL     1       4.798  -0.700   1.301  1.00  0.00     0.037 C 
BRANCH  31  32
HETATM   32  C5  UNL     1       6.103  -0.518   0.559  1.00  0.00     0.031 C 
BRANCH  32  33
HETATM   33  C4  UNL     1       7.213  -0.345   1.534  1.00  0.00    -0.024 C 
HETATM   34  C2  UNL     1       8.248  -1.176   1.586  1.00  0.00    -0.091 C 
HETATM   35  C1  UNL     1       9.329  -0.980   2.558  1.00  0.00     0.042 C 
HETATM   36  C3  UNL     1       8.291  -2.310   0.642  1.00  0.00     0.042 C 
ENDBRANCH  32  33
ENDBRANCH  31  32
ENDBRANCH  29  31
ENDBRANCH  27  28
ENDBRANCH   1  27
TORSDOF 13
