REMARK  13 active torsions:
REMARK  status: ('A' for Active; 'I' for Inactive)
REMARK    1  A    between atoms: C3_3  and  C4_4 
REMARK    2  A    between atoms: C4_4  and  N1_7 
REMARK       I    between atoms: N1_7  and  C7_9 
REMARK    3  A    between atoms: C7_9  and  C8_11 
REMARK    4  A    between atoms: C13_16  and  C14_17 
REMARK    5  A    between atoms: C14_17  and  N2_18 
REMARK    6  A    between atoms: C15_19  and  O2_20 
REMARK    7  A    between atoms: C16_22  and  C17_23 
REMARK    8  A    between atoms: C17_23  and  O3_24 
REMARK    9  A    between atoms: C17_23  and  N3_26 
REMARK   10  A    between atoms: N3_26  and  C18_27 
REMARK   11  A    between atoms: N3_26  and  C21_30 
REMARK   12  A    between atoms: C18_27  and  C19_28 
REMARK   13  A    between atoms: C21_30  and  C22_31 
ROOT
HETATM    1  C1  UNL     1       7.616   2.934  -1.838  1.00  0.00     0.112 C 
HETATM    2  C2  UNL     1       7.126   1.846  -0.986  1.00  0.00    -0.108 C 
HETATM    3  C3  UNL     1       6.722   0.962  -0.269  1.00  0.00    -0.076 C 
ENDROOT
BRANCH   3   4
HETATM    4  C4  UNL     1       6.228  -0.092   0.617  1.00  0.00     0.089 C 
HETATM    5  C5  UNL     1       6.482   0.280   2.085  1.00  0.00     0.053 C 
HETATM    6  C6  UNL     1       7.072  -1.318   0.352  1.00  0.00     0.053 C 
BRANCH   4   7
HETATM    7  N1  UNL     1       4.819  -0.359   0.413  1.00  0.00    -0.341 N 
HETATM    8  C7  UNL     1       3.822   0.618   0.586  1.00  0.00     0.223 C 
HETATM    9  O1  UNL     1       4.267   1.774   0.941  1.00  0.00    -0.273 OA
ATOM     10  H1  UNL     1       4.537  -1.298   0.131  1.00  0.00     0.164 HD
BRANCH   8  11
HETATM   11  C8  UNL     1       2.354   0.409   0.396  1.00  0.00     0.083 C 
HETATM   12  C9  UNL     1       1.868  -0.583   1.385  1.00  0.00     0.014 C 
HETATM   13  C10 UNL     1       1.996  -2.004   1.010  1.00  0.00     0.001 C 
HETATM   14  C11 UNL     1       1.607  -2.249  -0.397  1.00  0.00     0.000 C 
HETATM   15  C12 UNL     1       2.071  -1.292  -1.420  1.00  0.00     0.007 C 
HETATM   16  C13 UNL     1       2.006   0.159  -1.021  1.00  0.00     0.017 C 
BRANCH  16  17
HETATM   17  C14 UNL     1       0.851   0.920  -1.600  1.00  0.00     0.141 C 
BRANCH  17  18
HETATM   18  N2  UNL     1      -0.435   0.782  -1.033  1.00  0.00    -0.278 N 
HETATM   19  C15 UNL     1      -1.363  -0.133  -1.349  1.00  0.00     0.174 A 
HETATM   20  C16 UNL     1      -2.519   0.065  -0.599  1.00  0.00     0.124 A 
HETATM   21  N4  UNL     1      -2.262   1.120   0.175  1.00  0.00    -0.304 N 
HETATM   22  C24 UNL     1      -0.997   1.551  -0.093  1.00  0.00     0.329 A 
ATOM     23  H4  UNL     1      -2.903   1.534   0.852  1.00  0.00     0.170 HD
HETATM   24  O4  UNL     1      -0.533   2.567   0.536  1.00  0.00    -0.246 OA
BRANCH  19  25
HETATM   25  O2  UNL     1      -1.294  -1.175  -2.280  1.00  0.00    -0.344 OA
ATOM     26  H2  UNL     1      -1.951  -1.823  -2.504  1.00  0.00     0.219 HD
ENDBRANCH  19  25
BRANCH  20  27
HETATM   27  C17 UNL     1      -3.772  -0.718  -0.619  1.00  0.00     0.412 C 
BRANCH  27  28
HETATM   28  O3  UNL     1      -4.094  -0.958  -1.956  1.00  0.00    -0.363 OA
ATOM     29  H3  UNL     1      -4.900  -1.461  -1.969  1.00  0.00     0.212 HD
ENDBRANCH  27  28
BRANCH  27  30
HETATM   30  N3  UNL     1      -4.822   0.054   0.035  1.00  0.00     0.123 N 
BRANCH  30  31
HETATM   31  C18 UNL     1      -6.043  -0.733   0.144  1.00  0.00     0.276 C 
BRANCH  31  32
HETATM   32  C19 UNL     1      -5.881  -1.890   1.105  1.00  0.00     0.026 C 
HETATM   33  C20 UNL     1      -7.233  -2.616   1.117  1.00  0.00     0.007 C 
ENDBRANCH  31  32
ENDBRANCH  30  31
BRANCH  30  34
HETATM   34  C21 UNL     1      -5.174   1.159  -0.863  1.00  0.00     0.276 C 
BRANCH  34  35
HETATM   35  C22 UNL     1      -6.233   2.056  -0.321  1.00  0.00     0.026 C 
HETATM   36  C23 UNL     1      -5.840   2.710   0.998  1.00  0.00     0.007 C 
ENDBRANCH  34  35
ENDBRANCH  30  34
ENDBRANCH  27  30
ENDBRANCH  20  27
ENDBRANCH  17  18
ENDBRANCH  16  17
ENDBRANCH   8  11
ENDBRANCH   4   7
ENDBRANCH   3   4
TORSDOF 13
