REMARK  12 active torsions:
REMARK  status: ('A' for Active; 'I' for Inactive)
REMARK    1  A    between atoms: N1_1  and  C1_4 
REMARK    2  A    between atoms: C4_9  and  N3_10 
REMARK    3  A    between atoms: C6_12  and  C7_13 
REMARK    4  A    between atoms: C11_21  and  O1_22 
REMARK    5  A    between atoms: N7_26  and  O2_27 
REMARK    6  A    between atoms: N9_31  and  C12_32 
REMARK    7  A    between atoms: C12_32  and  C13_33 
REMARK    8  A    between atoms: C13_33  and  O3_34 
REMARK    9  A    between atoms: C13_33  and  C14_36 
REMARK   10  A    between atoms: C13_33  and  C15_39 
REMARK   11  A    between atoms: C14_36  and  O4_37 
REMARK   12  A    between atoms: C15_39  and  O5_40 
ROOT
HETATM    1  C1  UNL     1      -0.737   2.476   1.913  1.00  0.00     0.679 A 
HETATM    2  N2  UNL     1      -1.857   1.771   1.609  1.00  0.00    -0.173 N 
ATOM      3  H2  UNL     1      -2.773   2.185   1.780  1.00  0.00     0.186 HD
HETATM    4  C2  UNL     1      -1.777   0.543   1.089  1.00  0.00     0.174 A 
HETATM    5  C3  UNL     1      -0.510  -0.003   0.864  1.00  0.00     0.173 A 
HETATM    6  C4  UNL     1       0.620   0.715   1.175  1.00  0.00     0.164 A 
HETATM    7  N6  UNL     1       0.494   1.943   1.694  1.00  0.00    -0.174 N 
ATOM      8  H6  UNL     1       1.328   2.482   1.927  1.00  0.00     0.186 HD
HETATM    9  N7  UNL     1      -0.692  -1.228   0.345  1.00  0.00    -0.141 N 
HETATM   10  N8  UNL     1      -1.984  -1.409   0.261  1.00  0.00    -0.212 N 
ATOM     11  H8  UNL     1      -2.407  -2.262  -0.103  1.00  0.00     0.211 HD
HETATM   12  N9  UNL     1      -2.684  -0.384   0.692  1.00  0.00    -0.255 N 
ENDROOT
BRANCH   6  13
HETATM   13  N3  UNL     1       1.896   0.150   0.942  1.00  0.00    -0.285 N 
HETATM   14  C5  UNL     1       2.718   0.355  -0.115  1.00  0.00     0.116 A 
HETATM   15  C6  UNL     1       3.866  -0.387   0.050  1.00  0.00     0.028 A 
HETATM   16  C10 UNL     1       3.766  -1.069   1.227  1.00  0.00     0.073 A 
HETATM   17  C11 UNL     1       2.544  -0.727   1.765  1.00  0.00     0.148 A 
BRANCH  15  18
HETATM   18  C7  UNL     1       5.009  -0.437  -0.885  1.00  0.00     0.108 C 
HETATM   19  N4  UNL     1       5.076   0.220  -1.993  1.00  0.00    -0.374 N 
HETATM   20  C8  UNL     1       6.322  -0.040  -2.682  1.00  0.00     0.141 C 
ATOM     21  H4  UNL     1       4.345   0.842  -2.339  1.00  0.00     0.161 HD
HETATM   22  C9  UNL     1       6.940  -1.223  -1.980  1.00  0.00     0.141 C 
HETATM   23  N5  UNL     1       6.203  -1.208  -0.714  1.00  0.00    -0.374 N 
ATOM     24  H5  UNL     1       6.493  -1.671   0.148  1.00  0.00     0.161 HD
ENDBRANCH  15  18
BRANCH  17  25
HETATM   25  O1  UNL     1       2.053  -1.212   2.974  1.00  0.00    -0.346 OA
ATOM     26  H1  UNL     1       2.504  -1.822   3.546  1.00  0.00     0.219 HD
ENDBRANCH  17  25
ENDBRANCH   6  13
BRANCH   9  27
HETATM   27  O2  UNL     1       0.335  -2.087  -0.014  1.00  0.00    -0.266 OA
ATOM     28  H2  UNL     1       0.206  -2.954  -0.381  1.00  0.00     0.247 HD
ENDBRANCH   9  27
BRANCH   1  29
HETATM   29  N1  UNL     1      -0.848   3.654   2.412  1.00  0.00    -0.234 N 
ATOM     30  H12 UNL     1      -1.772   4.054   2.576  1.00  0.00     0.174 HD
ATOM     31  H11 UNL     1      -0.007   4.184   2.640  1.00  0.00     0.174 HD
ENDBRANCH   1  29
BRANCH  12  32
HETATM   32  C12 UNL     1      -4.133  -0.229   0.751  1.00  0.00     0.194 C 
BRANCH  32  33
HETATM   33  C13 UNL     1      -4.681   0.376  -0.508  1.00  0.00     0.118 C 
BRANCH  33  34
HETATM   34  O3  UNL     1      -4.141   1.637  -0.745  1.00  0.00    -0.384 OA
ATOM     35  H3  UNL     1      -4.488   2.020  -1.542  1.00  0.00     0.210 HD
ENDBRANCH  33  34
BRANCH  33  36
HETATM   36  C14 UNL     1      -4.431  -0.534  -1.697  1.00  0.00     0.206 C 
BRANCH  36  37
HETATM   37  O4  UNL     1      -4.951  -1.791  -1.497  1.00  0.00    -0.398 OA
ATOM     38  H4  UNL     1      -4.795  -2.360  -2.241  1.00  0.00     0.209 HD
ENDBRANCH  36  37
ENDBRANCH  33  36
BRANCH  33  39
HETATM   39  C15 UNL     1      -6.180   0.541  -0.393  1.00  0.00     0.206 C 
BRANCH  39  40
HETATM   40  O5  UNL     1      -6.782  -0.705  -0.153  1.00  0.00    -0.398 OA
ATOM     41  H5  UNL     1      -7.724  -0.601  -0.081  1.00  0.00     0.209 HD
ENDBRANCH  39  40
ENDBRANCH  33  39
ENDBRANCH  32  33
ENDBRANCH  12  32
TORSDOF 12
