REMARK  11 active torsions:
REMARK  status: ('A' for Active; 'I' for Inactive)
REMARK    1  A    between atoms: N1_1  and  C1_4 
REMARK    2  A    between atoms: C4_9  and  C5_10 
REMARK    3  A    between atoms: C6_12  and  N3_13 
REMARK    4  A    between atoms: C7_18  and  O2_19 
REMARK    5  A    between atoms: C9_25  and  N7_26 
REMARK    6  A    between atoms: N7_26  and  O3_27 
REMARK    7  A    between atoms: O3_27  and  C10_28 
REMARK    8  A    between atoms: C10_28  and  C11_29 
REMARK    9  A    between atoms: C11_29  and  O4_30 
REMARK   10  A    between atoms: C11_29  and  C12_32 
REMARK   11  A    between atoms: C12_32  and  N8_33 
ROOT
HETATM    1  C1  UNL     1       3.064   0.309  -2.080  1.00  0.00     0.681 A 
HETATM    2  N2  UNL     1       3.486   0.398  -0.827  1.00  0.00    -0.174 N 
ATOM      3  H2  UNL     1       4.412   0.767  -0.610  1.00  0.00     0.186 HD
HETATM    4  C2  UNL     1       2.661  -0.011   0.148  1.00  0.00     0.158 A 
HETATM    5  C3  UNL     1       2.828  -0.090   1.526  1.00  0.00     0.030 A 
HETATM    6  C4  UNL     1       3.939   0.055   2.263  1.00  0.00     0.058 C 
HETATM    7  C8  UNL     1       1.633  -0.617   2.009  1.00  0.00     0.123 A 
HETATM    8  N5  UNL     1       0.884  -0.812   0.952  1.00  0.00    -0.299 N 
ATOM      9  H5  UNL     1      -0.057  -1.201   1.010  1.00  0.00     0.186 HD
HETATM   10  N6  UNL     1       1.433  -0.471  -0.180  1.00  0.00    -0.193 N 
HETATM   11  C9  UNL     1       0.992  -0.546  -1.498  1.00  0.00     0.327 A 
HETATM   12  N11 UNL     1       1.869  -0.154  -2.469  1.00  0.00    -0.145 N 
ATOM     13  H11 UNL     1       1.622  -0.212  -3.457  1.00  0.00     0.188 HD
ENDROOT
BRANCH  11  14
HETATM   14  N7  UNL     1      -0.217  -0.614  -1.527  1.00  0.00    -0.240 NA
BRANCH  14  15
HETATM   15  O3  UNL     1      -1.399  -0.659  -1.251  1.00  0.00    -0.203 OA
BRANCH  15  16
HETATM   16  C10 UNL     1      -2.229  -1.366  -0.317  1.00  0.00     0.251 C 
BRANCH  16  17
HETATM   17  C11 UNL     1      -2.891  -0.063   0.341  1.00  0.00     0.163 C 
BRANCH  17  18
HETATM   18  O4  UNL     1      -1.857   0.404   1.198  1.00  0.00    -0.392 OA
ATOM     19  H4  UNL     1      -2.249   1.176   1.588  1.00  0.00     0.210 HD
ENDBRANCH  17  18
BRANCH  17  20
HETATM   20  C12 UNL     1      -4.084  -0.261   1.117  1.00  0.00     0.159 C 
BRANCH  20  21
HETATM   21  N8  UNL     1      -5.227  -0.001   0.255  1.00  0.00    -0.352 N 
HETATM   22  C13 UNL     1      -5.446   1.329  -0.365  1.00  0.00     0.145 C 
HETATM   23  C14 UNL     1      -5.847   0.788  -1.751  1.00  0.00     0.142 C 
HETATM   24  N9  UNL     1      -6.688  -0.345  -1.344  1.00  0.00    -0.363 N 
HETATM   25  C15 UNL     1      -6.285  -0.766  -0.163  1.00  0.00     0.186 C 
ATOM     26  H9  UNL     1      -7.456  -0.740  -1.886  1.00  0.00     0.162 HD
HETATM   27  N10 UNL     1      -6.853  -1.869   0.579  1.00  0.00    -0.064 NA
ENDBRANCH  20  21
ENDBRANCH  17  20
ENDBRANCH  16  17
ENDBRANCH  15  16
ENDBRANCH  14  15
ENDBRANCH  11  14
BRANCH   1  28
HETATM   28  N1  UNL     1       3.925   0.583  -3.038  1.00  0.00    -0.234 N 
ATOM     29  H12 UNL     1       4.835   0.936  -2.742  1.00  0.00     0.174 HD
ATOM     30  H11 UNL     1       3.600   0.514  -4.002  1.00  0.00     0.174 HD
ENDBRANCH   1  28
BRANCH   6  31
HETATM   31  C5  UNL     1       5.215   0.290   1.607  1.00  0.00     0.131 A 
HETATM   32  O1  UNL     1       5.958   1.328   1.723  1.00  0.00    -0.275 OA
HETATM   33  C6  UNL     1       7.045   1.173   0.961  1.00  0.00     0.224 A 
HETATM   34  N4  UNL     1       6.982  -0.010   0.310  1.00  0.00    -0.300 N 
HETATM   35  C7  UNL     1       5.840  -0.597   0.720  1.00  0.00     0.178 A 
ATOM     36  H4  UNL     1       7.660  -0.382  -0.355  1.00  0.00     0.171 HD
BRANCH  33  37
HETATM   37  N3  UNL     1       7.984   2.020   0.885  1.00  0.00    -0.365 N 
ATOM     38  H32 UNL     1       8.032   2.913   1.376  1.00  0.00     0.159 HD
ATOM     39  H31 UNL     1       8.814   1.902   0.303  1.00  0.00     0.159 HD
ENDBRANCH  33  37
BRANCH  35  40
HETATM   40  O2  UNL     1       5.405  -1.833   0.370  1.00  0.00    -0.344 OA
ATOM     41  H2  UNL     1       5.829  -2.434  -0.231  1.00  0.00     0.219 HD
ENDBRANCH  35  40
ENDBRANCH   6  31
TORSDOF 11
