REMARK  8 active torsions:
REMARK  status: ('A' for Active; 'I' for Inactive)
REMARK    1  A    between atoms: N3_7  and  N4_8 
REMARK    2  A    between atoms: C3_12  and  C4_13 
REMARK    3  A    between atoms: C4_13  and  O1_14 
REMARK    4  A    between atoms: C4_13  and  C5_16 
REMARK       I    between atoms: C5_16  and  N5_18 
REMARK       I    between atoms: N5_18  and  C6_20 
REMARK    5  A    between atoms: C6_20  and  C7_22 
REMARK    6  A    between atoms: C7_22  and  S1_23 
REMARK    7  A    between atoms: S1_23  and  C8_24 
REMARK    8  A    between atoms: N11_36  and  N12_37 
ROOT
HETATM    1  N1  UNL     1      -6.131  -2.191   0.739  1.00  0.00    -0.230 N 
ATOM      2  H11 UNL     1      -6.871  -1.899   1.377  1.00  0.00     0.174 HD
ATOM      3  H12 UNL     1      -6.222  -3.132   0.356  1.00  0.00     0.174 HD
HETATM    4  C1  UNL     1      -5.146  -1.422   0.436  1.00  0.00     0.730 A 
HETATM    5  N2  UNL     1      -4.115  -1.828  -0.453  1.00  0.00    -0.107 N 
ATOM      6  H2  UNL     1      -4.156  -2.760  -0.865  1.00  0.00     0.208 HD
HETATM    7  N3  UNL     1      -3.042  -0.986  -0.781  1.00  0.00    -0.168 N 
HETATM    8  C2  UNL     1      -2.902   0.199  -0.310  1.00  0.00     0.197 A 
HETATM    9  C3  UNL     1      -1.942   1.276  -0.450  1.00  0.00     0.048 A 
HETATM   10  C10 UNL     1      -2.373   2.292   0.312  1.00  0.00     0.123 A 
HETATM   11  N9  UNL     1      -3.570   1.965   0.966  1.00  0.00    -0.286 N 
ATOM     12  H9  UNL     1      -4.093   2.570   1.600  1.00  0.00     0.188 HD
HETATM   13  N10 UNL     1      -3.916   0.674   0.598  1.00  0.00    -0.140 N 
HETATM   14  N11 UNL     1      -5.018  -0.103   0.973  1.00  0.00    -0.002 N 
ENDROOT
BRANCH   9  15
HETATM   15  C4  UNL     1      -0.688   1.304  -1.181  1.00  0.00     0.248 C 
BRANCH  15  16
HETATM   16  O1  UNL     1      -0.342   2.602  -1.636  1.00  0.00    -0.381 OA
ATOM     17  H1  UNL     1       0.479   2.620  -2.114  1.00  0.00     0.211 HD
ENDBRANCH  15  16
BRANCH  15  18
HETATM   18  C5  UNL     1       0.492   0.729  -0.533  1.00  0.00     0.257 C 
HETATM   19  O2  UNL     1       0.467  -0.347   0.074  1.00  0.00    -0.270 OA
HETATM   20  N5  UNL     1       1.755   1.396  -0.572  1.00  0.00    -0.294 N 
HETATM   21  C6  UNL     1       2.929   0.897   0.033  1.00  0.00     0.233 C 
ATOM     22  H5  UNL     1       1.812   2.286  -1.067  1.00  0.00     0.171 HD
HETATM   23  O3  UNL     1       3.990   1.594  -0.084  1.00  0.00    -0.272 OA
BRANCH  21  24
HETATM   24  C7  UNL     1       2.994  -0.378   0.786  1.00  0.00     0.184 C 
BRANCH  24  25
HETATM   25  S1  UNL     1       4.703  -0.651   1.376  1.00  0.00    -0.099 SA
BRANCH  25  26
HETATM   26  C8  UNL     1       5.804  -0.915  -0.048  1.00  0.00     0.119 A 
HETATM   27  N6  UNL     1       5.312  -0.888  -1.287  1.00  0.00    -0.304 N 
HETATM   28  S2  UNL     1       6.643  -1.171  -2.265  1.00  0.00     0.069 SA
ATOM     29  H6  UNL     1       4.346  -0.731  -1.574  1.00  0.00     0.176 HD
HETATM   30  N7  UNL     1       7.807  -1.320  -1.071  1.00  0.00    -0.298 N 
HETATM   31  C9  UNL     1       7.138  -1.146   0.065  1.00  0.00     0.157 A 
ATOM     32  H7  UNL     1       8.804  -1.503  -1.188  1.00  0.00     0.177 HD
HETATM   33  N8  UNL     1       7.814  -1.204   1.354  1.00  0.00    -0.079 NA
ENDBRANCH  25  26
ENDBRANCH  24  25
ENDBRANCH  21  24
ENDBRANCH  15  18
ENDBRANCH   9  15
BRANCH   7  34
HETATM   34  N4  UNL     1      -2.133  -1.477  -1.697  1.00  0.00    -0.322 N 
ATOM     35  H42 UNL     1      -2.244  -2.419  -2.071  1.00  0.00     0.179 HD
ATOM     36  H41 UNL     1      -1.353  -0.865  -1.935  1.00  0.00     0.179 HD
ENDBRANCH   7  34
BRANCH  14  37
HETATM   37  N12 UNL     1      -5.954   0.410   1.845  1.00  0.00    -0.307 N 
ATOM     38 2H12 UNL     1      -6.757  -0.156   2.118  1.00  0.00     0.179 HD
ATOM     39 1H12 UNL     1      -5.863   1.351   2.228  1.00  0.00     0.179 HD
ENDBRANCH  14  37
TORSDOF 8
