REMARK  9 active torsions:
REMARK  status: ('A' for Active; 'I' for Inactive)
REMARK    1  A    between atoms: S1_2  and  C2_3 
REMARK    2  A    between atoms: C3_4  and  C4_5 
REMARK    3  A    between atoms: C5_14  and  O3_15 
REMARK    4  A    between atoms: C5_14  and  N4_17 
REMARK    5  A    between atoms: N4_17  and  N5_19 
REMARK    6  A    between atoms: C6_21  and  C7_22 
REMARK    7  A    between atoms: N9_33  and  N10_35 
REMARK    8  A    between atoms: N10_35  and  N11_37 
REMARK    9  A    between atoms: C11_40  and  O5_41 
ROOT
HETATM    1  C7  UNL     1       2.618   0.360  -0.835  1.00  0.00     0.158 C 
HETATM    2  N6  UNL     1       3.200   1.651  -0.555  1.00  0.00    -0.361 N 
ATOM      3  H6  UNL     1       2.954   2.445  -1.146  1.00  0.00     0.162 HD
HETATM    4  C8  UNL     1       4.102   1.843   0.516  1.00  0.00     0.155 A 
HETATM    5  N7  UNL     1       4.435   2.859   1.331  1.00  0.00    -0.223 N 
ATOM      6  H7  UNL     1       4.031   3.795   1.306  1.00  0.00     0.198 HD
HETATM    7  O4  UNL     1       5.367   2.451   2.166  1.00  0.00    -0.155 OA
HETATM    8  N8  UNL     1       5.663   1.191   1.928  1.00  0.00    -0.236 N 
ATOM      9  H8  UNL     1       6.350   0.626   2.426  1.00  0.00     0.197 HD
HETATM   10  C9  UNL     1       4.894   0.791   0.911  1.00  0.00     0.128 A 
HETATM   11  C10 UNL     1       4.747  -0.474   0.185  1.00  0.00     0.090 C 
HETATM   12  N9  UNL     1       5.792  -1.254   0.041  1.00  0.00    -0.286 N 
ATOM     13  H9  UNL     1       6.708  -1.010   0.418  1.00  0.00     0.188 HD
HETATM   14  C11 UNL     1       3.414  -0.805  -0.350  1.00  0.00     0.199 C 
ENDROOT
BRANCH   1  15
HETATM   15  C6  UNL     1       1.273   0.376  -0.192  1.00  0.00     0.108 C 
HETATM   16  N5  UNL     1       0.213   0.684  -0.848  1.00  0.00    -0.314 N 
ATOM     17  H5  UNL     1       0.289   0.926  -1.836  1.00  0.00     0.185 HD
BRANCH  16  18
HETATM   18  N4  UNL     1      -1.034   0.694  -0.238  1.00  0.00    -0.279 N 
ATOM     19  H4  UNL     1      -1.292   1.440   0.408  1.00  0.00     0.185 HD
BRANCH  18  20
HETATM   20  C5  UNL     1      -1.966  -0.385  -0.540  1.00  0.00     0.280 C 
HETATM   21  C2  UNL     1      -3.240  -0.136   0.249  1.00  0.00     0.092 C 
HETATM   22  C3  UNL     1      -4.353  -0.743  -0.122  1.00  0.00     0.145 C 
HETATM   23  N1  UNL     1      -4.218  -1.469  -1.373  1.00  0.00    -0.279 N 
HETATM   24  N2  UNL     1      -3.411  -0.927  -2.354  1.00  0.00    -0.242 N 
ATOM     25  H1  UNL     1      -4.705  -2.353  -1.522  1.00  0.00     0.189 HD
HETATM   26  N3  UNL     1      -2.227  -0.380  -1.940  1.00  0.00    -0.264 N 
ATOM     27  H2  UNL     1      -3.684  -0.934  -3.337  1.00  0.00     0.208 HD
ATOM     28  H3  UNL     1      -1.561   0.014  -2.605  1.00  0.00     0.187 HD
BRANCH  21  29
HETATM   29  S1  UNL     1      -3.142   0.822   1.706  1.00  0.00    -0.129 SA
HETATM   30  C1  UNL     1      -4.171   2.287   1.592  1.00  0.00     0.095 C 
ENDBRANCH  21  29
BRANCH  22  31
HETATM   31  C4  UNL     1      -5.601  -0.727   0.584  1.00  0.00     0.229 C 
HETATM   32  O1  UNL     1      -6.588  -1.358   0.075  1.00  0.00    -0.643 OA
HETATM   33  O2  UNL     1      -5.833  -0.102   1.756  1.00  0.00    -0.643 OA
ENDBRANCH  22  31
BRANCH  20  34
HETATM   34  O3  UNL     1      -1.473  -1.605  -0.080  1.00  0.00    -0.348 OA
ATOM     35  H3  UNL     1      -0.676  -1.761  -0.573  1.00  0.00     0.215 HD
ENDBRANCH  20  34
ENDBRANCH  18  20
ENDBRANCH  16  18
ENDBRANCH   1  15
BRANCH  14  36
HETATM   36  O5  UNL     1       2.709  -1.429   0.706  1.00  0.00    -0.387 OA
ATOM     37  H5  UNL     1       3.216  -2.171   1.015  1.00  0.00     0.210 HD
ENDBRANCH  14  36
BRANCH  12  38
HETATM   38  N10 UNL     1       5.568  -2.441  -0.663  1.00  0.00    -0.249 N 
ATOM     39  H10 UNL     1       5.006  -3.176  -0.234  1.00  0.00     0.207 HD
BRANCH  38  40
HETATM   40  N11 UNL     1       6.053  -2.627  -1.838  1.00  0.00    -0.331 N 
ATOM     41 2H11 UNL     1       6.612  -1.881  -2.253  1.00  0.00     0.178 HD
ATOM     42 1H11 UNL     1       5.890  -3.493  -2.352  1.00  0.00     0.178 HD
ENDBRANCH  38  40
ENDBRANCH  12  38
TORSDOF 9
