REMARK  11 active torsions:
REMARK  status: ('A' for Active; 'I' for Inactive)
REMARK    1  A    between atoms: C2_2  and  C3_4 
REMARK    2  A    between atoms: N1_6  and  C5_7 
REMARK    3  A    between atoms: C5_7  and  C6_8 
REMARK    4  A    between atoms: C6_8  and  O2_9 
REMARK    5  A    between atoms: C6_8  and  N2_11 
REMARK    6  A    between atoms: N2_11  and  C7_13 
REMARK    7  A    between atoms: C8_16  and  C9_17 
REMARK    8  A    between atoms: C9_17  and  O3_18 
REMARK    9  A    between atoms: C9_17  and  O4_20 
REMARK   10  A    between atoms: C13_31  and  N7_32 
REMARK   11  A    between atoms: C14_39  and  C15_40 
ROOT
HETATM    1  C5  UNL     1      -1.042  -0.995  -0.654  1.00  0.00     0.297 C 
HETATM    2  C12 UNL     1      -1.303  -0.904  -2.230  1.00  0.00     0.308 C 
HETATM    3  N6  UNL     1      -0.709  -2.101  -2.723  1.00  0.00    -0.017 N 
ATOM      4  H61 UNL     1       0.308  -2.095  -2.803  1.00  0.00     0.281 HD
ATOM      5  H62 UNL     1      -0.865  -2.303  -3.711  1.00  0.00     0.281 HD
HETATM    6  C13 UNL     1      -1.260  -3.045  -1.794  1.00  0.00     0.581 C 
HETATM    7  N8  UNL     1      -1.237  -2.378  -0.537  1.00  0.00     0.015 N 
ATOM      8  H81 UNL     1      -2.080  -2.583  -0.001  1.00  0.00     0.285 HD
ATOM      9  H82 UNL     1      -0.541  -2.793   0.082  1.00  0.00     0.285 HD
ENDROOT
BRANCH   1  10
HETATM   10  N1  UNL     1      -1.962  -0.040  -0.124  1.00  0.00    -0.294 N 
HETATM   11  C4  UNL     1      -2.659   0.838  -0.928  1.00  0.00     0.129 A 
HETATM   12  C3  UNL     1      -3.352   1.731  -0.132  1.00  0.00     0.095 A 
HETATM   13  N10 UNL     1      -3.047   1.370   1.112  1.00  0.00    -0.334 N 
HETATM   14  C14 UNL     1      -2.214   0.292   1.121  1.00  0.00     0.177 A 
ATOM     15  H10 UNL     1      -3.392   1.839   1.949  1.00  0.00     0.168 HD
BRANCH  12  16
HETATM   16  C2  UNL     1      -4.101   2.893  -0.617  1.00  0.00     0.173 C 
HETATM   17  C1  UNL     1      -4.561   3.990   0.246  1.00  0.00     0.098 C 
HETATM   18  O1  UNL     1      -4.338   2.935  -1.871  1.00  0.00    -0.291 OA
ENDBRANCH  12  16
BRANCH  14  19
HETATM   19  C15 UNL     1      -1.863  -0.316   2.378  1.00  0.00     0.299 C 
HETATM   20  N9  UNL     1      -2.039   0.396   3.632  1.00  0.00    -0.054 NA
HETATM   21  O5  UNL     1      -1.403  -1.463   2.593  1.00  0.00    -0.268 OA
ENDBRANCH  14  19
ENDBRANCH   1  10
BRANCH   1  22
HETATM   22  C6  UNL     1       0.367  -0.576  -0.562  1.00  0.00     0.178 C 
BRANCH  22  23
HETATM   23  O2  UNL     1       0.798   0.200  -1.546  1.00  0.00    -0.346 OA
ATOM     24  H2  UNL     1       1.707   0.470  -1.487  1.00  0.00     0.219 HD
ENDBRANCH  22  23
BRANCH  22  25
HETATM   25  N2  UNL     1       1.266  -0.905   0.432  1.00  0.00    -0.321 N 
ATOM     26  H2  UNL     1       0.928  -1.565   1.132  1.00  0.00     0.169 HD
BRANCH  25  27
HETATM   27  C7  UNL     1       2.613  -0.443   0.613  1.00  0.00     0.134 A 
HETATM   28  N3  UNL     1       3.184   0.486  -0.113  1.00  0.00    -0.326 N 
HETATM   29  C8  UNL     1       4.464   0.887   0.224  1.00  0.00     0.139 A 
ATOM     30  H3  UNL     1       2.697   0.903  -0.906  1.00  0.00     0.169 HD
HETATM   31  N4  UNL     1       5.120   0.349   1.264  1.00  0.00    -0.350 N 
HETATM   32  C10 UNL     1       4.579  -0.601   2.035  1.00  0.00     0.120 A 
ATOM     33  H4  UNL     1       6.063   0.676   1.474  1.00  0.00     0.166 HD
HETATM   34  C11 UNL     1       3.307  -1.007   1.708  1.00  0.00     0.105 A 
HETATM   35  N5  UNL     1       2.733  -1.991   2.533  1.00  0.00    -0.097 NA
BRANCH  29  36
HETATM   36  C9  UNL     1       5.171   1.946  -0.547  1.00  0.00     0.323 C 
BRANCH  36  37
HETATM   37  O3  UNL     1       5.055   1.743  -1.895  1.00  0.00    -0.365 OA
ATOM     38  H3  UNL     1       5.506   2.419  -2.387  1.00  0.00     0.213 HD
ENDBRANCH  36  37
BRANCH  36  39
HETATM   39  O4  UNL     1       4.682   3.207  -0.151  1.00  0.00    -0.365 OA
ATOM     40  H4  UNL     1       5.133   3.883  -0.643  1.00  0.00     0.213 HD
ENDBRANCH  36  39
ENDBRANCH  29  36
ENDBRANCH  25  27
ENDBRANCH  22  25
ENDBRANCH   1  22
BRANCH   6  41
HETATM   41  N7  UNL     1      -2.548  -3.575  -2.139  1.00  0.00    -0.026 N 
ATOM     42  H73 UNL     1      -3.208  -2.813  -2.294  1.00  0.00     0.278 HD
ATOM     43  H72 UNL     1      -2.518  -3.983  -3.074  1.00  0.00     0.278 HD
ATOM     44  H71 UNL     1      -2.940  -4.246  -1.478  1.00  0.00     0.278 HD
ENDBRANCH   6  41
TORSDOF 11
