REMARK  11 active torsions:
REMARK  status: ('A' for Active; 'I' for Inactive)
REMARK    1  A    between atoms: C2_2  and  C3_3 
REMARK    2  A    between atoms: C2_2  and  C8_21 
REMARK    3  A    between atoms: C3_3  and  O1_4 
REMARK    4  A    between atoms: O1_4  and  C4_5 
REMARK       I    between atoms: C4_5  and  N1_7 
REMARK    5  A    between atoms: N1_7  and  C5_9 
REMARK    6  A    between atoms: C6_15  and  C7_16 
REMARK    7  A    between atoms: C7_16  and  N4_17 
REMARK    8  A    between atoms: N4_17  and  N5_18 
REMARK    9  A    between atoms: C8_21  and  N6_22 
REMARK   10  A    between atoms: C9_26  and  C10_27 
REMARK   11  A    between atoms: C11_30  and  N10_31 
ROOT
HETATM    1  C8  UNL     1       0.353   0.101  -0.811  1.00  0.00     0.173 C 
ENDROOT
BRANCH   1   2
HETATM    2  C2  UNL     1      -0.009  -1.352  -1.014  1.00  0.00     0.027 C 
HETATM    3  C1  UNL     1       1.069  -2.097  -1.770  1.00  0.00     0.014 C 
BRANCH   2   4
HETATM    4  C3  UNL     1      -1.250  -1.390  -1.870  1.00  0.00     0.186 C 
BRANCH   4   5
HETATM    5  O1  UNL     1      -2.335  -0.720  -1.268  1.00  0.00    -0.303 OA
BRANCH   5   6
HETATM    6  C4  UNL     1      -2.924  -1.046  -0.075  1.00  0.00     0.366 C 
HETATM    7  O2  UNL     1      -2.488  -2.030   0.574  1.00  0.00    -0.238 OA
HETATM    8  N1  UNL     1      -4.019  -0.329   0.489  1.00  0.00    -0.285 N 
ATOM      9  H1  UNL     1      -3.922   0.181   1.367  1.00  0.00     0.172 HD
BRANCH   8  10
HETATM   10  C5  UNL     1      -5.142  -0.350  -0.155  1.00  0.00     0.158 A 
HETATM   11  N2  UNL     1      -5.386  -0.985  -1.313  1.00  0.00    -0.223 N 
HETATM   12  O3  UNL     1      -6.619  -0.755  -1.612  1.00  0.00    -0.155 OA
ATOM     13  H2  UNL     1      -4.723  -1.542  -1.852  1.00  0.00     0.198 HD
HETATM   14  N3  UNL     1      -7.212  -0.021  -0.748  1.00  0.00    -0.241 N 
HETATM   15  C6  UNL     1      -6.327   0.276   0.213  1.00  0.00     0.096 A 
ATOM     16  H3  UNL     1      -8.185   0.284  -0.784  1.00  0.00     0.196 HD
BRANCH  15  17
HETATM   17  C7  UNL     1      -6.494   1.083   1.425  1.00  0.00     0.197 C 
BRANCH  17  18
HETATM   18  N4  UNL     1      -7.840   1.614   1.551  1.00  0.00    -0.142 NA
BRANCH  18  19
HETATM   19  N5  UNL     1      -7.997   2.372   2.691  1.00  0.00    -0.348 N 
ATOM     20  H52 UNL     1      -7.244   2.532   3.360  1.00  0.00     0.172 HD
ATOM     21  H51 UNL     1      -8.942   2.745   2.779  1.00  0.00     0.172 HD
ENDBRANCH  18  19
ENDBRANCH  17  18
ENDBRANCH  15  17
ENDBRANCH   8  10
ENDBRANCH   5   6
ENDBRANCH   4   5
ENDBRANCH   2   4
ENDBRANCH   1   2
BRANCH   1  22
HETATM   22  N6  UNL     1       1.603   0.220  -0.043  1.00  0.00    -0.216 N 
HETATM   23  N7  UNL     1       1.722   0.296   1.273  1.00  0.00    -0.003 NA
HETATM   24  N8  UNL     1       2.996   0.393   1.610  1.00  0.00    -0.265 N 
HETATM   25  C9  UNL     1       3.735   0.380   0.467  1.00  0.00     0.164 A 
ATOM     26  H8  UNL     1       3.361   0.465   2.560  1.00  0.00     0.186 HD
HETATM   27  N13 UNL     1       2.831   0.272  -0.521  1.00  0.00    -0.268 N 
ATOM     28  H13 UNL     1       3.064   0.235  -1.513  1.00  0.00     0.190 HD
BRANCH  25  29
HETATM   29  C10 UNL     1       5.185   0.466   0.365  1.00  0.00     0.125 A 
HETATM   30  N9  UNL     1       5.975   0.572   1.442  1.00  0.00    -0.186 N 
HETATM   31  C11 UNL     1       7.327   0.651   1.316  1.00  0.00     0.679 A 
ATOM     32  H9  UNL     1       5.556   0.594   2.372  1.00  0.00     0.184 HD
HETATM   33  N11 UNL     1       7.938   0.627   0.122  1.00  0.00    -0.155 N 
HETATM   34  C12 UNL     1       7.187   0.522  -0.986  1.00  0.00     0.286 A 
ATOM     35  H11 UNL     1       8.954   0.687   0.057  1.00  0.00     0.187 HD
HETATM   36  O4  UNL     1       7.743   0.498  -2.113  1.00  0.00    -0.266 OA
HETATM   37  C13 UNL     1       5.792   0.440  -0.866  1.00  0.00     0.145 A 
HETATM   38  N12 UNL     1       4.973   0.328  -2.025  1.00  0.00    -0.094 NA
BRANCH  31  39
HETATM   39  N10 UNL     1       8.086   0.753   2.357  1.00  0.00    -0.234 N 
ATOM     40 2H10 UNL     1       7.621   0.771   3.265  1.00  0.00     0.174 HD
ATOM     41 1H10 UNL     1       9.100   0.812   2.263  1.00  0.00     0.174 HD
ENDBRANCH  31  39
ENDBRANCH  25  29
ENDBRANCH   1  22
TORSDOF 11
