REMARK  14 active torsions:
REMARK  status: ('A' for Active; 'I' for Inactive)
REMARK    1  A    between atoms: C2_2  and  C3_3 
REMARK    2  A    between atoms: C3_3  and  C4_4 
REMARK    3  A    between atoms: C6_6  and  N1_7 
REMARK    4  A    between atoms: N3_12  and  C8_13 
REMARK    5  A    between atoms: C8_13  and  C9_14 
REMARK    6  A    between atoms: C9_14  and  C10_15 
REMARK    7  A    between atoms: C10_15  and  N5_19 
REMARK    8  A    between atoms: C12_22  and  O1_23 
REMARK    9  A    between atoms: O1_23  and  C13_24 
REMARK   10  A    between atoms: C13_24  and  C14_25 
REMARK       I    between atoms: C14_25  and  N6_27 
REMARK   11  A    between atoms: N6_27  and  C15_29 
REMARK   12  A    between atoms: C15_29  and  C16_30 
REMARK   13  A    between atoms: C16_30  and  C17_31 
REMARK   14  A    between atoms: C17_31  and  N7_32 
ROOT
HETATM    1  C4  UNL     1      -1.540  -1.522   1.033  1.00  0.00     0.001 A 
HETATM    2  C5  UNL     1      -2.705  -2.209   1.298  1.00  0.00     0.061 A 
HETATM    3  C6  UNL     1      -3.934  -1.715   0.921  1.00  0.00     0.116 A 
HETATM    4  N2  UNL     1      -3.955  -0.533   0.284  1.00  0.00    -0.282 N 
ATOM      5  H2  UNL     1      -4.852  -0.144  -0.006  1.00  0.00     0.189 HD
HETATM    6  N3  UNL     1      -2.827   0.155   0.016  1.00  0.00    -0.269 N 
HETATM    7  C12 UNL     1      -1.627  -0.302   0.369  1.00  0.00     0.166 A 
ENDROOT
BRANCH   7   8
HETATM    8  O1  UNL     1      -0.458   0.338   0.121  1.00  0.00    -0.325 OA
BRANCH   8   9
HETATM    9  C13 UNL     1       0.232   1.318   0.810  1.00  0.00     0.280 C 
BRANCH   9  10
HETATM   10  C14 UNL     1       1.491   1.630   0.042  1.00  0.00     0.241 C 
HETATM   11  O2  UNL     1       2.277   2.483   0.505  1.00  0.00    -0.271 OA
HETATM   12  N6  UNL     1       1.733   0.949  -1.166  1.00  0.00    -0.359 N 
ATOM     13  H6  UNL     1       1.041   0.267  -1.477  1.00  0.00     0.162 HD
BRANCH  12  14
HETATM   14  C15 UNL     1       2.906   1.156  -1.997  1.00  0.00     0.124 C 
BRANCH  14  15
HETATM   15  C16 UNL     1       4.127   0.786  -1.185  1.00  0.00     0.047 C 
BRANCH  15  16
HETATM   16  C17 UNL     1       3.952  -0.682  -0.814  1.00  0.00     0.237 C 
BRANCH  16  17
HETATM   17  N7  UNL     1       5.076  -1.113  -0.041  1.00  0.00    -0.079 N 
HETATM   18  C18 UNL     1       6.264  -0.459  -0.544  1.00  0.00     0.271 C 
HETATM   19  C19 UNL     1       5.176  -2.556  -0.159  1.00  0.00     0.271 C 
HETATM   20  C20 UNL     1       4.931  -0.806   1.356  1.00  0.00     0.271 C 
ENDBRANCH  16  17
ENDBRANCH  15  16
ENDBRANCH  14  15
ENDBRANCH  12  14
ENDBRANCH   9  10
ENDBRANCH   8   9
ENDBRANCH   7   8
BRANCH   1  21
HETATM   21  C3  UNL     1      -0.253  -2.109   1.449  1.00  0.00     0.069 C 
BRANCH  21  22
HETATM   22  C2  UNL     1       0.401  -2.722   0.267  1.00  0.00    -0.032 C 
HETATM   23  C1  UNL     1      -0.137  -2.773  -0.918  1.00  0.00     0.007 C 
ENDBRANCH  21  22
ENDBRANCH   1  21
BRANCH   6  24
HETATM   24  C8  UNL     1      -3.029   1.438  -0.654  1.00  0.00     0.159 C 
BRANCH  24  25
HETATM   25  C9  UNL     1      -3.392   2.459   0.367  1.00  0.00     0.097 C 
BRANCH  25  26
HETATM   26  C10 UNL     1      -3.604   3.813  -0.241  1.00  0.00     0.071 C 
HETATM   27  N4  UNL     1      -2.897   4.822   0.121  1.00  0.00    -0.389 N 
ATOM     28  H42 UNL     1      -2.183   4.681   0.836  1.00  0.00     0.157 HD
ATOM     29  H41 UNL     1      -3.041   5.743  -0.293  1.00  0.00     0.157 HD
BRANCH  26  30
HETATM   30  N5  UNL     1      -4.599   4.010  -1.238  1.00  0.00    -0.384 N 
HETATM   31  C11 UNL     1      -6.017   4.005  -0.986  1.00  0.00     0.147 C 
ATOM     32  H5  UNL     1      -4.287   4.165  -2.197  1.00  0.00     0.160 HD
ENDBRANCH  26  30
ENDBRANCH  25  26
ENDBRANCH  24  25
ENDBRANCH   6  24
BRANCH   3  33
HETATM   33  N1  UNL     1      -5.038  -2.338   1.156  1.00  0.00    -0.380 N 
HETATM   34  C7  UNL     1      -4.957  -3.611   1.846  1.00  0.00     0.147 C 
ATOM     35  H1  UNL     1      -5.936  -1.950   0.867  1.00  0.00     0.160 HD
ENDBRANCH   3  33
TORSDOF 14
