REMARK  15 active torsions:
REMARK  status: ('A' for Active; 'I' for Inactive)
REMARK    1  A    between atoms: C2_2  and  C3_3 
REMARK    2  A    between atoms: C3_3  and  C4_4 
REMARK    3  A    between atoms: C4_4  and  C5_5 
REMARK    4  A    between atoms: C5_5  and  C6_6 
REMARK    5  A    between atoms: C6_6  and  C7_7 
REMARK    6  A    between atoms: C7_7  and  C8_8 
REMARK    7  A    between atoms: N3_14  and  C11_15 
REMARK    8  A    between atoms: C11_15  and  C12_16 
REMARK    9  A    between atoms: C12_16  and  C13_17 
REMARK   10  A    between atoms: C13_17  and  C14_18 
REMARK   11  A    between atoms: C14_18  and  N4_19 
REMARK   12  A    between atoms: C16_21  and  N5_22 
REMARK   13  A    between atoms: C17_27  and  N7_28 
REMARK   14  A    between atoms: N7_28  and  C18_30 
REMARK   15  A    between atoms: C18_30  and  C19_31 
ROOT
HETATM    1  C14 UNL     1       2.499  -0.407   2.971  1.00  0.00     0.176 C 
ENDROOT
BRANCH   1   2
HETATM    2  C13 UNL     1       1.145   0.119   2.775  1.00  0.00    -0.004 C 
BRANCH   2   3
HETATM    3  C12 UNL     1       0.188  -0.503   1.857  1.00  0.00     0.017 C 
BRANCH   3   4
HETATM    4  C11 UNL     1       0.206  -1.745   1.470  1.00  0.00     0.118 C 
BRANCH   4   5
HETATM    5  N3  UNL     1      -0.668  -2.406   0.593  1.00  0.00    -0.253 N 
HETATM    6  C8  UNL     1      -1.694  -1.994  -0.126  1.00  0.00     0.104 A 
HETATM    7  N1  UNL     1      -2.201  -3.093  -0.797  1.00  0.00    -0.339 N 
HETATM    8  C9  UNL     1      -1.451  -4.120  -0.448  1.00  0.00     0.201 A 
ATOM      9  H1  UNL     1      -2.997  -3.106  -1.435  1.00  0.00     0.168 HD
HETATM   10  N2  UNL     1      -0.498  -3.748   0.403  1.00  0.00    -0.285 N 
HETATM   11  C10 UNL     1       0.495  -4.612   0.987  1.00  0.00     0.179 C 
BRANCH   6  12
HETATM   12  C7  UNL     1      -2.280  -0.643  -0.292  1.00  0.00     0.078 C 
BRANCH  12  13
HETATM   13  C6  UNL     1      -3.391  -0.494   0.731  1.00  0.00     0.007 C 
BRANCH  13  14
HETATM   14  C5  UNL     1      -4.063   0.858   0.657  1.00  0.00     0.000 C 
BRANCH  14  15
HETATM   15  C4  UNL     1      -4.677   1.069  -0.723  1.00  0.00     0.000 C 
BRANCH  15  16
HETATM   16  C3  UNL     1      -5.352   2.448  -0.757  1.00  0.00    -0.000 C 
BRANCH  16  17
HETATM   17  C2  UNL     1      -5.960   2.646  -2.138  1.00  0.00    -0.005 C 
HETATM   18  C1  UNL     1      -6.632   3.994  -2.204  1.00  0.00     0.005 C 
ENDBRANCH  16  17
ENDBRANCH  15  16
ENDBRANCH  14  15
ENDBRANCH  13  14
ENDBRANCH  12  13
ENDBRANCH   6  12
ENDBRANCH   4   5
ENDBRANCH   3   4
ENDBRANCH   2   3
ENDBRANCH   1   2
BRANCH   1  19
HETATM   19  N4  UNL     1       3.416  -0.330   1.862  1.00  0.00    -0.282 N 
HETATM   20  C15 UNL     1       3.656  -1.279   0.974  1.00  0.00     0.159 A 
HETATM   21  C16 UNL     1       4.554  -1.078  -0.082  1.00  0.00     0.132 A 
HETATM   22  N6  UNL     1       5.208   0.080  -0.239  1.00  0.00    -0.175 N 
HETATM   23  C17 UNL     1       4.950   1.033   0.678  1.00  0.00     0.694 A 
ATOM     24  H6  UNL     1       5.862   0.232  -1.007  1.00  0.00     0.186 HD
HETATM   25  N9  UNL     1       4.099   0.828   1.670  1.00  0.00    -0.130 N 
ATOM     26  H9  UNL     1       3.946   1.588   2.333  1.00  0.00     0.206 HD
BRANCH  21  27
HETATM   27  N5  UNL     1       4.730  -2.039  -0.895  1.00  0.00    -0.384 N 
ATOM     28  H52 UNL     1       4.232  -2.921  -0.775  1.00  0.00     0.157 HD
ATOM     29  H51 UNL     1       5.384  -1.893  -1.664  1.00  0.00     0.157 HD
ENDBRANCH  21  27
BRANCH  23  30
HETATM   30  N7  UNL     1       5.588   2.162   0.527  1.00  0.00    -0.216 N 
ATOM     31  H7  UNL     1       5.415   2.905   1.204  1.00  0.00     0.178 HD
BRANCH  30  32
HETATM   32  C18 UNL     1       6.516   2.420  -0.532  1.00  0.00     0.237 C 
BRANCH  32  33
HETATM   33  C19 UNL     1       5.823   2.751  -1.805  1.00  0.00     0.249 C 
HETATM   34  N8  UNL     1       6.511   3.046  -2.999  1.00  0.00    -0.061 NA
HETATM   35  O1  UNL     1       4.572   2.765  -1.808  1.00  0.00    -0.275 OA
ENDBRANCH  32  33
ENDBRANCH  30  32
ENDBRANCH  23  30
ENDBRANCH   1  19
TORSDOF 15
