REMARK  13 active torsions:
REMARK  status: ('A' for Active; 'I' for Inactive)
REMARK    1  A    between atoms: C2_2  and  C3_3 
REMARK    2  A    between atoms: C5_5  and  N1_6 
REMARK    3  A    between atoms: N1_6  and  C6_8 
REMARK    4  A    between atoms: C6_8  and  C7_9 
REMARK    5  A    between atoms: C7_9  and  N2_10 
REMARK       I    between atoms: N2_10  and  C8_12 
REMARK       I    between atoms: C8_12  and  N3_14 
REMARK    6  A    between atoms: N3_14  and  C9_16 
REMARK    7  A    between atoms: C9_16  and  C10_17 
REMARK    8  A    between atoms: C10_17  and  C11_18 
REMARK    9  A    between atoms: C11_18  and  N4_19 
REMARK   10  A    between atoms: C15_25  and  N6_26 
REMARK   11  A    between atoms: N6_26  and  C16_28 
REMARK   12  A    between atoms: C16_28  and  C17_29 
REMARK   13  A    between atoms: C17_29  and  N7_30 
ROOT
HETATM    1  C3  UNL     1       2.943   0.982   1.713  1.00  0.00     0.029 A 
HETATM    2  C4  UNL     1       1.921   0.931   0.796  1.00  0.00     0.074 A 
HETATM    3  C5  UNL     1       2.036   0.104  -0.278  1.00  0.00     0.118 A 
HETATM    4  N5  UNL     1       3.153  -0.660  -0.432  1.00  0.00    -0.177 N 
ATOM      5  H5  UNL     1       3.235  -1.280  -1.238  1.00  0.00     0.185 HD
HETATM    6  C15 UNL     1       4.149  -0.604   0.470  1.00  0.00     0.679 A 
HETATM    7  N8  UNL     1       4.020   0.216   1.522  1.00  0.00    -0.196 N 
ATOM      8  H8  UNL     1       4.776   0.257   2.205  1.00  0.00     0.184 HD
ENDROOT
BRANCH   3   9
HETATM    9  N1  UNL     1       1.124   0.021  -1.158  1.00  0.00    -0.374 N 
ATOM     10  H1  UNL     1       1.276  -0.620  -1.937  1.00  0.00     0.161 HD
BRANCH   9  11
HETATM   11  C6  UNL     1      -0.108   0.765  -1.136  1.00  0.00     0.141 C 
BRANCH  11  12
HETATM   12  C7  UNL     1      -0.687   0.803  -2.531  1.00  0.00     0.144 C 
BRANCH  12  13
HETATM   13  N2  UNL     1      -1.911   1.511  -2.643  1.00  0.00    -0.342 N 
HETATM   14  C8  UNL     1      -3.065   1.105  -1.940  1.00  0.00     0.316 C 
HETATM   15  O1  UNL     1      -3.019   0.097  -1.205  1.00  0.00    -0.247 OA
HETATM   16  N3  UNL     1      -4.273   1.820  -2.055  1.00  0.00    -0.343 N 
ATOM     17  H3  UNL     1      -4.272   2.643  -2.657  1.00  0.00     0.164 HD
ATOM     18  H2  UNL     1      -1.958   2.333  -3.246  1.00  0.00     0.164 HD
BRANCH  16  19
HETATM   19  C9  UNL     1      -5.509   1.488  -1.395  1.00  0.00     0.126 C 
BRANCH  19  20
HETATM   20  C10 UNL     1      -6.059   0.151  -1.763  1.00  0.00     0.048 C 
BRANCH  20  21
HETATM   21  C11 UNL     1      -7.335  -0.220  -1.112  1.00  0.00     0.237 C 
BRANCH  21  22
HETATM   22  N4  UNL     1      -7.365  -0.302   0.306  1.00  0.00    -0.079 N 
HETATM   23  C12 UNL     1      -6.259  -1.047   0.873  1.00  0.00     0.271 C 
HETATM   24  C13 UNL     1      -8.553  -1.123   0.624  1.00  0.00     0.271 C 
HETATM   25  C14 UNL     1      -7.539   0.949   0.994  1.00  0.00     0.271 C 
ENDBRANCH  21  22
ENDBRANCH  20  21
ENDBRANCH  19  20
ENDBRANCH  16  19
ENDBRANCH  12  13
ENDBRANCH  11  12
ENDBRANCH   9  11
ENDBRANCH   3   9
BRANCH   1  26
HETATM   26  C2  UNL     1       2.866   1.866   2.890  1.00  0.00     0.053 C 
HETATM   27  C1  UNL     1       3.473   3.203   2.496  1.00  0.00     0.011 C 
ENDBRANCH   1  26
BRANCH   6  28
HETATM   28  N6  UNL     1       5.190  -1.337   0.297  1.00  0.00    -0.224 N 
ATOM     29  H6  UNL     1       5.230  -1.942  -0.523  1.00  0.00     0.177 HD
BRANCH  28  30
HETATM   30  C16 UNL     1       6.310  -1.341   1.217  1.00  0.00     0.168 C 
BRANCH  30  31
HETATM   31  C17 UNL     1       7.288  -2.429   0.936  1.00  0.00     0.291 C 
BRANCH  31  32
HETATM   32  N7  UNL     1       7.866  -2.347  -0.389  1.00  0.00     0.081 N 
HETATM   33  C18 UNL     1       8.732  -1.198  -0.548  1.00  0.00     0.309 C 
HETATM   34  C19 UNL     1       8.521  -3.579  -0.772  1.00  0.00     0.309 C 
ENDBRANCH  31  32
ENDBRANCH  30  31
ENDBRANCH  28  30
ENDBRANCH   6  28
TORSDOF 13
