REMARK  12 active torsions:
REMARK  status: ('A' for Active; 'I' for Inactive)
REMARK    1  A    between atoms: C2_2  and  C4_4 
REMARK    2  A    between atoms: C4_4  and  C5_5 
REMARK    3  A    between atoms: C5_5  and  N1_6 
REMARK    4  A    between atoms: C5_5  and  C16_27 
REMARK       I    between atoms: N1_6  and  C6_8 
REMARK    5  A    between atoms: C6_8  and  C7_10 
REMARK    6  A    between atoms: C7_10  and  C8_11 
REMARK    7  A    between atoms: C8_11  and  C9_12 
REMARK    8  A    between atoms: C9_12  and  C10_13 
REMARK    9  A    between atoms: C9_12  and  C14_18 
REMARK   10  A    between atoms: C10_13  and  N2_14 
REMARK   11  A    between atoms: N4_20  and  N5_22 
REMARK       I    between atoms: C16_27  and  N8_29 
REMARK   12  A    between atoms: N8_29  and  C18_31 
ROOT
HETATM    1  C7  UNL     1      -1.010   0.328  -0.416  1.00  0.00     0.103 C 
ENDROOT
BRANCH   1   2
HETATM    2  C6  UNL     1       0.338   0.050   0.139  1.00  0.00     0.218 C 
HETATM    3  N1  UNL     1       1.462   0.741  -0.365  1.00  0.00    -0.348 N 
ATOM      4  H1  UNL     1       1.335   1.427  -1.109  1.00  0.00     0.163 HD
HETATM    5  O1  UNL     1       0.533  -0.799   1.066  1.00  0.00    -0.274 OA
BRANCH   3   6
HETATM    6  C5  UNL     1       2.825   0.488   0.167  1.00  0.00     0.177 C 
BRANCH   6   7
HETATM    7  C4  UNL     1       3.364   1.805   0.670  1.00  0.00     0.038 C 
BRANCH   7   8
HETATM    8  C2  UNL     1       4.711   1.690   1.277  1.00  0.00    -0.020 C 
HETATM    9  C1  UNL     1       5.238   3.068   1.710  1.00  0.00     0.009 C 
HETATM   10  C3  UNL     1       4.651   0.868   2.580  1.00  0.00     0.009 C 
ENDBRANCH   7   8
ENDBRANCH   6   7
BRANCH   6  11
HETATM   11  C16 UNL     1       3.626   0.030  -1.015  1.00  0.00     0.242 C 
HETATM   12  O2  UNL     1       3.422   0.730  -2.074  1.00  0.00    -0.271 OA
HETATM   13  N8  UNL     1       4.518  -1.038  -1.048  1.00  0.00    -0.351 N 
HETATM   14  C17 UNL     1       4.751  -1.889   0.079  1.00  0.00     0.153 C 
BRANCH  13  15
HETATM   15  C18 UNL     1       5.254  -1.310  -2.273  1.00  0.00     0.078 C 
HETATM   16  C19 UNL     1       6.136  -0.111  -2.553  1.00  0.00     0.032 C 
HETATM   17  C20 UNL     1       4.344  -1.537  -3.435  1.00  0.00     0.032 C 
ENDBRANCH  13  15
ENDBRANCH   6  11
ENDBRANCH   3   6
ENDBRANCH   1   2
BRANCH   1  18
HETATM   18  C8  UNL     1      -1.992  -0.574   0.333  1.00  0.00     0.023 C 
BRANCH  18  19
HETATM   19  C9  UNL     1      -3.397  -0.375  -0.152  1.00  0.00     0.078 C 
BRANCH  19  20
HETATM   20  C10 UNL     1      -4.341  -1.244   0.585  1.00  0.00     0.248 C 
BRANCH  20  21
HETATM   21  N2  UNL     1      -4.167  -2.652   0.523  1.00  0.00    -0.078 N 
HETATM   22  C11 UNL     1      -3.849  -3.117  -0.809  1.00  0.00     0.271 C 
HETATM   23  C12 UNL     1      -5.491  -3.222   0.878  1.00  0.00     0.271 C 
HETATM   24  C13 UNL     1      -3.240  -3.217   1.451  1.00  0.00     0.271 C 
ENDBRANCH  20  21
ENDBRANCH  19  20
BRANCH  19  25
HETATM   25  C14 UNL     1      -3.770   1.030   0.148  1.00  0.00     0.113 C 
HETATM   26  N3  UNL     1      -3.753   1.455   1.493  1.00  0.00    -0.086 NA
HETATM   27  N4  UNL     1      -4.102   1.857  -0.769  1.00  0.00    -0.289 N 
ATOM     28  H4  UNL     1      -4.104   1.521  -1.732  1.00  0.00     0.188 HD
BRANCH  27  29
HETATM   29  N5  UNL     1      -4.458   3.173  -0.548  1.00  0.00    -0.275 N 
HETATM   30  C15 UNL     1      -5.677   3.580  -0.432  1.00  0.00     0.215 C 
HETATM   31  N6  UNL     1      -6.793   2.714  -0.520  1.00  0.00    -0.065 NA
HETATM   32  N7  UNL     1      -5.909   4.960  -0.206  1.00  0.00    -0.065 NA
ATOM     33  H5  UNL     1      -3.712   3.865  -0.472  1.00  0.00     0.189 HD
ENDBRANCH  27  29
ENDBRANCH  19  25
ENDBRANCH  18  19
ENDBRANCH   1  18
TORSDOF 12
