REMARK  5 active torsions:
REMARK  status: ('A' for Active; 'I' for Inactive)
REMARK    1  A    between atoms: C2_3  and  C4_11 
REMARK    2  A    between atoms: N2_4  and  N3_6 
REMARK    3  A    between atoms: C6_13  and  C7_14 
REMARK    4  A    between atoms: C7_14  and  N6_15 
REMARK    5  A    between atoms: C8_19  and  N7_20 
ROOT
HETATM    1  N1  UNL     1       2.504   3.220  -0.124  1.00  0.00    -0.190 NA
HETATM    2  C1  UNL     1       1.918   2.231  -0.106  1.00  0.00     0.121 C 
HETATM    3  C2  UNL     1       1.192   0.972  -0.094  1.00  0.00     0.156 C 
HETATM    4  N2  UNL     1       1.884  -0.121  -0.177  1.00  0.00    -0.287 N 
ATOM      5  H2  UNL     1       1.375  -1.005  -0.173  1.00  0.00     0.188 HD
ENDROOT
BRANCH   3   6
HETATM    6  C4  UNL     1      -0.242   0.985   0.002  1.00  0.00     0.087 A 
HETATM    7  C5  UNL     1      -1.028  -0.150  -0.000  1.00  0.00     0.046 A 
HETATM    8  C6  UNL     1      -2.359  -0.090   0.144  1.00  0.00     0.014 A 
HETATM    9  C8  UNL     1      -2.955   1.151   0.302  1.00  0.00     0.121 A 
HETATM   10  N8  UNL     1      -2.188   2.267   0.308  1.00  0.00    -0.285 N 
HETATM   11  N9  UNL     1      -0.884   2.193   0.164  1.00  0.00    -0.296 N 
ATOM     12  H8  UNL     1      -2.629   3.179   0.426  1.00  0.00     0.188 HD
ATOM     13  H9  UNL     1      -0.333   3.052   0.172  1.00  0.00     0.187 HD
BRANCH   8  14
HETATM   14  C7  UNL     1      -3.261  -1.270   0.220  1.00  0.00     0.272 C 
BRANCH  14  15
HETATM   15  N6  UNL     1      -4.365  -1.187  -0.738  1.00  0.00    -0.075 N 
ATOM     16  H63 UNL     1      -4.886  -0.317  -0.626  1.00  0.00     0.274 HD
ATOM     17  H62 UNL     1      -4.019  -1.048  -1.688  1.00  0.00     0.274 HD
ATOM     18  H61 UNL     1      -4.984  -1.996  -0.686  1.00  0.00     0.274 HD
ENDBRANCH  14  15
ENDBRANCH   8  14
BRANCH   9  19
HETATM   19  N7  UNL     1      -4.236   1.199   0.426  1.00  0.00    -0.384 N 
ATOM     20  H72 UNL     1      -4.814   0.358   0.421  1.00  0.00     0.157 HD
ATOM     21  H71 UNL     1      -4.675   2.112   0.542  1.00  0.00     0.157 HD
ENDBRANCH   9  19
ENDBRANCH   3   6
BRANCH   4  22
HETATM   22  N3  UNL     1       3.197  -0.172  -0.266  1.00  0.00    -0.275 N 
HETATM   23  C3  UNL     1       4.197  -0.802  -0.149  1.00  0.00     0.215 C 
HETATM   24  N4  UNL     1       4.249  -2.171   0.263  1.00  0.00    -0.065 NA
HETATM   25  N5  UNL     1       5.516  -0.201  -0.412  1.00  0.00    -0.065 NA
ATOM     26  H3  UNL     1       3.489   0.754  -0.579  1.00  0.00     0.189 HD
ENDBRANCH   4  22
TORSDOF 5
