REMARK  5 active torsions:
REMARK  status: ('A' for Active; 'I' for Inactive)
REMARK    1  A    between atoms: N1_1  and  N2_4 
REMARK       I    between atoms: N2_4  and  C1_6 
REMARK    2  A    between atoms: C1_6  and  C2_8 
REMARK    3  A    between atoms: C5_13  and  C6_14 
REMARK    4  A    between atoms: N4_15  and  N5_17 
REMARK    5  A    between atoms: N5_17  and  C7_19 
ROOT
HETATM    1  C2  UNL     1      -2.137  -0.730  -0.255  1.00  0.00     0.061 A 
HETATM    2  C3  UNL     1      -2.495  -2.061  -0.183  1.00  0.00     0.105 A 
HETATM    3  N3  UNL     1      -1.406  -2.793  -0.103  1.00  0.00    -0.373 N 
ATOM      4  H3  UNL     1      -1.397  -3.811  -0.038  1.00  0.00     0.164 HD
HETATM    5  C4  UNL     1      -0.297  -2.015  -0.119  1.00  0.00     0.101 A 
HETATM    6  C5  UNL     1      -0.736  -0.717  -0.218  1.00  0.00     0.013 A 
ENDROOT
BRANCH   6   7
HETATM    7  C6  UNL     1       0.078   0.490  -0.318  1.00  0.00     0.121 C 
HETATM    8  N4  UNL     1       1.325   0.503  -0.280  1.00  0.00    -0.297 N 
ATOM      9  H4  UNL     1       1.714   1.443  -0.358  1.00  0.00     0.186 HD
BRANCH   8  10
HETATM   10  N5  UNL     1       2.273  -0.448  -0.159  1.00  0.00    -0.130 N 
ATOM     11  H5  UNL     1       1.964  -1.419  -0.118  1.00  0.00     0.205 HD
BRANCH  10  12
HETATM   12  C7  UNL     1       3.537  -0.224  -0.091  1.00  0.00     0.722 A 
HETATM   13  N6  UNL     1       4.518  -1.120   0.030  1.00  0.00    -0.115 N 
HETATM   14  N7  UNL     1       5.653  -0.409   0.060  1.00  0.00     0.006 NA
ATOM     15  H6  UNL     1       4.424  -2.134   0.088  1.00  0.00     0.202 HD
HETATM   16  N8  UNL     1       5.408   0.885  -0.037  1.00  0.00     0.006 NA
HETATM   17  N9  UNL     1       4.088   0.997  -0.133  1.00  0.00    -0.115 N 
ATOM     18  H9  UNL     1       3.575   1.874  -0.224  1.00  0.00     0.202 HD
ENDBRANCH  10  12
ENDBRANCH   8  10
ENDBRANCH   6   7
BRANCH   1  19
HETATM   19  C1  UNL     1      -3.042   0.408  -0.262  1.00  0.00     0.271 C 
HETATM   20  N2  UNL     1      -3.168   1.281   0.866  1.00  0.00    -0.272 N 
ATOM     21  H2  UNL     1      -2.604   1.093   1.694  1.00  0.00     0.189 HD
HETATM   22  O1  UNL     1      -3.748   0.622  -1.310  1.00  0.00    -0.266 OA
BRANCH  20  23
HETATM   23  N1  UNL     1      -4.010   2.353   0.880  1.00  0.00    -0.342 N 
ATOM     24  H12 UNL     1      -4.567   2.527   0.043  1.00  0.00     0.176 HD
ATOM     25  H11 UNL     1      -4.100   2.975   1.684  1.00  0.00     0.176 HD
ENDBRANCH  20  23
ENDBRANCH   1  19
TORSDOF 5
