REMARK  3 active torsions:
REMARK  status: ('A' for Active; 'I' for Inactive)
REMARK    1  A    between atoms: C1_4  and  C2_5 
REMARK       I    between atoms: C2_5  and  N2_7 
REMARK    2  A    between atoms: N2_7  and  N3_9 
REMARK    3  A    between atoms: C3_11  and  C4_12 
ROOT
HETATM    1  C4  UNL     1      -1.355   0.633  -0.042  1.00  0.00     0.090 A 
HETATM    2  C5  UNL     1      -1.764  -0.630  -0.410  1.00  0.00     0.137 A 
HETATM    3  N4  UNL     1      -0.834  -1.660  -0.636  1.00  0.00    -0.081 NA
HETATM    4  N5  UNL     1      -3.069  -0.902  -0.561  1.00  0.00    -0.296 N 
ATOM      5  H5  UNL     1      -3.363  -1.840  -0.834  1.00  0.00     0.171 HD
HETATM    6  C6  UNL     1      -4.001   0.064  -0.353  1.00  0.00     0.328 A 
HETATM    7  O2  UNL     1      -5.230  -0.206  -0.499  1.00  0.00    -0.247 OA
HETATM    8  N6  UNL     1      -3.627   1.302   0.006  1.00  0.00    -0.275 N 
ATOM      9  H6  UNL     1      -4.329   2.025   0.162  1.00  0.00     0.173 HD
HETATM   10  C7  UNL     1      -2.329   1.581   0.158  1.00  0.00     0.264 A 
HETATM   11  O3  UNL     1      -1.995   2.762   0.499  1.00  0.00    -0.267 OA
ENDROOT
BRANCH   1  12
HETATM   12  C3  UNL     1       0.066   0.963   0.131  1.00  0.00     0.127 C 
HETATM   13  N3  UNL     1       0.927   0.037  -0.070  1.00  0.00    -0.308 N 
ATOM     14  H3  UNL     1       0.599  -0.890  -0.341  1.00  0.00     0.186 HD
BRANCH  13  15
HETATM   15  N2  UNL     1       2.295   0.252   0.069  1.00  0.00    -0.266 N 
HETATM   16  C2  UNL     1       3.137  -0.798   0.499  1.00  0.00     0.274 C 
HETATM   17  O1  UNL     1       2.658  -1.945   0.762  1.00  0.00    -0.265 OA
ATOM     18  H2  UNL     1       2.690   1.169  -0.140  1.00  0.00     0.190 HD
BRANCH  16  19
HETATM   19  C1  UNL     1       4.572  -0.612   0.657  1.00  0.00     0.157 C 
HETATM   20  N1  UNL     1       5.052   0.553   0.389  1.00  0.00    -0.404 N 
ATOM     21  H12 UNL     1       4.437   1.305   0.079  1.00  0.00     0.155 HD
ATOM     22  H11 UNL     1       6.058   0.683   0.500  1.00  0.00     0.155 HD
ENDBRANCH  16  19
ENDBRANCH  13  15
ENDBRANCH   1  12
TORSDOF 3
