REMARK  6 active torsions:
REMARK  status: ('A' for Active; 'I' for Inactive)
REMARK    1  A    between atoms: C4_7  and  N3_8 
REMARK    2  A    between atoms: N3_8  and  N4_10 
REMARK    3  A    between atoms: N4_10  and  N5_11 
REMARK    4  A    between atoms: N4_10  and  C5_14 
REMARK    5  A    between atoms: C5_14  and  C6_15 
REMARK    6  A    between atoms: C6_15  and  N6_16 
ROOT
HETATM    1  C1  UNL     1       5.114   0.754   0.166  1.00  0.00     0.158 C 
HETATM    2  N1  UNL     1       3.748   0.945  -0.242  1.00  0.00    -0.331 N 
HETATM    3  C2  UNL     1       3.296   1.965  -0.998  1.00  0.00     0.184 A 
HETATM    4  N2  UNL     1       1.974   1.781  -1.153  1.00  0.00    -0.346 N 
ATOM      5  H2  UNL     1       1.363   2.402  -1.683  1.00  0.00     0.167 HD
HETATM    6  C3  UNL     1       1.560   0.663  -0.513  1.00  0.00     0.125 A 
HETATM    7  C4  UNL     1       0.360   0.024  -0.348  1.00  0.00     0.167 A 
HETATM    8  N7  UNL     1       0.311  -1.100   0.371  1.00  0.00    -0.173 N 
ATOM      9  H7  UNL     1      -0.579  -1.581   0.498  1.00  0.00     0.186 HD
HETATM   10  C7  UNL     1       1.447  -1.612   0.940  1.00  0.00     0.679 A 
HETATM   11  N8  UNL     1       1.397  -2.683   1.625  1.00  0.00    -0.234 N 
ATOM     12  H81 UNL     1       2.243  -3.064   2.049  1.00  0.00     0.174 HD
ATOM     13  H82 UNL     1       0.495  -3.146   1.738  1.00  0.00     0.174 HD
HETATM   14  N9  UNL     1       2.639  -1.000   0.790  1.00  0.00    -0.174 N 
ATOM     15  H9  UNL     1       3.475  -1.396   1.219  1.00  0.00     0.186 HD
HETATM   16  C8  UNL     1       2.721   0.134   0.072  1.00  0.00     0.154 A 
ENDROOT
BRANCH   7  17
HETATM   17  N3  UNL     1      -0.696   0.496  -0.874  1.00  0.00    -0.267 N 
ATOM     18  H3  UNL     1      -0.600   1.357  -1.413  1.00  0.00     0.190 HD
BRANCH  17  19
HETATM   19  N4  UNL     1      -1.958  -0.048  -0.783  1.00  0.00    -0.238 N 
BRANCH  19  20
HETATM   20  N5  UNL     1      -2.252  -1.261  -1.373  1.00  0.00    -0.329 N 
ATOM     21  H52 UNL     1      -1.533  -1.770  -1.887  1.00  0.00     0.178 HD
ATOM     22  H51 UNL     1      -3.187  -1.664  -1.306  1.00  0.00     0.178 HD
ENDBRANCH  19  20
BRANCH  19  23
HETATM   23  C5  UNL     1      -2.980   0.675  -0.053  1.00  0.00     0.196 C 
BRANCH  23  24
HETATM   24  C6  UNL     1      -4.302  -0.061  -0.050  1.00  0.00     0.253 C 
BRANCH  24  25
HETATM   25  N6  UNL     1      -5.248   0.743   0.701  1.00  0.00    -0.078 N 
ATOM     26  H63 UNL     1      -4.918   0.972   1.639  1.00  0.00     0.274 HD
ATOM     27  H62 UNL     1      -5.325   1.697   0.350  1.00  0.00     0.274 HD
ATOM     28  H61 UNL     1      -6.139   0.247   0.703  1.00  0.00     0.274 HD
ENDBRANCH  24  25
ENDBRANCH  23  24
ENDBRANCH  19  23
ENDBRANCH  17  19
ENDBRANCH   7  17
TORSDOF 6
