REMARK  7 active torsions:
REMARK  status: ('A' for Active; 'I' for Inactive)
REMARK    1  A    between atoms: C4_9  and  N4_10 
REMARK    2  A    between atoms: C5_15  and  N6_16 
REMARK    3  A    between atoms: N6_16  and  C6_18 
REMARK    4  A    between atoms: C6_18  and  C7_19 
REMARK    5  A    between atoms: C7_19  and  N7_20 
REMARK    6  A    between atoms: C7_19  and  C8_24 
REMARK    7  A    between atoms: C8_24  and  N8_25 
ROOT
HETATM    1  C1  UNL     1       0.945   2.784   0.437  1.00  0.00     0.157 C 
HETATM    2  N1  UNL     1       1.865   1.938  -0.296  1.00  0.00    -0.341 N 
HETATM    3  C2  UNL     1       2.958   2.331  -1.008  1.00  0.00     0.184 A 
HETATM    4  N2  UNL     1       3.520   1.234  -1.520  1.00  0.00    -0.336 N 
ATOM      5  H2  UNL     1       4.357   1.209  -2.102  1.00  0.00     0.168 HD
HETATM    6  C3  UNL     1       2.794   0.164  -1.137  1.00  0.00     0.152 A 
HETATM    7  N3  UNL     1       2.940  -1.152  -1.385  1.00  0.00    -0.174 N 
ATOM      8  H3  UNL     1       3.713  -1.491  -1.958  1.00  0.00     0.186 HD
HETATM    9  C4  UNL     1       2.046  -2.008  -0.862  1.00  0.00     0.679 A 
HETATM   10  N5  UNL     1       1.011  -1.593  -0.099  1.00  0.00    -0.175 N 
ATOM     11  H5  UNL     1       0.360  -2.284   0.275  1.00  0.00     0.186 HD
HETATM   12  C5  UNL     1       0.817  -0.288   0.181  1.00  0.00     0.148 A 
HETATM   13  C9  UNL     1       1.730   0.600  -0.352  1.00  0.00     0.125 A 
ENDROOT
BRANCH  12  14
HETATM   14  N6  UNL     1      -0.141   0.167   0.895  1.00  0.00    -0.372 N 
ATOM     15  H6  UNL     1      -0.176   1.177   1.032  1.00  0.00     0.161 HD
BRANCH  14  16
HETATM   16  C6  UNL     1      -1.166  -0.605   1.518  1.00  0.00     0.155 C 
BRANCH  16  17
HETATM   17  C7  UNL     1      -2.268  -1.047   0.608  1.00  0.00     0.226 C 
BRANCH  17  18
HETATM   18  N7  UNL     1      -3.212  -1.819   1.432  1.00  0.00    -0.072 N 
ATOM     19  H73 UNL     1      -2.771  -2.589   1.935  1.00  0.00     0.274 HD
ATOM     20  H72 UNL     1      -3.545  -1.307   2.249  1.00  0.00     0.274 HD
ATOM     21  H71 UNL     1      -3.963  -2.120   0.812  1.00  0.00     0.274 HD
ENDBRANCH  17  18
BRANCH  17  22
HETATM   22  C8  UNL     1      -3.060   0.094   0.025  1.00  0.00     0.264 C 
BRANCH  22  23
HETATM   23  N8  UNL     1      -2.289   1.004  -0.756  1.00  0.00    -0.077 N 
ATOM     24  H83 UNL     1      -1.500   1.358  -0.215  1.00  0.00     0.274 HD
ATOM     25  H82 UNL     1      -1.787   0.506  -1.491  1.00  0.00     0.274 HD
ATOM     26  H81 UNL     1      -2.825   1.777  -1.151  1.00  0.00     0.274 HD
ENDBRANCH  22  23
ENDBRANCH  17  22
ENDBRANCH  16  17
ENDBRANCH  14  16
ENDBRANCH  12  14
BRANCH   9  27
HETATM   27  N4  UNL     1       2.207  -3.274  -1.115  1.00  0.00    -0.234 N 
ATOM     28  H42 UNL     1       2.988  -3.587  -1.691  1.00  0.00     0.174 HD
ATOM     29  H41 UNL     1       1.528  -3.924  -0.718  1.00  0.00     0.174 HD
ENDBRANCH   9  27
TORSDOF 7
