REMARK  7 active torsions:
REMARK  status: ('A' for Active; 'I' for Inactive)
REMARK    1  A    between atoms: C2_2  and  N1_3 
REMARK    2  A    between atoms: C2_2  and  C8_20 
REMARK    3  A    between atoms: N1_3  and  C3_5 
REMARK    4  A    between atoms: C4_8  and  N3_9 
REMARK    5  A    between atoms: C7_14  and  N5_15 
REMARK    6  A    between atoms: C8_20  and  N7_21 
REMARK    7  A    between atoms: C8_20  and  N8_25 
ROOT
HETATM    1  C3  UNL     1      -0.009   0.007   0.032  1.00  0.00     0.707 A 
HETATM    2  N2  UNL     1       1.020  -0.858   0.073  1.00  0.00    -0.021 N 
ATOM      3  H2  UNL     1       0.820  -1.853   0.176  1.00  0.00     0.203 HD
HETATM    4  C4  UNL     1       2.302  -0.463  -0.017  1.00  0.00     0.708 A 
HETATM    5  N4  UNL     1       2.498   0.866  -0.153  1.00  0.00    -0.022 N 
ATOM      6  H4  UNL     1       3.455   1.213  -0.225  1.00  0.00     0.203 HD
HETATM    7  C7  UNL     1       1.494   1.748  -0.197  1.00  0.00     0.705 A 
HETATM    8  N6  UNL     1       0.225   1.322  -0.104  1.00  0.00    -0.022 N 
ATOM      9  H6  UNL     1      -0.549   1.986  -0.136  1.00  0.00     0.203 HD
ENDROOT
BRANCH   1  10
HETATM   10  N1  UNL     1      -1.238  -0.396   0.121  1.00  0.00    -0.217 N 
ATOM     11  H1  UNL     1      -1.388  -1.400   0.225  1.00  0.00     0.178 HD
BRANCH  10  12
HETATM   12  C2  UNL     1      -2.396   0.427   0.088  1.00  0.00     0.153 C 
HETATM   13  C1  UNL     1      -2.649   1.204   1.351  1.00  0.00     0.037 C 
BRANCH  12  14
HETATM   14  C8  UNL     1      -3.645  -0.391  -0.187  1.00  0.00     0.400 C 
BRANCH  14  15
HETATM   15  N7  UNL     1      -4.796   0.457  -0.356  1.00  0.00    -0.048 N 
ATOM     16  H73 UNL     1      -4.924   1.079   0.442  1.00  0.00     0.276 HD
ATOM     17  H72 UNL     1      -4.641   1.160  -1.079  1.00  0.00     0.276 HD
ATOM     18  H71 UNL     1      -5.635  -0.093  -0.541  1.00  0.00     0.276 HD
ENDBRANCH  14  15
BRANCH  14  19
HETATM   19  N8  UNL     1      -3.508  -1.224  -1.360  1.00  0.00    -0.048 N 
ATOM     20  H83 UNL     1      -3.243  -0.671  -2.175  1.00  0.00     0.276 HD
ATOM     21  H82 UNL     1      -2.684  -1.821  -1.293  1.00  0.00     0.276 HD
ATOM     22  H81 UNL     1      -4.347  -1.774  -1.545  1.00  0.00     0.276 HD
ENDBRANCH  14  19
ENDBRANCH  12  14
ENDBRANCH  10  12
ENDBRANCH   1  10
BRANCH   4  23
HETATM   23  N3  UNL     1       3.396  -1.362   0.025  1.00  0.00    -0.225 N 
HETATM   24  C5  UNL     1       3.244  -2.779   0.168  1.00  0.00     0.168 C 
HETATM   25  C6  UNL     1       4.743  -0.833  -0.080  1.00  0.00     0.168 C 
ENDBRANCH   4  23
BRANCH   7  26
HETATM   26  N5  UNL     1       1.738   3.015  -0.329  1.00  0.00    -0.234 N 
ATOM     27  H52 UNL     1       2.703   3.339  -0.400  1.00  0.00     0.174 HD
ATOM     28  H51 UNL     1       0.972   3.688  -0.363  1.00  0.00     0.174 HD
ENDBRANCH   7  26
TORSDOF 7
