REMARK  3 active torsions:
REMARK  status: ('A' for Active; 'I' for Inactive)
REMARK    1  A    between atoms: N1_1  and  C1_5 
REMARK    2  A    between atoms: C1_5  and  C2_6 
REMARK    3  A    between atoms: C1_5  and  C5_17 
ROOT
HETATM    1  C1  UNL     1      -0.092  -0.915   0.595  1.00  0.00     0.309 C 
ENDROOT
BRANCH   1   2
HETATM    2  N1  UNL     1       0.055  -2.322   0.372  1.00  0.00    -0.064 N 
ATOM      3  H13 UNL     1       0.488  -2.514  -0.531  1.00  0.00     0.275 HD
ATOM      4  H12 UNL     1       0.771  -2.724   0.978  1.00  0.00     0.275 HD
ATOM      5  H11 UNL     1      -0.836  -2.809   0.472  1.00  0.00     0.275 HD
ENDBRANCH   1   2
BRANCH   1   6
HETATM    6  C2  UNL     1       1.206  -0.206   0.450  1.00  0.00     0.134 A 
HETATM    7  N2  UNL     1       1.337   0.942  -0.234  1.00  0.00    -0.284 N 
HETATM    8  N3  UNL     1       2.506   1.546  -0.343  1.00  0.00    -0.260 N 
ATOM      9  H2  UNL     1       0.517   1.356  -0.678  1.00  0.00     0.188 HD
HETATM   10  C3  UNL     1       3.612   1.037   0.225  1.00  0.00     0.328 A 
ATOM     11  H3  UNL     1       2.571   2.417  -0.869  1.00  0.00     0.190 HD
HETATM   12  O1  UNL     1       4.695   1.651   0.090  1.00  0.00    -0.261 OA
HETATM   13  C4  UNL     1       3.503  -0.131   0.927  1.00  0.00     0.316 A 
HETATM   14  O2  UNL     1       4.536  -0.624   1.469  1.00  0.00    -0.262 OA
HETATM   15  N4  UNL     1       2.310  -0.720   1.021  1.00  0.00    -0.305 N 
ATOM     16  H4  UNL     1       2.232  -1.592   1.545  1.00  0.00     0.170 HD
ENDBRANCH   1   6
BRANCH   1  17
HETATM   17  C5  UNL     1      -1.060  -0.275  -0.367  1.00  0.00     0.420 C 
HETATM   18  N5  UNL     1      -2.395  -0.851  -0.264  1.00  0.00    -0.042 N 
HETATM   19  C6  UNL     1      -3.180   0.232  -0.868  1.00  0.00     0.262 C 
ATOM     20  H52 UNL     1      -2.516  -1.775  -0.679  1.00  0.00     0.279 HD
ATOM     21  H51 UNL     1      -2.684  -1.145   0.669  1.00  0.00     0.279 HD
HETATM   22  C7  UNL     1      -2.630   1.423  -0.110  1.00  0.00     0.262 C 
HETATM   23  N6  UNL     1      -1.242   1.113   0.015  1.00  0.00    -0.042 N 
ATOM     24  H62 UNL     1      -0.873   1.319   0.943  1.00  0.00     0.279 HD
ATOM     25  H61 UNL     1      -0.645   1.750  -0.513  1.00  0.00     0.279 HD
ENDBRANCH   1  17
TORSDOF 3
