REMARK  6 active torsions:
REMARK  status: ('A' for Active; 'I' for Inactive)
REMARK    1  A    between atoms: N1_1  and  C1_4 
REMARK    2  A    between atoms: C2_7  and  N3_8 
REMARK    3  A    between atoms: N3_8  and  S1_10 
REMARK    4  A    between atoms: S1_10  and  N4_11 
REMARK    5  A    between atoms: C3_20  and  C4_21 
REMARK    6  A    between atoms: N7_22  and  O3_24 
ROOT
HETATM    1  C1  UNL     1       0.965  -0.556  -1.059  1.00  0.00     0.144 A 
HETATM    2  N2  UNL     1      -0.293  -0.287  -0.625  1.00  0.00    -0.173 N 
ATOM      3  H2  UNL     1      -1.083  -0.489  -1.238  1.00  0.00     0.186 HD
HETATM    4  C2  UNL     1      -0.527   0.237   0.587  1.00  0.00     0.709 A 
HETATM    5  N5  UNL     1       0.513   0.518   1.429  1.00  0.00    -0.131 N 
ATOM      6  H5  UNL     1       0.335   0.916   2.351  1.00  0.00     0.205 HD
HETATM    7  N6  UNL     1       1.748   0.270   1.040  1.00  0.00    -0.281 N 
ATOM      8  H6  UNL     1       2.527   0.478   1.664  1.00  0.00     0.187 HD
HETATM    9  C3  UNL     1       1.989  -0.261  -0.188  1.00  0.00     0.110 A 
ENDROOT
BRANCH   4  10
HETATM   10  N3  UNL     1      -1.704   0.497   1.016  1.00  0.00    -0.098 N 
ATOM     11  H3  UNL     1      -1.830   0.895   1.947  1.00  0.00     0.199 HD
BRANCH  10  12
HETATM   12  S1  UNL     1      -3.070   0.178   0.030  1.00  0.00     0.330 S 
HETATM   13  O1  UNL     1      -3.121  -1.292  -0.294  1.00  0.00    -0.182 OA
HETATM   14  O2  UNL     1      -3.007   0.919  -1.287  1.00  0.00    -0.182 OA
BRANCH  12  15
HETATM   15  N4  UNL     1      -4.511   0.637   0.873  1.00  0.00    -0.311 N 
ATOM     16  H42 UNL     1      -4.528   1.035   1.812  1.00  0.00     0.170 HD
ATOM     17  H41 UNL     1      -5.324   0.447   0.286  1.00  0.00     0.170 HD
ENDBRANCH  12  15
ENDBRANCH  10  12
ENDBRANCH   4  10
BRANCH   1  18
HETATM   18  N1  UNL     1       1.227  -1.058  -2.214  1.00  0.00    -0.383 N 
ATOM     19  H12 UNL     1       0.468  -1.277  -2.860  1.00  0.00     0.157 HD
ATOM     20  H11 UNL     1       2.172  -1.260  -2.540  1.00  0.00     0.157 HD
ENDBRANCH   1  18
BRANCH   9  21
HETATM   21  C4  UNL     1       3.356  -0.518  -0.578  1.00  0.00     0.148 C 
HETATM   22  N7  UNL     1       4.345  -0.259   0.203  1.00  0.00    -0.278 N 
ATOM     23  H7  UNL     1       5.286  -0.465  -0.132  1.00  0.00     0.193 HD
BRANCH  22  24
HETATM   24  O3  UNL     1       4.214   0.269   1.441  1.00  0.00    -0.290 OA
ATOM     25  H3  UNL     1       4.944   0.460   2.018  1.00  0.00     0.244 HD
ENDBRANCH  22  24
ENDBRANCH   9  21
TORSDOF 6
