REMARK  7 active torsions:
REMARK  status: ('A' for Active; 'I' for Inactive)
REMARK    1  A    between atoms: N1_2  and  C2_4 
REMARK    2  A    between atoms: C3_7  and  N3_8 
REMARK    3  A    between atoms: N3_8  and  C4_10 
REMARK    4  A    between atoms: C4_10  and  C5_11 
REMARK    5  A    between atoms: C5_11  and  N4_12 
REMARK    6  A    between atoms: C8_20  and  N6_21 
REMARK    7  A    between atoms: N6_21  and  N7_23 
ROOT
HETATM    1  C2  UNL     1      -1.665   0.629  -1.026  1.00  0.00     0.134 A 
HETATM    2  N2  UNL     1      -0.440   1.108  -1.220  1.00  0.00    -0.176 N 
ATOM      3  H2  UNL     1      -0.281   1.720  -2.021  1.00  0.00     0.186 HD
HETATM    4  C3  UNL     1       0.601   0.828  -0.416  1.00  0.00     0.681 A 
HETATM    5  N5  UNL     1       0.413   0.026   0.642  1.00  0.00    -0.174 N 
ATOM      6  H5  UNL     1       1.198  -0.191   1.256  1.00  0.00     0.186 HD
HETATM    7  C6  UNL     1      -0.797  -0.496   0.904  1.00  0.00     0.155 A 
HETATM    8  C7  UNL     1      -1.859  -0.206   0.077  1.00  0.00     0.101 A 
HETATM    9  C8  UNL     1      -2.959  -0.869   0.580  1.00  0.00     0.152 A 
HETATM   10  N8  UNL     1      -2.553  -1.524   1.666  1.00  0.00    -0.280 N 
ATOM     11  H8  UNL     1      -3.154  -2.104   2.251  1.00  0.00     0.189 HD
HETATM   12  N9  UNL     1      -1.270  -1.321   1.883  1.00  0.00    -0.278 N 
HETATM   13  C9  UNL     1      -0.434  -1.849   2.956  1.00  0.00     0.179 C 
ENDROOT
BRANCH   4  14
HETATM   14  N3  UNL     1       1.731   1.335  -0.688  1.00  0.00    -0.224 N 
ATOM     15  H3  UNL     1       1.773   1.932  -1.514  1.00  0.00     0.177 HD
BRANCH  14  16
HETATM   16  C4  UNL     1       2.950   1.164   0.032  1.00  0.00     0.165 C 
BRANCH  16  17
HETATM   17  C5  UNL     1       3.665  -0.124  -0.299  1.00  0.00     0.249 C 
BRANCH  17  18
HETATM   18  N4  UNL     1       4.882  -0.191   0.486  1.00  0.00    -0.078 N 
ATOM     19  H43 UNL     1       5.475   0.629   0.359  1.00  0.00     0.274 HD
ATOM     20  H42 UNL     1       4.709  -0.085   1.486  1.00  0.00     0.274 HD
ATOM     21  H41 UNL     1       5.365  -1.061   0.262  1.00  0.00     0.274 HD
ENDBRANCH  17  18
ENDBRANCH  16  17
ENDBRANCH  14  16
ENDBRANCH   4  14
BRANCH   1  22
HETATM   22  N1  UNL     1      -2.679   0.862  -1.753  1.00  0.00    -0.379 N 
HETATM   23  C1  UNL     1      -2.616   1.709  -2.922  1.00  0.00     0.147 C 
ATOM     24  H1  UNL     1      -3.571   0.436  -1.503  1.00  0.00     0.160 HD
ENDBRANCH   1  22
BRANCH   9  25
HETATM   25  N6  UNL     1      -4.266  -0.809  -0.017  1.00  0.00    -0.290 N 
ATOM     26  H6  UNL     1      -4.516  -0.284  -0.855  1.00  0.00     0.188 HD
BRANCH  25  27
HETATM   27  N7  UNL     1      -5.146  -1.602   0.756  1.00  0.00    -0.344 N 
ATOM     28  H72 UNL     1      -4.883  -2.122   1.593  1.00  0.00     0.176 HD
ATOM     29  H71 UNL     1      -6.073  -1.559   0.333  1.00  0.00     0.176 HD
ENDBRANCH  25  27
ENDBRANCH   9  25
TORSDOF 7
