REMARK  4 active torsions:
REMARK  status: ('A' for Active; 'I' for Inactive)
REMARK    1  A    between atoms: C1_4  and  N2_5 
REMARK    2  A    between atoms: C3_7  and  C4_8 
REMARK    3  A    between atoms: N3_9  and  N4_11 
REMARK    4  A    between atoms: C7_20  and  N8_21 
ROOT
HETATM    1  N2  UNL     1      -2.363   1.113   1.427  1.00  0.00    -0.154 N 
HETATM    2  C2  UNL     1      -1.160   1.375   0.880  1.00  0.00     0.134 A 
HETATM    3  C3  UNL     1      -0.403   0.411   0.256  1.00  0.00     0.066 A 
HETATM    4  C6  UNL     1      -0.927  -0.861   0.205  1.00  0.00     0.272 A 
HETATM    5  O1  UNL     1      -0.295  -1.795  -0.349  1.00  0.00    -0.267 OA
HETATM    6  N7  UNL     1      -2.139  -1.157   0.747  1.00  0.00    -0.155 N 
ATOM      7  H7  UNL     1      -2.516  -2.104   0.702  1.00  0.00     0.187 HD
HETATM    8  C7  UNL     1      -2.825  -0.170   1.342  1.00  0.00     0.685 A 
ENDROOT
BRANCH   3   9
HETATM    9  C4  UNL     1       0.891   0.726  -0.324  1.00  0.00     0.125 C 
HETATM   10  N3  UNL     1       1.578  -0.215  -0.907  1.00  0.00    -0.309 N 
ATOM     11  H3  UNL     1       1.207  -1.164  -0.955  1.00  0.00     0.186 HD
BRANCH  10  12
HETATM   12  N4  UNL     1       2.824   0.079  -1.467  1.00  0.00    -0.276 N 
HETATM   13  C5  UNL     1       3.744  -0.808  -1.500  1.00  0.00     0.215 C 
HETATM   14  N5  UNL     1       4.994  -0.495  -2.068  1.00  0.00    -0.065 NA
HETATM   15  N6  UNL     1       3.516  -2.094  -0.971  1.00  0.00    -0.065 NA
ATOM     16  H4  UNL     1       3.001   1.007  -1.852  1.00  0.00     0.189 HD
ENDBRANCH  10  12
ENDBRANCH   3   9
BRANCH   1  17
HETATM   17  C1  UNL     1      -3.147   2.101   2.071  1.00  0.00     0.199 C 
HETATM   18  N1  UNL     1      -4.059   1.801   2.914  1.00  0.00    -0.394 N 
ATOM     19  H12 UNL     1      -4.215   0.814   3.118  1.00  0.00     0.156 HD
ATOM     20  H11 UNL     1      -4.624   2.513   3.378  1.00  0.00     0.156 HD
ENDBRANCH   1  17
BRANCH   8  21
HETATM   21  N8  UNL     1      -3.990  -0.414   1.873  1.00  0.00    -0.234 N 
ATOM     22  H82 UNL     1      -4.512   0.337   2.326  1.00  0.00     0.174 HD
ATOM     23  H81 UNL     1      -4.335  -1.372   1.810  1.00  0.00     0.174 HD
ENDBRANCH   8  21
TORSDOF 4
