REMARK  5 active torsions:
REMARK  status: ('A' for Active; 'I' for Inactive)
REMARK    1  A    between atoms: N1_1  and  C1_4 
REMARK    2  A    between atoms: C2_7  and  S1_8 
REMARK    3  A    between atoms: S1_8  and  C3_11 
REMARK    4  A    between atoms: C3_11  and  N3_12 
REMARK    5  A    between atoms: C3_11  and  N4_16 
ROOT
HETATM    1  C1  UNL     1       2.977  -0.123   0.299  1.00  0.00     0.682 A 
HETATM    2  N2  UNL     1       1.831  -0.632   0.778  1.00  0.00    -0.166 N 
ATOM      3  H2  UNL     1       1.860  -1.292   1.555  1.00  0.00     0.186 HD
HETATM    4  C2  UNL     1       0.628  -0.278   0.240  1.00  0.00     0.225 A 
HETATM    5  N5  UNL     1       0.571   0.590  -0.783  1.00  0.00    -0.284 N 
ATOM      6  H5  UNL     1      -0.327   0.855  -1.187  1.00  0.00     0.172 HD
HETATM    7  C4  UNL     1       1.717   1.105  -1.268  1.00  0.00     0.340 A 
HETATM    8  O3  UNL     1       1.639   1.922  -2.233  1.00  0.00    -0.246 OA
HETATM    9  N6  UNL     1       2.892   0.745  -0.726  1.00  0.00    -0.141 N 
ATOM     10  H6  UNL     1       3.751   1.144  -1.105  1.00  0.00     0.189 HD
ENDROOT
BRANCH   4  11
HETATM   11  S1  UNL     1      -0.826  -0.971   0.895  1.00  0.00     0.263 S 
HETATM   12  O1  UNL     1      -0.965  -0.633   2.360  1.00  0.00    -0.216 OA
HETATM   13  O2  UNL     1      -0.809  -2.463   0.730  1.00  0.00    -0.216 OA
BRANCH  11  14
HETATM   14  C3  UNL     1      -2.257  -0.355   0.067  1.00  0.00     0.505 C 
BRANCH  14  15
HETATM   15  N3  UNL     1      -2.480   1.057   0.262  1.00  0.00    -0.036 N 
ATOM     16  H33 UNL     1      -2.516   1.281   1.256  1.00  0.00     0.278 HD
ATOM     17  H32 UNL     1      -1.653   1.591  -0.004  1.00  0.00     0.278 HD
ATOM     18  H31 UNL     1      -3.307   1.413  -0.217  1.00  0.00     0.278 HD
ENDBRANCH  14  15
BRANCH  14  19
HETATM   19  N4  UNL     1      -3.468  -1.014   0.598  1.00  0.00    -0.036 N 
ATOM     20  H43 UNL     1      -3.404  -2.031   0.547  1.00  0.00     0.278 HD
ATOM     21  H42 UNL     1      -3.542  -0.920   1.611  1.00  0.00     0.278 HD
ATOM     22  H41 UNL     1      -4.295  -0.658   0.119  1.00  0.00     0.278 HD
ENDBRANCH  14  19
ENDBRANCH  11  14
ENDBRANCH   4  11
BRANCH   1  23
HETATM   23  N1  UNL     1       4.136  -0.455   0.806  1.00  0.00    -0.234 N 
ATOM     24  H12 UNL     1       4.200  -1.113   1.583  1.00  0.00     0.174 HD
ATOM     25  H11 UNL     1       5.007  -0.068   0.442  1.00  0.00     0.174 HD
ENDBRANCH   1  23
TORSDOF 5
