REMARK  7 active torsions:
REMARK  status: ('A' for Active; 'I' for Inactive)
REMARK    1  A    between atoms: C2_2  and  N1_5 
REMARK    2  A    between atoms: C5_6  and  O1_7 
REMARK    3  A    between atoms: C7_11  and  C8_12 
REMARK    4  A    between atoms: C13_17  and  O3_18 
REMARK    5  A    between atoms: C14_20  and  O4_21 
REMARK    6  A    between atoms: C16_24  and  C17_25 
REMARK    7  A    between atoms: C17_25  and  O5_26 
ROOT
HETATM    1  N1  UNL     1      -2.549   0.371   0.026  1.00  0.00    -0.317 N 
HETATM    2  C5  UNL     1      -1.473   1.220   0.063  1.00  0.00     0.179 A 
HETATM    3  C6  UNL     1      -0.332   0.495   0.119  1.00  0.00     0.141 A 
HETATM    4  O2  UNL     1       0.999   0.573   0.191  1.00  0.00    -0.306 OA
HETATM    5  C7  UNL     1       1.534  -0.606   0.233  1.00  0.00     0.094 A 
HETATM    6  C14 UNL     1       0.510  -1.527   0.181  1.00  0.00     0.111 A 
HETATM    7  C15 UNL     1      -0.662  -0.815   0.113  1.00  0.00     0.063 A 
HETATM    8  C16 UNL     1      -2.059  -0.833   0.058  1.00  0.00     0.054 A 
ENDROOT
BRANCH   5   9
HETATM    9  C8  UNL     1       2.976  -0.959   0.334  1.00  0.00     0.075 C 
HETATM   10  C9  UNL     1       3.553   0.200   1.206  1.00  0.00     0.014 C 
HETATM   11  C10 UNL     1       3.930   1.312   0.315  1.00  0.00     0.001 C 
HETATM   12  C11 UNL     1       5.270   0.914  -0.301  1.00  0.00     0.002 C 
HETATM   13  C12 UNL     1       5.144  -0.519  -0.750  1.00  0.00     0.032 C 
HETATM   14  C13 UNL     1       3.676  -0.885  -1.009  1.00  0.00     0.128 C 
BRANCH  14  15
HETATM   15  O3  UNL     1       3.671  -2.181  -1.577  1.00  0.00    -0.395 OA
ATOM     16  H3  UNL     1       4.110  -2.135  -2.418  1.00  0.00     0.210 HD
ENDBRANCH  14  15
ENDBRANCH   5   9
BRANCH   6  17
HETATM   17  O4  UNL     1       0.589  -2.923   0.187  1.00  0.00    -0.357 OA
ATOM     18  H4  UNL     1      -0.117  -3.558   0.151  1.00  0.00     0.217 HD
ENDBRANCH   6  17
BRANCH   2  19
HETATM   19  O1  UNL     1      -1.404   2.634   0.055  1.00  0.00    -0.344 OA
ATOM     20  H1  UNL     1      -0.658   3.222   0.081  1.00  0.00     0.219 HD
ENDBRANCH   2  19
BRANCH   8  21
HETATM   21  C17 UNL     1      -2.719  -2.141   0.032  1.00  0.00     0.222 C 
BRANCH  21  22
HETATM   22  O5  UNL     1      -2.465  -2.884   1.261  1.00  0.00    -0.395 OA
ATOM     23  H5  UNL     1      -2.893  -3.732   1.244  1.00  0.00     0.209 HD
ENDBRANCH  21  22
ENDBRANCH   8  21
BRANCH   1  24
HETATM   24  C2  UNL     1      -3.864   0.944  -0.043  1.00  0.00     0.028 C 
HETATM   25  C1  UNL     1      -3.959   2.117  -1.027  1.00  0.00     0.038 C 
HETATM   26  C3  UNL     1      -4.096   1.609   1.360  1.00  0.00     0.038 C 
HETATM   27  C4  UNL     1      -5.015   0.083  -0.355  1.00  0.00     0.038 C 
ENDBRANCH   1  24
TORSDOF 7
