REMARK  4 active torsions:
REMARK  status: ('A' for Active; 'I' for Inactive)
REMARK    1  A    between atoms: N1_1  and  C1_4 
REMARK    2  A    between atoms: C4_15  and  O1_16 
REMARK    3  A    between atoms: C5_18  and  C6_19 
REMARK    4  A    between atoms: C13_26  and  O2_27 
ROOT
HETATM    1  C1  UNL     1      -3.844   0.981  -0.380  1.00  0.00     0.703 A 
HETATM    2  N2  UNL     1      -5.052   0.366  -0.454  1.00  0.00    -0.163 N 
ATOM      3  H2  UNL     1      -5.879   0.905  -0.710  1.00  0.00     0.186 HD
HETATM    4  C2  UNL     1      -5.165  -0.923  -0.197  1.00  0.00     0.206 A 
HETATM    5  S1  UNL     1      -6.583  -1.713  -0.289  1.00  0.00    -0.039 SA
HETATM    6  N3  UNL     1      -4.066  -1.609   0.140  1.00  0.00    -0.252 N 
ATOM      7  H3  UNL     1      -4.137  -2.606   0.344  1.00  0.00     0.191 HD
HETATM    8  N4  UNL     1      -2.871  -1.000   0.213  1.00  0.00    -0.153 N 
HETATM    9  C3  UNL     1      -1.676  -1.503   0.531  1.00  0.00     0.164 A 
HETATM   10  N5  UNL     1      -1.020  -2.588   0.919  1.00  0.00    -0.319 N 
ATOM     11  H5  UNL     1      -1.448  -3.503   1.058  1.00  0.00     0.169 HD
HETATM   12  C4  UNL     1       0.265  -2.325   1.102  1.00  0.00     0.149 A 
HETATM   13  C5  UNL     1       0.532  -0.976   0.823  1.00  0.00     0.015 A 
HETATM   14  C12 UNL     1      -0.666  -0.431   0.467  1.00  0.00     0.076 A 
HETATM   15  C13 UNL     1      -1.435   0.672   0.098  1.00  0.00     0.197 A 
HETATM   16  N6  UNL     1      -2.730   0.279  -0.039  1.00  0.00    -0.040 N 
ENDROOT
BRANCH  13  17
HETATM   17  C6  UNL     1       1.831  -0.389   1.026  1.00  0.00     0.024 C 
HETATM   18  C7  UNL     1       2.866  -0.821  -0.007  1.00  0.00     0.009 C 
HETATM   19  C8  UNL     1       3.102   0.071  -1.159  1.00  0.00     0.001 C 
HETATM   20  C9  UNL     1       3.882   1.288  -0.606  1.00  0.00     0.000 C 
HETATM   21  C10 UNL     1       3.258   1.691   0.719  1.00  0.00     0.001 C 
HETATM   22  C11 UNL     1       1.827   1.135   0.818  1.00  0.00     0.009 C 
ENDBRANCH  13  17
BRANCH  12  23
HETATM   23  O1  UNL     1       1.204  -3.246   1.510  1.00  0.00    -0.346 OA
ATOM     24  H1  UNL     1       2.126  -3.057   1.641  1.00  0.00     0.219 HD
ENDBRANCH  12  23
BRANCH  15  25
HETATM   25  O2  UNL     1      -0.958   1.944  -0.087  1.00  0.00    -0.344 OA
ATOM     26  H2  UNL     1      -1.482   2.696  -0.338  1.00  0.00     0.219 HD
ENDBRANCH  15  25
BRANCH   1  27
HETATM   27  N1  UNL     1      -3.783   2.231  -0.611  1.00  0.00    -0.233 N 
ATOM     28  H12 UNL     1      -4.618   2.757  -0.867  1.00  0.00     0.174 HD
ATOM     29  H11 UNL     1      -2.875   2.693  -0.555  1.00  0.00     0.174 HD
ENDBRANCH   1  27
TORSDOF 4
