REMARK  2 active torsions:
REMARK  status: ('A' for Active; 'I' for Inactive)
REMARK    1  A    between atoms: C1_2  and  C2_3 
REMARK       I    between atoms: C2_3  and  N1_5 
REMARK    2  A    between atoms: N1_5  and  C3_7 
ROOT
HETATM    1  C2  UNL     1       1.725  -0.462  -0.087  1.00  0.00     0.279 C 
HETATM    2  O2  UNL     1       1.783  -1.677  -0.374  1.00  0.00    -0.265 OA
HETATM    3  N1  UNL     1       0.471   0.154   0.064  1.00  0.00    -0.350 N 
ATOM      4  H1  UNL     1       0.451   1.147   0.297  1.00  0.00     0.163 HD
ENDROOT
BRANCH   3   5
HETATM    5  C3  UNL     1      -0.793  -0.533  -0.091  1.00  0.00     0.085 A 
HETATM    6  C4  UNL     1      -2.000  -0.098   0.629  1.00  0.00     0.027 A 
HETATM    7  C5  UNL     1      -1.838   0.289  -0.834  1.00  0.00     0.027 A 
ENDBRANCH   3   5
BRANCH   1   8
HETATM    8  C1  UNL     1       2.934   0.317   0.090  1.00  0.00     0.332 C 
HETATM    9  O1  UNL     1       2.922   1.541   0.379  1.00  0.00    -0.297 OA
ENDBRANCH   1   8
TORSDOF 2
