REMARK  2 active torsions:
REMARK  status: ('A' for Active; 'I' for Inactive)
REMARK    1  A    between atoms: C1_2  and  N1_3 
REMARK    2  A    between atoms: N1_3  and  C2_5 
ROOT
HETATM    1  C2  UNL     1       0.093  -0.176  -0.914  1.00  0.00     0.106 A 
HETATM    2  C3  UNL     1      -1.015  -0.727  -0.925  1.00  0.00    -0.006 A 
HETATM    3  C4  UNL     1      -1.679  -0.739  -0.544  1.00  0.00    -0.029 A 
HETATM    4  C5  UNL     1      -2.230  -0.211   0.430  1.00  0.00     0.029 A 
HETATM    5  C6  UNL     1      -0.625   0.680   0.545  1.00  0.00     0.033 A 
ENDROOT
BRANCH   1   6
HETATM    6  N1  UNL     1       1.296  -0.655  -0.258  1.00  0.00    -0.360 N 
ATOM      7  H1  UNL     1       1.259  -1.516   0.287  1.00  0.00     0.162 HD
BRANCH   6   8
HETATM    8  C1  UNL     1       2.517   0.048  -0.360  1.00  0.00     0.349 C 
HETATM    9  O1  UNL     1       2.609   1.108  -1.018  1.00  0.00    -0.284 OA
ENDBRANCH   6   8
ENDBRANCH   1   6
TORSDOF 2
