REMARK  2 active torsions:
REMARK  status: ('A' for Active; 'I' for Inactive)
REMARK    1  A    between atoms: C2_2  and  C3_3 
REMARK    2  A    between atoms: C5_5  and  C6_6 
ROOT
HETATM    1  C3  UNL     1       0.722  -0.561   0.014  1.00  0.00     0.021 A 
HETATM    2  C4  UNL     1      -0.012  -1.273   1.078  1.00  0.00     0.023 A 
HETATM    3  C5  UNL     1      -0.659  -0.070   0.485  1.00  0.00     0.083 A 
ENDROOT
BRANCH   3   4
HETATM    4  C6  UNL     1      -1.764  -0.195  -0.486  1.00  0.00     0.235 C 
HETATM    5  N1  UNL     1      -2.724   0.851  -0.558  1.00  0.00    -0.062 NA
HETATM    6  O1  UNL     1      -1.916  -1.161  -1.254  1.00  0.00    -0.276 OA
ENDBRANCH   3   4
BRANCH   1   7
HETATM    7  C2  UNL     1       1.877   0.301   0.302  1.00  0.00    -0.031 C 
HETATM    8  C1  UNL     1       2.631   0.789  -0.674  1.00  0.00     0.007 C 
ENDBRANCH   1   7
TORSDOF 2
