REMARK  12 active torsions:
REMARK  status: ('A' for Active; 'I' for Inactive)
REMARK    1  A    between atoms: C2_2  and  C3_3 
REMARK    2  A    between atoms: C5_5  and  C6_6 
REMARK    3  A    between atoms: C7_7  and  C8_8 
REMARK    4  A    between atoms: C11_12  and  O2_13 
REMARK    5  A    between atoms: C12_15  and  O3_16 
REMARK    6  A    between atoms: C13_18  and  O4_19 
REMARK    7  A    between atoms: O4_19  and  C14_20 
REMARK    8  A    between atoms: C15_22  and  C16_23 
REMARK    9  A    between atoms: C16_23  and  O6_24 
REMARK   10  A    between atoms: C17_26  and  O7_27 
REMARK   11  A    between atoms: C19_30  and  O8_31 
REMARK   12  A    between atoms: C20_34  and  C21_35 
ROOT
HETATM    1  C8  UNL     1      -0.842  -1.478  -0.756  1.00  0.00     0.176 C 
HETATM    2  O1  UNL     1      -0.190  -2.500  -1.434  1.00  0.00    -0.372 OA
HETATM    3  C9  UNL     1      -1.038  -3.236  -2.245  1.00  0.00     0.149 C 
HETATM    4  C10 UNL     1      -1.609  -4.353  -1.397  1.00  0.00     0.042 C 
HETATM    5  C11 UNL     1      -2.109  -2.404  -2.883  1.00  0.00     0.178 C 
HETATM    6  C12 UNL     1      -1.879  -0.952  -2.875  1.00  0.00     0.181 C 
HETATM    7  C13 UNL     1      -1.074  -0.369  -1.767  1.00  0.00     0.188 C 
ENDROOT
BRANCH   7   8
HETATM    8  O4  UNL     1      -1.729   0.646  -1.094  1.00  0.00    -0.348 OA
BRANCH   8   9
HETATM    9  C14 UNL     1      -1.048   1.801  -0.876  1.00  0.00     0.289 C 
HETATM   10  O5  UNL     1      -0.880   2.169   0.425  1.00  0.00    -0.349 OA
HETATM   11  C15 UNL     1      -1.927   2.778   1.039  1.00  0.00     0.177 C 
HETATM   12  C17 UNL     1      -3.198   2.903   0.262  1.00  0.00     0.151 C 
HETATM   13  C18 UNL     1      -3.010   3.177  -1.195  1.00  0.00     0.071 C 
HETATM   14  C19 UNL     1      -1.571   2.994  -1.642  1.00  0.00     0.175 C 
BRANCH  11  15
HETATM   15  C16 UNL     1      -2.161   2.078   2.383  1.00  0.00     0.198 C 
BRANCH  15  16
HETATM   16  O6  UNL     1      -2.460   0.719   2.143  1.00  0.00    -0.398 OA
ATOM     17  H6  UNL     1      -2.605   0.285   2.976  1.00  0.00     0.209 HD
ENDBRANCH  15  16
ENDBRANCH  11  15
BRANCH  12  18
HETATM   18  O7  UNL     1      -3.919   1.724   0.448  1.00  0.00    -0.393 OA
ATOM     19  H7  UNL     1      -4.727   1.803  -0.046  1.00  0.00     0.210 HD
ENDBRANCH  12  18
BRANCH  14  20
HETATM   20  O8  UNL     1      -1.598   2.778  -3.011  1.00  0.00    -0.391 OA
ATOM     21  H8  UNL     1      -1.927   3.528  -3.493  1.00  0.00     0.210 HD
ENDBRANCH  14  20
ENDBRANCH   8   9
ENDBRANCH   7   8
BRANCH   1  22
HETATM   22  C7  UNL     1       0.152  -1.023   0.291  1.00  0.00     0.006 C 
HETATM   23  C6  UNL     1       1.425  -0.887  -0.031  1.00  0.00     0.003 C 
BRANCH  23  24
HETATM   24  C5  UNL     1       2.490  -0.456   0.882  1.00  0.00     0.146 C 
HETATM   25  C4  UNL     1       3.832  -1.067   0.550  1.00  0.00     0.047 C 
HETATM   26  C3  UNL     1       4.599  -0.798   1.854  1.00  0.00     0.050 C 
HETATM   27  C20 UNL     1       3.512  -0.442   2.800  1.00  0.00     0.230 C 
HETATM   28  O9  UNL     1       2.311  -0.861   2.205  1.00  0.00    -0.365 OA
BRANCH  26  29
HETATM   29  C2  UNL     1       5.552   0.282   1.549  1.00  0.00    -0.029 C 
HETATM   30  C1  UNL     1       5.571   1.509   2.005  1.00  0.00     0.007 C 
ENDBRANCH  26  29
BRANCH  27  31
HETATM   31  C21 UNL     1       3.682  -1.143   4.090  1.00  0.00     0.203 C 
HETATM   32  O10 UNL     1       2.824  -1.948   4.473  1.00  0.00    -0.646 OA
HETATM   33  O11 UNL     1       4.796  -0.913   4.883  1.00  0.00    -0.646 OA
ENDBRANCH  27  31
ENDBRANCH  23  24
ENDBRANCH   1  22
BRANCH   6  34
HETATM   34  O3  UNL     1      -3.116  -0.258  -2.889  1.00  0.00    -0.390 OA
ATOM     35  H3  UNL     1      -2.967   0.680  -2.884  1.00  0.00     0.210 HD
ENDBRANCH   6  34
BRANCH   5  36
HETATM   36  O2  UNL     1      -3.319  -2.702  -2.261  1.00  0.00    -0.390 OA
ATOM     37  H2  UNL     1      -3.998  -2.175  -2.665  1.00  0.00     0.210 HD
ENDBRANCH   5  36
TORSDOF 12
