REMARK  12 active torsions:
REMARK  status: ('A' for Active; 'I' for Inactive)
REMARK    1  A    between atoms: C2_2  and  C3_3 
REMARK    2  A    between atoms: C3_3  and  C4_4 
REMARK    3  A    between atoms: C5_6  and  O2_7 
REMARK    4  A    between atoms: O2_7  and  C6_8 
REMARK    5  A    between atoms: C7_10  and  C8_11 
REMARK    6  A    between atoms: C8_11  and  N1_12 
REMARK    7  A    between atoms: N1_12  and  C9_14 
REMARK    8  A    between atoms: C19_24  and  O4_25 
REMARK    9  A    between atoms: C20_27  and  O5_28 
REMARK   10  A    between atoms: C21_30  and  O6_31 
REMARK   11  A    between atoms: C22_33  and  O7_34 
REMARK   12  A    between atoms: C23_36  and  O8_37 
ROOT
HETATM    1  C6  UNL     1       1.267  -0.351  -0.465  1.00  0.00     0.294 C 
HETATM    2  O3  UNL     1       0.968  -1.146   0.629  1.00  0.00    -0.349 OA
HETATM    3  C7  UNL     1      -0.293  -1.726   0.573  1.00  0.00     0.173 C 
HETATM    4  C19 UNL     1      -0.225  -2.792  -0.483  1.00  0.00     0.180 C 
HETATM    5  C20 UNL     1       0.498  -2.392  -1.719  1.00  0.00     0.183 C 
HETATM    6  C21 UNL     1       0.972  -0.976  -1.777  1.00  0.00     0.204 C 
ENDROOT
BRANCH   1   7
HETATM    7  O2  UNL     1       2.607   0.012  -0.403  1.00  0.00    -0.326 OA
BRANCH   7   8
HETATM    8  C5  UNL     1       2.842   1.337  -0.180  1.00  0.00     0.294 C 
HETATM    9  O1  UNL     1       3.556   1.444   1.009  1.00  0.00    -0.351 OA
HETATM   10  C4  UNL     1       4.877   1.127   0.735  1.00  0.00     0.156 C 
HETATM   11  C23 UNL     1       5.098   1.170  -0.737  1.00  0.00     0.180 C 
HETATM   12  C22 UNL     1       3.810   1.850  -1.226  1.00  0.00     0.204 C 
BRANCH  10  13
HETATM   13  C3  UNL     1       5.191  -0.244   1.297  1.00  0.00     0.034 C 
BRANCH  13  14
HETATM   14  C2  UNL     1       6.618  -0.637   1.022  1.00  0.00    -0.002 C 
HETATM   15  C1  UNL     1       7.640   0.278   1.605  1.00  0.00     0.005 C 
ENDBRANCH  13  14
ENDBRANCH  10  13
BRANCH  11  16
HETATM   16  O8  UNL     1       6.216   1.908  -1.109  1.00  0.00    -0.390 OA
ATOM     17  H8  UNL     1       6.357   1.935  -2.048  1.00  0.00     0.210 HD
ENDBRANCH  11  16
BRANCH  12  18
HETATM   18  O7  UNL     1       3.944   3.240  -1.130  1.00  0.00    -0.388 OA
ATOM     19  H7  UNL     1       4.551   3.562  -1.786  1.00  0.00     0.210 HD
ENDBRANCH  12  18
ENDBRANCH   7   8
ENDBRANCH   1   7
BRANCH   6  20
HETATM   20  O6  UNL     1       2.138  -0.979  -2.581  1.00  0.00    -0.388 OA
ATOM     21  H6  UNL     1       1.949  -1.379  -3.422  1.00  0.00     0.210 HD
ENDBRANCH   6  20
BRANCH   3  22
HETATM   22  C8  UNL     1      -1.387  -0.721   0.379  1.00  0.00     0.149 C 
BRANCH  22  23
HETATM   23  N1  UNL     1      -2.706  -1.238   0.339  1.00  0.00    -0.410 N 
ATOM     24  H1  UNL     1      -2.888  -2.236   0.446  1.00  0.00     0.154 HD
BRANCH  23  25
HETATM   25  C9  UNL     1      -3.768  -0.309   0.144  1.00  0.00     0.026 C 
HETATM   26  C10 UNL     1      -3.727   0.417  -1.179  1.00  0.00     0.035 C 
HETATM   27  C11 UNL     1      -4.879   1.387  -1.245  1.00  0.00    -0.012 C 
HETATM   28  C12 UNL     1      -6.167   0.608  -1.261  1.00  0.00     0.009 C 
HETATM   29  C16 UNL     1      -4.846   2.362  -0.096  1.00  0.00     0.009 C 
HETATM   30  C13 UNL     1      -6.232  -0.201   0.004  1.00  0.00    -0.012 C 
HETATM   31  C14 UNL     1      -6.303   0.767   1.170  1.00  0.00     0.009 C 
HETATM   32  C18 UNL     1      -5.061  -1.141   0.125  1.00  0.00     0.035 C 
HETATM   33  C15 UNL     1      -5.049   1.587   1.171  1.00  0.00    -0.012 C 
HETATM   34  C17 UNL     1      -3.875   0.609   1.316  1.00  0.00     0.035 C 
ENDBRANCH  23  25
ENDBRANCH  22  23
ENDBRANCH   3  22
BRANCH   5  35
HETATM   35  O5  UNL     1       1.582  -3.269  -1.967  1.00  0.00    -0.390 OA
ATOM     36  H5  UNL     1       2.044  -3.013  -2.757  1.00  0.00     0.210 HD
ENDBRANCH   5  35
BRANCH   4  37
HETATM   37  O4  UNL     1       0.481  -3.872   0.110  1.00  0.00    -0.390 OA
ATOM     38  H4  UNL     1       0.524  -4.546  -0.558  1.00  0.00     0.210 HD
ENDBRANCH   4  37
TORSDOF 12
