REMARK  10 active torsions:
REMARK  status: ('A' for Active; 'I' for Inactive)
REMARK    1  A    between atoms: O1_2  and  C2_3 
REMARK    2  A    between atoms: C5_6  and  O2_7 
REMARK    3  A    between atoms: O2_7  and  C6_8 
REMARK    4  A    between atoms: C8_11  and  O4_12 
REMARK    5  A    between atoms: C9_14  and  N1_15 
REMARK       I    between atoms: N1_15  and  C10_17 
REMARK    6  A    between atoms: C11_22  and  O5_23 
REMARK    7  A    between atoms: C12_26  and  C13_27 
REMARK    8  A    between atoms: C13_27  and  O7_29 
REMARK    9  A    between atoms: C15_31  and  O8_32 
REMARK   10  A    between atoms: O8_32  and  C16_33 
ROOT
HETATM    1  C2  UNL     1      -1.673   1.142   1.187  1.00  0.00     0.161 C 
HETATM    2  C3  UNL     1      -0.234   1.475   0.833  1.00  0.00     0.069 C 
HETATM    3  C4  UNL     1      -0.108   2.865   0.218  1.00  0.00     0.017 C 
HETATM    4  C5  UNL     1       0.472   0.411   0.077  1.00  0.00     0.270 C 
HETATM    5  O6  UNL     1      -0.252  -0.726  -0.159  1.00  0.00    -0.350 OA
HETATM    6  C12 UNL     1      -1.519  -0.588  -0.620  1.00  0.00     0.184 C 
HETATM    7  C15 UNL     1      -2.407   0.360   0.166  1.00  0.00     0.183 C 
ENDROOT
BRANCH   4   8
HETATM    8  O2  UNL     1       1.619  -0.043   0.778  1.00  0.00    -0.328 OA
BRANCH   8   9
HETATM    9  C6  UNL     1       2.796   0.222   0.119  1.00  0.00     0.293 C 
HETATM   10  O3  UNL     1       3.670   0.948   0.935  1.00  0.00    -0.356 OA
HETATM   11  C7  UNL     1       4.676   1.449   0.117  1.00  0.00     0.205 C 
HETATM   12  C8  UNL     1       5.451   0.293  -0.446  1.00  0.00     0.167 C 
HETATM   13  C9  UNL     1       4.922  -0.998   0.125  1.00  0.00     0.148 C 
HETATM   14  C11 UNL     1       3.467  -1.099  -0.183  1.00  0.00     0.198 C 
BRANCH  12  15
HETATM   15  O4  UNL     1       6.809   0.462  -0.173  1.00  0.00    -0.391 OA
ATOM     16  H4  UNL     1       7.299  -0.269  -0.529  1.00  0.00     0.210 HD
ENDBRANCH  12  15
BRANCH  13  17
HETATM   17  N1  UNL     1       5.678  -2.150  -0.289  1.00  0.00    -0.355 N 
HETATM   18  C10 UNL     1       7.046  -2.269   0.015  1.00  0.00     0.182 C 
HETATM   19  N2  UNL     1       7.427  -2.146   1.238  1.00  0.00    -0.374 N 
HETATM   20  N3  UNL     1       8.024  -2.520  -0.971  1.00  0.00    -0.064 NA
ATOM     21  H22 UNL     1       6.720  -1.965   1.951  1.00  0.00     0.158 HD
ATOM     22  H21 UNL     1       8.419  -2.232   1.458  1.00  0.00     0.158 HD
ATOM     23  H1  UNL     1       5.214  -2.893  -0.812  1.00  0.00     0.162 HD
ENDBRANCH  13  17
BRANCH  14  24
HETATM   24  O5  UNL     1       3.211  -1.526  -1.482  1.00  0.00    -0.388 OA
ATOM     25  H5  UNL     1       3.633  -2.356  -1.672  1.00  0.00     0.210 HD
ENDBRANCH  14  24
ENDBRANCH   8   9
ENDBRANCH   4   8
BRANCH   1  26
HETATM   26  O1  UNL     1      -2.329   2.313   1.510  1.00  0.00    -0.387 OA
HETATM   27  C1  UNL     1      -2.583   2.468   2.852  1.00  0.00     0.202 C 
ENDBRANCH   1  26
BRANCH   6  28
HETATM   28  C13 UNL     1      -1.549  -0.408  -2.101  1.00  0.00     0.145 C 
HETATM   29  C14 UNL     1      -2.907  -0.354  -2.729  1.00  0.00     0.042 C 
BRANCH  28  30
HETATM   30  O7  UNL     1      -0.853   0.706  -2.567  1.00  0.00    -0.393 OA
ATOM     31  H7  UNL     1      -0.872   0.821  -3.510  1.00  0.00     0.210 HD
ENDBRANCH  28  30
ENDBRANCH   6  28
BRANCH   7  32
HETATM   32  O8  UNL     1      -3.412  -0.366   0.796  1.00  0.00    -0.375 OA
BRANCH  32  33
HETATM   33  C16 UNL     1      -4.689  -0.154   0.414  1.00  0.00     0.122 C 
HETATM   34  C17 UNL     1      -5.419  -1.421  -0.009  1.00  0.00     0.032 C 
HETATM   35  C18 UNL     1      -6.867  -0.962   0.047  1.00  0.00     0.002 C 
HETATM   36  C19 UNL     1      -6.928   0.101   1.101  1.00  0.00     0.002 C 
HETATM   37  C20 UNL     1      -5.513   0.208   1.627  1.00  0.00     0.032 C 
ENDBRANCH  32  33
ENDBRANCH   7  32
TORSDOF 10
