REMARK  5 active torsions:
REMARK  status: ('A' for Active; 'I' for Inactive)
REMARK    1  A    between atoms: N1_1  and  C1_4 
REMARK    2  A    between atoms: N4_11  and  C3_12 
REMARK    3  A    between atoms: C3_12  and  C4_13 
REMARK       I    between atoms: C4_13  and  N5_15 
REMARK    4  A    between atoms: N5_15  and  C5_17 
REMARK    5  A    between atoms: C5_17  and  C6_18 
ROOT
HETATM    1  C4  UNL     1      -0.083  -0.535   0.909  1.00  0.00     0.239 C 
HETATM    2  O2  UNL     1      -0.151   0.401   1.742  1.00  0.00    -0.272 OA
HETATM    3  N5  UNL     1      -1.153  -0.826   0.038  1.00  0.00    -0.309 N 
ATOM      4  H5  UNL     1      -1.015  -1.604  -0.608  1.00  0.00     0.167 HD
ENDROOT
BRANCH   1   5
HETATM    5  C3  UNL     1       1.169  -1.329   0.875  1.00  0.00     0.240 C 
BRANCH   5   6
HETATM    6  N4  UNL     1       2.232  -0.670   0.188  1.00  0.00    -0.253 N 
HETATM    7  C2  UNL     1       2.473  -0.745  -1.141  1.00  0.00     0.344 A 
HETATM    8  N3  UNL     1       3.506  -0.110  -1.717  1.00  0.00    -0.249 N 
HETATM    9  O1  UNL     1       1.712  -1.425  -1.842  1.00  0.00    -0.245 OA
HETATM   10  N2  UNL     1       4.322   0.617  -0.976  1.00  0.00    -0.277 N 
ATOM     11  H3  UNL     1       3.660  -0.189  -2.722  1.00  0.00     0.192 HD
HETATM   12  C1  UNL     1       4.157   0.746   0.344  1.00  0.00     0.183 A 
ATOM     13  H2  UNL     1       5.103   1.095  -1.425  1.00  0.00     0.189 HD
HETATM   14  C8  UNL     1       3.096   0.091   0.924  1.00  0.00     0.297 A 
HETATM   15  O6  UNL     1       2.927   0.202   2.165  1.00  0.00    -0.264 OA
BRANCH  12  16
HETATM   16  N1  UNL     1       4.975   1.459   1.037  1.00  0.00    -0.380 N 
ATOM     17  H12 UNL     1       5.762   1.945   0.607  1.00  0.00     0.158 HD
ATOM     18  H11 UNL     1       4.849   1.557   2.044  1.00  0.00     0.158 HD
ENDBRANCH  12  16
ENDBRANCH   5   6
ENDBRANCH   1   5
BRANCH   3  19
HETATM   19  C5  UNL     1      -2.406  -0.153  -0.039  1.00  0.00     0.295 C 
HETATM   20  N6  UNL     1      -3.168  -0.164   1.203  1.00  0.00    -0.071 NA
HETATM   21  N7  UNL     1      -4.082   0.887   0.947  1.00  0.00    -0.251 N 
HETATM   22  C7  UNL     1      -3.434   1.858   0.108  1.00  0.00     0.335 C 
ATOM     23  H7  UNL     1      -5.038   0.945   1.298  1.00  0.00     0.187 HD
HETATM   24  O5  UNL     1      -3.872   2.989  -0.177  1.00  0.00    -0.246 OA
HETATM   25  N8  UNL     1      -2.195   1.259  -0.321  1.00  0.00    -0.291 N 
ATOM     26  H8  UNL     1      -1.374   1.712  -0.723  1.00  0.00     0.168 HD
BRANCH  19  27
HETATM   27  C6  UNL     1      -3.250  -0.772  -1.081  1.00  0.00     0.245 C 
HETATM   28  O3  UNL     1      -2.804  -1.744  -1.729  1.00  0.00    -0.644 OA
HETATM   29  O4  UNL     1      -4.511  -0.260  -1.315  1.00  0.00    -0.644 OA
ENDBRANCH  19  27
ENDBRANCH   3  19
TORSDOF 5
