REMARK  10 active torsions:
REMARK  status: ('A' for Active; 'I' for Inactive)
REMARK    1  A    between atoms: C2_2  and  C3_4 
REMARK       I    between atoms: C3_4  and  N1_6 
REMARK    2  A    between atoms: N1_6  and  C4_7 
REMARK    3  A    between atoms: C5_10  and  N3_11 
REMARK    4  A    between atoms: N3_11  and  N4_13 
REMARK    5  A    between atoms: N4_13  and  O3_15 
REMARK    6  A    between atoms: C6_19  and  N6_20 
REMARK    7  A    between atoms: N6_20  and  N7_22 
REMARK    8  A    between atoms: N7_22  and  C7_24 
REMARK    9  A    between atoms: C7_24  and  O4_25 
REMARK   10  A    between atoms: C7_24  and  C8_27 
ROOT
HETATM    1  C4  UNL     1      -1.088   0.445  -0.357  1.00  0.00     0.291 A 
HETATM    2  N2  UNL     1      -1.554   1.690  -0.030  1.00  0.00    -0.146 N 
ATOM      3  H2  UNL     1      -2.560   1.860  -0.037  1.00  0.00     0.188 HD
HETATM    4  C5  UNL     1      -0.729   2.691   0.299  1.00  0.00     0.716 A 
HETATM    5  N5  UNL     1       0.595   2.501   0.321  1.00  0.00    -0.019 N 
ATOM      6  H5  UNL     1       1.215   3.270   0.575  1.00  0.00     0.203 HD
HETATM    7  C6  UNL     1       1.104   1.317   0.014  1.00  0.00     0.714 A 
HETATM    8  N9  UNL     1       0.274   0.319  -0.315  1.00  0.00    -0.146 N 
ATOM      9  H9  UNL     1       0.680  -0.587  -0.548  1.00  0.00     0.188 HD
ENDROOT
BRANCH   7  10
HETATM   10  N6  UNL     1       2.388   1.162   0.043  1.00  0.00    -0.133 N 
ATOM     11  H6  UNL     1       3.009   1.931   0.296  1.00  0.00     0.205 HD
BRANCH  10  12
HETATM   12  N7  UNL     1       2.891  -0.099  -0.285  1.00  0.00    -0.285 N 
ATOM     13  H7  UNL     1       2.767  -0.490  -1.219  1.00  0.00     0.184 HD
BRANCH  12  14
HETATM   14  C7  UNL     1       3.595  -0.832   0.747  1.00  0.00     0.324 C 
BRANCH  14  15
HETATM   15  O4  UNL     1       2.753  -1.050   1.818  1.00  0.00    -0.367 OA
ATOM     16  H4  UNL     1       3.215  -1.531   2.495  1.00  0.00     0.212 HD
ENDBRANCH  14  15
BRANCH  14  17
HETATM   17  C8  UNL     1       4.139  -2.100   0.212  1.00  0.00     0.281 C 
HETATM   18  N8  UNL     1       5.023  -2.093  -0.887  1.00  0.00    -0.058 NA
HETATM   19  O5  UNL     1       3.815  -3.198   0.737  1.00  0.00    -0.272 OA
ENDBRANCH  14  17
ENDBRANCH  12  14
ENDBRANCH  10  12
ENDBRANCH   7  10
BRANCH   4  20
HETATM   20  N3  UNL     1      -1.215   3.841   0.598  1.00  0.00    -0.112 N 
ATOM     21  H3  UNL     1      -0.580   4.598   0.849  1.00  0.00     0.207 HD
BRANCH  20  22
HETATM   22  N4  UNL     1      -2.592   4.083   0.589  1.00  0.00    -0.196 N 
ATOM     23  H4  UNL     1      -3.247   3.414   0.993  1.00  0.00     0.216 HD
BRANCH  22  24
HETATM   24  O3  UNL     1      -3.024   5.225   0.031  1.00  0.00    -0.274 OA
ATOM     25  H3  UNL     1      -3.960   5.389   0.025  1.00  0.00     0.246 HD
ENDBRANCH  22  24
ENDBRANCH  20  22
ENDBRANCH   4  20
BRANCH   1  26
HETATM   26  N1  UNL     1      -1.769  -0.480  -0.657  1.00  0.00    -0.327 NA
HETATM   27  C3  UNL     1      -2.552  -1.468  -0.982  1.00  0.00     0.364 C 
HETATM   28  O2  UNL     1      -2.701  -1.840  -2.203  1.00  0.00    -0.248 OA
BRANCH  27  29
HETATM   29  C2  UNL     1      -3.318  -2.227  -0.007  1.00  0.00     0.227 C 
HETATM   30  C1  UNL     1      -4.197  -3.343  -0.413  1.00  0.00     0.103 C 
HETATM   31  O1  UNL     1      -3.229  -1.928   1.206  1.00  0.00    -0.286 OA
ENDBRANCH  27  29
ENDBRANCH   1  26
TORSDOF 10
