REMARK  4 active torsions:
REMARK  status: ('A' for Active; 'I' for Inactive)
REMARK       I    between atoms: N4_13  and  C7_15 
REMARK    1  A    between atoms: C7_15  and  C8_17 
REMARK    2  A    between atoms: C8_17  and  N5_18 
REMARK    3  A    between atoms: C8_17  and  C9_22 
REMARK    4  A    between atoms: C9_22  and  N6_23 
ROOT
HETATM    1  C1  UNL     1       5.029   0.379   0.443  1.00  0.00     0.157 C 
HETATM    2  N1  UNL     1       3.802   1.048   0.855  1.00  0.00    -0.340 N 
HETATM    3  C2  UNL     1       3.593   1.844   1.910  1.00  0.00     0.184 A 
HETATM    4  N2  UNL     1       2.309   2.250   1.915  1.00  0.00    -0.335 N 
ATOM      5  H2  UNL     1       1.886   2.865   2.610  1.00  0.00     0.168 HD
HETATM    6  C3  UNL     1       1.671   1.713   0.852  1.00  0.00     0.154 A 
HETATM    7  C4  UNL     1       2.631   0.961   0.199  1.00  0.00     0.150 A 
HETATM    8  C5  UNL     1       2.418   0.186  -1.017  1.00  0.00     0.290 C 
HETATM    9  O1  UNL     1       3.454  -0.114  -1.655  1.00  0.00    -0.265 OA
HETATM   10  N3  UNL     1       1.160  -0.259  -1.545  1.00  0.00    -0.153 N 
ATOM     11  H3  UNL     1       1.229  -0.958  -2.285  1.00  0.00     0.187 HD
HETATM   12  C6  UNL     1      -0.165   0.118  -1.202  1.00  0.00     0.702 C 
HETATM   13  N4  UNL     1      -1.064  -0.608  -1.719  1.00  0.00    -0.156 N 
ATOM     14  H4  UNL     1      -0.740  -1.370  -2.314  1.00  0.00     0.187 HD
HETATM   15  C7  UNL     1      -2.443  -0.489  -1.571  1.00  0.00     0.268 C 
HETATM   16  O2  UNL     1      -3.075   0.354  -2.238  1.00  0.00    -0.270 OA
HETATM   17  N7  UNL     1      -0.526   1.204  -0.360  1.00  0.00    -0.130 N 
ATOM     18  H7  UNL     1      -1.500   1.503  -0.400  1.00  0.00     0.205 HD
HETATM   19  N8  UNL     1       0.304   1.909   0.517  1.00  0.00    -0.269 N 
ATOM     20  H8  UNL     1      -0.145   2.691   0.994  1.00  0.00     0.189 HD
ENDROOT
BRANCH  15  21
HETATM   21  C8  UNL     1      -3.165  -1.358  -0.627  1.00  0.00     0.300 C 
BRANCH  21  22
HETATM   22  N5  UNL     1      -4.573  -1.025  -0.670  1.00  0.00    -0.065 N 
ATOM     23  H53 UNL     1      -4.745  -0.035  -0.497  1.00  0.00     0.275 HD
ATOM     24  H52 UNL     1      -4.956  -1.072  -1.614  1.00  0.00     0.275 HD
ATOM     25  H51 UNL     1      -5.073  -1.627  -0.016  1.00  0.00     0.275 HD
ENDBRANCH  21  22
BRANCH  21  26
HETATM   26  C9  UNL     1      -2.687  -1.173   0.798  1.00  0.00     0.272 C 
BRANCH  26  27
HETATM   27  N6  UNL     1      -3.476  -2.084   1.629  1.00  0.00    -0.077 N 
ATOM     28  H63 UNL     1      -4.482  -1.956   1.522  1.00  0.00     0.274 HD
ATOM     29  H62 UNL     1      -3.436  -3.053   1.314  1.00  0.00     0.274 HD
ATOM     30  H61 UNL     1      -3.154  -1.959   2.589  1.00  0.00     0.274 HD
ENDBRANCH  26  27
ENDBRANCH  21  26
ENDBRANCH  15  21
TORSDOF 4
