REMARK  4 active torsions:
REMARK  status: ('A' for Active; 'I' for Inactive)
REMARK    1  A    between atoms: C3_5  and  N2_6 
REMARK    2  A    between atoms: N2_6  and  N3_8 
REMARK    3  A    between atoms: N3_8  and  C4_10 
REMARK       I    between atoms: N4_11  and  C5_13 
REMARK    4  A    between atoms: C7_21  and  N8_22 
ROOT
HETATM    1  C1  UNL     1      -3.399  -1.994   1.149  1.00  0.00     0.047 C 
HETATM    2  C2  UNL     1      -2.454  -1.201   0.675  1.00  0.00     0.071 A 
HETATM    3  N1  UNL     1      -1.156  -1.534   0.727  1.00  0.00    -0.334 N 
ATOM      4  H1  UNL     1      -0.891  -2.426   1.145  1.00  0.00     0.168 HD
HETATM    5  C3  UNL     1      -0.176  -0.713   0.236  1.00  0.00     0.192 A 
HETATM    6  C6  UNL     1      -0.515   0.496  -0.332  1.00  0.00     0.314 A 
HETATM    7  O2  UNL     1       0.360   1.274  -0.792  1.00  0.00    -0.262 OA
HETATM    8  N6  UNL     1      -1.837   0.814  -0.374  1.00  0.00    -0.183 N 
HETATM    9  N7  UNL     1      -2.435   1.891  -0.855  1.00  0.00    -0.121 N 
ATOM     10  H7  UNL     1      -1.953   2.679  -1.287  1.00  0.00     0.206 HD
HETATM   11  C7  UNL     1      -3.764   1.802  -0.695  1.00  0.00     0.692 A 
HETATM   12  N9  UNL     1      -3.997   0.625  -0.093  1.00  0.00    -0.172 N 
ATOM     13  H9  UNL     1      -4.912   0.257   0.169  1.00  0.00     0.186 HD
HETATM   14  C8  UNL     1      -2.798   0.007   0.108  1.00  0.00     0.172 A 
ENDROOT
BRANCH   5  15
HETATM   15  N2  UNL     1       1.058  -1.093   0.317  1.00  0.00    -0.280 N 
ATOM     16  H2  UNL     1       1.285  -1.992   0.742  1.00  0.00     0.188 HD
BRANCH  15  17
HETATM   17  N3  UNL     1       2.072  -0.286  -0.170  1.00  0.00    -0.294 N 
ATOM     18  H3  UNL     1       2.256  -0.195  -1.169  1.00  0.00     0.187 HD
BRANCH  17  19
HETATM   19  C4  UNL     1       2.854   0.420   0.817  1.00  0.00     0.201 C 
HETATM   20  N4  UNL     1       4.137   0.282   0.843  1.00  0.00    -0.306 N 
HETATM   21  C5  UNL     1       4.777  -0.553  -0.084  1.00  0.00     0.333 C 
ATOM     22  H4  UNL     1       4.688   0.782   1.541  1.00  0.00     0.171 HD
HETATM   23  N5  UNL     1       6.064  -0.225  -0.569  1.00  0.00    -0.040 NA
HETATM   24  O1  UNL     1       4.174  -1.591  -0.465  1.00  0.00    -0.251 OA
ENDBRANCH  17  19
ENDBRANCH  15  17
ENDBRANCH   5  15
BRANCH  11  25
HETATM   25  N8  UNL     1      -4.630   2.711  -1.069  1.00  0.00    -0.233 N 
ATOM     26  H82 UNL     1      -4.453   3.605  -1.526  1.00  0.00     0.174 HD
ATOM     27  H81 UNL     1      -5.640   2.643  -0.947  1.00  0.00     0.174 HD
ENDBRANCH  11  25
TORSDOF 4
