REMARK  2 active torsions:
REMARK  status: ('A' for Active; 'I' for Inactive)
REMARK       I    between atoms: N4_11  and  C5_13 
REMARK    1  A    between atoms: C5_13  and  C6_15 
REMARK    2  A    between atoms: C6_15  and  N5_16 
REMARK       I    between atoms: N5_16  and  C7_18 
ROOT
HETATM    1  C1  UNL     1      -4.280   1.551  -0.860  1.00  0.00     0.161 C 
HETATM    2  N1  UNL     1      -3.765   0.555   0.057  1.00  0.00    -0.298 N 
HETATM    3  C2  UNL     1      -4.469  -0.069   1.029  1.00  0.00     0.328 A 
HETATM    4  O1  UNL     1      -5.700   0.151   1.260  1.00  0.00    -0.246 OA
HETATM    5  N2  UNL     1      -3.655  -0.918   1.667  1.00  0.00    -0.292 N 
ATOM      6  H2  UNL     1      -3.928  -1.517   2.446  1.00  0.00     0.172 HD
HETATM    7  C3  UNL     1      -2.432  -0.865   1.134  1.00  0.00     0.155 A 
HETATM    8  N3  UNL     1      -1.273  -1.500   1.397  1.00  0.00    -0.174 N 
ATOM      9  H3  UNL     1      -1.221  -2.188   2.148  1.00  0.00     0.186 HD
HETATM   10  C4  UNL     1      -0.182  -1.216   0.657  1.00  0.00     0.688 A 
HETATM   11  N4  UNL     1       0.902  -1.856   0.954  1.00  0.00    -0.158 N 
ATOM     12  H4  UNL     1       0.925  -2.540   1.710  1.00  0.00     0.187 HD
HETATM   13  C5  UNL     1       2.053  -1.568   0.187  1.00  0.00     0.253 C 
HETATM   14  O2  UNL     1       2.217  -2.162  -0.898  1.00  0.00    -0.271 OA
HETATM   15  N7  UNL     1      -0.250  -0.308  -0.334  1.00  0.00    -0.176 N 
ATOM     16  H7  UNL     1       0.593  -0.116  -0.875  1.00  0.00     0.185 HD
HETATM   17  C8  UNL     1      -1.376   0.360  -0.647  1.00  0.00     0.162 A 
HETATM   18  N8  UNL     1      -1.415   1.323  -1.712  1.00  0.00    -0.080 NA
HETATM   19  C9  UNL     1      -2.497   0.074   0.106  1.00  0.00     0.125 A 
ENDROOT
BRANCH  13  20
HETATM   20  C6  UNL     1       3.033  -0.583   0.670  1.00  0.00     0.227 C 
BRANCH  20  21
HETATM   21  N5  UNL     1       4.144  -0.416  -0.242  1.00  0.00    -0.337 N 
HETATM   22  C7  UNL     1       5.173   0.497   0.082  1.00  0.00     0.329 C 
HETATM   23  N6  UNL     1       6.283   0.677  -0.809  1.00  0.00    -0.040 NA
HETATM   24  O3  UNL     1       5.107   1.157   1.165  1.00  0.00    -0.251 OA
ATOM     25  H5  UNL     1       4.184  -0.951  -1.109  1.00  0.00     0.164 HD
ENDBRANCH  20  21
ENDBRANCH  13  20
TORSDOF 2
