REMARK  4 active torsions:
REMARK  status: ('A' for Active; 'I' for Inactive)
REMARK    1  A    between atoms: N1_2  and  C2_5 
REMARK    2  A    between atoms: C3_6  and  O1_8 
REMARK    3  A    between atoms: N2_11  and  O2_13 
REMARK    4  A    between atoms: C10_21  and  N3_22 
ROOT
HETATM    1  C2  UNL     1       1.363  -0.271  -0.070  1.00  0.00     0.271 C 
HETATM    2  C3  UNL     1       1.475   1.235  -0.090  1.00  0.00     0.129 C 
HETATM    3  C4  UNL     1       2.708   1.782   0.554  1.00  0.00     0.055 C 
HETATM    4  C5  UNL     1       0.239   1.266   0.736  1.00  0.00     0.088 C 
HETATM    5  N2  UNL     1      -0.262   2.134   1.518  1.00  0.00    -0.271 N 
ATOM      6  H2  UNL     1      -1.143   1.925   1.987  1.00  0.00     0.193 HD
HETATM    7  C6  UNL     1      -0.079  -0.083   0.183  1.00  0.00     0.210 C 
HETATM    8  O3  UNL     1      -0.928  -0.042  -0.915  1.00  0.00    -0.330 OA
HETATM    9  C7  UNL     1      -2.205  -0.164  -0.398  1.00  0.00     0.163 C 
HETATM   10  C8  UNL     1      -3.069  -1.003  -1.323  1.00  0.00     0.078 C 
HETATM   11  C9  UNL     1      -2.913   1.159  -0.223  1.00  0.00     0.078 C 
HETATM   12  O4  UNL     1      -2.106  -0.727   0.867  1.00  0.00    -0.304 OA
HETATM   13  C10 UNL     1      -0.773  -1.041   1.081  1.00  0.00     0.355 C 
HETATM   14  C11 UNL     1      -0.376  -0.935   2.463  1.00  0.00     0.132 C 
HETATM   15  N4  UNL     1      -0.055  -0.867   3.548  1.00  0.00    -0.192 NA
ENDROOT
BRANCH  13  16
HETATM   16  N3  UNL     1      -0.604  -2.413   0.584  1.00  0.00    -0.029 N 
ATOM     17  H33 UNL     1      -0.909  -2.508  -0.385  1.00  0.00     0.279 HD
ATOM     18  H32 UNL     1       0.379  -2.654   0.456  1.00  0.00     0.279 HD
ATOM     19  H31 UNL     1      -1.081  -3.071   1.201  1.00  0.00     0.279 HD
ENDBRANCH  13  16
BRANCH   1  20
HETATM   20  N1  UNL     1       1.775  -0.962  -1.247  1.00  0.00    -0.068 N 
HETATM   21  C1  UNL     1       2.440  -2.201  -0.826  1.00  0.00     0.267 C 
ATOM     22  H12 UNL     1       2.355  -0.389  -1.861  1.00  0.00     0.277 HD
ATOM     23  H11 UNL     1       1.009  -1.125  -1.900  1.00  0.00     0.277 HD
ENDBRANCH   1  20
BRANCH   2  24
HETATM   24  O1  UNL     1       1.251   1.806  -1.345  1.00  0.00    -0.382 OA
ATOM     25  H1  UNL     1       1.321   2.753  -1.358  1.00  0.00     0.211 HD
ENDBRANCH   2  24
BRANCH   5  26
HETATM   26  O2  UNL     1       0.338   3.333   1.750  1.00  0.00    -0.290 OA
ATOM     27  H2  UNL     1      -0.036   3.982   2.334  1.00  0.00     0.244 HD
ENDBRANCH   5  26
TORSDOF 4
