REMARK  6 active torsions:
REMARK  status: ('A' for Active; 'I' for Inactive)
REMARK    1  A    between atoms: O1_2  and  C2_3 
REMARK    2  A    between atoms: C2_3  and  C3_5 
REMARK    3  A    between atoms: C3_5  and  O3_6 
REMARK    4  A    between atoms: C3_5  and  C4_8 
REMARK    5  A    between atoms: C6_10  and  N1_11 
REMARK    6  A    between atoms: N3_23  and  O6_25 
ROOT
HETATM    1  C4  UNL     1       0.868  -0.657  -0.210  1.00  0.00     0.232 C 
HETATM    2  C5  UNL     1       0.211  -1.974  -0.568  1.00  0.00     0.069 C 
HETATM    3  C6  UNL     1      -1.055  -2.060   0.212  1.00  0.00     0.192 C 
HETATM    4  C7  UNL     1      -1.898  -0.829   0.179  1.00  0.00     0.137 C 
HETATM    5  C8  UNL     1      -1.168   0.455  -0.003  1.00  0.00     0.374 C 
HETATM    6  N2  UNL     1       0.043   0.368  -0.775  1.00  0.00    -0.007 N 
ATOM      7  H21 UNL     1      -0.135   0.224  -1.769  1.00  0.00     0.284 HD
ATOM      8  H22 UNL     1       0.526   1.263  -0.849  1.00  0.00     0.284 HD
HETATM    9  O4  UNL     1      -0.950   1.122   1.205  1.00  0.00    -0.160 OA
HETATM   10  O5  UNL     1      -2.230   1.413   1.552  1.00  0.00    -0.145 OA
HETATM   11  C9  UNL     1      -2.911   1.757   0.374  1.00  0.00     0.318 C 
HETATM   12  N3  UNL     1      -4.080   2.306   0.289  1.00  0.00    -0.224 N 
ATOM     13  H3  UNL     1      -4.622   2.542   1.120  1.00  0.00     0.198 HD
HETATM   14  O7  UNL     1      -2.043   1.372  -0.642  1.00  0.00    -0.248 OA
ENDROOT
BRANCH   3  15
HETATM   15  N1  UNL     1      -1.824  -3.193  -0.333  1.00  0.00    -0.075 N 
ATOM     16  H13 UNL     1      -1.978  -3.125  -1.339  1.00  0.00     0.274 HD
ATOM     17  H12 UNL     1      -1.298  -4.067  -0.340  1.00  0.00     0.274 HD
ATOM     18  H11 UNL     1      -2.691  -3.252   0.201  1.00  0.00     0.274 HD
ENDBRANCH   3  15
BRANCH   1  19
HETATM   19  C3  UNL     1       2.304  -0.603  -0.638  1.00  0.00     0.248 C 
BRANCH  19  20
HETATM   20  C2  UNL     1       2.996   0.614  -0.171  1.00  0.00     0.289 C 
HETATM   21  O2  UNL     1       3.596   1.358  -0.991  1.00  0.00    -0.262 OA
BRANCH  20  22
HETATM   22  O1  UNL     1       3.028   0.999   1.161  1.00  0.00    -0.324 OA
HETATM   23  C1  UNL     1       3.711   2.182   1.547  1.00  0.00     0.213 C 
ENDBRANCH  20  22
ENDBRANCH  19  20
BRANCH  19  24
HETATM   24  O3  UNL     1       2.442  -0.732  -2.019  1.00  0.00    -0.383 OA
ATOM     25  H3  UNL     1       1.997  -1.515  -2.320  1.00  0.00     0.210 HD
ENDBRANCH  19  24
ENDBRANCH   1  19
BRANCH  12  26
HETATM   26  O6  UNL     1      -4.555   2.556  -0.977  1.00  0.00    -0.286 OA
ATOM     27  H6  UNL     1      -5.413   2.959  -1.039  1.00  0.00     0.244 HD
ENDBRANCH  12  26
TORSDOF 6
