REMARK  6 active torsions:
REMARK  status: ('A' for Active; 'I' for Inactive)
REMARK    1  A    between atoms: O1_2  and  C2_3 
REMARK       I    between atoms: C2_3  and  N1_5 
REMARK    2  A    between atoms: N1_5  and  C3_7 
REMARK    3  A    between atoms: C3_7  and  O3_8 
REMARK    4  A    between atoms: C4_10  and  O4_11 
REMARK    5  A    between atoms: C5_13  and  C6_14 
REMARK    6  A    between atoms: C6_14  and  O6_16 
ROOT
HETATM    1  C3  UNL     1       0.815   0.017   0.053  1.00  0.00     0.267 C 
HETATM    2  C4  UNL     1      -0.486  -0.157  -0.701  1.00  0.00     0.232 C 
HETATM    3  C5  UNL     1      -1.613  -0.621   0.102  1.00  0.00     0.093 C 
HETATM    4  C8  UNL     1      -1.553  -1.589   1.007  1.00  0.00     0.139 C 
HETATM    5  N2  UNL     1      -2.700  -1.991   1.756  1.00  0.00    -0.081 NA
HETATM    6  N3  UNL     1      -0.329  -2.254   1.255  1.00  0.00    -0.289 N 
ATOM      7  H3  UNL     1      -0.303  -3.249   1.480  1.00  0.00     0.177 HD
HETATM    8  S1  UNL     1       1.120  -1.319   1.163  1.00  0.00     0.176 S 
HETATM    9  O7  UNL     1       1.539  -0.708   2.672  1.00  0.00    -0.230 OA
ENDROOT
BRANCH   1  10
HETATM   10  N1  UNL     1       1.908   0.080  -0.894  1.00  0.00    -0.290 N 
HETATM   11  C2  UNL     1       3.224   0.250  -0.424  1.00  0.00     0.363 C 
HETATM   12  O2  UNL     1       3.441   0.347   0.808  1.00  0.00    -0.238 OA
ATOM     13  H1  UNL     1       1.726   0.002  -1.895  1.00  0.00     0.168 HD
BRANCH  11  14
HETATM   14  O1  UNL     1       4.328   0.320  -1.274  1.00  0.00    -0.309 OA
HETATM   15  C1  UNL     1       5.593   0.490  -0.716  1.00  0.00     0.215 C 
ENDBRANCH  11  14
ENDBRANCH   1  10
BRANCH   1  16
HETATM   16  O3  UNL     1       0.828   1.203   0.780  1.00  0.00    -0.357 OA
ATOM     17  H3  UNL     1       0.111   1.162   1.401  1.00  0.00     0.213 HD
ENDBRANCH   1  16
BRANCH   2  18
HETATM   18  O4  UNL     1      -0.768   1.083  -1.270  1.00  0.00    -0.385 OA
ATOM     19  H4  UNL     1      -1.584   0.974  -1.743  1.00  0.00     0.210 HD
ENDBRANCH   2  18
BRANCH   3  20
HETATM   20  C6  UNL     1      -2.918   0.030  -0.106  1.00  0.00     0.295 C 
HETATM   21  O5  UNL     1      -3.914  -0.340   0.563  1.00  0.00    -0.259 OA
BRANCH  20  22
HETATM   22  O6  UNL     1      -3.124   1.045  -1.011  1.00  0.00    -0.323 OA
HETATM   23  C7  UNL     1      -4.379   1.671  -1.211  1.00  0.00     0.213 C 
ENDBRANCH  20  22
ENDBRANCH   3  20
TORSDOF 6
