REMARK  5 active torsions:
REMARK  status: ('A' for Active; 'I' for Inactive)
REMARK    1  A    between atoms: O1_2  and  C2_3 
REMARK    2  A    between atoms: C6_8  and  O2_9 
REMARK    3  A    between atoms: C7_11  and  O3_12 
REMARK    4  A    between atoms: C8_14  and  N2_15 
REMARK    5  A    between atoms: C11_18  and  O4_19 
ROOT
HETATM    1  C2  UNL     1      -1.467   0.755  -0.026  1.00  0.00     0.208 C 
HETATM    2  C3  UNL     1      -2.643  -0.078  -0.444  1.00  0.00     0.332 C 
HETATM    3  N1  UNL     1      -2.618  -1.320   0.268  1.00  0.00     0.091 N 
HETATM    4  C4  UNL     1      -3.096  -2.430  -0.518  1.00  0.00     0.310 C 
HETATM    5  C5  UNL     1      -1.231  -1.467   0.658  1.00  0.00     0.317 C 
HETATM    6  C6  UNL     1      -0.855  -0.083   1.061  1.00  0.00     0.162 C 
HETATM    7  C7  UNL     1       0.590   0.164   1.296  1.00  0.00     0.200 C 
HETATM    8  C8  UNL     1       1.273   0.706   0.069  1.00  0.00     0.247 C 
HETATM    9  N4  UNL     1       0.536   0.205  -1.075  1.00  0.00    -0.115 NA
HETATM   10  N5  UNL     1      -0.629   0.920  -1.194  1.00  0.00    -0.102 NA
ENDROOT
BRANCH   8  11
HETATM   11  N2  UNL     1       2.634   0.244  -0.064  1.00  0.00    -0.277 N 
HETATM   12  C9  UNL     1       3.053  -0.964  -0.416  1.00  0.00     0.116 A 
HETATM   13  C10 UNL     1       4.441  -0.947  -0.409  1.00  0.00     0.076 A 
HETATM   14  C11 UNL     1       4.789   0.329  -0.035  1.00  0.00     0.156 A 
HETATM   15  N3  UNL     1       3.679   1.017   0.164  1.00  0.00    -0.277 N 
ATOM     16  H3  UNL     1       3.636   1.995   0.450  1.00  0.00     0.189 HD
BRANCH  14  17
HETATM   17  O4  UNL     1       6.075   0.827   0.113  1.00  0.00    -0.345 OA
ATOM     18  H4  UNL     1       6.316   1.709   0.372  1.00  0.00     0.219 HD
ENDBRANCH  14  17
ENDBRANCH   8  11
BRANCH   7  19
HETATM   19  O3  UNL     1       1.175  -1.019   1.744  1.00  0.00    -0.389 OA
ATOM     20  H3  UNL     1       2.100  -0.861   1.894  1.00  0.00     0.210 HD
ENDBRANCH   7  19
BRANCH   6  21
HETATM   21  O2  UNL     1      -1.545   0.210   2.250  1.00  0.00    -0.381 OA
ATOM     22  H2  UNL     1      -1.158  -0.320   2.937  1.00  0.00     0.211 HD
ENDBRANCH   6  21
BRANCH   1  23
HETATM   23  O1  UNL     1      -1.816   1.993   0.456  1.00  0.00    -0.363 OA
HETATM   24  C1  UNL     1      -2.472   2.794  -0.452  1.00  0.00     0.204 C 
ENDBRANCH   1  23
TORSDOF 5
