REMARK  5 active torsions:
REMARK  status: ('A' for Active; 'I' for Inactive)
REMARK    1  A    between atoms: O1_1  and  N1_3 
REMARK    2  A    between atoms: C1_7  and  O3_8 
REMARK    3  A    between atoms: C2_10  and  C3_11 
REMARK    4  A    between atoms: N5_17  and  N6_19 
REMARK    5  A    between atoms: N6_19  and  C5_21 
ROOT
HETATM    1  C3  UNL     1       2.723   0.247   0.175  1.00  0.00     0.080 A 
HETATM    2  N3  UNL     1       2.406   1.172  -0.642  1.00  0.00    -0.286 N 
ATOM      3  H3  UNL     1       3.161   1.561  -1.207  1.00  0.00     0.187 HD
HETATM    4  N4  UNL     1       1.137   1.708  -0.845  1.00  0.00    -0.131 N 
ATOM      5  H4  UNL     1       0.968   2.450  -1.524  1.00  0.00     0.205 HD
HETATM    6  C4  UNL     1       0.084   1.161  -0.049  1.00  0.00     0.707 A 
HETATM    7  N5  UNL     1      -1.137   1.616  -0.185  1.00  0.00    -0.128 N 
ATOM      8  H5  UNL     1      -1.343   2.358  -0.854  1.00  0.00     0.205 HD
HETATM    9  N9  UNL     1       0.395   0.136   0.869  1.00  0.00    -0.218 N 
ATOM     10  H9  UNL     1      -0.357  -0.248   1.441  1.00  0.00     0.178 HD
HETATM   11  C8  UNL     1       1.716  -0.390   1.035  1.00  0.00     0.199 A 
ENDROOT
BRANCH   7  12
HETATM   12  N6  UNL     1      -2.152   1.066   0.603  1.00  0.00    -0.257 N 
ATOM     13  H6  UNL     1      -2.019   1.023   1.613  1.00  0.00     0.190 HD
BRANCH  12  14
HETATM   14  C5  UNL     1      -3.369   0.562   0.047  1.00  0.00     0.190 C 
HETATM   15  N7  UNL     1      -3.985   1.111  -0.949  1.00  0.00    -0.360 N 
HETATM   16  C6  UNL     1      -5.185   0.374  -1.284  1.00  0.00     0.142 C 
ATOM     17  H7  UNL     1      -3.668   1.951  -1.433  1.00  0.00     0.162 HD
HETATM   18  C7  UNL     1      -4.927  -0.966  -0.626  1.00  0.00     0.142 C 
HETATM   19  N8  UNL     1      -4.080  -0.590   0.484  1.00  0.00    -0.360 N 
ATOM     20  H8  UNL     1      -4.008  -1.053   1.390  1.00  0.00     0.162 HD
ENDBRANCH  12  14
ENDBRANCH   7  12
BRANCH   1  21
HETATM   21  C2  UNL     1       4.127  -0.220   0.277  1.00  0.00     0.168 A 
HETATM   22  N1  UNL     1       4.546  -1.172   1.102  1.00  0.00    -0.096 N 
HETATM   23  O2  UNL     1       5.845  -1.330   0.931  1.00  0.00    -0.126 OA
HETATM   24  N2  UNL     1       6.271  -0.501   0.015  1.00  0.00    -0.215 N 
HETATM   25  C1  UNL     1       5.211   0.230  -0.432  1.00  0.00     0.196 A 
ATOM     26  H2  UNL     1       7.234  -0.415  -0.310  1.00  0.00     0.199 HD
BRANCH  22  27
HETATM   27  O1  UNL     1       3.855  -1.924   2.010  1.00  0.00    -0.261 OA
ATOM     28  H1  UNL     1       2.920  -1.810   2.133  1.00  0.00     0.247 HD
ENDBRANCH  22  27
BRANCH  25  29
HETATM   29  O3  UNL     1       5.180   1.215  -1.386  1.00  0.00    -0.343 OA
ATOM     30  H3  UNL     1       4.441   1.725  -1.698  1.00  0.00     0.219 HD
ENDBRANCH  25  29
ENDBRANCH   1  21
TORSDOF 5
