REMARK  11 active torsions:
REMARK  status: ('A' for Active; 'I' for Inactive)
REMARK    1  A    between atoms: N2_5  and  N3_6 
REMARK    2  A    between atoms: C2_9  and  C3_10 
REMARK    3  A    between atoms: C6_18  and  O3_19 
REMARK    4  A    between atoms: O3_19  and  C7_20 
REMARK    5  A    between atoms: C7_20  and  C8_21 
REMARK       I    between atoms: C8_21  and  N5_23 
REMARK    6  A    between atoms: N5_23  and  C9_25 
REMARK    7  A    between atoms: C9_25  and  C10_26 
REMARK    8  A    between atoms: C10_26  and  O5_27 
REMARK    9  A    between atoms: C14_32  and  O6_33 
REMARK   10  A    between atoms: N6_35  and  C15_36 
REMARK   11  A    between atoms: C15_36  and  C16_37 
ROOT
HETATM    1  C3  UNL     1      -1.381  -1.473   0.410  1.00  0.00     0.088 A 
HETATM    2  N4  UNL     1      -1.440  -2.410   1.337  1.00  0.00    -0.277 N 
ATOM      3  H4  UNL     1      -2.301  -2.781   1.740  1.00  0.00     0.179 HD
HETATM    4  S1  UNL     1       0.109  -2.903   1.757  1.00  0.00     0.264 S 
HETATM    5  O1  UNL     1       0.431  -2.713   3.214  1.00  0.00    -0.200 OA
HETATM    6  O2  UNL     1       0.429  -4.303   1.308  1.00  0.00    -0.200 OA
HETATM    7  C4  UNL     1       0.965  -1.728   0.772  1.00  0.00     0.095 A 
HETATM    8  C5  UNL     1       2.307  -1.467   0.672  1.00  0.00     0.063 A 
HETATM    9  C6  UNL     1       2.748  -0.492  -0.155  1.00  0.00     0.070 A 
HETATM   10  C11 UNL     1       1.807   0.202  -0.868  1.00  0.00     0.038 A 
HETATM   11  C12 UNL     1       0.440  -0.059  -0.770  1.00  0.00     0.018 A 
HETATM   12  C13 UNL     1      -0.039  -1.070   0.084  1.00  0.00     0.017 A 
ENDROOT
BRANCH   1  13
HETATM   13  C2  UNL     1      -2.696  -0.956  -0.051  1.00  0.00     0.153 A 
HETATM   14  N2  UNL     1      -3.096  -0.353  -1.155  1.00  0.00    -0.086 N 
HETATM   15  C1  UNL     1      -4.465  -0.194  -1.192  1.00  0.00     0.702 A 
HETATM   16  N1  UNL     1      -5.176   0.357  -2.129  1.00  0.00    -0.233 N 
HETATM   17  N6  UNL     1      -4.944  -0.719  -0.071  1.00  0.00    -0.154 N 
ATOM     18  H12 UNL     1      -4.808   0.760  -2.990  1.00  0.00     0.174 HD
ATOM     19  H11 UNL     1      -6.189   0.475  -2.156  1.00  0.00     0.174 HD
HETATM   20  C14 UNL     1      -3.907  -1.185   0.634  1.00  0.00     0.190 A 
BRANCH  14  21
HETATM   21  N3  UNL     1      -2.381   0.046  -2.274  1.00  0.00    -0.324 N 
ATOM     22  H32 UNL     1      -2.690   0.512  -3.127  1.00  0.00     0.178 HD
ATOM     23  H31 UNL     1      -1.368  -0.072  -2.247  1.00  0.00     0.178 HD
ENDBRANCH  14  21
BRANCH  17  24
HETATM   24  C15 UNL     1      -6.341  -0.780   0.328  1.00  0.00     0.196 C 
BRANCH  24  25
HETATM   25  C16 UNL     1      -6.604   0.486   1.109  1.00  0.00     0.001 A 
HETATM   26  C17 UNL     1      -7.066   1.677   0.624  1.00  0.00     0.017 A 
HETATM   27  C18 UNL     1      -7.227   2.679   1.502  1.00  0.00     0.008 A 
HETATM   28  C19 UNL     1      -6.918   2.424   2.810  1.00  0.00     0.050 A 
HETATM   29  S2  UNL     1      -6.410   0.797   2.774  1.00  0.00    -0.105 SA
ENDBRANCH  24  25
ENDBRANCH  17  24
BRANCH  20  30
HETATM   30  O6  UNL     1      -3.987  -1.816   1.885  1.00  0.00    -0.344 OA
ATOM     31  H6  UNL     1      -4.803  -1.970   2.347  1.00  0.00     0.219 HD
ENDBRANCH  20  30
ENDBRANCH   1  13
BRANCH   9  32
HETATM   32  O3  UNL     1       4.107  -0.224  -0.261  1.00  0.00    -0.342 OA
BRANCH  32  33
HETATM   33  C7  UNL     1       5.037  -0.966   0.493  1.00  0.00     0.278 C 
BRANCH  33  34
HETATM   34  C8  UNL     1       6.417  -0.516   0.227  1.00  0.00     0.241 C 
HETATM   35  O4  UNL     1       7.424  -1.020   0.777  1.00  0.00    -0.271 OA
HETATM   36  N5  UNL     1       6.649   0.554  -0.706  1.00  0.00    -0.357 N 
ATOM     37  H5  UNL     1       5.857   0.992  -1.176  1.00  0.00     0.162 HD
BRANCH  36  38
HETATM   38  C9  UNL     1       7.990   1.017  -0.987  1.00  0.00     0.148 C 
BRANCH  38  39
HETATM   39  C10 UNL     1       7.922   2.126  -1.985  1.00  0.00     0.183 C 
BRANCH  39  40
HETATM   40  O5  UNL     1       7.157   3.153  -1.432  1.00  0.00    -0.399 OA
ATOM     41  H5  UNL     1       7.114   3.858  -2.067  1.00  0.00     0.209 HD
ENDBRANCH  39  40
ENDBRANCH  38  39
ENDBRANCH  36  38
ENDBRANCH  33  34
ENDBRANCH  32  33
ENDBRANCH   9  32
TORSDOF 11
