REMARK  14 active torsions:
REMARK  status: ('A' for Active; 'I' for Inactive)
REMARK    1  A    between atoms: C2_2  and  C4_4 
REMARK    2  A    between atoms: C2_2  and  N9_37 
REMARK    3  A    between atoms: C4_4  and  C5_5 
REMARK    4  A    between atoms: C5_5  and  C6_6 
REMARK    5  A    between atoms: N2_10  and  C8_12 
REMARK    6  A    between atoms: C8_12  and  C9_13 
REMARK    7  A    between atoms: C8_12  and  C10_16 
REMARK    8  A    between atoms: C9_13  and  O1_14 
REMARK    9  A    between atoms: C10_16  and  O2_17 
REMARK   10  A    between atoms: C14_25  and  N5_26 
REMARK       I    between atoms: N9_37  and  C20_39 
REMARK   11  A    between atoms: C20_39  and  C21_41 
REMARK   12  A    between atoms: C21_41  and  C22_42 
REMARK   13  A    between atoms: C22_42  and  C23_43 
REMARK   14  A    between atoms: C23_43  and  N10_44 
ROOT
HETATM    1  C6  UNL     1      -0.821   0.153  -0.596  1.00  0.00     0.103 A 
HETATM    2  N1  UNL     1      -1.759  -0.840  -0.401  1.00  0.00    -0.334 N 
ATOM      3  H1  UNL     1      -1.539  -1.782  -0.726  1.00  0.00     0.168 HD
HETATM    4  C7  UNL     1      -2.936  -0.636   0.188  1.00  0.00     0.126 A 
HETATM    5  N2  UNL     1      -3.821  -1.537   0.381  1.00  0.00    -0.366 N 
ATOM      6  H2  UNL     1      -4.678  -1.238   0.846  1.00  0.00     0.161 HD
HETATM    7  C11 UNL     1      -3.196   0.644   0.611  1.00  0.00     0.116 A 
HETATM    8  C12 UNL     1      -4.448   0.951   1.259  1.00  0.00     0.105 C 
HETATM    9  N3  UNL     1      -5.451   1.188   1.790  1.00  0.00    -0.191 NA
HETATM   10  C13 UNL     1      -2.305   1.703   0.453  1.00  0.00     0.073 A 
HETATM   11  N4  UNL     1      -2.590   2.924   0.874  1.00  0.00    -0.340 N 
ATOM     12  H4  UNL     1      -3.483   3.111   1.329  1.00  0.00     0.167 HD
HETATM   13  C14 UNL     1      -1.703   3.917   0.702  1.00  0.00     0.115 A 
HETATM   14  C17 UNL     1      -0.490   3.701   0.093  1.00  0.00     0.076 A 
HETATM   15  C18 UNL     1      -0.146   2.412  -0.370  1.00  0.00     0.065 A 
HETATM   16  N8  UNL     1       1.114   2.266  -0.983  1.00  0.00    -0.101 NA
HETATM   17  C19 UNL     1      -1.076   1.427  -0.177  1.00  0.00     0.052 A 
ENDROOT
BRANCH   5  18
HETATM   18  C8  UNL     1      -3.743  -2.909   0.020  1.00  0.00     0.130 C 
BRANCH  18  19
HETATM   19  C9  UNL     1      -4.533  -3.702   1.071  1.00  0.00     0.191 C 
BRANCH  19  20
HETATM   20  O1  UNL     1      -4.008  -3.522   2.332  1.00  0.00    -0.399 OA
ATOM     21  H1  UNL     1      -4.497  -4.013   2.982  1.00  0.00     0.209 HD
ENDBRANCH  19  20
ENDBRANCH  18  19
BRANCH  18  22
HETATM   22  C10 UNL     1      -4.541  -3.081  -1.280  1.00  0.00     0.191 C 
BRANCH  22  23
HETATM   23  O2  UNL     1      -5.864  -2.683  -0.985  1.00  0.00    -0.399 OA
ATOM     24  H2  UNL     1      -6.358  -2.789  -1.790  1.00  0.00     0.209 HD
ENDBRANCH  22  23
ENDBRANCH  18  22
ENDBRANCH   5  18
BRANCH   1  25
HETATM   25  C5  UNL     1       0.406  -0.226  -1.250  1.00  0.00    -0.045 C 
BRANCH  25  26
HETATM   26  C4  UNL     1       1.433  -0.612  -1.814  1.00  0.00    -0.069 C 
BRANCH  26  27
HETATM   27  C2  UNL     1       2.656  -1.045  -2.492  1.00  0.00     0.089 C 
HETATM   28  C1  UNL     1       2.811  -0.345  -3.837  1.00  0.00     0.053 C 
HETATM   29  C3  UNL     1       2.469  -2.517  -2.806  1.00  0.00     0.053 C 
BRANCH  27  30
HETATM   30  N9  UNL     1       3.817  -0.792  -1.700  1.00  0.00    -0.342 N 
HETATM   31  C20 UNL     1       4.004  -1.297  -0.380  1.00  0.00     0.218 C 
HETATM   32  O3  UNL     1       3.072  -2.000   0.075  1.00  0.00    -0.274 OA
ATOM     33  H9  UNL     1       4.556  -0.216  -2.103  1.00  0.00     0.164 HD
BRANCH  31  34
HETATM   34  C21 UNL     1       5.189  -1.038   0.428  1.00  0.00     0.104 C 
BRANCH  34  35
HETATM   35  C22 UNL     1       5.187  -1.585   1.812  1.00  0.00     0.036 C 
BRANCH  35  36
HETATM   36  C23 UNL     1       4.110  -1.072   2.711  1.00  0.00     0.230 C 
BRANCH  36  37
HETATM   37  N10 UNL     1       4.181   0.375   2.879  1.00  0.00    -0.079 N 
ATOM     38 3H10 UNL     1       5.103   0.665   3.204  1.00  0.00     0.274 HD
ATOM     39 2H10 UNL     1       4.170   0.853   1.978  1.00  0.00     0.274 HD
ATOM     40 1H10 UNL     1       3.446   0.725   3.493  1.00  0.00     0.274 HD
ENDBRANCH  36  37
ENDBRANCH  35  36
ENDBRANCH  34  35
ENDBRANCH  31  34
ENDBRANCH  27  30
ENDBRANCH  26  27
ENDBRANCH  25  26
ENDBRANCH   1  25
BRANCH  13  41
HETATM   41  N5  UNL     1      -1.995   5.234   1.149  1.00  0.00    -0.287 N 
HETATM   42  C15 UNL     1      -3.221   5.709   1.405  1.00  0.00     0.207 A 
HETATM   43  N6  UNL     1      -3.099   6.986   1.803  1.00  0.00    -0.295 N 
HETATM   44  N7  UNL     1      -1.822   7.337   1.807  1.00  0.00    -0.295 N 
ATOM     45  H6  UNL     1      -3.875   7.595   2.063  1.00  0.00     0.187 HD
HETATM   46  C16 UNL     1      -1.149   6.249   1.402  1.00  0.00     0.207 A 
ATOM     47  H7  UNL     1      -1.432   8.244   2.064  1.00  0.00     0.187 HD
ENDBRANCH  13  41
TORSDOF 14
