REMARK  10 active torsions:
REMARK  status: ('A' for Active; 'I' for Inactive)
REMARK    1  A    between atoms: C4_7  and  C5_8 
REMARK    2  A    between atoms: C5_8  and  C6_9 
REMARK    3  A    between atoms: C6_9  and  C7_10 
REMARK    4  A    between atoms: C7_10  and  N2_11 
REMARK    5  A    between atoms: N5_16  and  C9_17 
REMARK    6  A    between atoms: C9_17  and  C10_18 
REMARK    7  A    between atoms: C10_18  and  C11_19 
REMARK    8  A    between atoms: C11_19  and  N6_20 
REMARK    9  A    between atoms: N6_20  and  C12_22 
REMARK   10  A    between atoms: C13_26  and  O2_27 
ROOT
HETATM    1  C1  UNL     1      -1.432  -4.380   0.225  1.00  0.00     0.036 C 
HETATM    2  C2  UNL     1      -1.567  -2.899  -0.095  1.00  0.00     0.124 C 
HETATM    3  N1  UNL     1      -0.686  -2.582  -1.185  1.00  0.00    -0.348 N 
ATOM      4  H1  UNL     1      -0.701  -3.159  -2.026  1.00  0.00     0.163 HD
HETATM    5  C3  UNL     1       0.208  -1.475  -1.111  1.00  0.00     0.259 C 
HETATM    6  O1  UNL     1       0.754  -1.126  -2.176  1.00  0.00    -0.267 OA
HETATM    7  C4  UNL     1       0.379  -0.879   0.219  1.00  0.00     0.058 C 
HETATM    8  N5  UNL     1      -0.860  -0.755   0.874  1.00  0.00    -0.254 NA
HETATM    9  C13 UNL     1      -1.314  -2.132   1.169  1.00  0.00     0.220 C 
ENDROOT
BRANCH   8  10
HETATM   10  C9  UNL     1      -1.955  -0.104   0.266  1.00  0.00     0.100 C 
BRANCH  10  11
HETATM   11  C10 UNL     1      -1.848   1.382   0.081  1.00  0.00     0.034 C 
BRANCH  11  12
HETATM   12  C11 UNL     1      -3.095   1.983  -0.539  1.00  0.00     0.121 C 
BRANCH  12  13
HETATM   13  N6  UNL     1      -4.262   1.752   0.273  1.00  0.00    -0.386 N 
ATOM     14  H6  UNL     1      -4.151   1.238   1.147  1.00  0.00     0.160 HD
BRANCH  13  15
HETATM   15  C12 UNL     1      -5.552   2.203  -0.083  1.00  0.00     0.168 C 
HETATM   16  N7  UNL     1      -6.504   1.371  -0.218  1.00  0.00    -0.396 N 
ATOM     17  H72 UNL     1      -6.319   0.380  -0.065  1.00  0.00     0.156 HD
ATOM     18  H71 UNL     1      -7.436   1.697  -0.475  1.00  0.00     0.156 HD
ENDBRANCH  13  15
ENDBRANCH  12  13
ENDBRANCH  11  12
ENDBRANCH  10  11
ENDBRANCH   8  10
BRANCH   7  19
HETATM   19  C5  UNL     1       1.332   0.238   0.359  1.00  0.00     0.058 C 
BRANCH  19  20
HETATM   20  C6  UNL     1       2.762  -0.134  -0.006  1.00  0.00     0.025 C 
BRANCH  20  21
HETATM   21  C7  UNL     1       3.571   1.128   0.207  1.00  0.00     0.122 C 
BRANCH  21  22
HETATM   22  N2  UNL     1       4.986   0.938  -0.096  1.00  0.00    -0.367 N 
HETATM   23  C8  UNL     1       5.789   1.930  -0.010  1.00  0.00     0.196 C 
HETATM   24  N3  UNL     1       5.310   3.197   0.371  1.00  0.00    -0.067 NA
HETATM   25  N4  UNL     1       7.156   1.750  -0.304  1.00  0.00    -0.067 NA
ATOM     26  H2  UNL     1       5.332   0.020  -0.375  1.00  0.00     0.161 HD
ENDBRANCH  21  22
ENDBRANCH  20  21
ENDBRANCH  19  20
ENDBRANCH   7  19
BRANCH   9  27
HETATM   27  O2  UNL     1      -2.517  -2.036   1.868  1.00  0.00    -0.379 OA
ATOM     28  H2  UNL     1      -2.357  -1.550   2.669  1.00  0.00     0.211 HD
ENDBRANCH   9  27
TORSDOF 10
