REMARK  12 active torsions:
REMARK  status: ('A' for Active; 'I' for Inactive)
REMARK    1  A    between atoms: N1_2  and  C3_4 
REMARK    2  A    between atoms: N1_2  and  C8_14 
REMARK    3  A    between atoms: C3_4  and  C4_5 
REMARK    4  A    between atoms: C4_5  and  C5_6 
REMARK    5  A    between atoms: C8_14  and  C9_15 
REMARK    6  A    between atoms: C9_15  and  N5_19 
REMARK    7  A    between atoms: N5_19  and  O2_21 
REMARK    8  A    between atoms: O2_21  and  C10_22 
REMARK    9  A    between atoms: C10_22  and  C11_23 
REMARK   10  A    between atoms: C11_23  and  N6_24 
REMARK   11  A    between atoms: C11_23  and  C12_28 
REMARK   12  A    between atoms: C12_28  and  N7_29 
ROOT
HETATM    1  C9  UNL     1       0.818  -1.979  -0.295  1.00  0.00     0.121 C 
HETATM    2  N4  UNL     1       1.466  -2.771   0.502  1.00  0.00    -0.386 N 
ATOM      3  H41 UNL     1       2.347  -2.484   0.928  1.00  0.00     0.157 HD
ATOM      4  H42 UNL     1       1.055  -3.685   0.690  1.00  0.00     0.157 HD
ENDROOT
BRANCH   1   5
HETATM    5  C8  UNL     1      -0.445  -2.391  -0.905  1.00  0.00     0.313 C 
BRANCH   5   6
HETATM    6  N1  UNL     1      -1.599  -1.556  -0.618  1.00  0.00    -0.068 N 
HETATM    7  C1  UNL     1      -2.769  -2.428  -0.693  1.00  0.00     0.272 C 
HETATM    8  C2  UNL     1      -1.528  -1.088   0.728  1.00  0.00     0.272 C 
BRANCH   6   9
HETATM    9  C3  UNL     1      -1.652  -0.549  -1.621  1.00  0.00     0.243 C 
BRANCH   9  10
HETATM   10  C4  UNL     1      -2.901   0.185  -1.860  1.00  0.00     0.086 C 
BRANCH  10  11
HETATM   11  C5  UNL     1      -3.463   0.983  -0.773  1.00  0.00     0.030 A 
HETATM   12  C6  UNL     1      -4.394   0.620   0.174  1.00  0.00     0.118 A 
HETATM   13  N2  UNL     1      -4.620   1.677   0.988  1.00  0.00    -0.317 N 
HETATM   14  C7  UNL     1      -3.852   2.701   0.576  1.00  0.00     0.324 A 
ATOM     15  H2  UNL     1      -5.263   1.694   1.779  1.00  0.00     0.170 HD
HETATM   16  O1  UNL     1      -3.835   3.844   1.137  1.00  0.00    -0.247 OA
HETATM   17  N3  UNL     1      -3.160   2.280  -0.480  1.00  0.00    -0.311 N 
ATOM     18  H3  UNL     1      -2.493   2.850  -1.000  1.00  0.00     0.170 HD
ENDBRANCH  10  11
ENDBRANCH   9  10
ENDBRANCH   6   9
ENDBRANCH   5   6
ENDBRANCH   1   5
BRANCH   1  19
HETATM   19  N5  UNL     1       1.389  -0.709  -0.556  1.00  0.00    -0.253 N 
ATOM     20  H5  UNL     1       1.496  -0.420  -1.528  1.00  0.00     0.195 HD
BRANCH  19  21
HETATM   21  O2  UNL     1       1.804   0.149   0.418  1.00  0.00    -0.277 OA
BRANCH  21  22
HETATM   22  C10 UNL     1       3.166   0.394   0.210  1.00  0.00     0.235 C 
BRANCH  22  23
HETATM   23  C11 UNL     1       3.732   1.337   1.240  1.00  0.00     0.234 C 
BRANCH  23  24
HETATM   24  N6  UNL     1       3.568   0.754   2.557  1.00  0.00    -0.071 N 
ATOM     25  H63 UNL     1       2.599   0.503   2.752  1.00  0.00     0.274 HD
ATOM     26  H62 UNL     1       3.974  -0.180   2.621  1.00  0.00     0.274 HD
ATOM     27  H61 UNL     1       3.951   1.392   3.254  1.00  0.00     0.274 HD
ENDBRANCH  23  24
BRANCH  23  28
HETATM   28  C12 UNL     1       5.199   1.563   0.929  1.00  0.00     0.264 C 
BRANCH  28  29
HETATM   29  N7  UNL     1       5.341   2.136  -0.385  1.00  0.00    -0.077 N 
ATOM     30  H73 UNL     1       4.881   1.572  -1.100  1.00  0.00     0.274 HD
ATOM     31  H72 UNL     1       4.792   2.989  -0.492  1.00  0.00     0.274 HD
ATOM     32  H71 UNL     1       6.328   2.288  -0.594  1.00  0.00     0.274 HD
ENDBRANCH  28  29
ENDBRANCH  23  28
ENDBRANCH  22  23
ENDBRANCH  21  22
ENDBRANCH  19  21
ENDBRANCH   1  19
TORSDOF 12
