REMARK  11 active torsions:
REMARK  status: ('A' for Active; 'I' for Inactive)
REMARK       I    between atoms: C1_2  and  N3_15 
REMARK    1  A    between atoms: N2_3  and  C2_5 
REMARK    2  A    between atoms: C2_5  and  C3_6 
REMARK    3  A    between atoms: C3_6  and  O1_7 
REMARK    4  A    between atoms: O1_7  and  C4_8 
REMARK    5  A    between atoms: C4_8  and  C5_9 
REMARK    6  A    between atoms: C5_9  and  O2_10 
REMARK    7  A    between atoms: O2_10  and  C6_11 
REMARK    8  A    between atoms: C6_11  and  C7_12 
REMARK    9  A    between atoms: C7_12  and  O3_13 
REMARK       I    between atoms: C8_17  and  N5_19 
REMARK   10  A    between atoms: N5_19  and  C9_21 
REMARK   11  A    between atoms: C12_27  and  N7_28 
ROOT
HETATM    1  N1  UNL     1      -1.169   3.019   0.150  1.00  0.00    -0.063 NA
HETATM    2  C1  UNL     1      -0.790   1.669   0.371  1.00  0.00     0.190 C 
HETATM    3  N2  UNL     1       0.455   1.337   0.477  1.00  0.00    -0.362 N 
ATOM      4  H2  UNL     1       1.171   2.060   0.400  1.00  0.00     0.162 HD
HETATM    5  N3  UNL     1      -1.779   0.655   0.481  1.00  0.00    -0.305 N 
ATOM      6  H3  UNL     1      -2.001   0.234   1.383  1.00  0.00     0.171 HD
HETATM    7  C8  UNL     1      -2.387   0.283  -0.590  1.00  0.00     0.192 C 
HETATM    8  N4  UNL     1      -2.112   0.837  -1.865  1.00  0.00    -0.063 NA
HETATM    9  N5  UNL     1      -3.375  -0.728  -0.486  1.00  0.00    -0.335 N 
ATOM     10  H5  UNL     1      -3.121  -1.685  -0.240  1.00  0.00     0.164 HD
ENDROOT
BRANCH   3  11
HETATM   11  C2  UNL     1       0.854  -0.018   0.700  1.00  0.00     0.148 C 
BRANCH  11  12
HETATM   12  C3  UNL     1       2.300  -0.247   0.261  1.00  0.00     0.187 C 
BRANCH  12  13
HETATM   13  O1  UNL     1       3.074   0.587   0.994  1.00  0.00    -0.387 OA
BRANCH  13  14
HETATM   14  C4  UNL     1       4.442   0.566   0.755  1.00  0.00     0.193 C 
BRANCH  14  15
HETATM   15  C5  UNL     1       5.092  -0.772   1.012  1.00  0.00     0.193 C 
BRANCH  15  16
HETATM   16  O2  UNL     1       6.341  -0.925   0.851  1.00  0.00    -0.387 OA
BRANCH  16  17
HETATM   17  C6  UNL     1       7.418  -0.951   0.207  1.00  0.00     0.193 C 
BRANCH  17  18
HETATM   18  C7  UNL     1       7.926   0.280  -0.489  1.00  0.00     0.190 C 
BRANCH  18  19
HETATM   19  O3  UNL     1       7.068   0.723  -1.438  1.00  0.00    -0.399 OA
ATOM     20  H3  UNL     1       7.389   1.501  -1.878  1.00  0.00     0.209 HD
ENDBRANCH  18  19
ENDBRANCH  17  18
ENDBRANCH  16  17
ENDBRANCH  15  16
ENDBRANCH  14  15
ENDBRANCH  13  14
ENDBRANCH  12  13
ENDBRANCH  11  12
ENDBRANCH   3  11
BRANCH   9  21
HETATM   21  C9  UNL     1      -4.739  -0.370  -0.736  1.00  0.00     0.316 C 
HETATM   22  N6  UNL     1      -5.271   0.540   0.289  1.00  0.00    -0.052 N 
HETATM   23  C10 UNL     1      -6.670   0.581  -0.091  1.00  0.00     0.237 C 
ATOM     24  H62 UNL     1      -5.084   0.273   1.256  1.00  0.00     0.279 HD
ATOM     25  H61 UNL     1      -4.806   1.445   0.359  1.00  0.00     0.279 HD
HETATM   26  C11 UNL     1      -7.009  -0.889  -0.210  1.00  0.00     0.064 C 
HETATM   27  C12 UNL     1      -5.685  -1.540  -0.590  1.00  0.00     0.235 C 
BRANCH  27  28
HETATM   28  N7  UNL     1      -5.198  -2.350   0.535  1.00  0.00    -0.071 N 
ATOM     29  H73 UNL     1      -4.224  -2.633   0.432  1.00  0.00     0.274 HD
ATOM     30  H72 UNL     1      -5.088  -1.814   1.396  1.00  0.00     0.274 HD
ATOM     31  H71 UNL     1      -5.836  -3.139   0.634  1.00  0.00     0.274 HD
ENDBRANCH  27  28
ENDBRANCH   9  21
TORSDOF 11
