REMARK  1 active torsions:
REMARK  status: ('A' for Active; 'I' for Inactive)
REMARK    1  A    between atoms: C2_3  and  N2_4 
ROOT
HETATM    1  C1  UNL     1      -1.896   0.620  -0.404  1.00  0.00     0.180 C 
HETATM    2  N1  UNL     1      -0.522   0.307  -0.104  1.00  0.00    -0.137 N 
HETATM    3  C2  UNL     1      -0.135  -0.976  -0.112  1.00  0.00     0.685 A 
HETATM    4  N3  UNL     1       1.158  -1.299   0.169  1.00  0.00    -0.141 N 
ATOM      5  H3  UNL     1       1.438  -2.280   0.160  1.00  0.00     0.189 HD
HETATM    6  C3  UNL     1       2.078  -0.356   0.459  1.00  0.00     0.342 A 
HETATM    7  O1  UNL     1       3.275  -0.657   0.718  1.00  0.00    -0.246 OA
HETATM    8  N4  UNL     1       1.679   0.926   0.464  1.00  0.00    -0.259 N 
ATOM      9  H4  UNL     1       2.348   1.665   0.679  1.00  0.00     0.175 HD
HETATM   10  C4  UNL     1       0.386   1.243   0.183  1.00  0.00     0.344 A 
HETATM   11  O2  UNL     1       0.022   2.448   0.190  1.00  0.00    -0.246 OA
ENDROOT
BRANCH   3  12
HETATM   12  N2  UNL     1      -0.996  -1.893  -0.386  1.00  0.00    -0.234 N 
ATOM     13  H22 UNL     1      -1.964  -1.651  -0.596  1.00  0.00     0.174 HD
ATOM     14  H21 UNL     1      -0.701  -2.870  -0.392  1.00  0.00     0.174 HD
ENDBRANCH   3  12
TORSDOF 1
