REMARK  17 active torsions:
REMARK  status: ('A' for Active; 'I' for Inactive)
REMARK    1  A    between atoms: N1_1  and  C1_4 
REMARK    2  A    between atoms: C2_7  and  N3_8 
REMARK    3  A    between atoms: C4_10  and  N4_11 
REMARK    4  A    between atoms: C5_15  and  S1_16 
REMARK    5  A    between atoms: S1_16  and  N5_19 
REMARK    6  A    between atoms: N5_19  and  C6_21 
REMARK    7  A    between atoms: C6_21  and  C7_22 
REMARK    8  A    between atoms: C7_22  and  O3_23 
REMARK    9  A    between atoms: O3_23  and  C8_24 
REMARK   10  A    between atoms: C13_34  and  N8_35 
REMARK   11  A    between atoms: N8_35  and  C14_37 
REMARK   12  A    between atoms: C15_38  and  N9_39 
REMARK   13  A    between atoms: C18_45  and  S2_46 
REMARK   14  A    between atoms: S2_46  and  N10_49 
REMARK   15  A    between atoms: N10_49  and  N11_50 
REMARK   16  A    between atoms: N10_49  and  N12_53 
REMARK   17  A    between atoms: C19_56  and  O7_57 
ROOT
HETATM    1  C1  UNL     1      -1.978  -3.427   0.616  1.00  0.00     0.705 A 
HETATM    2  N2  UNL     1      -0.642  -3.299   0.631  1.00  0.00    -0.022 N 
ATOM      3  H2  UNL     1      -0.048  -4.085   0.893  1.00  0.00     0.203 HD
HETATM    4  C2  UNL     1      -0.098  -2.106   0.292  1.00  0.00     0.709 A 
HETATM    5  N7  UNL     1      -0.907  -1.117  -0.039  1.00  0.00    -0.021 N 
ATOM      6  H7  UNL     1      -0.485  -0.224  -0.292  1.00  0.00     0.203 HD
HETATM    7  C13 UNL     1      -2.272  -1.205  -0.067  1.00  0.00     0.707 A 
HETATM    8  N13 UNL     1      -2.787  -2.397   0.272  1.00  0.00    -0.022 N 
ATOM      9  H13 UNL     1      -3.798  -2.529   0.271  1.00  0.00     0.203 HD
ENDROOT
BRANCH   4  10
HETATM   10  N3  UNL     1       1.307  -1.903   0.288  1.00  0.00    -0.213 N 
HETATM   11  C3  UNL     1       2.198  -2.110  -0.816  1.00  0.00     0.175 C 
HETATM   12  C4  UNL     1       3.607  -2.136  -0.194  1.00  0.00     0.223 C 
HETATM   13  C5  UNL     1       3.329  -2.248   1.292  1.00  0.00     0.179 C 
HETATM   14  C12 UNL     1       2.071  -1.451   1.426  1.00  0.00     0.165 C 
BRANCH  12  15
HETATM   15  N4  UNL     1       4.336  -3.303  -0.685  1.00  0.00    -0.072 N 
ATOM     16  H43 UNL     1       3.827  -4.172  -0.522  1.00  0.00     0.274 HD
ATOM     17  H42 UNL     1       4.364  -3.339  -1.704  1.00  0.00     0.274 HD
ATOM     18  H41 UNL     1       5.269  -3.320  -0.273  1.00  0.00     0.274 HD
ENDBRANCH  12  15
BRANCH  13  19
HETATM   19  S1  UNL     1       4.638  -1.794   2.345  1.00  0.00     0.234 S 
HETATM   20  O1  UNL     1       5.874  -2.575   1.856  1.00  0.00    -0.205 OA
HETATM   21  O2  UNL     1       4.303  -2.394   3.725  1.00  0.00    -0.205 OA
BRANCH  19  22
HETATM   22  N5  UNL     1       5.001  -0.173   2.474  1.00  0.00    -0.317 N 
ATOM     23  H5  UNL     1       4.921   0.294   3.377  1.00  0.00     0.172 HD
BRANCH  22  24
HETATM   24  C6  UNL     1       5.417   0.555   1.347  1.00  0.00     0.158 C 
BRANCH  24  25
HETATM   25  C7  UNL     1       5.713   2.026   1.714  1.00  0.00     0.188 C 
BRANCH  25  26
HETATM   26  O3  UNL     1       6.117   2.673   0.565  1.00  0.00    -0.382 OA
BRANCH  26  27
HETATM   27  C8  UNL     1       7.269   2.215  -0.006  1.00  0.00     0.148 C 
HETATM   28  C9  UNL     1       7.092   1.860  -1.487  1.00  0.00     0.155 C 
HETATM   29  N6  UNL     1       8.500   1.809  -1.892  1.00  0.00    -0.359 N 
HETATM   30  C10 UNL     1       9.252   2.704  -1.094  1.00  0.00     0.220 C 
ATOM     31  H6  UNL     1       8.879   1.220  -2.634  1.00  0.00     0.162 HD
HETATM   32  O4  UNL     1      10.482   2.899  -1.207  1.00  0.00    -0.274 OA
HETATM   33  C11 UNL     1       8.319   3.334  -0.134  1.00  0.00     0.136 C 
ENDBRANCH  26  27
ENDBRANCH  25  26
ENDBRANCH  24  25
ENDBRANCH  22  24
ENDBRANCH  19  22
ENDBRANCH  13  19
ENDBRANCH   4  10
BRANCH   1  34
HETATM   34  N1  UNL     1      -2.473  -4.574   0.941  1.00  0.00    -0.234 N 
ATOM     35  H12 UNL     1      -1.864  -5.350   1.200  1.00  0.00     0.174 HD
ATOM     36  H11 UNL     1      -3.488  -4.671   0.930  1.00  0.00     0.174 HD
ENDBRANCH   1  34
BRANCH   7  37
HETATM   37  N8  UNL     1      -2.885  -0.185  -0.400  1.00  0.00    -0.216 N 
ATOM     38  H8  UNL     1      -2.233   0.573  -0.603  1.00  0.00     0.178 HD
BRANCH  37  39
HETATM   39  C14 UNL     1      -4.201   0.242  -0.582  1.00  0.00     0.159 C 
HETATM   40  C15 UNL     1      -4.999  -0.403  -1.651  1.00  0.00     0.209 C 
HETATM   41  C16 UNL     1      -6.230  -1.056  -1.044  1.00  0.00     0.036 C 
HETATM   42  C17 UNL     1      -7.075  -0.039  -0.322  1.00  0.00     0.026 C 
HETATM   43  C18 UNL     1      -6.316   0.765   0.688  1.00  0.00     0.158 C 
HETATM   44  C19 UNL     1      -4.897   0.322   0.753  1.00  0.00     0.163 C 
BRANCH  40  45
HETATM   45  N9  UNL     1      -4.325  -1.371  -2.456  1.00  0.00    -0.073 N 
ATOM     46  H93 UNL     1      -3.484  -0.956  -2.859  1.00  0.00     0.274 HD
ATOM     47  H92 UNL     1      -3.912  -2.086  -1.858  1.00  0.00     0.274 HD
ATOM     48  H91 UNL     1      -4.874  -1.815  -3.192  1.00  0.00     0.274 HD
ENDBRANCH  40  45
BRANCH  43  49
HETATM   49  S2  UNL     1      -6.477   2.504   0.429  1.00  0.00     0.252 S 
HETATM   50  O5  UNL     1      -6.049   2.806  -0.990  1.00  0.00    -0.208 OA
HETATM   51  O6  UNL     1      -5.724   3.303   1.435  1.00  0.00    -0.208 OA
BRANCH  49  52
HETATM   52  N10 UNL     1      -8.161   2.929   0.588  1.00  0.00    -0.035 NA
BRANCH  52  53
HETATM   53  N11 UNL     1      -8.837   2.864  -0.612  1.00  0.00    -0.332 NA
ATOM     54 2H11 UNL     1      -8.723   1.985  -1.117  1.00  0.00     0.173 HD
ATOM     55 1H11 UNL     1      -9.822   3.113  -0.519  1.00  0.00     0.173 HD
ENDBRANCH  52  53
BRANCH  52  56
HETATM   56  N12 UNL     1      -8.316   4.125   1.275  1.00  0.00    -0.332 NA
ATOM     57 2H12 UNL     1      -7.816   4.173   2.163  1.00  0.00     0.173 HD
ATOM     58 1H12 UNL     1      -9.301   4.374   1.368  1.00  0.00     0.173 HD
ENDBRANCH  52  56
ENDBRANCH  49  52
ENDBRANCH  43  49
BRANCH  44  59
HETATM   59  O7  UNL     1      -4.165   1.300   1.483  1.00  0.00    -0.392 OA
ATOM     60  H7  UNL     1      -4.604   1.350   2.324  1.00  0.00     0.210 HD
ENDBRANCH  44  59
ENDBRANCH  37  39
ENDBRANCH   7  37
TORSDOF 17
