REMARK  14 active torsions:
REMARK  status: ('A' for Active; 'I' for Inactive)
REMARK    1  A    between atoms: C2_2  and  S1_3 
REMARK    2  A    between atoms: S1_3  and  N1_6 
REMARK    3  A    between atoms: N1_6  and  C3_8 
REMARK    4  A    between atoms: C3_8  and  C4_9 
REMARK    5  A    between atoms: C3_8  and  C5_14 
REMARK    6  A    between atoms: C4_9  and  N2_10 
REMARK       I    between atoms: C5_14  and  N3_16 
REMARK    7  A    between atoms: N3_16  and  N4_18 
REMARK       I    between atoms: N4_18  and  C6_20 
REMARK    8  A    between atoms: C6_20  and  C7_22 
REMARK       I    between atoms: C7_22  and  N5_24 
REMARK    9  A    between atoms: N5_24  and  C8_26 
REMARK   10  A    between atoms: C14_36  and  N7_37 
REMARK   11  A    between atoms: C15_42  and  N9_43 
REMARK   12  A    between atoms: C17_48  and  O8_49 
REMARK   13  A    between atoms: N11_51  and  C18_52 
REMARK   14  A    between atoms: C18_52  and  C19_53 
ROOT
HETATM    1  C8  UNL     1      -1.712  -0.346  -0.511  1.00  0.00     0.179 C 
HETATM    2  C9  UNL     1      -2.473   0.912  -0.701  1.00  0.00     0.070 C 
HETATM    3  C10 UNL     1      -3.926   0.859  -0.873  1.00  0.00     0.186 C 
HETATM    4  C11 UNL     1      -4.312   0.165  -2.144  1.00  0.00     0.287 C 
HETATM    5  O6  UNL     1      -3.466  -0.393  -2.845  1.00  0.00    -0.263 OA
HETATM    6  O7  UNL     1      -5.626   0.103  -2.613  1.00  0.00    -0.271 OA
HETATM    7  C12 UNL     1      -6.787   0.668  -2.048  1.00  0.00     0.147 A 
HETATM    8  C13 UNL     1      -6.928   1.162  -0.764  1.00  0.00     0.082 A 
HETATM    9  N6  UNL     1      -8.119   1.665  -0.408  1.00  0.00    -0.191 N 
ATOM     10  H6  UNL     1      -8.234   2.032   0.537  1.00  0.00     0.184 HD
HETATM   11  C14 UNL     1      -9.174   1.704  -1.254  1.00  0.00     0.677 A 
HETATM   12  N8  UNL     1      -9.054   1.221  -2.524  1.00  0.00    -0.174 N 
ATOM     13  H8  UNL     1      -9.843   1.244  -3.170  1.00  0.00     0.186 HD
HETATM   14  C15 UNL     1      -7.867   0.713  -2.900  1.00  0.00     0.151 A 
HETATM   15  C16 UNL     1      -5.963   1.249   0.358  1.00  0.00     0.182 C 
HETATM   16  N10 UNL     1      -4.783   0.427   0.128  1.00  0.00    -0.352 N 
HETATM   17  C17 UNL     1      -4.340  -0.168   1.314  1.00  0.00     0.330 C 
HETATM   18  N11 UNL     1      -3.494  -1.329   1.128  1.00  0.00    -0.299 N 
HETATM   19  C20 UNL     1      -2.266  -1.319   0.423  1.00  0.00     0.246 C 
HETATM   20  O10 UNL     1      -1.542  -2.319   0.646  1.00  0.00    -0.271 OA
ENDROOT
BRANCH   1  21
HETATM   21  N5  UNL     1      -0.400   0.033   0.004  1.00  0.00    -0.340 N 
HETATM   22  C7  UNL     1       0.811  -0.234  -0.693  1.00  0.00     0.311 C 
HETATM   23  O5  UNL     1       0.770  -0.827  -1.811  1.00  0.00    -0.262 OA
ATOM     24  H5  UNL     1      -0.349   0.511   0.904  1.00  0.00     0.163 HD
BRANCH  22  25
HETATM   25  C6  UNL     1       2.109   0.147  -0.178  1.00  0.00     0.327 C 
HETATM   26  N4  UNL     1       3.293  -0.119  -0.877  1.00  0.00    -0.259 N 
ATOM     27  H4  UNL     1       3.225  -0.598  -1.775  1.00  0.00     0.190 HD
HETATM   28  O4  UNL     1       2.151   0.743   0.951  1.00  0.00    -0.261 OA
BRANCH  26  29
HETATM   29  N3  UNL     1       4.568   0.236  -0.411  1.00  0.00    -0.265 N 
HETATM   30  C5  UNL     1       5.614  -0.668  -0.255  1.00  0.00     0.261 C 
HETATM   31  O3  UNL     1       5.515  -1.865  -0.515  1.00  0.00    -0.269 OA
ATOM     32  H3  UNL     1       4.738   1.213  -0.173  1.00  0.00     0.190 HD
BRANCH  30  33
HETATM   33  C3  UNL     1       6.955  -0.154   0.261  1.00  0.00     0.211 C 
BRANCH  33  34
HETATM   34  N1  UNL     1       7.883  -1.238   0.313  1.00  0.00    -0.304 N 
ATOM     35  H1  UNL     1       7.862  -1.925   1.067  1.00  0.00     0.173 HD
BRANCH  34  36
HETATM   36  S1  UNL     1       9.019  -1.327  -0.937  1.00  0.00     0.227 S 
HETATM   37  O1  UNL     1       8.381  -1.561  -2.287  1.00  0.00    -0.206 OA
HETATM   38  O2  UNL     1       9.948  -2.529  -0.745  1.00  0.00    -0.206 OA
BRANCH  36  39
HETATM   39  C2  UNL     1      10.070   0.087  -0.962  1.00  0.00     0.158 C 
HETATM   40  C1  UNL     1      10.900   0.230   0.283  1.00  0.00     0.023 C 
ENDBRANCH  36  39
ENDBRANCH  34  36
ENDBRANCH  33  34
BRANCH  33  41
HETATM   41  C4  UNL     1       6.742   0.592   1.525  1.00  0.00     0.264 C 
BRANCH  41  42
HETATM   42  N2  UNL     1       7.892   1.222   2.088  1.00  0.00    -0.077 N 
ATOM     43  H23 UNL     1       8.634   0.534   2.215  1.00  0.00     0.274 HD
ATOM     44  H22 UNL     1       8.323   1.834   1.395  1.00  0.00     0.274 HD
ATOM     45  H21 UNL     1       7.746   1.735   2.957  1.00  0.00     0.274 HD
ENDBRANCH  41  42
ENDBRANCH  33  41
ENDBRANCH  30  33
ENDBRANCH  26  29
ENDBRANCH  22  25
ENDBRANCH   1  21
BRANCH  18  46
HETATM   46  C18 UNL     1      -3.869  -2.609   1.665  1.00  0.00     0.229 C 
BRANCH  46  47
HETATM   47  C19 UNL     1      -3.379  -2.866   3.022  1.00  0.00     0.249 C 
HETATM   48  N12 UNL     1      -2.600  -1.909   3.719  1.00  0.00    -0.061 NA
HETATM   49  O9  UNL     1      -3.642  -3.948   3.597  1.00  0.00    -0.275 OA
ENDBRANCH  46  47
ENDBRANCH  18  46
BRANCH  17  50
HETATM   50  O8  UNL     1      -3.791   0.740   2.244  1.00  0.00    -0.359 OA
ATOM     51  H8  UNL     1      -3.490   0.336   3.049  1.00  0.00     0.214 HD
ENDBRANCH  17  50
BRANCH  14  52
HETATM   52  N9  UNL     1      -7.713   0.249  -4.087  1.00  0.00    -0.383 N 
ATOM     53  H92 UNL     1      -6.813  -0.136  -4.372  1.00  0.00     0.157 HD
ATOM     54  H91 UNL     1      -8.513   0.282  -4.718  1.00  0.00     0.157 HD
ENDBRANCH  14  52
BRANCH  11  55
HETATM   55  N7  UNL     1     -10.327   2.183  -0.931  1.00  0.00    -0.234 N 
ATOM     56  H72 UNL     1     -10.417   2.544   0.019  1.00  0.00     0.174 HD
ATOM     57  H71 UNL     1     -11.122   2.212  -1.569  1.00  0.00     0.174 HD
ENDBRANCH  11  55
TORSDOF 14
