REMARK  17 active torsions:
REMARK  status: ('A' for Active; 'I' for Inactive)
REMARK    1  A    between atoms: N2_3  and  N3_5 
REMARK    2  A    between atoms: N3_5  and  N4_6 
REMARK    3  A    between atoms: N3_5  and  C2_9 
REMARK    4  A    between atoms: C2_9  and  O1_10 
REMARK    5  A    between atoms: C2_9  and  C3_12 
REMARK    6  A    between atoms: C4_15  and  N6_16 
REMARK    7  A    between atoms: N6_16  and  C5_18 
REMARK    8  A    between atoms: C6_21  and  C7_22 
REMARK    9  A    between atoms: C8_23  and  C9_24 
REMARK   10  A    between atoms: C9_24  and  O2_25 
REMARK   11  A    between atoms: C10_29  and  N9_30 
REMARK   12  A    between atoms: N11_36  and  S1_37 
REMARK   13  A    between atoms: S1_37  and  N12_40 
REMARK   14  A    between atoms: C12_42  and  C13_43 
REMARK       I    between atoms: C13_43  and  N13_45 
REMARK   15  A    between atoms: N13_45  and  C14_47 
REMARK   16  A    between atoms: C14_47  and  C15_48 
REMARK       I    between atoms: C15_48  and  N14_50 
REMARK   17  A    between atoms: N14_50  and  N15_52 
ROOT
HETATM    1  N1  UNL     1       2.890  -7.265   1.412  1.00  0.00    -0.170 NA
HETATM    2  C1  UNL     1       2.298  -6.278   1.353  1.00  0.00     0.199 C 
HETATM    3  N2  UNL     1       1.576  -5.112   1.283  1.00  0.00    -0.213 N 
ATOM      4  H2  UNL     1       0.956  -4.878   2.058  1.00  0.00     0.201 HD
ENDROOT
BRANCH   3   5
HETATM    5  N3  UNL     1       1.652  -4.196   0.160  1.00  0.00    -0.167 N 
BRANCH   5   6
HETATM    6  N4  UNL     1       1.223  -4.786  -1.007  1.00  0.00    -0.321 N 
ATOM      7  H42 UNL     1       0.814  -5.701  -1.195  1.00  0.00     0.179 HD
ATOM      8  H41 UNL     1       1.276  -4.142  -1.796  1.00  0.00     0.179 HD
ENDBRANCH   5   6
BRANCH   5   9
HETATM    9  C2  UNL     1       2.200  -2.970   0.412  1.00  0.00     0.225 C 
BRANCH   9  10
HETATM   10  O1  UNL     1       2.654  -2.937   1.689  1.00  0.00    -0.341 OA
ATOM     11  H1  UNL     1       3.035  -2.085   1.864  1.00  0.00     0.219 HD
ENDBRANCH   9  10
BRANCH   9  12
HETATM   12  C3  UNL     1       2.464  -1.716  -0.220  1.00  0.00     0.179 A 
HETATM   13  N5  UNL     1       3.404  -0.824   0.339  1.00  0.00    -0.322 N 
HETATM   14  C4  UNL     1       3.475   0.284  -0.350  1.00  0.00     0.139 A 
ATOM     15  H5  UNL     1       3.957  -1.019   1.174  1.00  0.00     0.169 HD
HETATM   16  C11 UNL     1       2.580   0.144  -1.376  1.00  0.00     0.161 A 
HETATM   17  N11 UNL     1       1.970  -1.091  -1.273  1.00  0.00    -0.211 N 
BRANCH  14  18
HETATM   18  N6  UNL     1       4.318   1.397  -0.166  1.00  0.00    -0.174 N 
ATOM     19  H6  UNL     1       3.997   2.109   0.490  1.00  0.00     0.186 HD
BRANCH  18  20
HETATM   20  C5  UNL     1       5.445   1.608  -0.736  1.00  0.00     0.700 A 
HETATM   21  N7  UNL     1       6.173   2.713  -0.484  1.00  0.00    -0.167 N 
HETATM   22  C6  UNL     1       7.354   2.947  -1.072  1.00  0.00     0.191 A 
ATOM     23  H7  UNL     1       5.811   3.398   0.180  1.00  0.00     0.186 HD
HETATM   24  N8  UNL     1       7.836   2.052  -1.946  1.00  0.00    -0.168 N 
HETATM   25  C10 UNL     1       7.137   0.925  -2.231  1.00  0.00     0.692 A 
ATOM     26  H8  UNL     1       8.734   2.220  -2.400  1.00  0.00     0.186 HD
HETATM   27  N10 UNL     1       5.964   0.737  -1.618  1.00  0.00    -0.022 N 
ATOM     28  H10 UNL     1       5.437  -0.110  -1.830  1.00  0.00     0.203 HD
BRANCH  22  29
HETATM   29  C7  UNL     1       8.124   4.121  -0.801  1.00  0.00    -0.027 C 
HETATM   30  C8  UNL     1       8.752   5.111  -0.557  1.00  0.00    -0.072 C 
BRANCH  30  31
HETATM   31  C9  UNL     1       9.489   6.321  -0.247  1.00  0.00     0.258 C 
BRANCH  31  32
HETATM   32  O2  UNL     1       9.969   6.308   1.067  1.00  0.00    -0.389 OA
ATOM     33  H2  UNL     1      10.452   7.101   1.270  1.00  0.00     0.210 HD
ENDBRANCH  31  32
ENDBRANCH  30  31
ENDBRANCH  22  29
BRANCH  25  34
HETATM   34  N9  UNL     1       7.625   0.084  -3.075  1.00  0.00    -0.234 N 
ATOM     35  H92 UNL     1       8.520   0.227  -3.543  1.00  0.00     0.174 HD
ATOM     36  H91 UNL     1       7.099  -0.763  -3.289  1.00  0.00     0.174 HD
ENDBRANCH  25  34
ENDBRANCH  18  20
ENDBRANCH  14  18
BRANCH  17  37
HETATM   37  S1  UNL     1       0.658  -1.485  -2.319  1.00  0.00     0.330 S 
HETATM   38  O3  UNL     1       0.617  -0.301  -3.378  1.00  0.00    -0.182 OA
HETATM   39  O4  UNL     1       0.995  -2.621  -3.274  1.00  0.00    -0.182 OA
BRANCH  37  40
HETATM   40  N12 UNL     1      -0.859  -1.520  -1.676  1.00  0.00    -0.273 N 
HETATM   41  C12 UNL     1      -1.375  -2.262  -0.665  1.00  0.00     0.175 C 
ATOM     42  H12 UNL     1      -1.520  -0.876  -2.111  1.00  0.00     0.179 HD
BRANCH  41  43
HETATM   43  C13 UNL     1      -2.832  -1.895  -0.498  1.00  0.00     0.257 C 
HETATM   44  O5  UNL     1      -3.323  -1.064  -1.285  1.00  0.00    -0.267 OA
HETATM   45  N13 UNL     1      -3.561  -2.512   0.543  1.00  0.00    -0.348 N 
ATOM     46  H13 UNL     1      -3.125  -3.186   1.172  1.00  0.00     0.163 HD
BRANCH  45  47
HETATM   47  C14 UNL     1      -4.954  -2.145   0.677  1.00  0.00     0.227 C 
BRANCH  47  48
HETATM   48  C15 UNL     1      -5.087  -0.702   0.952  1.00  0.00     0.249 C 
HETATM   49  O6  UNL     1      -4.105   0.090   1.094  1.00  0.00    -0.270 OA
HETATM   50  N14 UNL     1      -6.378  -0.093   1.074  1.00  0.00    -0.286 N 
ATOM     51  H14 UNL     1      -7.205  -0.683   0.980  1.00  0.00     0.184 HD
BRANCH  50  52
HETATM   52  N15 UNL     1      -6.555   1.259   1.313  1.00  0.00    -0.201 NA
HETATM   53  C16 UNL     1      -7.213   1.914   0.180  1.00  0.00     0.144 C 
HETATM   54  C17 UNL     1      -8.075   2.655   1.159  1.00  0.00     0.140 C 
HETATM   55  N16 UNL     1      -9.500   2.446   0.985  1.00  0.00    -0.334 N 
HETATM   56  C19 UNL     1      -7.629   1.648   2.166  1.00  0.00     0.205 C 
HETATM   57  C18 UNL     1      -9.873   1.338   1.788  1.00  0.00     0.317 C 
ATOM     58  H16 UNL     1     -10.121   2.996   0.392  1.00  0.00     0.164 HD
HETATM   59  O7  UNL     1     -11.053   0.970   2.053  1.00  0.00    -0.247 OA
HETATM   60  N17 UNL     1      -8.709   0.677   2.269  1.00  0.00    -0.323 N 
ATOM     61  H17 UNL     1      -8.644  -0.280   2.615  1.00  0.00     0.166 HD
ENDBRANCH  50  52
ENDBRANCH  47  48
ENDBRANCH  45  47
ENDBRANCH  41  43
ENDBRANCH  37  40
ENDBRANCH  17  37
ENDBRANCH   9  12
ENDBRANCH   5   9
ENDBRANCH   3   5
TORSDOF 17
