REMARK  10 active torsions:
REMARK  status: ('A' for Active; 'I' for Inactive)
REMARK    1  A    between atoms: C4_10  and  C5_11 
REMARK    2  A    between atoms: C7_15  and  N5_16 
REMARK    3  A    between atoms: N7_23  and  C9_24 
REMARK    4  A    between atoms: C9_24  and  C10_25 
REMARK       I    between atoms: C10_25  and  N8_27 
REMARK    5  A    between atoms: N8_27  and  C11_29 
REMARK    6  A    between atoms: C11_29  and  C12_30 
REMARK       I    between atoms: C12_30  and  N9_32 
REMARK    7  A    between atoms: N9_32  and  C13_34 
REMARK    8  A    between atoms: C15_37  and  N10_38 
REMARK    9  A    between atoms: C17_43  and  C18_44 
REMARK   10  A    between atoms: C20_48  and  O8_49 
ROOT
HETATM    1  C1  UNL     1      -1.212  -5.179   2.897  1.00  0.00     0.164 C 
HETATM    2  N1  UNL     1      -1.888  -3.918   2.610  1.00  0.00    -0.270 N 
HETATM    3  C2  UNL     1      -2.799  -3.470   3.516  1.00  0.00     0.330 A 
HETATM    4  O1  UNL     1      -3.037  -4.107   4.591  1.00  0.00    -0.246 OA
HETATM    5  N2  UNL     1      -3.441  -2.335   3.242  1.00  0.00    -0.293 N 
ATOM      6  H2  UNL     1      -4.128  -1.983   3.909  1.00  0.00     0.172 HD
HETATM    7  C3  UNL     1      -3.211  -1.633   2.105  1.00  0.00     0.132 A 
HETATM    8  N3  UNL     1      -3.887  -0.513   1.845  1.00  0.00    -0.326 N 
ATOM      9  H3  UNL     1      -4.564  -0.195   2.538  1.00  0.00     0.169 HD
HETATM   10  C4  UNL     1      -3.734   0.241   0.710  1.00  0.00     0.129 A 
HETATM   11  N7  UNL     1      -2.843  -0.191  -0.177  1.00  0.00    -0.289 N 
HETATM   12  C21 UNL     1      -2.122  -1.343   0.054  1.00  0.00     0.269 A 
HETATM   13  O9  UNL     1      -1.268  -1.739  -0.803  1.00  0.00    -0.267 OA
HETATM   14  C22 UNL     1      -2.289  -2.071   1.178  1.00  0.00     0.144 A 
HETATM   15  C23 UNL     1      -1.626  -3.251   1.471  1.00  0.00     0.270 A 
HETATM   16  O10 UNL     1      -0.775  -3.678   0.645  1.00  0.00    -0.267 OA
ENDROOT
BRANCH  11  17
HETATM   17  C9  UNL     1      -2.576   0.472  -1.396  1.00  0.00     0.236 C 
BRANCH  17  18
HETATM   18  C10 UNL     1      -1.544   1.532  -1.232  1.00  0.00     0.236 C 
HETATM   19  O3  UNL     1      -1.176   2.161  -2.298  1.00  0.00    -0.272 OA
HETATM   20  N8  UNL     1      -0.934   1.915  -0.027  1.00  0.00    -0.351 N 
ATOM     21  H8  UNL     1      -1.174   1.457   0.852  1.00  0.00     0.163 HD
BRANCH  20  22
HETATM   22  C11 UNL     1       0.047   2.980  -0.069  1.00  0.00     0.225 C 
BRANCH  22  23
HETATM   23  C12 UNL     1       1.247   2.649  -0.828  1.00  0.00     0.236 C 
HETATM   24  O4  UNL     1       2.099   3.616  -0.961  1.00  0.00    -0.272 OA
HETATM   25  N9  UNL     1       1.598   1.437  -1.418  1.00  0.00    -0.346 N 
ATOM     26  H9  UNL     1       0.971   0.637  -1.334  1.00  0.00     0.163 HD
BRANCH  25  27
HETATM   27  C13 UNL     1       2.850   1.294  -2.155  1.00  0.00     0.185 C 
HETATM   28  C14 UNL     1       3.923   1.005  -1.155  1.00  0.00     0.175 C 
HETATM   29  O5  UNL     1       4.446   1.912  -0.548  1.00  0.00    -0.293 OA
HETATM   30  C15 UNL     1       4.401  -0.381  -0.852  1.00  0.00     0.170 C 
HETATM   31  C17 UNL     1       4.281  -1.308  -2.017  1.00  0.00     0.119 C 
HETATM   32  C19 UNL     1       3.867  -0.698  -3.306  1.00  0.00     0.052 C 
HETATM   33  C20 UNL     1       2.761   0.302  -3.250  1.00  0.00     0.149 C 
BRANCH  30  34
HETATM   34  N10 UNL     1       5.753  -0.358  -0.327  1.00  0.00    -0.354 N 
HETATM   35  C16 UNL     1       6.010  -0.347   0.917  1.00  0.00     0.197 C 
HETATM   36  N11 UNL     1       4.982  -0.358   1.893  1.00  0.00    -0.067 NA
HETATM   37  N12 UNL     1       7.358  -0.324   1.355  1.00  0.00    -0.067 NA
ATOM     38  H10 UNL     1       6.532  -0.350  -0.986  1.00  0.00     0.162 HD
ENDBRANCH  30  34
BRANCH  31  39
HETATM   39  C18 UNL     1       3.429  -2.472  -1.627  1.00  0.00     0.179 C 
HETATM   40  O6  UNL     1       3.799  -3.662  -1.707  1.00  0.00    -0.648 OA
HETATM   41  O7  UNL     1       2.160  -2.162  -1.155  1.00  0.00    -0.648 OA
ENDBRANCH  31  39
BRANCH  33  42
HETATM   42  O8  UNL     1       2.810   1.024  -4.466  1.00  0.00    -0.393 OA
ATOM     43  H8  UNL     1       2.753   0.387  -5.169  1.00  0.00     0.210 HD
ENDBRANCH  33  42
ENDBRANCH  25  27
ENDBRANCH  22  23
ENDBRANCH  20  22
ENDBRANCH  17  18
ENDBRANCH  11  17
BRANCH  10  44
HETATM   44  C5  UNL     1      -4.520   1.463   0.644  1.00  0.00     0.093 A 
HETATM   45  C6  UNL     1      -4.269   2.465   1.596  1.00  0.00     0.127 A 
HETATM   46  N4  UNL     1      -4.974   3.598   1.665  1.00  0.00    -0.201 N 
HETATM   47  C7  UNL     1      -5.988   3.836   0.801  1.00  0.00     0.678 A 
ATOM     48  H4  UNL     1      -4.745   4.292   2.377  1.00  0.00     0.183 HD
HETATM   49  N6  UNL     1      -6.249   2.893  -0.115  1.00  0.00    -0.156 N 
HETATM   50  C8  UNL     1      -5.551   1.723  -0.217  1.00  0.00     0.275 A 
ATOM     51  H6  UNL     1      -7.011   3.058  -0.773  1.00  0.00     0.187 HD
HETATM   52  O2  UNL     1      -5.910   0.928  -1.117  1.00  0.00    -0.267 OA
BRANCH  47  53
HETATM   53  N5  UNL     1      -6.675   4.936   0.859  1.00  0.00    -0.234 N 
ATOM     54  H52 UNL     1      -6.476   5.654   1.556  1.00  0.00     0.174 HD
ATOM     55  H51 UNL     1      -7.439   5.115   0.208  1.00  0.00     0.174 HD
ENDBRANCH  47  53
ENDBRANCH  10  44
TORSDOF 10
