REMARK  1 active torsions:
REMARK  status: ('A' for Active; 'I' for Inactive)
REMARK    1  A    between atoms: O1_1  and  C1_3 
ROOT
HETATM    1  C1  UNL     1      -2.117   0.411   1.184  1.00  0.00     0.061 C 
HETATM    2  C2  UNL     1      -2.958   0.095   0.004  1.00  0.00     0.042 C 
HETATM    3  C3  UNL     1      -2.254   0.065  -1.311  1.00  0.00    -0.009 C 
HETATM    4  C4  UNL     1      -1.567  -1.211  -1.635  1.00  0.00     0.005 C 
HETATM    5  C5  UNL     1      -0.906  -1.913  -0.522  1.00  0.00     0.005 C 
HETATM    6  C6  UNL     1      -0.185  -1.024   0.460  1.00  0.00    -0.002 C 
HETATM    7  C7  UNL     1      -1.167  -0.698   1.564  1.00  0.00     0.043 C 
HETATM    8  C8  UNL     1       0.399   0.120  -0.239  1.00  0.00     0.065 C 
HETATM    9  C9  UNL     1       1.674   0.678   0.267  1.00  0.00     0.103 C 
HETATM   10  C10 UNL     1       2.385  -0.049   1.319  1.00  0.00     0.042 C 
HETATM   11  C11 UNL     1       3.318  -0.998   0.611  1.00  0.00     0.003 C 
HETATM   12  C12 UNL     1       3.806  -0.137  -0.555  1.00  0.00     0.003 C 
HETATM   13  C13 UNL     1       2.721   0.855  -0.830  1.00  0.00     0.042 C 
HETATM   14  O2  UNL     1       1.297   1.990   0.635  1.00  0.00    -0.228 OA
HETATM   15  O3  UNL     1       0.525   2.347  -0.397  1.00  0.00    -0.228 OA
HETATM   16  C14 UNL     1      -0.464   1.353  -0.310  1.00  0.00     0.106 C 
HETATM   17  C15 UNL     1      -1.331   1.271  -1.509  1.00  0.00     0.046 C 
HETATM   18  C16 UNL     1      -1.240   1.626   0.942  1.00  0.00     0.079 C 
ENDROOT
BRANCH   1  19
HETATM   19  O1  UNL     1      -2.958   0.618   2.279  1.00  0.00    -0.390 OA
ATOM     20  H1  UNL     1      -2.419   0.820   3.035  1.00  0.00     0.210 HD
ENDBRANCH   1  19
TORSDOF 1
