REMARK  1 active torsions:
REMARK  status: ('A' for Active; 'I' for Inactive)
REMARK    1  A    between atoms: O1_1  and  C1_3 
ROOT
HETATM    1  C1  UNL     1      -2.657   0.854  -0.505  1.00  0.00     0.151 C 
HETATM    2  C2  UNL     1      -3.226  -0.250   0.311  1.00  0.00     0.151 C 
HETATM    3  C3  UNL     1      -3.507  -1.514  -0.512  1.00  0.00     0.037 C 
HETATM    4  C4  UNL     1      -2.146  -2.196  -0.440  1.00  0.00     0.035 C 
HETATM    5  C5  UNL     1      -1.288  -1.273   0.442  1.00  0.00     0.128 C 
HETATM    6  O2  UNL     1      -2.327  -0.715   1.230  1.00  0.00    -0.378 OA
HETATM    7  C6  UNL     1      -0.572  -0.299  -0.398  1.00  0.00     0.041 C 
HETATM    8  C7  UNL     1      -1.156   1.098  -0.212  1.00  0.00     0.025 C 
HETATM    9  C8  UNL     1      -1.039   1.851   0.995  1.00  0.00     0.009 C 
HETATM   10  C9  UNL     1       0.116   2.826   1.262  1.00  0.00     0.012 C 
HETATM   11  C10 UNL     1       1.497   2.094   1.220  1.00  0.00     0.081 C 
HETATM   12  C11 UNL     1       1.285   0.886   0.522  1.00  0.00    -0.173 C 
HETATM   13  C12 UNL     1       0.973  -0.300  -0.165  1.00  0.00     0.018 C 
HETATM   14  C13 UNL     1       1.679  -0.451  -1.532  1.00  0.00     0.022 C 
HETATM   15  C14 UNL     1       3.083   0.085  -1.294  1.00  0.00     0.002 C 
HETATM   16  C15 UNL     1       3.641  -0.619  -0.104  1.00  0.00     0.000 C 
HETATM   17  C16 UNL     1       2.871  -1.841   0.307  1.00  0.00     0.002 C 
HETATM   18  C17 UNL     1       1.404  -1.570   0.551  1.00  0.00     0.022 C 
ENDROOT
BRANCH   1  19
HETATM   19  O1  UNL     1      -2.643   0.396  -1.846  1.00  0.00    -0.393 OA
ATOM     20  H1  UNL     1      -2.279   1.102  -2.368  1.00  0.00     0.210 HD
ENDBRANCH   1  19
TORSDOF 1
