REMARK  0 active torsions:
REMARK  status: ('A' for Active; 'I' for Inactive)
ROOT
HETATM    1  O1  UNL     1       2.076  -4.375  -1.011  1.00  0.00    -0.269 OA
HETATM    2  C1  UNL     1       1.304  -3.395  -0.782  1.00  0.00     0.240 C 
HETATM    3  C2  UNL     1       0.128  -3.263  -1.634  1.00  0.00     0.070 C 
HETATM    4  C3  UNL     1      -1.118  -3.150  -1.215  1.00  0.00    -0.021 C 
HETATM    5  C4  UNL     1      -1.564  -3.135   0.197  1.00  0.00     0.027 C 
HETATM    6  C5  UNL     1      -2.712  -2.170   0.309  1.00  0.00     0.004 C 
HETATM    7  C6  UNL     1      -2.287  -0.859   0.928  1.00  0.00     0.000 C 
HETATM    8  C7  UNL     1      -2.400   0.299  -0.059  1.00  0.00     0.000 C 
HETATM    9  C8  UNL     1      -2.345   1.570   0.758  1.00  0.00     0.000 C 
HETATM   10  C9  UNL     1      -2.388   2.817  -0.046  1.00  0.00     0.002 C 
HETATM   11  C10 UNL     1      -1.109   3.331  -0.561  1.00  0.00     0.026 C 
HETATM   12  C11 UNL     1       0.016   2.347  -0.611  1.00  0.00     0.167 C 
HETATM   13  O2  UNL     1       1.280   2.962  -0.559  1.00  0.00    -0.391 OA
HETATM   14  C12 UNL     1       2.052   2.455   0.486  1.00  0.00     0.167 C 
HETATM   15  C13 UNL     1       3.362   1.891  -0.014  1.00  0.00     0.026 C 
HETATM   16  C14 UNL     1       3.197   0.611  -0.764  1.00  0.00     0.004 C 
HETATM   17  C15 UNL     1       3.082  -0.594   0.155  1.00  0.00     0.020 C 
HETATM   18  C16 UNL     1       1.654  -1.087   0.227  1.00  0.00     0.123 C 
HETATM   19  N1  UNL     1       1.670  -2.533   0.279  1.00  0.00    -0.358 N 
ATOM     20  H1  UNL     1       1.970  -2.967   1.152  1.00  0.00     0.162 HD
ENDROOT
TORSDOF 0
