REMARK  1 active torsions:
REMARK  status: ('A' for Active; 'I' for Inactive)
REMARK    1  A    between atoms: C2_2  and  O1_3 
ROOT
HETATM    1  C1  UNL     1       4.386   0.871  -0.123  1.00  0.00     0.046 C 
HETATM    2  C2  UNL     1       3.226   0.117   0.539  1.00  0.00     0.062 C 
HETATM    3  C3  UNL     1       1.919   0.843   0.252  1.00  0.00     0.039 C 
HETATM    4  C4  UNL     1       0.820   0.023   0.843  1.00  0.00     0.014 C 
HETATM    5  C5  UNL     1      -0.143  -0.340  -0.235  1.00  0.00    -0.025 C 
HETATM    6  C6  UNL     1       0.595  -0.919  -1.407  1.00  0.00     0.084 C 
HETATM    7  S1  UNL     1       2.040  -1.836  -1.052  1.00  0.00    -0.165 SA
HETATM    8  C7  UNL     1       3.184  -1.316   0.137  1.00  0.00     0.111 C 
HETATM    9  C8  UNL     1      -1.185  -1.272   0.321  1.00  0.00    -0.004 C 
HETATM   10  C9  UNL     1      -2.300  -1.554  -0.668  1.00  0.00     0.010 C 
HETATM   11  C10 UNL     1      -2.917  -0.266  -1.135  1.00  0.00    -0.013 C 
HETATM   12  C11 UNL     1      -3.550   0.428   0.057  1.00  0.00     0.009 C 
HETATM   13  C12 UNL     1      -2.449   0.745   1.076  1.00  0.00    -0.013 C 
HETATM   14  C13 UNL     1      -1.844  -0.563   1.499  1.00  0.00     0.010 C 
HETATM   15  C14 UNL     1      -1.490   1.674   0.411  1.00  0.00     0.010 C 
HETATM   16  C15 UNL     1      -0.813   0.935  -0.715  1.00  0.00    -0.004 C 
HETATM   17  C16 UNL     1      -1.881   0.619  -1.759  1.00  0.00     0.010 C 
ENDROOT
BRANCH   2  18
HETATM   18  O1  UNL     1       3.432   0.266   1.913  1.00  0.00    -0.389 OA
ATOM     19  H1  UNL     1       2.713  -0.201   2.323  1.00  0.00     0.210 HD
ENDBRANCH   2  18
TORSDOF 1
