REMARK  0 active torsions:
REMARK  status: ('A' for Active; 'I' for Inactive)
ROOT
HETATM    1  N1  UNL     1      -2.115   2.264  -1.668  1.00  0.00    -0.405 N 
ATOM      2  H11 UNL     1      -3.061   2.161  -1.301  1.00  0.00     0.155 HD
ATOM      3  H12 UNL     1      -2.209   2.942  -2.425  1.00  0.00     0.155 HD
HETATM    4  C1  UNL     1      -1.084   1.675  -1.260  1.00  0.00    -0.011 C 
HETATM    5  C2  UNL     1       0.297   1.826  -1.796  1.00  0.00     0.059 C 
HETATM    6  C3  UNL     1       1.075   1.980  -0.485  1.00  0.00     0.026 C 
HETATM    7  C4  UNL     1       2.506   1.596  -0.613  1.00  0.00     0.278 C 
HETATM    8  N2  UNL     1       2.626   0.185  -0.486  1.00  0.00     0.093 N 
HETATM    9  C5  UNL     1       3.784  -0.277   0.208  1.00  0.00     0.273 C 
HETATM   10  C6  UNL     1       3.733  -1.806   0.211  1.00  0.00     0.030 C 
HETATM   11  C7  UNL     1       2.559  -2.223   1.056  1.00  0.00     0.004 C 
HETATM   12  C8  UNL     1       1.738  -1.016   1.409  1.00  0.00     0.036 C 
HETATM   13  C9  UNL     1       1.377  -0.322   0.088  1.00  0.00     0.228 C 
HETATM   14  C10 UNL     1       0.472   0.812   0.302  1.00  0.00     0.039 C 
HETATM   15  C11 UNL     1      -0.945   0.670  -0.138  1.00  0.00     0.004 C 
HETATM   16  C12 UNL     1      -1.821   1.050   0.997  1.00  0.00     0.016 C 
HETATM   17  C13 UNL     1      -3.259   0.754   0.871  1.00  0.00     0.001 C 
HETATM   18  C14 UNL     1      -3.489  -0.707   1.205  1.00  0.00     0.000 C 
HETATM   19  C15 UNL     1      -3.404  -1.591   0.007  1.00  0.00     0.000 C 
HETATM   20  C16 UNL     1      -2.600  -0.952  -1.127  1.00  0.00     0.001 C 
HETATM   21  C17 UNL     1      -1.189  -0.669  -0.732  1.00  0.00     0.016 C 
ENDROOT
TORSDOF 0
