REMARK  10 active torsions:
REMARK  status: ('A' for Active; 'I' for Inactive)
REMARK    1  A    between atoms: C2_2  and  C4_4 
REMARK    2  A    between atoms: C4_4  and  C5_5 
REMARK    3  A    between atoms: C7_10  and  C8_11 
REMARK    4  A    between atoms: C8_11  and  C9_12 
REMARK    5  A    between atoms: C13_19  and  C14_20 
REMARK    6  A    between atoms: C14_20  and  C15_21 
REMARK    7  A    between atoms: C15_21  and  C16_22 
REMARK    8  A    between atoms: C16_22  and  C17_23 
REMARK    9  A    between atoms: C17_23  and  N3_24 
REMARK   10  A    between atoms: C19_32  and  C20_33 
ROOT
HETATM    1  C5  UNL     1       3.174   0.460   0.020  1.00  0.00     0.154 C 
HETATM    2  N1  UNL     1       2.524   0.066   1.253  1.00  0.00    -0.348 N 
ATOM      3  H1  UNL     1       3.098   0.115   2.095  1.00  0.00     0.163 HD
HETATM    4  C6  UNL     1       1.203  -0.375   1.435  1.00  0.00     0.241 C 
HETATM    5  O1  UNL     1       0.516   0.255   2.337  1.00  0.00    -0.271 OA
HETATM    6  C7  UNL     1       0.504  -1.455   0.730  1.00  0.00     0.177 C 
HETATM    7  N2  UNL     1       0.355  -1.139  -0.704  1.00  0.00    -0.346 N 
ATOM      8  H2  UNL     1       1.124  -1.448  -1.299  1.00  0.00     0.163 HD
HETATM    9  C12 UNL     1      -0.676  -0.484  -1.362  1.00  0.00     0.241 C 
HETATM   10  O2  UNL     1      -0.364   0.662  -1.879  1.00  0.00    -0.271 OA
HETATM   11  C13 UNL     1      -2.077  -0.836  -1.597  1.00  0.00     0.176 C 
HETATM   12  N4  UNL     1      -2.963   0.293  -1.659  1.00  0.00    -0.346 N 
ATOM     13  H4  UNL     1      -3.394   0.462  -2.568  1.00  0.00     0.163 HD
HETATM   14  C18 UNL     1      -3.317   1.191  -0.653  1.00  0.00     0.241 C 
HETATM   15  O3  UNL     1      -4.356   1.919  -0.841  1.00  0.00    -0.271 OA
HETATM   16  C19 UNL     1      -2.650   1.433   0.638  1.00  0.00     0.180 C 
HETATM   17  N5  UNL     1      -1.878   2.656   0.703  1.00  0.00    -0.347 N 
ATOM     18  H5  UNL     1      -1.168   2.669   1.435  1.00  0.00     0.163 HD
HETATM   19  C23 UNL     1      -1.938   3.812  -0.058  1.00  0.00     0.218 C 
HETATM   20  O4  UNL     1      -2.247   4.902   0.569  1.00  0.00    -0.274 OA
HETATM   21  C24 UNL     1      -1.704   4.022  -1.499  1.00  0.00     0.103 C 
HETATM   22  C25 UNL     1      -0.313   4.307  -1.915  1.00  0.00     0.009 C 
HETATM   23  C26 UNL     1       0.638   4.591  -0.770  1.00  0.00     0.000 C 
HETATM   24  C27 UNL     1       1.649   3.463  -0.734  1.00  0.00     0.000 C 
HETATM   25  C28 UNL     1       3.085   3.962  -0.772  1.00  0.00     0.007 C 
HETATM   26  C29 UNL     1       3.945   2.725  -1.068  1.00  0.00     0.080 C 
HETATM   27  C30 UNL     1       3.743   1.829   0.132  1.00  0.00     0.149 C 
HETATM   28  O5  UNL     1       4.077   2.306   1.200  1.00  0.00    -0.296 OA
ENDROOT
BRANCH  11  29
HETATM   29  C14 UNL     1      -2.688  -1.875  -0.743  1.00  0.00     0.035 C 
BRANCH  29  30
HETATM   30  C15 UNL     1      -4.129  -2.111  -1.123  1.00  0.00     0.004 C 
BRANCH  30  31
HETATM   31  C16 UNL     1      -4.249  -2.574  -2.551  1.00  0.00     0.027 C 
BRANCH  31  32
HETATM   32  C17 UNL     1      -5.704  -2.837  -2.920  1.00  0.00     0.229 C 
BRANCH  32  33
HETATM   33  N3  UNL     1      -6.251  -3.851  -2.070  1.00  0.00    -0.079 N 
ATOM     34  H33 UNL     1      -5.693  -4.705  -2.086  1.00  0.00     0.274 HD
ATOM     35  H32 UNL     1      -6.143  -3.620  -1.082  1.00  0.00     0.274 HD
ATOM     36  H31 UNL     1      -7.225  -4.027  -2.317  1.00  0.00     0.274 HD
ENDBRANCH  32  33
ENDBRANCH  31  32
ENDBRANCH  30  31
ENDBRANCH  29  30
ENDBRANCH  11  29
BRANCH   6  37
HETATM   37  C8  UNL     1       1.068  -2.831   0.894  1.00  0.00     0.038 C 
BRANCH  37  38
HETATM   38  C9  UNL     1       1.100  -3.372   2.263  1.00  0.00    -0.020 C 
HETATM   39  C10 UNL     1       1.654  -4.843   2.195  1.00  0.00     0.009 C 
HETATM   40  C11 UNL     1       2.209  -2.694   3.077  1.00  0.00     0.009 C 
ENDBRANCH  37  38
ENDBRANCH   6  37
BRANCH  16  41
HETATM   41  C20 UNL     1      -3.729   1.563   1.731  1.00  0.00     0.009 C 
HETATM   42  C21 UNL     1      -4.580   0.353   1.874  1.00  0.00     0.012 C 
HETATM   43  C22 UNL     1      -3.072   1.831   3.076  1.00  0.00     0.012 C 
ENDBRANCH  16  41
BRANCH   1  44
HETATM   44  C4  UNL     1       4.145  -0.538  -0.487  1.00  0.00     0.037 C 
BRANCH  44  45
HETATM   45  C2  UNL     1       5.283  -0.926   0.369  1.00  0.00    -0.020 C 
HETATM   46  C1  UNL     1       6.072  -1.976  -0.446  1.00  0.00     0.009 C 
HETATM   47  C3  UNL     1       6.290   0.152   0.670  1.00  0.00     0.009 C 
ENDBRANCH  44  45
ENDBRANCH   1  44
TORSDOF 10
