REMARK  11 active torsions:
REMARK  status: ('A' for Active; 'I' for Inactive)
REMARK    1  A    between atoms: C2_2  and  C3_3 
REMARK    2  A    between atoms: C3_3  and  C4_4 
REMARK    3  A    between atoms: C4_4  and  C5_5 
REMARK    4  A    between atoms: C8_8  and  C9_9 
REMARK    5  A    between atoms: C14_14  and  C15_15 
REMARK    6  A    between atoms: C15_15  and  O1_16 
REMARK    7  A    between atoms: C15_15  and  N1_18 
REMARK    8  A    between atoms: C19_23  and  C20_24 
REMARK    9  A    between atoms: C20_24  and  C21_25 
REMARK   10  A    between atoms: C21_25  and  C22_26 
REMARK   11  A    between atoms: C22_26  and  N2_27 
REMARK       I    between atoms: N2_27  and  C23_29 
ROOT
HETATM    1  N1  UNL     1       2.236  -0.520   1.931  1.00  0.00    -0.310 N 
HETATM    2  C16 UNL     1       3.333  -0.033   2.803  1.00  0.00     0.138 C 
HETATM    3  C17 UNL     1       4.666  -0.540   2.469  1.00  0.00     0.090 C 
HETATM    4  C18 UNL     1       4.917  -1.108   1.115  1.00  0.00     0.210 C 
HETATM    5  O2  UNL     1       5.247  -0.233   0.133  1.00  0.00    -0.338 OA
HETATM    6  C19 UNL     1       6.568  -0.382  -0.218  1.00  0.00     0.217 C 
HETATM    7  C24 UNL     1       7.077  -1.595   0.458  1.00  0.00     0.251 C 
HETATM    8  O3  UNL     1       8.234  -2.096   0.336  1.00  0.00    -0.270 OA
HETATM    9  N5  UNL     1       6.004  -2.062   1.253  1.00  0.00    -0.315 N 
HETATM   10  C25 UNL     1       5.949  -3.241   2.056  1.00  0.00     0.156 C 
HETATM   11  C26 UNL     1       3.747  -1.933   0.640  1.00  0.00     0.248 C 
HETATM   12  O4  UNL     1       3.890  -2.698  -0.303  1.00  0.00    -0.284 OA
HETATM   13  C27 UNL     1       2.463  -1.785   1.339  1.00  0.00     0.155 C 
HETATM   14  N6  UNL     1       1.658  -2.772   1.427  1.00  0.00    -0.382 N 
ATOM     15  H61 UNL     1       1.822  -3.684   1.000  1.00  0.00     0.157 HD
ATOM     16  H62 UNL     1       0.767  -2.669   1.912  1.00  0.00     0.157 HD
ENDROOT
BRANCH   1  17
HETATM   17  C15 UNL     1       1.045   0.191   1.846  1.00  0.00     0.154 C 
BRANCH  17  18
HETATM   18  C14 UNL     1      -0.106   0.026   0.996  1.00  0.00     0.017 A 
HETATM   19  C13 UNL     1      -0.059  -0.644  -0.193  1.00  0.00     0.017 A 
HETATM   20  C12 UNL     1      -1.230  -0.849  -0.924  1.00  0.00     0.015 A 
HETATM   21  C11 UNL     1      -2.446  -0.388  -0.475  1.00  0.00    -0.007 A 
HETATM   22  C10 UNL     1      -3.742  -0.431  -0.944  1.00  0.00     0.044 A 
HETATM   23  C29 UNL     1      -2.520   0.294   0.720  1.00  0.00     0.043 A 
HETATM   24  C9  UNL     1      -4.589   0.203  -0.065  1.00  0.00     0.043 A 
HETATM   25  N7  UNL     1      -3.823   0.637   0.942  1.00  0.00    -0.355 N 
ATOM     26  H7  UNL     1      -4.162   1.149   1.756  1.00  0.00     0.166 HD
HETATM   27  C28 UNL     1      -1.366   0.491   1.434  1.00  0.00     0.046 A 
BRANCH  24  28
HETATM   28  C8  UNL     1      -6.047   0.358  -0.209  1.00  0.00    -0.009 A 
HETATM   29  C7  UNL     1      -6.683  -0.131  -1.328  1.00  0.00     0.014 A 
HETATM   30  C6  UNL     1      -8.047  -0.005  -1.488  1.00  0.00     0.008 A 
HETATM   31  C5  UNL     1      -8.840   0.616  -0.536  1.00  0.00    -0.058 A 
HETATM   32  C31 UNL     1      -8.205   1.105   0.585  1.00  0.00     0.008 A 
HETATM   33  C30 UNL     1      -6.829   0.974   0.738  1.00  0.00     0.014 A 
BRANCH  31  34
HETATM   34  C4  UNL     1     -10.312   0.746  -0.733  1.00  0.00     0.038 C 
BRANCH  34  35
HETATM   35  C3  UNL     1     -10.995  -0.468  -0.168  1.00  0.00     0.004 C 
BRANCH  35  36
HETATM   36  C2  UNL     1     -12.502  -0.331  -0.371  1.00  0.00    -0.004 C 
HETATM   37  C1  UNL     1     -12.774  -0.215  -1.855  1.00  0.00     0.005 C 
ENDBRANCH  35  36
ENDBRANCH  34  35
ENDBRANCH  31  34
ENDBRANCH  24  28
ENDBRANCH  17  18
BRANCH  17  38
HETATM   38  O1  UNL     1       0.922   1.198   2.675  1.00  0.00    -0.345 OA
ATOM     39  H1  UNL     1       1.681   1.307   3.236  1.00  0.00     0.219 HD
ENDBRANCH  17  38
ENDBRANCH   1  17
BRANCH   6  40
HETATM   40  C20 UNL     1       7.315   0.869   0.129  1.00  0.00     0.043 C 
BRANCH  40  41
HETATM   41  C21 UNL     1       8.783   0.815  -0.208  1.00  0.00     0.023 C 
BRANCH  41  42
HETATM   42  C22 UNL     1       9.082   0.587  -1.650  1.00  0.00     0.122 C 
BRANCH  42  43
HETATM   43  N2  UNL     1       8.539   1.642  -2.469  1.00  0.00    -0.365 N 
HETATM   44  C23 UNL     1       9.111   2.937  -2.359  1.00  0.00     0.181 C 
HETATM   45  N3  UNL     1      10.335   3.088  -2.728  1.00  0.00    -0.374 N 
HETATM   46  N4  UNL     1       8.406   4.063  -1.866  1.00  0.00    -0.064 NA
ATOM     47  H32 UNL     1      10.842   2.277  -3.083  1.00  0.00     0.158 HD
ATOM     48  H31 UNL     1      10.746   4.018  -2.649  1.00  0.00     0.158 HD
ATOM     49  H2  UNL     1       7.766   1.463  -3.110  1.00  0.00     0.162 HD
ENDBRANCH  42  43
ENDBRANCH  41  42
ENDBRANCH  40  41
ENDBRANCH   6  40
TORSDOF 11
