REMARK  3 active torsions:
REMARK  status: ('A' for Active; 'I' for Inactive)
REMARK    1  A    between atoms: N1_1  and  S1_4 
REMARK    2  A    between atoms: S1_4  and  N2_5 
REMARK    3  A    between atoms: S1_4  and  N3_9 
ROOT
HETATM    1  S1  UNL     1       1.540  -0.143  -0.013  1.00  0.00     0.192 S 
HETATM    2  O1  UNL     1       2.720  -0.531   0.835  1.00  0.00    -0.206 OA
ENDROOT
BRANCH   1   3
HETATM    3  N1  UNL     1       1.313  -1.347  -1.005  1.00  0.00    -0.329 N 
ATOM      4  H12 UNL     1       1.351  -1.265  -2.021  1.00  0.00     0.168 HD
ATOM      5  H11 UNL     1       1.126  -2.203  -0.483  1.00  0.00     0.168 HD
ENDBRANCH   1   3
BRANCH   1   6
HETATM    6  N2  UNL     1       1.855   1.299  -0.892  1.00  0.00    -0.329 N 
ATOM      7  H22 UNL     1       1.887   1.352  -1.910  1.00  0.00     0.168 HD
ATOM      8  H21 UNL     1       2.002   2.078  -0.250  1.00  0.00     0.168 HD
ENDBRANCH   1   6
BRANCH   1   9
HETATM    9  N3  UNL     1       0.126  -0.036   0.946  1.00  0.00    -0.261 N 
HETATM   10  C1  UNL     1      -1.071  -0.078   0.530  1.00  0.00     0.210 C 
HETATM   11  N4  UNL     1      -2.110   0.028   1.489  1.00  0.00    -0.066 NA
HETATM   12  N5  UNL     1      -1.442  -0.225  -0.834  1.00  0.00    -0.066 NA
ATOM     13  H3  UNL     1       0.260   0.072   1.951  1.00  0.00     0.181 HD
ENDBRANCH   1   9
TORSDOF 3
