REMARK  2 active torsions:
REMARK  status: ('A' for Active; 'I' for Inactive)
REMARK       I    between atoms: C1_4  and  N3_6 
REMARK    1  A    between atoms: N3_6  and  C2_8 
REMARK    2  A    between atoms: C2_8  and  N4_9 
ROOT
HETATM    1  C2  UNL     1      -0.844  -0.342  -0.032  1.00  0.00     0.311 A 
HETATM    2  C3  UNL     1      -2.238  -0.536  -0.492  1.00  0.00     0.135 A 
HETATM    3  N5  UNL     1      -2.624   0.348   0.347  1.00  0.00    -0.332 N 
ATOM      4  H5  UNL     1      -3.551   0.719   0.556  1.00  0.00     0.168 HD
HETATM    5  C4  UNL     1      -1.364   0.645   0.888  1.00  0.00     0.284 A 
HETATM    6  O1  UNL     1      -0.983   1.439   1.778  1.00  0.00    -0.268 OA
ENDROOT
BRANCH   1   7
HETATM    7  N3  UNL     1       0.045   0.213  -1.003  1.00  0.00    -0.320 N 
HETATM    8  C1  UNL     1       1.398   0.429  -0.640  1.00  0.00     0.184 C 
HETATM    9  N1  UNL     1       2.291  -0.505  -0.719  1.00  0.00    -0.374 N 
HETATM   10  N2  UNL     1       1.854   1.681  -0.170  1.00  0.00    -0.064 NA
ATOM     11  H12 UNL     1       3.265  -0.350  -0.458  1.00  0.00     0.158 HD
ATOM     12  H11 UNL     1       1.962  -1.409  -1.058  1.00  0.00     0.158 HD
ATOM     13  H3  UNL     1      -0.287   0.449  -1.938  1.00  0.00     0.165 HD
ENDBRANCH   1   7
BRANCH   1  14
HETATM   14  N4  UNL     1      -0.332  -1.528   0.558  1.00  0.00    -0.038 N 
ATOM     15  H43 UNL     1      -0.089  -2.217  -0.154  1.00  0.00     0.278 HD
ATOM     16  H42 UNL     1       0.594  -1.370   0.956  1.00  0.00     0.278 HD
ATOM     17  H41 UNL     1      -0.967  -1.924   1.251  1.00  0.00     0.278 HD
ENDBRANCH   1  14
TORSDOF 2
