REMARK  0 active torsions:
REMARK  status: ('A' for Active; 'I' for Inactive)
REMARK       I    between atoms: C1_4  and  N3_6 
ROOT
HETATM    1  N1  UNL     1      -1.737   1.584  -0.247  1.00  0.00    -0.372 N 
ATOM      2  H11 UNL     1      -1.068   2.340  -0.396  1.00  0.00     0.158 HD
ATOM      3  H12 UNL     1      -2.742   1.759  -0.251  1.00  0.00     0.158 HD
HETATM    4  C1  UNL     1      -1.320   0.396  -0.050  1.00  0.00     0.211 C 
HETATM    5  N2  UNL     1      -2.245  -0.649   0.156  1.00  0.00    -0.062 NA
HETATM    6  N3  UNL     1       0.074   0.153  -0.044  1.00  0.00    -0.172 N 
HETATM    7  N4  UNL     1       1.020   0.827  -0.706  1.00  0.00    -0.238 N 
ATOM      8  H4  UNL     1       0.851   1.626  -1.317  1.00  0.00     0.192 HD
HETATM    9  C2  UNL     1       2.228   0.295  -0.446  1.00  0.00     0.343 A 
HETATM   10  O1  UNL     1       3.333   0.681  -0.900  1.00  0.00    -0.245 OA
HETATM   11  N5  UNL     1       2.053  -0.736   0.396  1.00  0.00    -0.258 N 
ATOM     12  H5  UNL     1       2.783  -1.338   0.777  1.00  0.00     0.175 HD
HETATM   13  C3  UNL     1       0.738  -0.824   0.641  1.00  0.00     0.352 A 
HETATM   14  O2  UNL     1       0.194  -1.683   1.395  1.00  0.00    -0.244 OA
ENDROOT
TORSDOF 0
