REMARK  2 active torsions:
REMARK  status: ('A' for Active; 'I' for Inactive)
REMARK    1  A    between atoms: C1_2  and  C2_3 
REMARK       I    between atoms: C1_2  and  N1_11 
REMARK    2  A    between atoms: C5_6  and  C6_7 
ROOT
HETATM    1  C2  UNL     1       0.341  -0.642  -0.306  1.00  0.00     0.078 C 
HETATM    2  C3  UNL     1       1.453  -1.580   0.090  1.00  0.00     0.014 C 
HETATM    3  C4  UNL     1       2.807  -1.089  -0.361  1.00  0.00     0.006 C 
HETATM    4  C5  UNL     1       2.881   0.433  -0.317  1.00  0.00    -0.004 C 
HETATM    5  C7  UNL     1       1.945   0.851   0.796  1.00  0.00     0.006 C 
HETATM    6  C8  UNL     1       0.545   0.755   0.225  1.00  0.00     0.014 C 
ENDROOT
BRANCH   1   7
HETATM    7  C1  UNL     1      -0.948  -1.146   0.249  1.00  0.00     0.224 C 
HETATM    8  O1  UNL     1      -0.957  -2.185   0.952  1.00  0.00    -0.273 OA
HETATM    9  N1  UNL     1      -2.172  -0.481   0.006  1.00  0.00    -0.348 N 
HETATM   10  C9  UNL     1      -3.390  -1.014   0.574  1.00  0.00     0.152 C 
HETATM   11  C12 UNL     1      -2.316   0.721  -0.789  1.00  0.00     0.152 C 
HETATM   12  C10 UNL     1      -4.368   0.144   0.665  1.00  0.00     0.187 C 
HETATM   13  O2  UNL     1      -4.717   0.645  -0.579  1.00  0.00    -0.388 OA
HETATM   14  C11 UNL     1      -3.672   0.757  -1.452  1.00  0.00     0.187 C 
ENDBRANCH   1   7
BRANCH   4  15
HETATM   15  C6  UNL     1       4.293   0.911  -0.099  1.00  0.00     0.090 C 
HETATM   16  S1  UNL     1       4.879   0.245   1.475  1.00  0.00    -0.097 SA
ENDBRANCH   4  15
TORSDOF 2
