REMARK  3 active torsions:
REMARK  status: ('A' for Active; 'I' for Inactive)
REMARK    1  A    between atoms: C1_2  and  O2_3 
REMARK    2  A    between atoms: C1_2  and  C7_11 
REMARK    3  A    between atoms: O2_3  and  C2_4 
ROOT
HETATM    1  O1  UNL     1      -0.159   0.245  -1.971  1.00  0.00    -0.264 OA
HETATM    2  C1  UNL     1       0.102   0.174  -0.720  1.00  0.00     0.268 C 
ENDROOT
BRANCH   2   3
HETATM    3  O2  UNL     1      -1.017   0.055   0.098  1.00  0.00    -0.314 OA
BRANCH   3   4
HETATM    4  C2  UNL     1      -2.317   0.015  -0.407  1.00  0.00     0.149 C 
HETATM    5  C3  UNL     1      -2.906  -1.335  -0.099  1.00  0.00     0.036 C 
HETATM    6  C4  UNL     1      -4.335  -1.357  -0.638  1.00  0.00     0.022 C 
HETATM    7  C5  UNL     1      -5.088  -0.294   0.165  1.00  0.00     0.114 C 
HETATM    8  N1  UNL     1      -4.549   0.974  -0.199  1.00  0.00    -0.419 N 
HETATM    9  C6  UNL     1      -3.167   1.159   0.076  1.00  0.00     0.146 C 
ATOM     10  H1  UNL     1      -5.119   1.702  -0.629  1.00  0.00     0.153 HD
ENDBRANCH   3   4
ENDBRANCH   2   3
BRANCH   2  11
HETATM   11  C7  UNL     1       1.475   0.220  -0.250  1.00  0.00     0.052 C 
HETATM   12  C8  UNL     1       2.418   0.355  -1.435  1.00  0.00     0.025 C 
HETATM   13  C9  UNL     1       3.689  -0.251  -0.820  1.00  0.00    -0.013 C 
HETATM   14  C10 UNL     1       4.123   0.669   0.281  1.00  0.00     0.009 C 
HETATM   15  C14 UNL     1       3.107  -1.553  -0.283  1.00  0.00     0.010 C 
HETATM   16  C11 UNL     1       3.067   0.883   1.317  1.00  0.00    -0.013 C 
HETATM   17  C12 UNL     1       2.569  -0.476   1.807  1.00  0.00     0.010 C 
HETATM   18  C15 UNL     1       1.781   1.398   0.652  1.00  0.00     0.025 C 
HETATM   19  C13 UNL     1       1.921  -0.993   0.514  1.00  0.00     0.004 C 
ENDBRANCH   2  11
TORSDOF 3
