REMARK  3 active torsions:
REMARK  status: ('A' for Active; 'I' for Inactive)
REMARK    1  A    between atoms: C1_2  and  C2_3 
REMARK       I    between atoms: C1_2  and  N1_11 
REMARK    2  A    between atoms: C5_7  and  C6_8 
REMARK    3  A    between atoms: C6_8  and  O3_9 
ROOT
HETATM    1  O1  UNL     1       1.285  -1.516   1.657  1.00  0.00    -0.270 OA
HETATM    2  C1  UNL     1       0.912  -0.500   1.016  1.00  0.00     0.249 C 
HETATM    3  N1  UNL     1      -0.359  -0.501   0.416  1.00  0.00    -0.349 N 
HETATM    4  C7  UNL     1      -1.127  -1.737   0.600  1.00  0.00     0.130 C 
HETATM    5  C8  UNL     1      -2.512  -1.637   0.055  1.00  0.00     0.004 C 
HETATM    6  C9  UNL     1      -2.562  -1.176  -1.374  1.00  0.00     0.007 C 
HETATM    7  C10 UNL     1      -2.954   0.275  -1.377  1.00  0.00     0.007 C 
HETATM    8  C11 UNL     1      -2.240   0.939  -0.218  1.00  0.00     0.004 C 
HETATM    9  C12 UNL     1      -2.822   0.552   1.112  1.00  0.00     0.007 C 
HETATM   10  C13 UNL     1      -3.430  -0.831   0.950  1.00  0.00     0.007 C 
HETATM   11  C14 UNL     1      -0.747   0.681  -0.279  1.00  0.00     0.130 C 
ENDROOT
BRANCH   2  12
HETATM   12  C2  UNL     1       1.858   0.634   0.944  1.00  0.00     0.219 C 
HETATM   13  O2  UNL     1       3.012   0.391   1.690  1.00  0.00    -0.376 OA
HETATM   14  C3  UNL     1       4.025   1.163   1.195  1.00  0.00     0.169 C 
HETATM   15  C4  UNL     1       3.578   1.809  -0.075  1.00  0.00     0.036 C 
HETATM   16  C5  UNL     1       2.378   0.916  -0.446  1.00  0.00     0.049 C 
BRANCH  16  17
HETATM   17  C6  UNL     1       2.974  -0.296  -1.103  1.00  0.00     0.172 C 
BRANCH  17  18
HETATM   18  O3  UNL     1       2.111  -1.353  -1.261  1.00  0.00    -0.400 OA
ATOM     19  H3  UNL     1       2.488  -2.120  -1.677  1.00  0.00     0.209 HD
ENDBRANCH  17  18
ENDBRANCH  16  17
ENDBRANCH   2  12
TORSDOF 3
