REMARK  2 active torsions:
REMARK  status: ('A' for Active; 'I' for Inactive)
REMARK    1  A    between atoms: C15_17  and  C16_18 
REMARK    2  A    between atoms: C16_18  and  O1_19 
ROOT
HETATM    1  N1  UNL     1       2.957  -3.080  -0.130  1.00  0.00    -0.196 NA
HETATM    2  C1  UNL     1       2.095  -2.288  -0.158  1.00  0.00     0.069 C 
HETATM    3  C2  UNL     1       0.983  -1.302  -0.214  1.00  0.00     0.056 C 
HETATM    4  C3  UNL     1      -0.064  -1.732   0.692  1.00  0.00     0.027 C 
HETATM    5  C4  UNL     1      -1.477  -1.860   0.192  1.00  0.00     0.023 C 
HETATM    6  C5  UNL     1      -2.390  -0.774   0.661  1.00  0.00     0.082 A 
HETATM    7  C6  UNL     1      -2.466   0.510   0.119  1.00  0.00     0.089 A 
HETATM    8  C7  UNL     1      -1.601   1.235  -0.767  1.00  0.00     0.035 C 
HETATM    9  C8  UNL     1      -1.122   0.602  -2.051  1.00  0.00     0.016 C 
HETATM   10  C9  UNL     1       0.342   0.328  -1.909  1.00  0.00    -0.003 C 
HETATM   11  C10 UNL     1       0.667  -1.123  -1.665  1.00  0.00     0.030 C 
HETATM   12  C11 UNL     1       0.830   1.101  -0.665  1.00  0.00     0.027 C 
HETATM   13  C12 UNL     1      -0.324   1.839  -0.208  1.00  0.00    -0.068 C 
HETATM   14  C13 UNL     1      -0.461   2.268   1.189  1.00  0.00     0.015 C 
HETATM   15  C14 UNL     1      -1.177   1.491   1.984  1.00  0.00     0.061 C 
HETATM   16  N2  UNL     1      -1.730   0.340   1.423  1.00  0.00    -0.280 NA
HETATM   17  C15 UNL     1       1.583   0.083   0.045  1.00  0.00     0.040 C 
ENDROOT
BRANCH  17  18
HETATM   18  C16 UNL     1       2.161   0.296   1.370  1.00  0.00     0.171 C 
BRANCH  18  19
HETATM   19  O1  UNL     1       3.216  -0.640   1.546  1.00  0.00    -0.400 OA
ATOM     20  H1  UNL     1       3.592  -0.502   2.407  1.00  0.00     0.209 HD
ENDBRANCH  18  19
ENDBRANCH  17  18
TORSDOF 2
