REMARK  2 active torsions:
REMARK  status: ('A' for Active; 'I' for Inactive)
REMARK    1  A    between atoms: C2_2  and  C3_3 
REMARK    2  A    between atoms: N1_6  and  N2_7 
REMARK       I    between atoms: N2_7  and  C6_9 
REMARK       I    between atoms: C6_9  and  N3_11 
ROOT
HETATM    1  N2  UNL     1      -0.548  -0.279  -0.211  1.00  0.00    -0.246 N 
ATOM      2  H2  UNL     1      -0.815  -0.545  -1.159  1.00  0.00     0.192 HD
HETATM    3  C6  UNL     1      -1.559  -0.088   0.792  1.00  0.00     0.337 C 
HETATM    4  O1  UNL     1      -1.194   0.213   1.980  1.00  0.00    -0.245 OA
HETATM    5  N3  UNL     1      -2.923  -0.215   0.537  1.00  0.00    -0.331 N 
HETATM    6  C7  UNL     1      -3.865  -0.087   1.638  1.00  0.00     0.137 C 
HETATM    7  C8  UNL     1      -5.094   0.686   1.190  1.00  0.00     0.093 C 
HETATM    8  S1  UNL     1      -4.677   1.864  -0.117  1.00  0.00    -0.166 SA
HETATM    9  C9  UNL     1      -3.664   1.002  -1.348  1.00  0.00     0.093 C 
HETATM   10  C10 UNL     1      -3.437  -0.414  -0.800  1.00  0.00     0.137 C 
ENDROOT
BRANCH   1  11
HETATM   11  N1  UNL     1       0.754  -0.107   0.099  1.00  0.00    -0.282 N 
HETATM   12  C5  UNL     1       1.605   0.562  -0.801  1.00  0.00     0.089 C 
HETATM   13  C4  UNL     1       2.765  -0.321  -1.192  1.00  0.00     0.055 C 
HETATM   14  C3  UNL     1       3.622  -0.566   0.022  1.00  0.00     0.017 C 
HETATM   15  C12 UNL     1       2.794  -0.822   1.226  1.00  0.00     0.055 C 
HETATM   16  C11 UNL     1       1.318  -1.079   0.926  1.00  0.00     0.089 C 
BRANCH  14  17
HETATM   17  C2  UNL     1       4.443   0.690   0.193  1.00  0.00    -0.032 C 
HETATM   18  C1  UNL     1       5.761   0.615   0.127  1.00  0.00     0.007 C 
ENDBRANCH  14  17
ENDBRANCH   1  11
TORSDOF 2
