REMARK  6 active torsions:
REMARK  status: ('A' for Active; 'I' for Inactive)
REMARK    1  A    between atoms: C2_2  and  C3_3 
REMARK    2  A    between atoms: C3_3  and  C4_4 
REMARK    3  A    between atoms: C4_4  and  C5_5 
REMARK    4  A    between atoms: C5_5  and  C6_6 
REMARK    5  A    between atoms: C10_10  and  O1_11 
REMARK    6  A    between atoms: C15_17  and  O2_18 
ROOT
HETATM    1  C6  UNL     1       0.732  -0.702  -0.565  1.00  0.00     0.097 C 
HETATM    2  C7  UNL     1       0.861  -2.138  -0.832  1.00  0.00     0.020 C 
HETATM    3  C8  UNL     1      -0.093  -3.050  -0.152  1.00  0.00     0.004 C 
HETATM    4  C9  UNL     1      -1.470  -2.462  -0.379  1.00  0.00     0.041 C 
HETATM    5  C10 UNL     1      -1.509  -1.240   0.511  1.00  0.00     0.098 C 
HETATM    6  C11 UNL     1      -2.884  -0.554   0.426  1.00  0.00     0.057 C 
HETATM    7  C12 UNL     1      -2.844   0.545   1.479  1.00  0.00     0.012 C 
HETATM    8  C13 UNL     1      -1.770   1.554   1.135  1.00  0.00     0.046 C 
HETATM    9  C14 UNL     1      -1.044   1.051  -0.125  1.00  0.00     0.292 C 
HETATM   10  C15 UNL     1      -0.434  -0.251   0.279  1.00  0.00     0.139 C 
HETATM   11  N1  UNL     1      -2.033   1.004  -1.150  1.00  0.00     0.017 N 
HETATM   12  C16 UNL     1      -2.740   2.300  -1.129  1.00  0.00     0.357 C 
HETATM   13  O3  UNL     1      -1.559   0.915  -2.417  1.00  0.00    -0.064 OA
HETATM   14  C17 UNL     1      -3.054   0.005  -0.943  1.00  0.00     0.319 C 
ENDROOT
BRANCH   1  15
HETATM   15  C5  UNL     1       1.957  -0.015  -0.299  1.00  0.00    -0.148 C 
BRANCH  15  16
HETATM   16  C4  UNL     1       3.028   0.586  -0.065  1.00  0.00     0.051 C 
BRANCH  16  17
HETATM   17  C3  UNL     1       4.335   0.214   0.412  1.00  0.00     0.003 C 
BRANCH  17  18
HETATM   18  C2  UNL     1       5.350   0.991   0.590  1.00  0.00    -0.030 C 
HETATM   19  C1  UNL     1       5.454   2.440   0.359  1.00  0.00     0.036 C 
ENDBRANCH  17  18
ENDBRANCH  16  17
ENDBRANCH  15  16
ENDBRANCH   1  15
BRANCH  10  20
HETATM   20  O2  UNL     1       0.135   0.022   1.555  1.00  0.00    -0.383 OA
ATOM     21  H2  UNL     1      -0.599   0.306   2.087  1.00  0.00     0.210 HD
ENDBRANCH  10  20
BRANCH   5  22
HETATM   22  O1  UNL     1      -1.490  -1.750   1.834  1.00  0.00    -0.386 OA
ATOM     23  H1  UNL     1      -1.514  -0.982   2.393  1.00  0.00     0.210 HD
ENDBRANCH   5  22
TORSDOF 6
