REMARK  2 active torsions:
REMARK  status: ('A' for Active; 'I' for Inactive)
REMARK    1  A    between atoms: C1_4  and  C2_6 
REMARK    2  A    between atoms: C7_11  and  N3_12 
ROOT
HETATM    1  C2  UNL     1      -2.910  -0.342  -0.166  1.00  0.00     0.018 C 
HETATM    2  C3  UNL     1      -3.103   0.477   1.116  1.00  0.00     0.017 C 
HETATM    3  C4  UNL     1      -2.663   1.873   0.793  1.00  0.00     0.006 C 
HETATM    4  C5  UNL     1      -2.027   1.774  -0.592  1.00  0.00    -0.012 C 
HETATM    5  C6  UNL     1      -0.624   1.311  -0.418  1.00  0.00     0.029 C 
HETATM    6  C7  UNL     1      -0.401  -0.149  -0.457  1.00  0.00     0.081 C 
HETATM    7  C17 UNL     1      -1.573  -0.997  -0.049  1.00  0.00     0.042 C 
HETATM    8  C18 UNL     1      -2.918   0.701  -1.232  1.00  0.00     0.021 C 
ENDROOT
BRANCH   6   9
HETATM    9  N3  UNL     1       0.692  -0.526   0.365  1.00  0.00    -0.403 N 
HETATM   10  C8  UNL     1       0.585  -0.286   1.739  1.00  0.00     0.117 C 
HETATM   11  C9  UNL     1       1.993  -0.076   2.312  1.00  0.00     0.020 C 
HETATM   12  C10 UNL     1       2.725   0.996   1.532  1.00  0.00     0.008 C 
HETATM   13  C11 UNL     1       2.794   0.690   0.065  1.00  0.00     0.008 C 
HETATM   14  C12 UNL     1       4.228   0.378  -0.314  1.00  0.00     0.007 C 
HETATM   15  C16 UNL     1       1.978  -0.558  -0.199  1.00  0.00     0.083 C 
HETATM   16  C13 UNL     1       4.368  -0.148  -1.710  1.00  0.00     0.001 C 
HETATM   17  C14 UNL     1       3.420  -1.279  -2.007  1.00  0.00     0.002 C 
HETATM   18  C15 UNL     1       1.987  -0.871  -1.657  1.00  0.00     0.025 C 
ENDBRANCH   6   9
BRANCH   1  19
HETATM   19  C1  UNL     1      -3.986  -1.322  -0.243  1.00  0.00     0.095 C 
HETATM   20  N1  UNL     1      -3.732  -2.581  -0.289  1.00  0.00    -0.390 N 
ATOM     21  H12 UNL     1      -4.485  -3.267  -0.343  1.00  0.00     0.157 HD
ATOM     22  H11 UNL     1      -2.757  -2.880  -0.267  1.00  0.00     0.157 HD
HETATM   23  N2  UNL     1      -5.335  -0.909  -0.273  1.00  0.00    -0.087 NA
ENDBRANCH   1  19
TORSDOF 2
