REMARK  18 active torsions:
REMARK  status: ('A' for Active; 'I' for Inactive)
REMARK    1  A    between atoms: N1_2  and  C2_5 
REMARK    2  A    between atoms: C2_5  and  C3_6 
REMARK    3  A    between atoms: C2_5  and  C11_15 
REMARK    4  A    between atoms: C3_6  and  S1_7 
REMARK    5  A    between atoms: S1_7  and  C4_8 
REMARK    6  A    between atoms: C4_8  and  C5_9 
REMARK       I    between atoms: C11_15  and  N2_17 
REMARK    7  A    between atoms: N2_17  and  C12_18 
REMARK    8  A    between atoms: N3_21  and  C15_22 
REMARK    9  A    between atoms: C15_22  and  C17_24 
REMARK       I    between atoms: C17_24  and  N4_26 
REMARK   10  A    between atoms: N4_26  and  C18_28 
REMARK   11  A    between atoms: C18_28  and  C19_29 
REMARK   12  A    between atoms: C18_28  and  C26_45 
REMARK       I    between atoms: C19_29  and  N5_31 
REMARK   13  A    between atoms: N5_31  and  C20_33 
REMARK   14  A    between atoms: C20_33  and  O4_34 
REMARK   15  A    between atoms: C20_33  and  C21_36 
REMARK   16  A    between atoms: C21_36  and  N6_37 
REMARK   17  A    between atoms: C21_36  and  C22_41 
REMARK   18  A    between atoms: C22_41  and  C23_42 
ROOT
HETATM    1  C15 UNL     1      -1.803   1.784  -0.568  1.00  0.00     0.175 C 
HETATM    2  C16 UNL     1      -1.911   2.526   0.713  1.00  0.00     0.042 C 
ENDROOT
BRANCH   1   3
HETATM    3  N3  UNL     1      -0.636   0.936  -0.668  1.00  0.00    -0.336 N 
HETATM    4  C14 UNL     1       0.216   1.005  -1.882  1.00  0.00     0.130 C 
HETATM    5  C13 UNL     1       1.511   0.444  -1.411  1.00  0.00     0.069 C 
HETATM    6  C12 UNL     1       1.168  -0.608  -0.411  1.00  0.00     0.260 C 
HETATM    7  C29 UNL     1      -0.130  -0.049   0.191  1.00  0.00     0.256 C 
HETATM    8  O5  UNL     1      -0.598  -0.462   1.286  1.00  0.00    -0.270 OA
BRANCH   6   9
HETATM    9  N2  UNL     1       2.173  -0.928   0.416  1.00  0.00    -0.398 NA
HETATM   10  C11 UNL     1       3.204  -1.254   1.279  1.00  0.00     0.319 C 
HETATM   11  O1  UNL     1       3.243  -1.129   2.528  1.00  0.00    -0.255 OA
BRANCH  10  12
HETATM   12  C2  UNL     1       4.473  -1.847   0.701  1.00  0.00     0.300 C 
BRANCH  12  13
HETATM   13  N1  UNL     1       5.473  -1.881   1.700  1.00  0.00    -0.064 N 
HETATM   14  C1  UNL     1       6.606  -2.740   1.397  1.00  0.00     0.268 C 
ATOM     15  H12 UNL     1       5.066  -2.137   2.600  1.00  0.00     0.277 HD
ATOM     16  H11 UNL     1       5.792  -0.936   1.913  1.00  0.00     0.277 HD
ENDBRANCH  12  13
BRANCH  12  17
HETATM   17  C3  UNL     1       4.801  -1.312  -0.617  1.00  0.00     0.118 C 
BRANCH  17  18
HETATM   18  S1  UNL     1       5.348   0.392  -0.704  1.00  0.00    -0.166 SA
BRANCH  18  19
HETATM   19  C4  UNL     1       6.925   0.558   0.188  1.00  0.00     0.078 C 
BRANCH  19  20
HETATM   20  C5  UNL     1       7.512   1.924  -0.012  1.00  0.00    -0.005 C 
HETATM   21  C6  UNL     1       7.846   2.255  -1.420  1.00  0.00     0.005 C 
HETATM   22  C7  UNL     1       9.132   1.721  -1.931  1.00  0.00     0.000 C 
HETATM   23  C8  UNL     1      10.181   1.385  -0.961  1.00  0.00     0.000 C 
HETATM   24  C9  UNL     1       9.873   1.467   0.488  1.00  0.00     0.000 C 
HETATM   25  C10 UNL     1       8.661   2.231   0.856  1.00  0.00     0.005 C 
ENDBRANCH  19  20
ENDBRANCH  18  19
ENDBRANCH  17  18
ENDBRANCH  12  17
ENDBRANCH  10  12
ENDBRANCH   6   9
ENDBRANCH   1   3
BRANCH   1  26
HETATM   26  C17 UNL     1      -3.027   1.055  -0.908  1.00  0.00     0.241 C 
HETATM   27  O2  UNL     1      -4.012   1.765  -1.282  1.00  0.00    -0.271 OA
HETATM   28  N4  UNL     1      -3.202  -0.330  -0.860  1.00  0.00    -0.346 N 
ATOM     29  H4  UNL     1      -2.442  -0.933  -0.546  1.00  0.00     0.163 HD
BRANCH  28  30
HETATM   30  C18 UNL     1      -4.498  -0.916  -1.268  1.00  0.00     0.181 C 
BRANCH  30  31
HETATM   31  C19 UNL     1      -5.414  -1.067  -0.116  1.00  0.00     0.246 C 
HETATM   32  O3  UNL     1      -5.051  -0.702   1.023  1.00  0.00    -0.271 OA
HETATM   33  N5  UNL     1      -6.686  -1.616  -0.331  1.00  0.00    -0.308 N 
ATOM     34  H5  UNL     1      -6.851  -1.979  -1.270  1.00  0.00     0.170 HD
BRANCH  33  35
HETATM   35  C20 UNL     1      -7.754  -1.738   0.548  1.00  0.00     0.149 C 
BRANCH  35  36
HETATM   36  O4  UNL     1      -8.785  -2.406   0.118  1.00  0.00    -0.348 OA
ATOM     37  H4  UNL     1      -9.516  -2.489   0.719  1.00  0.00     0.219 HD
ENDBRANCH  35  36
BRANCH  35  38
HETATM   38  C21 UNL     1      -7.885  -1.208   1.907  1.00  0.00     0.257 C 
BRANCH  38  39
HETATM   39  N6  UNL     1      -8.525  -2.288   2.697  1.00  0.00    -0.068 N 
ATOM     40  H63 UNL     1      -9.404  -2.619   2.300  1.00  0.00     0.275 HD
ATOM     41  H62 UNL     1      -8.029  -3.178   2.651  1.00  0.00     0.275 HD
ATOM     42  H61 UNL     1      -8.616  -1.919   3.643  1.00  0.00     0.275 HD
ENDBRANCH  38  39
BRANCH  38  43
HETATM   43  C22 UNL     1      -8.948  -0.114   1.915  1.00  0.00     0.045 C 
BRANCH  43  44
HETATM   44  C23 UNL     1      -8.699   1.047   1.038  1.00  0.00    -0.020 C 
HETATM   45  C24 UNL     1      -7.470   1.842   1.337  1.00  0.00     0.009 C 
HETATM   46  C25 UNL     1      -9.941   1.940   1.046  1.00  0.00     0.009 C 
ENDBRANCH  43  44
ENDBRANCH  38  43
ENDBRANCH  35  38
ENDBRANCH  33  35
ENDBRANCH  30  31
BRANCH  30  47
HETATM   47  C26 UNL     1      -4.297  -2.090  -2.114  1.00  0.00     0.018 A 
HETATM   48  C27 UNL     1      -3.559  -3.318  -1.704  1.00  0.00     0.007 A 
HETATM   49  C28 UNL     1      -2.949  -2.371  -2.684  1.00  0.00     0.007 A 
ENDBRANCH  30  47
ENDBRANCH  28  30
ENDBRANCH   1  26
TORSDOF 18
