REMARK  19 active torsions:
REMARK  status: ('A' for Active; 'I' for Inactive)
REMARK    1  A    between atoms: C2_2  and  N1_3 
REMARK    2  A    between atoms: N1_3  and  C3_5 
REMARK    3  A    between atoms: C3_5  and  C4_6 
REMARK    4  A    between atoms: C3_5  and  C28_47 
REMARK       I    between atoms: C4_6  and  N2_8 
REMARK    5  A    between atoms: N2_8  and  C5_10 
REMARK    6  A    between atoms: C5_10  and  C6_11 
REMARK    7  A    between atoms: C5_10  and  C8_13 
REMARK    8  A    between atoms: C8_13  and  O2_14 
REMARK    9  A    between atoms: C8_13  and  N3_16 
REMARK   10  A    between atoms: N3_16  and  C9_17 
REMARK   11  A    between atoms: C9_17  and  C10_18 
REMARK   12  A    between atoms: C10_18  and  C11_19 
REMARK   13  A    between atoms: C17_25  and  O3_26 
REMARK   14  A    between atoms: C17_25  and  N4_28 
REMARK   15  A    between atoms: N4_28  and  C18_30 
REMARK   16  A    between atoms: C18_30  and  C20_32 
REMARK   17  A    between atoms: C20_32  and  O4_33 
REMARK   18  A    between atoms: C20_32  and  C21_35 
REMARK   19  A    between atoms: C23_40  and  C24_41 
ROOT
HETATM    1  C9  UNL     1       0.140  -1.392  -0.163  1.00  0.00     0.160 C 
HETATM    2  C17 UNL     1      -1.196  -1.035  -0.339  1.00  0.00     0.178 C 
ENDROOT
BRANCH   1   3
HETATM    3  N3  UNL     1       1.197  -0.437  -0.247  1.00  0.00    -0.379 NA
BRANCH   3   4
HETATM    4  C8  UNL     1       2.164   0.409  -0.341  1.00  0.00     0.213 C 
BRANCH   4   5
HETATM    5  C5  UNL     1       2.442   1.793   0.507  1.00  0.00     0.174 C 
BRANCH   5   6
HETATM    6  N2  UNL     1       3.819   1.976   0.191  1.00  0.00    -0.343 N 
HETATM    7  C4  UNL     1       4.649   0.572   0.936  1.00  0.00     0.264 C 
HETATM    8  O1  UNL     1       3.639   0.396   1.460  1.00  0.00    -0.266 OA
ATOM      9  H2  UNL     1       4.240   2.737  -0.341  1.00  0.00     0.163 HD
BRANCH   7  10
HETATM   10  C3  UNL     1       5.849   0.817   0.289  1.00  0.00     0.077 C 
BRANCH  10  11
HETATM   11  N1  UNL     1       6.330   1.927  -0.405  1.00  0.00    -0.389 N 
ATOM     12  H1  UNL     1       6.402   1.890  -1.422  1.00  0.00     0.159 HD
BRANCH  11  13
HETATM   13  C2  UNL     1       6.720   3.105   0.280  1.00  0.00     0.115 C 
HETATM   14  C1  UNL     1       7.324   4.127  -0.691  1.00  0.00     0.026 C 
ENDBRANCH  11  13
ENDBRANCH  10  11
BRANCH  10  15
HETATM   15  C28 UNL     1       7.130   0.325   1.053  1.00  0.00     0.033 C 
HETATM   16  C29 UNL     1       6.959  -0.888   1.859  1.00  0.00     0.016 C 
HETATM   17  C30 UNL     1       8.144   0.123  -0.017  1.00  0.00     0.016 C 
ENDBRANCH  10  15
ENDBRANCH   7  10
ENDBRANCH   5   6
BRANCH   5  18
HETATM   18  C6  UNL     1       1.558   2.828  -0.056  1.00  0.00     0.030 C 
HETATM   19  C7  UNL     1       1.689   2.975  -1.557  1.00  0.00     0.007 C 
ENDBRANCH   5  18
ENDBRANCH   4   5
BRANCH   4  20
HETATM   20  O2  UNL     1       3.180   0.290  -1.184  1.00  0.00    -0.337 OA
ATOM     21  H2  UNL     1       3.020  -0.508  -1.673  1.00  0.00     0.220 HD
ENDBRANCH   4  20
ENDBRANCH   3   4
ENDBRANCH   1   3
BRANCH   1  22
HETATM   22  C10 UNL     1       0.626  -2.740   0.074  1.00  0.00     0.052 C 
BRANCH  22  23
HETATM   23  C11 UNL     1      -0.085  -4.004   0.134  1.00  0.00    -0.077 C 
HETATM   24  C12 UNL     1      -1.079  -4.481   1.055  1.00  0.00     0.034 C 
HETATM   25  C13 UNL     1      -0.547  -5.646   1.913  1.00  0.00     0.004 C 
HETATM   26  C14 UNL     1      -0.038  -6.798   1.137  1.00  0.00     0.001 C 
HETATM   27  C15 UNL     1       0.254  -6.434  -0.292  1.00  0.00     0.004 C 
HETATM   28  C16 UNL     1       0.958  -5.098  -0.336  1.00  0.00     0.034 C 
ENDBRANCH  22  23
ENDBRANCH   1  22
BRANCH   2  29
HETATM   29  O3  UNL     1      -1.876  -2.088  -0.915  1.00  0.00    -0.344 OA
ATOM     30  H3  UNL     1      -2.786  -1.845  -1.035  1.00  0.00     0.219 HD
ENDBRANCH   2  29
BRANCH   2  31
HETATM   31  N4  UNL     1      -2.205   0.014  -0.198  1.00  0.00    -0.361 N 
ATOM     32  H4  UNL     1      -2.078   0.909   0.274  1.00  0.00     0.162 HD
BRANCH  31  33
HETATM   33  C18 UNL     1      -3.470  -0.464  -0.876  1.00  0.00     0.111 C 
HETATM   34  C19 UNL     1      -3.035  -0.104  -2.443  1.00  0.00     0.035 C 
BRANCH  33  35
HETATM   35  C20 UNL     1      -4.721   0.074  -0.803  1.00  0.00     0.173 C 
BRANCH  35  36
HETATM   36  O4  UNL     1      -4.352   1.458  -0.203  1.00  0.00    -0.391 OA
ATOM     37  H4  UNL     1      -5.223   1.833  -0.152  1.00  0.00     0.210 HD
ENDBRANCH  35  36
BRANCH  35  38
HETATM   38  C21 UNL     1      -6.068   0.168  -0.928  1.00  0.00     0.215 C 
HETATM   39  N5  UNL     1      -7.153   0.380   0.008  1.00  0.00    -0.343 N 
HETATM   40  C22 UNL     1      -8.193   1.275  -0.227  1.00  0.00     0.248 C 
ATOM     41  H5  UNL     1      -7.155  -0.151   0.879  1.00  0.00     0.163 HD
HETATM   42  O5  UNL     1      -9.381   1.076  -0.263  1.00  0.00    -0.271 OA
HETATM   43  C23 UNL     1      -7.651   2.738  -0.484  1.00  0.00     0.227 C 
HETATM   44  O6  UNL     1      -6.569   2.506  -1.348  1.00  0.00    -0.304 OA
HETATM   45  C27 UNL     1      -6.363   1.299  -2.012  1.00  0.00     0.285 C 
HETATM   46  O7  UNL     1      -6.373   1.021  -3.192  1.00  0.00    -0.263 OA
BRANCH  43  47
HETATM   47  C24 UNL     1      -7.354   3.253   0.888  1.00  0.00     0.016 C 
HETATM   48  C25 UNL     1      -6.763   4.579   1.028  1.00  0.00     0.012 C 
HETATM   49  C26 UNL     1      -8.780   3.211   1.582  1.00  0.00     0.012 C 
ENDBRANCH  43  47
ENDBRANCH  35  38
ENDBRANCH  33  35
ENDBRANCH  31  33
ENDBRANCH   2  31
TORSDOF 19
