REMARK  18 active torsions:
REMARK  status: ('A' for Active; 'I' for Inactive)
REMARK    1  A    between atoms: C2_2  and  C3_3 
REMARK    2  A    between atoms: C3_3  and  C4_4 
REMARK    3  A    between atoms: C4_4  and  C5_5 
REMARK    4  A    between atoms: C5_5  and  C6_6 
REMARK    5  A    between atoms: C6_6  and  C11_14 
REMARK    6  A    between atoms: N1_7  and  C7_9 
REMARK    7  A    between atoms: C7_9  and  C8_10 
REMARK    8  A    between atoms: C7_9  and  C10_12 
REMARK    9  A    between atoms: C11_14  and  C12_15 
REMARK   10  A    between atoms: C11_14  and  N2_18 
REMARK   11  A    between atoms: C12_15  and  C13_16 
REMARK       I    between atoms: N2_18  and  C15_19 
REMARK   12  A    between atoms: C15_19  and  O2_21 
REMARK   13  A    between atoms: O2_21  and  C16_22 
REMARK   14  A    between atoms: C18_25  and  O3_26 
REMARK   15  A    between atoms: C22_31  and  O4_32 
REMARK   16  A    between atoms: C25_36  and  C27_38 
REMARK       I    between atoms: C27_38  and  N4_40 
REMARK   17  A    between atoms: N4_40  and  C28_42 
REMARK   18  A    between atoms: C28_42  and  C29_43 
ROOT
HETATM    1  C16 UNL     1       2.280  -1.245  -1.020  1.00  0.00     0.411 C 
HETATM    2  C17 UNL     1       2.126  -2.504  -0.005  1.00  0.00     0.130 C 
HETATM    3  N3  UNL     1       3.208  -3.311   0.265  1.00  0.00    -0.334 N 
HETATM    4  C18 UNL     1       3.110  -4.720   0.022  1.00  0.00     0.117 C 
HETATM    5  C19 UNL     1       4.398  -5.374   0.060  1.00  0.00     0.086 C 
HETATM    6  C20 UNL     1       5.278  -4.384   0.787  1.00  0.00     0.036 C 
HETATM    7  C21 UNL     1       4.505  -3.103   0.829  1.00  0.00     0.122 C 
HETATM    8  C22 UNL     1       5.295  -1.943   0.318  1.00  0.00     0.175 C 
HETATM    9  C23 UNL     1       4.576  -1.375  -0.857  1.00  0.00     0.262 A 
HETATM   10  C24 UNL     1       5.272  -0.237  -1.580  1.00  0.00     0.090 A 
HETATM   11  C25 UNL     1       3.964   0.524  -1.247  1.00  0.00     0.241 A 
HETATM   12  C26 UNL     1       3.260   1.031  -2.431  1.00  0.00     0.060 C 
HETATM   13  N5  UNL     1       3.418  -0.568  -0.546  1.00  0.00     0.149 N 
ENDROOT
BRANCH   1  14
HETATM   14  O2  UNL     1       1.056  -0.684  -0.672  1.00  0.00    -0.250 OA
BRANCH  14  15
HETATM   15  C15 UNL     1      -0.149  -0.889  -1.438  1.00  0.00     0.442 C 
HETATM   16  N2  UNL     1      -1.230  -0.400  -0.535  1.00  0.00    -0.348 NA
HETATM   17  O1  UNL     1      -0.210  -1.349  -2.439  1.00  0.00    -0.221 OA
BRANCH  16  18
HETATM   18  C11 UNL     1      -2.185   0.026   0.249  1.00  0.00     0.116 C 
BRANCH  18  19
HETATM   19  C6  UNL     1      -3.070   1.248   0.020  1.00  0.00     0.043 C 
HETATM   20  N1  UNL     1      -3.869   1.145  -1.068  1.00  0.00    -0.382 N 
ATOM     21  H1  UNL     1      -3.683   1.853  -1.779  1.00  0.00     0.160 HD
BRANCH  19  22
HETATM   22  C5  UNL     1      -3.437   1.693   1.412  1.00  0.00     0.060 C 
BRANCH  22  23
HETATM   23  C4  UNL     1      -3.901   3.091   1.607  1.00  0.00     0.010 C 
BRANCH  23  24
HETATM   24  C3  UNL     1      -5.265   3.453   1.200  1.00  0.00     0.026 C 
BRANCH  24  25
HETATM   25  C2  UNL     1      -6.271   2.753   2.074  1.00  0.00    -0.037 C 
HETATM   26  C1  UNL     1      -5.978   2.204   3.267  1.00  0.00     0.007 C 
ENDBRANCH  24  25
ENDBRANCH  23  24
ENDBRANCH  22  23
ENDBRANCH  19  22
BRANCH  20  27
HETATM   27  C7  UNL     1      -4.881   0.279  -1.408  1.00  0.00     0.114 C 
BRANCH  27  28
HETATM   28  C8  UNL     1      -5.303   0.565  -2.827  1.00  0.00    -0.012 C 
HETATM   29  C9  UNL     1      -6.145   1.583  -3.014  1.00  0.00     0.009 C 
ENDBRANCH  27  28
BRANCH  27  30
HETATM   30  C10 UNL     1      -6.153   0.187  -0.664  1.00  0.00     0.115 C 
HETATM   31  S1  UNL     1      -7.318  -1.106  -1.293  1.00  0.00    -0.095 SA
ENDBRANCH  27  30
ENDBRANCH  20  27
ENDBRANCH  18  19
BRANCH  18  32
HETATM   32  C12 UNL     1      -2.944  -1.100   0.956  1.00  0.00     0.101 C 
BRANCH  32  33
HETATM   33  C13 UNL     1      -1.967  -2.276   1.082  1.00  0.00    -0.030 C 
HETATM   34  C14 UNL     1      -1.958  -3.190   0.133  1.00  0.00     0.007 C 
ENDBRANCH  32  33
ENDBRANCH  18  32
ENDBRANCH  16  18
ENDBRANCH  14  15
ENDBRANCH   1  14
BRANCH  11  35
HETATM   35  C27 UNL     1       4.316   1.623  -0.316  1.00  0.00     0.257 C 
HETATM   36  O5  UNL     1       5.292   2.370  -0.641  1.00  0.00    -0.271 OA
HETATM   37  N4  UNL     1       3.621   1.898   0.915  1.00  0.00    -0.355 N 
ATOM     38  H4  UNL     1       2.823   1.323   1.187  1.00  0.00     0.162 HD
BRANCH  37  39
HETATM   39  C28 UNL     1       4.042   2.967   1.752  1.00  0.00     0.149 C 
BRANCH  39  40
HETATM   40  C29 UNL     1       3.995   4.286   1.120  1.00  0.00    -0.018 C 
HETATM   41  C30 UNL     1       5.059   5.094   0.950  1.00  0.00     0.008 C 
ENDBRANCH  39  40
ENDBRANCH  37  39
ENDBRANCH  11  35
BRANCH   4  42
HETATM   42  O3  UNL     1       1.969  -5.350  -0.196  1.00  0.00    -0.349 OA
ATOM     43  H3  UNL     1       1.904  -6.284  -0.357  1.00  0.00     0.219 HD
ENDBRANCH   4  42
BRANCH   8  44
HETATM   44  O4  UNL     1       5.518  -0.984   1.279  1.00  0.00    -0.391 OA
ATOM     45  H4  UNL     1       6.020  -0.246   0.954  1.00  0.00     0.210 HD
ENDBRANCH   8  44
TORSDOF 18
