REMARK  19 active torsions:
REMARK  status: ('A' for Active; 'I' for Inactive)
REMARK    1  A    between atoms: C2_2  and  C3_3 
REMARK    2  A    between atoms: C3_3  and  N1_4 
REMARK    3  A    between atoms: N1_4  and  C4_6 
REMARK    4  A    between atoms: C5_9  and  N3_10 
REMARK    5  A    between atoms: N3_10  and  C6_12 
REMARK    6  A    between atoms: C6_12  and  C7_13 
REMARK    7  A    between atoms: C7_13  and  C8_14 
REMARK    8  A    between atoms: C8_14  and  N4_15 
REMARK    9  A    between atoms: C15_25  and  N7_26 
REMARK   10  A    between atoms: N7_26  and  C16_28 
REMARK   11  A    between atoms: C16_28  and  C17_29 
REMARK   12  A    between atoms: C20_34  and  N9_35 
REMARK   13  A    between atoms: N9_35  and  C21_36 
REMARK   14  A    between atoms: C21_36  and  C22_37 
REMARK   15  A    between atoms: C22_37  and  C23_38 
REMARK   16  A    between atoms: C23_38  and  C24_39 
REMARK   17  A    between atoms: C24_39  and  N10_40 
REMARK       I    between atoms: N10_40  and  C25_42 
REMARK   18  A    between atoms: C25_42  and  C26_44 
REMARK   19  A    between atoms: C26_44  and  C27_45 
ROOT
HETATM    1  C4  UNL     1      -0.972  -0.704  -2.764  1.00  0.00     0.684 A 
HETATM    2  N2  UNL     1      -1.683  -1.140  -1.714  1.00  0.00    -0.174 N 
ATOM      3  H2  UNL     1      -2.492  -1.739  -1.880  1.00  0.00     0.186 HD
HETATM    4  C5  UNL     1      -1.362  -0.812  -0.447  1.00  0.00     0.147 A 
HETATM    5  C14 UNL     1      -0.272  -0.002  -0.175  1.00  0.00     0.125 A 
HETATM    6  N6  UNL     1       0.055   0.332   1.091  1.00  0.00    -0.186 N 
ATOM      7  H6  UNL     1      -0.512  -0.022   1.862  1.00  0.00     0.184 HD
HETATM    8  C15 UNL     1       1.109   1.119   1.360  1.00  0.00     0.681 A 
HETATM    9  N8  UNL     1       1.824   1.562   0.330  1.00  0.00    -0.162 N 
ATOM     10  H8  UNL     1       2.624   2.161   0.533  1.00  0.00     0.187 HD
HETATM   11  C20 UNL     1       1.561   1.269  -0.998  1.00  0.00     0.222 A 
HETATM   12  C30 UNL     1       0.453   0.443  -1.248  1.00  0.00     0.139 A 
HETATM   13  N11 UNL     1       0.096   0.089  -2.506  1.00  0.00    -0.184 N 
ATOM     14  H11 UNL     1       0.652   0.433  -3.289  1.00  0.00     0.184 HD
ENDROOT
BRANCH  11  15
HETATM   15  N9  UNL     1       2.240   1.702  -1.872  1.00  0.00    -0.401 NA
BRANCH  15  16
HETATM   16  C21 UNL     1       2.827   2.048  -3.006  1.00  0.00     0.157 C 
BRANCH  16  17
HETATM   17  C22 UNL     1       4.221   1.667  -3.382  1.00  0.00     0.061 C 
BRANCH  17  18
HETATM   18  C23 UNL     1       4.583   0.242  -3.501  1.00  0.00     0.026 C 
BRANCH  18  19
HETATM   19  C24 UNL     1       4.497  -0.570  -2.230  1.00  0.00     0.123 C 
BRANCH  19  20
HETATM   20  N10 UNL     1       5.360   0.000  -1.219  1.00  0.00    -0.361 N 
HETATM   21  C25 UNL     1       5.478  -0.554   0.074  1.00  0.00     0.217 C 
HETATM   22  O1  UNL     1       4.799  -1.588   0.355  1.00  0.00    -0.274 OA
ATOM     23  H10 UNL     1       5.903   0.832  -1.449  1.00  0.00     0.162 HD
BRANCH  21  24
HETATM   24  C26 UNL     1       6.392   0.084   1.077  1.00  0.00     0.106 C 
BRANCH  24  25
HETATM   25  C27 UNL     1       6.409  -0.770   2.320  1.00  0.00    -0.014 C 
HETATM   26  C28 UNL     1       7.335  -0.120   3.355  1.00  0.00     0.010 C 
HETATM   27  C29 UNL     1       6.926  -2.157   2.000  1.00  0.00     0.010 C 
ENDBRANCH  24  25
ENDBRANCH  21  24
ENDBRANCH  19  20
ENDBRANCH  18  19
ENDBRANCH  17  18
ENDBRANCH  16  17
ENDBRANCH  15  16
ENDBRANCH  11  15
BRANCH   8  28
HETATM   28  N7  UNL     1       1.450   1.441   2.583  1.00  0.00    -0.226 N 
ATOM     29  H7  UNL     1       2.263   2.045   2.704  1.00  0.00     0.177 HD
BRANCH  28  30
HETATM   30  C16 UNL     1       0.761   1.005   3.766  1.00  0.00     0.142 C 
BRANCH  30  31
HETATM   31  C17 UNL     1       1.186  -0.384   4.191  1.00  0.00    -0.004 C 
HETATM   32  C18 UNL     1       2.675  -0.436   4.481  1.00  0.00     0.011 C 
HETATM   33  C19 UNL     1       0.498  -0.816   5.460  1.00  0.00     0.011 C 
ENDBRANCH  30  31
ENDBRANCH  28  30
ENDBRANCH   8  28
BRANCH   4  34
HETATM   34  N3  UNL     1      -2.046  -1.223   0.569  1.00  0.00    -0.374 N 
ATOM     35  H3  UNL     1      -1.730  -0.926   1.492  1.00  0.00     0.161 HD
BRANCH  34  36
HETATM   36  C6  UNL     1      -3.206  -2.057   0.515  1.00  0.00     0.126 C 
BRANCH  36  37
HETATM   37  C7  UNL     1      -4.476  -1.300   0.226  1.00  0.00     0.065 C 
BRANCH  37  38
HETATM   38  C8  UNL     1      -4.747  -0.262   1.297  1.00  0.00     0.069 C 
BRANCH  38  39
HETATM   39  N4  UNL     1      -5.918   0.489   1.078  1.00  0.00    -0.351 N 
HETATM   40  C9  UNL     1      -6.211   1.430   2.048  1.00  0.00     0.087 C 
HETATM   41  C10 UNL     1      -7.356   2.358   1.714  1.00  0.00     0.161 C 
HETATM   42  N5  UNL     1      -8.393   1.752   0.970  1.00  0.00    -0.408 N 
HETATM   43  C11 UNL     1      -9.628   1.520   1.633  1.00  0.00     0.143 C 
HETATM   44  C12 UNL     1      -8.046   0.885  -0.090  1.00  0.00     0.161 C 
HETATM   45  C13 UNL     1      -6.728   0.196  -0.007  1.00  0.00     0.087 C 
ENDBRANCH  38  39
ENDBRANCH  37  38
ENDBRANCH  36  37
ENDBRANCH  34  36
ENDBRANCH   4  34
BRANCH   1  46
HETATM   46  N1  UNL     1      -1.300  -1.004  -4.000  1.00  0.00    -0.205 N 
ATOM     47  H1  UNL     1      -2.130  -1.585  -4.121  1.00  0.00     0.183 HD
BRANCH  46  48
HETATM   48  C3  UNL     1      -0.636  -0.614  -5.173  1.00  0.00     0.078 C 
BRANCH  48  49
HETATM   49  C2  UNL     1      -0.606  -1.682  -6.265  1.00  0.00     0.040 C 
HETATM   50  C1  UNL     1       0.147  -1.058  -7.439  1.00  0.00     0.010 C 
ENDBRANCH  48  49
ENDBRANCH  46  48
ENDBRANCH   1  46
TORSDOF 19
