REMARK  4 active torsions:
REMARK  status: ('A' for Active; 'I' for Inactive)
REMARK    1  A    between atoms: N1_9  and  C9_10 
REMARK    2  A    between atoms: C9_10  and  C10_11 
REMARK    3  A    between atoms: C16_20  and  C18_22 
REMARK    4  A    between atoms: C19_26  and  O1_27 
ROOT
HETATM    1  C1  UNL     1      -3.500   1.869  -0.997  1.00  0.00     0.016 C 
HETATM    2  C2  UNL     1      -2.373   0.823  -1.004  1.00  0.00    -0.030 C 
HETATM    3  C3  UNL     1      -1.997   0.639  -2.427  1.00  0.00     0.016 C 
HETATM    4  C4  UNL     1      -1.261   1.475  -0.189  1.00  0.00     0.023 C 
HETATM    5  C5  UNL     1      -1.497   0.972   1.216  1.00  0.00     0.013 C 
HETATM    6  C6  UNL     1      -1.873  -0.500   0.969  1.00  0.00     0.002 C 
HETATM    7  C7  UNL     1      -0.701  -1.358   1.066  1.00  0.00     0.036 C 
HETATM    8  C8  UNL     1       0.515  -1.015   0.260  1.00  0.00     0.273 C 
HETATM    9  N1  UNL     1       0.892   0.357   0.316  1.00  0.00     0.089 N 
HETATM   10  C15 UNL     1       0.101   1.130  -0.658  1.00  0.00     0.277 C 
HETATM   11  C16 UNL     1      -2.710  -0.412  -0.231  1.00  0.00     0.006 C 
HETATM   12  C17 UNL     1      -4.145  -0.178   0.305  1.00  0.00     0.022 C 
ENDROOT
BRANCH   9  13
HETATM   13  C9  UNL     1       2.254   0.496  -0.141  1.00  0.00     0.277 C 
BRANCH  13  14
HETATM   14  C10 UNL     1       3.303  -0.071   0.742  1.00  0.00     0.017 C 
HETATM   15  C11 UNL     1       4.647   0.202   0.048  1.00  0.00     0.034 C 
HETATM   16  C12 UNL     1       5.786  -0.274   0.894  1.00  0.00     0.232 C 
HETATM   17  N2  UNL     1       5.376  -0.623   2.236  1.00  0.00    -0.075 N 
HETATM   18  C13 UNL     1       4.587   0.426   2.836  1.00  0.00     0.232 C 
ATOM     19  H22 UNL     1       4.886  -1.517   2.256  1.00  0.00     0.277 HD
ATOM     20  H21 UNL     1       6.176  -0.869   2.819  1.00  0.00     0.277 HD
HETATM   21  C14 UNL     1       3.321   0.669   2.067  1.00  0.00     0.034 C 
ENDBRANCH  13  14
ENDBRANCH   9  13
BRANCH  11  22
HETATM   22  C18 UNL     1      -2.819  -1.649  -1.067  1.00  0.00     0.060 A 
HETATM   23  S1  UNL     1      -2.111  -3.171  -1.253  1.00  0.00    -0.012 SA
HETATM   24  N3  UNL     1      -3.233  -3.215  -2.427  1.00  0.00    -0.306 N 
HETATM   25  C19 UNL     1      -3.639  -1.986  -2.106  1.00  0.00     0.161 A 
ATOM     26  H3  UNL     1      -3.513  -3.903  -3.126  1.00  0.00     0.176 HD
BRANCH  25  27
HETATM   27  O1  UNL     1      -4.708  -1.331  -2.803  1.00  0.00    -0.345 OA
ATOM     28  H1  UNL     1      -5.278  -1.565  -3.526  1.00  0.00     0.219 HD
ENDBRANCH  25  27
ENDBRANCH  11  22
TORSDOF 4
