REMARK  6 active torsions:
REMARK  status: ('A' for Active; 'I' for Inactive)
REMARK    1  A    between atoms: O1_2  and  N1_3 
REMARK       I    between atoms: N1_3  and  C2_5 
REMARK    2  A    between atoms: C2_5  and  C3_7 
REMARK    3  A    between atoms: C3_7  and  C4_8 
REMARK    4  A    between atoms: C4_8  and  C5_9 
REMARK    5  A    between atoms: C5_9  and  O3_10 
REMARK    6  A    between atoms: C16_22  and  O4_23 
ROOT
HETATM    1  C4  UNL     1       1.512  -0.824  -0.118  1.00  0.00     0.011 C 
HETATM    2  C6  UNL     1       1.562  -1.768   1.055  1.00  0.00    -0.004 C 
HETATM    3  C7  UNL     1       2.834  -2.526   1.224  1.00  0.00     0.011 C 
HETATM    4  C8  UNL     1       0.426  -2.750   0.951  1.00  0.00     0.006 C 
HETATM    5  C9  UNL     1      -0.896  -2.246   0.550  1.00  0.00     0.006 C 
HETATM    6  C10 UNL     1      -0.994  -0.970  -0.216  1.00  0.00    -0.001 C 
HETATM    7  C11 UNL     1       0.241  -0.066   0.110  1.00  0.00     0.005 C 
HETATM    8  C12 UNL     1      -0.091   0.365   1.479  1.00  0.00     0.006 C 
HETATM    9  C13 UNL     1      -1.129   1.497   1.379  1.00  0.00     0.006 C 
HETATM   10  C14 UNL     1      -2.022   1.247   0.232  1.00  0.00    -0.004 C 
HETATM   11  C15 UNL     1      -3.309   1.998   0.462  1.00  0.00     0.037 C 
HETATM   12  C16 UNL     1      -4.270   1.880  -0.695  1.00  0.00     0.118 C 
HETATM   13  C17 UNL     1      -4.378   0.494  -1.258  1.00  0.00     0.032 C 
HETATM   14  C18 UNL     1      -3.066  -0.179  -1.380  1.00  0.00     0.012 C 
HETATM   15  C19 UNL     1      -2.284  -0.234  -0.047  1.00  0.00    -0.036 C 
HETATM   16  C20 UNL     1      -3.258  -0.830   0.900  1.00  0.00     0.016 C 
ENDROOT
BRANCH   1  17
HETATM   17  C3  UNL     1       2.706  -0.064  -0.458  1.00  0.00     0.062 C 
BRANCH  17  18
HETATM   18  C2  UNL     1       3.387   0.952   0.225  1.00  0.00     0.261 C 
HETATM   19  N1  UNL     1       4.628   1.452  -0.325  1.00  0.00    -0.232 N 
ATOM     20  H1  UNL     1       4.989   1.067  -1.198  1.00  0.00     0.197 HD
HETATM   21  O2  UNL     1       3.032   1.492   1.297  1.00  0.00    -0.267 OA
BRANCH  19  22
HETATM   22  O1  UNL     1       5.292   2.401   0.296  1.00  0.00    -0.282 OA
HETATM   23  C1  UNL     1       5.591   3.513  -0.464  1.00  0.00     0.237 C 
ENDBRANCH  19  22
ENDBRANCH  17  18
ENDBRANCH   1  17
BRANCH   1  24
HETATM   24  C5  UNL     1       1.416  -1.748  -1.346  1.00  0.00     0.178 C 
BRANCH  24  25
HETATM   25  O3  UNL     1       2.600  -2.527  -1.433  1.00  0.00    -0.400 OA
ATOM     26  H3  UNL     1       2.541  -3.097  -2.191  1.00  0.00     0.209 HD
ENDBRANCH  24  25
ENDBRANCH   1  24
BRANCH  12  27
HETATM   27  O4  UNL     1      -3.900   2.760  -1.694  1.00  0.00    -0.396 OA
ATOM     28  H4  UNL     1      -4.505   2.686  -2.423  1.00  0.00     0.210 HD
ENDBRANCH  12  27
TORSDOF 6
