REMARK  6 active torsions:
REMARK  status: ('A' for Active; 'I' for Inactive)
REMARK    1  A    between atoms: C3_3  and  O1_4 
REMARK    2  A    between atoms: C6_8  and  C7_9 
REMARK    3  A    between atoms: C7_9  and  O2_10 
REMARK    4  A    between atoms: C11_15  and  C12_16 
REMARK    5  A    between atoms: C15_19  and  O3_20 
REMARK    6  A    between atoms: C19_24  and  O4_25 
ROOT
HETATM    1  C1  UNL     1       3.008   1.210  -1.840  1.00  0.00     0.022 C 
HETATM    2  C2  UNL     1       3.267   0.442  -0.810  1.00  0.00    -0.032 C 
HETATM    3  C3  UNL     1       4.348  -0.596  -1.061  1.00  0.00     0.150 C 
HETATM    4  C4  UNL     1       3.932  -1.836  -0.335  1.00  0.00     0.037 C 
HETATM    5  C5  UNL     1       2.424  -1.890  -0.140  1.00  0.00     0.019 C 
HETATM    6  C6  UNL     1       2.028  -0.879   0.877  1.00  0.00     0.009 C 
HETATM    7  C8  UNL     1       0.534  -0.741   1.031  1.00  0.00     0.025 C 
HETATM    8  C9  UNL     1      -0.158  -0.103  -0.118  1.00  0.00     0.016 C 
HETATM    9  C10 UNL     1      -1.455  -0.807  -0.311  1.00  0.00    -0.016 C 
HETATM   10  C11 UNL     1      -2.624  -0.280  -0.519  1.00  0.00    -0.051 C 
HETATM   11  C15 UNL     1      -2.701   1.199  -0.577  1.00  0.00     0.150 C 
HETATM   12  C17 UNL     1      -1.703   1.690   0.481  1.00  0.00     0.044 C 
HETATM   13  C18 UNL     1      -0.310   1.353  -0.084  1.00  0.00     0.028 C 
HETATM   14  C19 UNL     1       0.760   2.177   0.500  1.00  0.00     0.146 C 
HETATM   15  C20 UNL     1       1.995   1.647   1.009  1.00  0.00     0.013 C 
HETATM   16  C21 UNL     1       2.679   0.445   0.525  1.00  0.00    -0.041 C 
ENDROOT
BRANCH   6  17
HETATM   17  C7  UNL     1       2.508  -1.383   2.236  1.00  0.00     0.178 C 
BRANCH  17  18
HETATM   18  O2  UNL     1       1.990  -2.581   2.617  1.00  0.00    -0.400 OA
ATOM     19  H2  UNL     1       2.289  -2.895   3.463  1.00  0.00     0.209 HD
ENDBRANCH  17  18
ENDBRANCH   6  17
BRANCH   3  20
HETATM   20  O1  UNL     1       5.582  -0.107  -0.607  1.00  0.00    -0.391 OA
ATOM     21  H1  UNL     1       6.258  -0.756  -0.764  1.00  0.00     0.210 HD
ENDBRANCH   3  20
BRANCH  14  22
HETATM   22  O4  UNL     1       0.145   2.846   1.614  1.00  0.00    -0.391 OA
ATOM     23  H4  UNL     1       0.836   3.378   1.991  1.00  0.00     0.210 HD
ENDBRANCH  14  22
BRANCH  10  24
HETATM   24  C12 UNL     1      -3.844  -1.076  -0.698  1.00  0.00     0.009 C 
HETATM   25  C13 UNL     1      -4.913  -0.790   0.324  1.00  0.00     0.014 C 
HETATM   26  C14 UNL     1      -3.537  -2.572  -0.611  1.00  0.00     0.014 C 
ENDBRANCH  10  24
BRANCH  11  27
HETATM   27  O3  UNL     1      -3.983   1.600  -0.345  1.00  0.00    -0.386 OA
HETATM   28  C16 UNL     1      -4.501   2.403  -1.358  1.00  0.00     0.202 C 
ENDBRANCH  11  27
TORSDOF 6
