REMARK  5 active torsions:
REMARK  status: ('A' for Active; 'I' for Inactive)
REMARK    1  A    between atoms: N1_1  and  C1_5 
REMARK    2  A    between atoms: C1_5  and  C2_6 
REMARK    3  A    between atoms: C1_5  and  C12_25 
REMARK    4  A    between atoms: C4_10  and  N3_11 
REMARK       I    between atoms: N3_11  and  C5_13 
REMARK       I    between atoms: C5_13  and  N4_15 
REMARK    5  A    between atoms: N4_15  and  C6_17 
ROOT
HETATM    1  C2  UNL     1      -2.199   0.708  -1.065  1.00  0.00     0.032 A 
HETATM    2  C3  UNL     1      -0.927   1.132  -1.350  1.00  0.00     0.107 A 
HETATM    3  N2  UNL     1       0.040   0.253  -1.232  1.00  0.00    -0.345 N 
ATOM      4  H2  UNL     1       1.006   0.513  -1.430  1.00  0.00     0.167 HD
HETATM    5  C4  UNL     1      -0.265  -0.985  -0.848  1.00  0.00     0.152 A 
HETATM    6  S1  UNL     1      -1.951  -0.920  -0.646  1.00  0.00    -0.055 SA
ENDROOT
BRANCH   5   7
HETATM    7  N3  UNL     1       0.575  -1.984  -0.681  1.00  0.00    -0.289 N 
HETATM    8  C5  UNL     1       1.958  -1.778  -0.919  1.00  0.00     0.324 C 
HETATM    9  O1  UNL     1       2.475  -2.072  -2.040  1.00  0.00    -0.247 OA
HETATM   10  N4  UNL     1       2.793  -1.237   0.101  1.00  0.00    -0.316 N 
ATOM     11  H4  UNL     1       2.382  -1.000   1.004  1.00  0.00     0.166 HD
ATOM     12  H3  UNL     1       0.235  -2.898  -0.383  1.00  0.00     0.172 HD
BRANCH  10  13
HETATM   13  C6  UNL     1       4.214  -1.014  -0.110  1.00  0.00     0.224 C 
HETATM   14  C7  UNL     1       4.970  -1.811   0.930  1.00  0.00     0.054 C 
HETATM   15  C8  UNL     1       6.465  -1.543   0.769  1.00  0.00     0.004 C 
HETATM   16  C9  UNL     1       6.726  -0.126   1.220  1.00  0.00     0.002 C 
HETATM   17  C10 UNL     1       6.746   0.849   0.052  1.00  0.00     0.026 C 
HETATM   18  C11 UNL     1       5.504   0.778  -0.777  1.00  0.00     0.170 C 
HETATM   19  O2  UNL     1       4.451   0.354   0.028  1.00  0.00    -0.367 OA
ENDBRANCH  10  13
ENDBRANCH   5   7
BRANCH   1  20
HETATM   20  C1  UNL     1      -3.419   1.575  -1.141  1.00  0.00     0.228 C 
BRANCH  20  21
HETATM   21  N1  UNL     1      -3.148   2.868  -0.519  1.00  0.00    -0.070 N 
ATOM     22  H13 UNL     1      -2.807   2.769   0.437  1.00  0.00     0.275 HD
ATOM     23  H12 UNL     1      -2.329   3.323  -0.922  1.00  0.00     0.275 HD
ATOM     24  H11 UNL     1      -3.978   3.458  -0.571  1.00  0.00     0.275 HD
ENDBRANCH  20  21
BRANCH  20  25
HETATM   25  C12 UNL     1      -4.621   0.941  -0.562  1.00  0.00     0.021 C 
HETATM   26  C13 UNL     1      -5.043  -0.377  -1.092  1.00  0.00     0.007 C 
HETATM   27  C14 UNL     1      -6.534  -0.515  -0.702  1.00  0.00     0.000 C 
HETATM   28  C15 UNL     1      -6.543  -0.677   0.792  1.00  0.00     0.000 C 
HETATM   29  C16 UNL     1      -5.803   0.361   1.555  1.00  0.00     0.000 C 
HETATM   30  C17 UNL     1      -4.477   0.771   0.957  1.00  0.00     0.007 C 
ENDBRANCH  20  25
ENDBRANCH   1  20
TORSDOF 5
