REMARK  5 active torsions:
REMARK  status: ('A' for Active; 'I' for Inactive)
REMARK    1  A    between atoms: C4_4  and  C5_5 
REMARK    2  A    between atoms: C5_5  and  C6_6 
REMARK    3  A    between atoms: C6_6  and  C7_7 
REMARK    4  A    between atoms: C7_7  and  S1_8 
REMARK    5  A    between atoms: S1_8  and  C8_9 
ROOT
HETATM    1  C8  UNL     1       1.929   0.701  -0.884  1.00  0.00     0.011 A 
HETATM    2  C9  UNL     1       1.407  -0.194  -1.794  1.00  0.00     0.019 A 
HETATM    3  C10 UNL     1       2.041  -1.414  -1.922  1.00  0.00     0.002 A 
HETATM    4  C11 UNL     1       3.162  -1.708  -1.156  1.00  0.00     0.012 A 
HETATM    5  C12 UNL     1       3.652  -0.782  -0.257  1.00  0.00    -0.025 A 
HETATM    6  C13 UNL     1       4.763  -1.045   0.517  1.00  0.00     0.012 A 
HETATM    7  C14 UNL     1       5.256  -0.111   1.421  1.00  0.00     0.001 A 
HETATM    8  C15 UNL     1       4.646   1.118   1.575  1.00  0.00     0.001 A 
HETATM    9  C16 UNL     1       3.533   1.379   0.800  1.00  0.00     0.013 A 
HETATM   10  C17 UNL     1       3.037   0.443  -0.108  1.00  0.00    -0.009 A 
ENDROOT
BRANCH   1  11
HETATM   11  S1  UNL     1       1.145   2.295  -0.676  1.00  0.00    -0.129 SA
BRANCH  11  12
HETATM   12  C7  UNL     1      -0.120   2.065   0.620  1.00  0.00     0.080 C 
BRANCH  12  13
HETATM   13  C6  UNL     1      -1.219   1.138   0.123  1.00  0.00     0.015 C 
BRANCH  13  14
HETATM   14  C5  UNL     1      -2.251   0.951   1.193  1.00  0.00     0.039 C 
BRANCH  14  15
HETATM   15  C4  UNL     1      -3.333   0.040   0.696  1.00  0.00    -0.058 A 
HETATM   16  C3  UNL     1      -4.444   0.542   0.067  1.00  0.00     0.007 A 
HETATM   17  C2  UNL     1      -5.412  -0.332  -0.379  1.00  0.00     0.001 A 
HETATM   18  C1  UNL     1      -5.298  -1.702  -0.212  1.00  0.00     0.000 A 
HETATM   19  C19 UNL     1      -4.168  -2.164   0.424  1.00  0.00     0.001 A 
HETATM   20  C18 UNL     1      -3.187  -1.312   0.879  1.00  0.00     0.007 A 
ENDBRANCH  14  15
ENDBRANCH  13  14
ENDBRANCH  12  13
ENDBRANCH  11  12
ENDBRANCH   1  11
TORSDOF 5
