REMARK  5 active torsions:
REMARK  status: ('A' for Active; 'I' for Inactive)
REMARK    1  A    between atoms: C4_4  and  C5_5 
REMARK    2  A    between atoms: C5_5  and  S1_6 
REMARK    3  A    between atoms: S1_6  and  C6_7 
REMARK    4  A    between atoms: C6_7  and  C7_8 
REMARK    5  A    between atoms: C10_11  and  C11_12 
ROOT
HETATM    1  C7  UNL     1       0.238   1.245  -0.728  1.00  0.00    -0.049 A 
HETATM    2  C8  UNL     1      -0.850   2.093  -0.815  1.00  0.00     0.009 A 
HETATM    3  C9  UNL     1      -2.139   1.642  -0.915  1.00  0.00     0.013 A 
HETATM    4  C10 UNL     1      -2.415   0.281  -0.934  1.00  0.00    -0.026 A 
HETATM    5  C17 UNL     1      -1.340  -0.574  -0.849  1.00  0.00     0.013 A 
HETATM    6  C18 UNL     1      -0.036  -0.103  -0.748  1.00  0.00     0.009 A 
ENDROOT
BRANCH   1   7
HETATM    7  C6  UNL     1       1.617   1.817  -0.623  1.00  0.00     0.112 C 
BRANCH   7   8
HETATM    8  S1  UNL     1       2.122   2.148   1.053  1.00  0.00    -0.160 SA
BRANCH   8   9
HETATM    9  C5  UNL     1       2.412   0.727   2.082  1.00  0.00     0.112 C 
BRANCH   9  10
HETATM   10  C4  UNL     1       3.617  -0.063   1.705  1.00  0.00    -0.049 A 
HETATM   11  C3  UNL     1       3.625  -1.142   0.870  1.00  0.00     0.008 A 
HETATM   12  C2  UNL     1       4.819  -1.769   0.597  1.00  0.00     0.001 A 
HETATM   13  C1  UNL     1       6.002  -1.331   1.148  1.00  0.00     0.000 A 
HETATM   14  C20 UNL     1       5.990  -0.233   1.997  1.00  0.00     0.001 A 
HETATM   15  C19 UNL     1       4.810   0.385   2.265  1.00  0.00     0.008 A 
ENDBRANCH   9  10
ENDBRANCH   8   9
ENDBRANCH   7   8
ENDBRANCH   1   7
BRANCH   4  16
HETATM   16  C11 UNL     1      -3.793  -0.210  -1.036  1.00  0.00    -0.026 A 
HETATM   17  C12 UNL     1      -4.158  -1.408  -0.442  1.00  0.00     0.012 A 
HETATM   18  C13 UNL     1      -5.436  -1.917  -0.502  1.00  0.00     0.001 A 
HETATM   19  C14 UNL     1      -6.390  -1.199  -1.185  1.00  0.00     0.000 A 
HETATM   20  C15 UNL     1      -6.058  -0.007  -1.786  1.00  0.00     0.001 A 
HETATM   21  C16 UNL     1      -4.757   0.496  -1.715  1.00  0.00     0.012 A 
ENDBRANCH   4  16
TORSDOF 5
