REMARK  5 active torsions:
REMARK  status: ('A' for Active; 'I' for Inactive)
REMARK    1  A    between atoms: C4_4  and  C5_5 
REMARK    2  A    between atoms: C5_5  and  S1_6 
REMARK    3  A    between atoms: S1_6  and  C6_7 
REMARK    4  A    between atoms: C6_7  and  C7_8 
REMARK    5  A    between atoms: C11_12  and  C12_13 
ROOT
HETATM    1  C7  UNL     1      -0.066   0.687   0.163  1.00  0.00    -0.048 A 
HETATM    2  C8  UNL     1       0.196   1.094  -1.121  1.00  0.00     0.008 A 
HETATM    3  C9  UNL     1      -0.894   1.290  -1.972  1.00  0.00     0.001 A 
HETATM    4  C10 UNL     1      -2.157   1.079  -1.521  1.00  0.00     0.012 A 
HETATM    5  C11 UNL     1      -2.450   0.666  -0.225  1.00  0.00    -0.025 A 
HETATM    6  C18 UNL     1      -1.369   0.476   0.607  1.00  0.00     0.020 A 
ENDROOT
BRANCH   1   7
HETATM    7  C6  UNL     1       1.020   0.435   1.158  1.00  0.00     0.112 C 
BRANCH   7   8
HETATM    8  S1  UNL     1       1.509  -1.298   1.151  1.00  0.00    -0.160 SA
BRANCH   8   9
HETATM    9  C5  UNL     1       2.423  -1.795  -0.295  1.00  0.00     0.112 C 
BRANCH   9  10
HETATM   10  C4  UNL     1       3.790  -1.215  -0.241  1.00  0.00    -0.049 A 
HETATM   11  C3  UNL     1       4.106  -0.023  -0.819  1.00  0.00     0.008 A 
HETATM   12  C2  UNL     1       5.389   0.505  -0.747  1.00  0.00     0.001 A 
HETATM   13  C1  UNL     1       6.346  -0.220  -0.067  1.00  0.00     0.000 A 
HETATM   14  C20 UNL     1       6.061  -1.431   0.530  1.00  0.00     0.001 A 
HETATM   15  C19 UNL     1       4.793  -1.905   0.433  1.00  0.00     0.008 A 
ENDBRANCH   9  10
ENDBRANCH   8   9
ENDBRANCH   7   8
ENDBRANCH   1   7
BRANCH   5  16
HETATM   16  C12 UNL     1      -3.830   0.460   0.190  1.00  0.00    -0.026 A 
HETATM   17  C13 UNL     1      -4.807   0.020  -0.705  1.00  0.00     0.012 A 
HETATM   18  C14 UNL     1      -6.114  -0.175  -0.311  1.00  0.00     0.001 A 
HETATM   19  C15 UNL     1      -6.501   0.062   0.995  1.00  0.00     0.000 A 
HETATM   20  C16 UNL     1      -5.554   0.496   1.895  1.00  0.00     0.001 A 
HETATM   21  C17 UNL     1      -4.243   0.687   1.483  1.00  0.00     0.012 A 
ENDBRANCH   5  16
TORSDOF 5
