REMARK  5 active torsions:
REMARK  status: ('A' for Active; 'I' for Inactive)
REMARK    1  A    between atoms: C4_4  and  C5_5 
REMARK    2  A    between atoms: C8_8  and  C9_9 
REMARK    3  A    between atoms: C9_9  and  C10_10 
REMARK    4  A    between atoms: C10_10  and  C11_11 
REMARK    5  A    between atoms: C11_11  and  C12_12 
ROOT
HETATM    1  C5  UNL     1      -1.978   0.431   0.635  1.00  0.00    -0.026 A 
HETATM    2  C6  UNL     1      -1.862  -0.625   1.515  1.00  0.00     0.013 A 
HETATM    3  C7  UNL     1      -0.639  -1.111   1.924  1.00  0.00     0.008 A 
HETATM    4  C8  UNL     1       0.554  -0.549   1.462  1.00  0.00    -0.058 A 
HETATM    5  C16 UNL     1       0.446   0.503   0.586  1.00  0.00     0.008 A 
HETATM    6  C17 UNL     1      -0.803   0.987   0.178  1.00  0.00     0.013 A 
ENDROOT
BRANCH   4   7
HETATM    7  C9  UNL     1       1.872  -1.087   1.926  1.00  0.00     0.039 C 
BRANCH   7   8
HETATM    8  C10 UNL     1       2.370  -2.208   1.089  1.00  0.00     0.010 C 
BRANCH   8   9
HETATM    9  C11 UNL     1       2.622  -1.952  -0.341  1.00  0.00     0.046 C 
BRANCH   9  10
HETATM   10  C12 UNL     1       3.691  -0.932  -0.585  1.00  0.00    -0.018 A 
HETATM   11  C13 UNL     1       4.093  -0.477  -1.813  1.00  0.00     0.015 A 
HETATM   12  C14 UNL     1       5.072   0.427  -1.840  1.00  0.00     0.008 A 
HETATM   13  C15 UNL     1       5.601   0.832  -0.639  1.00  0.00     0.050 A 
HETATM   14  S1  UNL     1       4.703  -0.073   0.488  1.00  0.00    -0.106 SA
ENDBRANCH   9  10
ENDBRANCH   8   9
ENDBRANCH   7   8
ENDBRANCH   4   7
BRANCH   1  15
HETATM   15  C4  UNL     1      -3.283   0.934   0.211  1.00  0.00    -0.026 A 
HETATM   16  C3  UNL     1      -3.454   1.483  -1.044  1.00  0.00     0.012 A 
HETATM   17  C2  UNL     1      -4.680   1.963  -1.461  1.00  0.00     0.001 A 
HETATM   18  C1  UNL     1      -5.767   1.899  -0.614  1.00  0.00     0.000 A 
HETATM   19  C19 UNL     1      -5.637   1.356   0.650  1.00  0.00     0.001 A 
HETATM   20  C18 UNL     1      -4.396   0.889   1.026  1.00  0.00     0.012 A 
ENDBRANCH   1  15
TORSDOF 5
