REMARK  5 active torsions:
REMARK  status: ('A' for Active; 'I' for Inactive)
REMARK    1  A    between atoms: C4_4  and  C5_5 
REMARK    2  A    between atoms: C5_5  and  C6_6 
REMARK    3  A    between atoms: C6_6  and  C7_7 
REMARK    4  A    between atoms: C7_7  and  C8_8 
REMARK    5  A    between atoms: C11_11  and  C12_12 
ROOT
HETATM    1  C8  UNL     1       0.465   0.761   1.371  1.00  0.00    -0.017 A 
HETATM    2  C9  UNL     1       1.087  -0.225   2.082  1.00  0.00     0.016 A 
HETATM    3  C10 UNL     1       2.345  -0.532   1.752  1.00  0.00     0.021 A 
HETATM    4  C11 UNL     1       2.914   0.170   0.722  1.00  0.00     0.015 A 
HETATM    5  S1  UNL     1       1.660   1.237   0.254  1.00  0.00    -0.094 SA
ENDROOT
BRANCH   1   6
HETATM    6  C7  UNL     1      -0.940   1.286   1.549  1.00  0.00     0.046 C 
BRANCH   6   7
HETATM    7  C6  UNL     1      -1.892   0.482   0.674  1.00  0.00     0.010 C 
BRANCH   7   8
HETATM    8  C5  UNL     1      -3.292   1.019   0.864  1.00  0.00     0.039 C 
BRANCH   8   9
HETATM    9  C4  UNL     1      -4.187   0.209  -0.005  1.00  0.00    -0.058 A 
HETATM   10  C3  UNL     1      -4.444   0.590  -1.321  1.00  0.00     0.007 A 
HETATM   11  C2  UNL     1      -5.265  -0.140  -2.143  1.00  0.00     0.001 A 
HETATM   12  C1  UNL     1      -5.853  -1.280  -1.654  1.00  0.00     0.000 A 
HETATM   13  C19 UNL     1      -5.618  -1.688  -0.346  1.00  0.00     0.001 A 
HETATM   14  C18 UNL     1      -4.787  -0.930   0.449  1.00  0.00     0.007 A 
ENDBRANCH   8   9
ENDBRANCH   7   8
ENDBRANCH   6   7
ENDBRANCH   1   6
BRANCH   4  15
HETATM   15  C12 UNL     1       4.272   0.035   0.160  1.00  0.00    -0.019 A 
HETATM   16  C13 UNL     1       5.127  -0.888   0.685  1.00  0.00     0.013 A 
HETATM   17  C14 UNL     1       6.418  -1.029   0.164  1.00  0.00     0.001 A 
HETATM   18  C15 UNL     1       6.847  -0.244  -0.882  1.00  0.00     0.000 A 
HETATM   19  C16 UNL     1       5.965   0.693  -1.406  1.00  0.00     0.001 A 
HETATM   20  C17 UNL     1       4.676   0.834  -0.887  1.00  0.00     0.013 A 
ENDBRANCH   4  15
TORSDOF 5
