REMARK  3 active torsions:
REMARK  status: ('A' for Active; 'I' for Inactive)
REMARK    1  A    between atoms: C1_2  and  C2_3 
REMARK       I    between atoms: C1_2  and  N2_15 
REMARK    2  A    between atoms: C7_12  and  C8_13 
REMARK    3  A    between atoms: N2_15  and  C9_17 
ROOT
HETATM    1  O1  UNL     1      -0.319   1.991   2.114  1.00  0.00    -0.269 OA
HETATM    2  C1  UNL     1      -0.660   1.076   1.265  1.00  0.00     0.243 C 
HETATM    3  N2  UNL     1       0.415   0.313   0.781  1.00  0.00    -0.347 N 
ATOM      4  H2  UNL     1       0.257  -0.436   0.106  1.00  0.00     0.163 HD
ENDROOT
BRANCH   2   5
HETATM    5  C2  UNL     1      -2.037   0.970   0.946  1.00  0.00     0.099 C 
HETATM    6  C3  UNL     1      -2.652   0.128   0.114  1.00  0.00     0.025 A 
HETATM    7  N1  UNL     1      -1.913  -0.832  -0.596  1.00  0.00    -0.367 N 
HETATM    8  C7  UNL     1      -4.119   0.200  -0.059  1.00  0.00     0.096 A 
HETATM    9  C4  UNL     1      -2.417  -1.704  -1.375  1.00  0.00     0.113 A 
ATOM     10  H1  UNL     1      -0.900  -0.831  -0.479  1.00  0.00     0.165 HD
HETATM   11  C5  UNL     1      -3.883  -1.691  -1.536  1.00  0.00     0.067 A 
HETATM   12 CL1  UNL     1      -4.585  -2.901  -2.608  1.00  0.00    -0.081 Cl
HETATM   13  C6  UNL     1      -4.644  -0.829  -0.920  1.00  0.00     0.045 A 
HETATM   14 CL2  UNL     1      -6.395  -0.977  -1.239  1.00  0.00    -0.086 Cl
BRANCH   8  15
HETATM   15  C8  UNL     1      -4.559   1.601  -0.453  1.00  0.00     0.131 C 
HETATM   16 CL3  UNL     1      -6.306   1.706  -0.666  1.00  0.00    -0.129 Cl
ENDBRANCH   8  15
ENDBRANCH   2   5
BRANCH   3  17
HETATM   17  C9  UNL     1       1.773   0.611   1.263  1.00  0.00     0.136 C 
HETATM   18  C10 UNL     1       2.346  -0.568   2.006  1.00  0.00     0.032 C 
HETATM   19  C11 UNL     1       2.541  -1.753   1.075  1.00  0.00     0.007 C 
HETATM   20  C12 UNL     1       3.677  -1.383   0.146  1.00  0.00     0.041 C 
HETATM   21  C13 UNL     1       3.550   0.001  -0.382  1.00  0.00    -0.031 A 
HETATM   22  C14 UNL     1       4.394   0.316  -1.454  1.00  0.00     0.027 A 
HETATM   23  C16 UNL     1       2.673   0.928   0.129  1.00  0.00     0.054 A 
HETATM   24  C15 UNL     1       4.324   1.583  -1.987  1.00  0.00     0.107 A 
HETATM   25  N3  UNL     1       3.450   2.447  -1.450  1.00  0.00    -0.312 N 
HETATM   26  N4  UNL     1       2.653   2.147  -0.436  1.00  0.00    -0.303 N 
ATOM     27  H3  UNL     1       3.396   3.386  -1.844  1.00  0.00     0.186 HD
ATOM     28  H4  UNL     1       2.012   2.854  -0.077  1.00  0.00     0.186 HD
ENDBRANCH   3  17
TORSDOF 3
