REMARK  3 active torsions:
REMARK  status: ('A' for Active; 'I' for Inactive)
REMARK    1  A    between atoms: C8_12  and  N2_13 
REMARK       I    between atoms: N2_13  and  C9_15 
REMARK    2  A    between atoms: C9_15  and  C10_17 
REMARK    3  A    between atoms: C10_17  and  N3_18 
ROOT
HETATM    1  C1  UNL     1      -3.174   1.021  -1.714  1.00  0.00     0.052 C 
HETATM    2  C2  UNL     1      -3.548   0.427  -0.420  1.00  0.00    -0.010 A 
HETATM    3  C3  UNL     1      -4.853   0.401   0.024  1.00  0.00     0.064 A 
HETATM    4 CL1  UNL     1      -6.136   1.089  -0.972  1.00  0.00    -0.082 Cl
HETATM    5  C4  UNL     1      -5.229  -0.149   1.243  1.00  0.00     0.090 A 
HETATM    6  C5  UNL     1      -6.605  -0.142   1.646  1.00  0.00     0.103 C 
HETATM    7  N1  UNL     1      -7.711  -0.156   1.960  1.00  0.00    -0.191 NA
HETATM    8  C6  UNL     1      -4.232  -0.685   2.020  1.00  0.00     0.080 A 
HETATM    9 CL2  UNL     1      -4.666  -1.390   3.557  1.00  0.00    -0.081 Cl
HETATM   10  C7  UNL     1      -2.926  -0.662   1.580  1.00  0.00     0.084 A 
HETATM   11 CL3  UNL     1      -1.697  -1.365   2.625  1.00  0.00    -0.080 Cl
HETATM   12  C8  UNL     1      -2.538  -0.123   0.379  1.00  0.00     0.066 A 
ENDROOT
BRANCH  12  13
HETATM   13  N2  UNL     1      -1.191  -0.113  -0.064  1.00  0.00    -0.324 N 
HETATM   14  C9  UNL     1      -0.353   0.983   0.232  1.00  0.00     0.250 C 
HETATM   15  O1  UNL     1      -0.860   1.938   0.895  1.00  0.00    -0.271 OA
ATOM     16  H2  UNL     1      -0.826  -0.901  -0.599  1.00  0.00     0.169 HD
BRANCH  14  17
HETATM   17  C10 UNL     1       1.045   1.125  -0.157  1.00  0.00     0.375 C 
BRANCH  17  18
HETATM   18  N3  UNL     1       1.500  -0.072  -0.830  1.00  0.00     0.100 N 
HETATM   19  C11 UNL     1       2.750   0.171  -1.545  1.00  0.00     0.303 C 
HETATM   20  C12 UNL     1       3.893   0.553  -0.677  1.00  0.00     0.302 C 
HETATM   21  N4  UNL     1       3.870  -0.036   0.621  1.00  0.00     0.087 N 
HETATM   22  C13 UNL     1       5.230  -0.391   0.978  1.00  0.00     0.310 C 
HETATM   23  C14 UNL     1       3.040  -1.170   0.779  1.00  0.00     0.302 C 
HETATM   24  C15 UNL     1       1.706  -1.157   0.133  1.00  0.00     0.303 C 
ENDBRANCH  17  18
ENDBRANCH  14  17
ENDBRANCH  12  13
TORSDOF 3
