REMARK  6 active torsions:
REMARK  status: ('A' for Active; 'I' for Inactive)
REMARK       I    between atoms: C1_2  and  N1_3 
REMARK    1  A    between atoms: C1_2  and  C22_33 
REMARK    2  A    between atoms: N1_3  and  C2_5 
REMARK    3  A    between atoms: C7_10  and  N2_11 
REMARK    4  A    between atoms: N2_11  and  C8_13 
REMARK    5  A    between atoms: C9_16  and  C10_17 
REMARK    6  A    between atoms: C15_26  and  C16_27 
ROOT
HETATM    1  N2  UNL     1      -0.648  -0.260  -1.075  1.00  0.00    -0.339 N 
ATOM      2  H2  UNL     1       0.043   0.367  -0.664  1.00  0.00     0.167 HD
ENDROOT
BRANCH   1   3
HETATM    3  C7  UNL     1      -0.392  -0.670  -2.400  1.00  0.00     0.060 A 
HETATM    4  C2  UNL     1       0.874  -0.414  -2.970  1.00  0.00     0.062 A 
HETATM    5  C3  UNL     1       1.072  -0.747  -4.270  1.00  0.00     0.032 A 
HETATM    6  C4  UNL     1       0.094  -1.326  -5.060  1.00  0.00     0.002 A 
HETATM    7  C5  UNL     1      -1.108  -1.564  -4.496  1.00  0.00     0.002 A 
HETATM    8  C6  UNL     1      -1.375  -1.244  -3.166  1.00  0.00     0.032 A 
BRANCH   4   9
HETATM    9  N1  UNL     1       1.904   0.105  -2.179  1.00  0.00    -0.319 N 
HETATM   10  C1  UNL     1       3.159   0.599  -2.568  1.00  0.00     0.280 C 
HETATM   11  O1  UNL     1       3.534   0.648  -3.742  1.00  0.00    -0.265 OA
ATOM     12  H1  UNL     1       1.717   0.128  -1.177  1.00  0.00     0.169 HD
BRANCH  10  13
HETATM   13  C22 UNL     1       4.138   1.105  -1.573  1.00  0.00     0.144 A 
HETATM   14  N6  UNL     1       4.034   1.171  -0.265  1.00  0.00    -0.345 N 
HETATM   15  C23 UNL     1       5.009   1.646   0.451  1.00  0.00     0.050 A 
ATOM     16  H6  UNL     1       3.182   0.847   0.192  1.00  0.00     0.167 HD
HETATM   17  C24 UNL     1       5.028   1.771   1.851  1.00  0.00     0.031 A 
HETATM   18  C28 UNL     1       6.133   2.067  -0.210  1.00  0.00     0.034 A 
HETATM   19  C25 UNL     1       6.103   2.281   2.494  1.00  0.00     0.002 A 
HETATM   20  C26 UNL     1       7.236   2.707   1.840  1.00  0.00     0.002 A 
HETATM   21  C27 UNL     1       7.239   2.594   0.473  1.00  0.00     0.021 A 
HETATM   22  S1  UNL     1       5.704   1.748  -1.838  1.00  0.00    -0.065 SA
ENDBRANCH  10  13
ENDBRANCH   4   9
ENDBRANCH   1   3
BRANCH   1  23
HETATM   23  C8  UNL     1      -1.730  -0.602  -0.248  1.00  0.00     0.135 A 
HETATM   24  N3  UNL     1      -2.787  -1.309  -0.650  1.00  0.00    -0.326 N 
HETATM   25  C9  UNL     1      -3.698  -1.426   0.307  1.00  0.00     0.117 A 
ATOM     26  H3  UNL     1      -2.883  -1.712  -1.582  1.00  0.00     0.169 HD
HETATM   27  N5  UNL     1      -3.209  -0.772   1.361  1.00  0.00    -0.338 N 
HETATM   28  C15 UNL     1      -1.973  -0.238   1.062  1.00  0.00     0.088 A 
ATOM     29  H5  UNL     1      -3.682  -0.680   2.260  1.00  0.00     0.167 HD
BRANCH  25  30
HETATM   30  C10 UNL     1      -4.981  -2.125   0.235  1.00  0.00     0.011 A 
HETATM   31  C11 UNL     1      -5.353  -2.762  -0.931  1.00  0.00     0.032 A 
HETATM   32  C12 UNL     1      -6.585  -3.413  -0.943  1.00  0.00     0.088 A 
HETATM   33  N4  UNL     1      -7.387  -3.420   0.150  1.00  0.00    -0.375 N 
HETATM   34  C13 UNL     1      -7.024  -2.801   1.281  1.00  0.00     0.088 A 
ATOM     35  H4  UNL     1      -8.283  -3.905   0.110  1.00  0.00     0.164 HD
HETATM   36  C14 UNL     1      -5.810  -2.139   1.346  1.00  0.00     0.032 A 
ENDBRANCH  25  30
BRANCH  28  37
HETATM   37  C16 UNL     1      -1.195   0.563   1.985  1.00  0.00    -0.006 A 
HETATM   38  C17 UNL     1      -1.901   1.173   3.036  1.00  0.00     0.014 A 
HETATM   39  C18 UNL     1      -1.278   1.906   4.022  1.00  0.00     0.001 A 
HETATM   40  C19 UNL     1       0.089   2.063   4.001  1.00  0.00     0.000 A 
HETATM   41  C20 UNL     1       0.780   1.470   2.980  1.00  0.00     0.001 A 
HETATM   42  C21 UNL     1       0.147   0.734   1.994  1.00  0.00     0.014 A 
ENDBRANCH  28  37
ENDBRANCH   1  23
TORSDOF 6
