REMARK  7 active torsions:
REMARK  status: ('A' for Active; 'I' for Inactive)
REMARK    1  A    between atoms: C1_4  and  N2_5 
REMARK    2  A    between atoms: C1_4  and  C15_23 
REMARK    3  A    between atoms: N2_5  and  C2_7 
REMARK    4  A    between atoms: C5_10  and  C6_11 
REMARK    5  A    between atoms: C18_26  and  N4_27 
REMARK    6  A    between atoms: N4_27  and  C19_29 
REMARK    7  A    between atoms: C19_29  and  C20_30 
ROOT
HETATM    1  N1  UNL     1       0.354   2.223   1.198  1.00  0.00    -0.385 N 
ATOM      2  H11 UNL     1       1.151   2.634   0.713  1.00  0.00     0.157 HD
ATOM      3  H12 UNL     1      -0.571   2.612   1.380  1.00  0.00     0.157 HD
HETATM    4  C1  UNL     1       0.569   0.965   1.538  1.00  0.00     0.110 C 
ENDROOT
BRANCH   4   5
HETATM    5  N2  UNL     1      -0.535   0.396   2.210  1.00  0.00    -0.342 N 
ATOM      6  H2  UNL     1      -0.385   0.001   3.138  1.00  0.00     0.167 HD
BRANCH   5   7
HETATM    7  C2  UNL     1      -1.867   0.345   1.650  1.00  0.00     0.033 A 
HETATM    8  C3  UNL     1      -2.134   0.713   0.352  1.00  0.00     0.030 A 
HETATM    9  C4  UNL     1      -3.439   0.656  -0.143  1.00  0.00     0.016 A 
HETATM   10  C5  UNL     1      -4.490   0.239   0.633  1.00  0.00    -0.002 A 
HETATM   11  C13 UNL     1      -4.226  -0.131   1.934  1.00  0.00     0.016 A 
HETATM   12  C14 UNL     1      -2.934  -0.081   2.441  1.00  0.00     0.030 A 
BRANCH  10  13
HETATM   13  C6  UNL     1      -5.862   0.175   0.126  1.00  0.00     0.085 A 
HETATM   14  N3  UNL     1      -6.267   0.493  -1.086  1.00  0.00    -0.349 N 
HETATM   15  C7  UNL     1      -7.533   0.386  -1.398  1.00  0.00     0.050 A 
ATOM     16  H3  UNL     1      -5.595   0.822  -1.780  1.00  0.00     0.166 HD
HETATM   17  C8  UNL     1      -8.103   0.691  -2.655  1.00  0.00     0.031 A 
HETATM   18  C12 UNL     1      -8.388  -0.061  -0.429  1.00  0.00     0.033 A 
HETATM   19  C9  UNL     1      -9.436   0.529  -2.831  1.00  0.00     0.002 A 
HETATM   20  C10 UNL     1     -10.322   0.084  -1.884  1.00  0.00     0.002 A 
HETATM   21  C11 UNL     1      -9.767  -0.218  -0.644  1.00  0.00     0.021 A 
HETATM   22  S1  UNL     1      -7.312  -0.302   0.885  1.00  0.00    -0.070 SA
ENDBRANCH  10  13
ENDBRANCH   5   7
ENDBRANCH   4   5
BRANCH   4  23
HETATM   23  C15 UNL     1       1.867   0.419   1.282  1.00  0.00     0.019 A 
HETATM   24  C16 UNL     1       2.907   1.319   0.961  1.00  0.00     0.018 A 
HETATM   25  C17 UNL     1       4.217   0.962   0.799  1.00  0.00     0.031 A 
HETATM   26  C18 UNL     1       4.584  -0.348   0.949  1.00  0.00     0.039 A 
HETATM   27  C25 UNL     1       3.611  -1.295   1.264  1.00  0.00     0.001 A 
HETATM   28  C26 UNL     1       3.977  -2.618   1.389  1.00  0.00     0.014 A 
HETATM   29  C30 UNL     1       2.278  -0.889   1.421  1.00  0.00    -0.010 A 
HETATM   30  C27 UNL     1       3.004  -3.554   1.671  1.00  0.00     0.001 A 
HETATM   31  C28 UNL     1       1.705  -3.198   1.826  1.00  0.00     0.001 A 
HETATM   32  C29 UNL     1       1.342  -1.853   1.698  1.00  0.00     0.013 A 
BRANCH  26  33
HETATM   33  N4  UNL     1       5.944  -0.697   0.806  1.00  0.00    -0.384 N 
ATOM     34  H4  UNL     1       6.246  -1.649   1.014  1.00  0.00     0.160 HD
BRANCH  33  35
HETATM   35  C19 UNL     1       6.921   0.292   0.363  1.00  0.00     0.176 C 
BRANCH  35  36
HETATM   36  C20 UNL     1       6.647   0.617  -1.065  1.00  0.00     0.026 A 
HETATM   37  C21 UNL     1       5.859  -0.208  -1.836  1.00  0.00     0.027 A 
HETATM   38  C22 UNL     1       5.634   0.152  -3.169  1.00  0.00     0.003 A 
HETATM   39  C23 UNL     1       6.180   1.294  -3.702  1.00  0.00     0.017 A 
HETATM   40  C24 UNL     1       6.973   2.107  -2.893  1.00  0.00     0.088 A 
HETATM   41  N5  UNL     1       7.179   1.747  -1.617  1.00  0.00    -0.368 N 
ATOM     42  H5  UNL     1       7.761   2.346  -1.031  1.00  0.00     0.165 HD
ENDBRANCH  35  36
ENDBRANCH  33  35
ENDBRANCH  26  33
ENDBRANCH   4  23
TORSDOF 7
