REMARK  8 active torsions:
REMARK  status: ('A' for Active; 'I' for Inactive)
REMARK    1  A    between atoms: O1_1  and  N1_3 
REMARK    2  A    between atoms: C1_5  and  O2_6 
REMARK    3  A    between atoms: C1_5  and  C2_8 
REMARK    4  A    between atoms: C7_17  and  O3_18 
REMARK    5  A    between atoms: O3_18  and  C8_19 
REMARK    6  A    between atoms: C11_22  and  C12_23 
REMARK    7  A    between atoms: C13_24  and  C14_25 
REMARK    8  A    between atoms: C13_24  and  C20_31 
ROOT
HETATM    1  C8  UNL     1       2.242  -1.694  -0.437  1.00  0.00     0.078 A 
HETATM    2  C9  UNL     1       1.800  -0.701  -1.299  1.00  0.00     0.038 A 
HETATM    3  C10 UNL     1       0.572  -0.099  -1.085  1.00  0.00     0.014 A 
HETATM    4  C11 UNL     1      -0.239  -0.452  -0.036  1.00  0.00    -0.035 A 
HETATM    5  C28 UNL     1       0.186  -1.431   0.822  1.00  0.00     0.014 A 
HETATM    6  C29 UNL     1       1.425  -2.047   0.618  1.00  0.00     0.038 A 
ENDROOT
BRANCH   1   7
HETATM    7  O3  UNL     1       3.463  -2.334  -0.604  1.00  0.00    -0.291 OA
BRANCH   7   8
HETATM    8  C7  UNL     1       4.301  -1.977  -1.661  1.00  0.00     0.190 A 
HETATM    9  N3  UNL     1       4.277  -2.658  -2.835  1.00  0.00    -0.278 N 
HETATM   10  N2  UNL     1       5.095  -2.273  -3.799  1.00  0.00    -0.309 N 
ATOM     11  H3  UNL     1       3.644  -3.446  -2.970  1.00  0.00     0.189 HD
HETATM   12  C6  UNL     1       5.944  -1.245  -3.669  1.00  0.00     0.121 A 
ATOM     13  H2  UNL     1       5.079  -2.782  -4.683  1.00  0.00     0.186 HD
HETATM   14  C5  UNL     1       5.987  -0.532  -2.478  1.00  0.00     0.012 A 
HETATM   15  C4  UNL     1       6.848   0.523  -2.311  1.00  0.00     0.018 A 
HETATM   16  C30 UNL     1       5.147  -0.906  -1.449  1.00  0.00     0.098 A 
HETATM   17  C3  UNL     1       6.832   1.170  -1.100  1.00  0.00     0.035 A 
HETATM   18  C2  UNL     1       6.002   0.813  -0.060  1.00  0.00     0.086 A 
HETATM   19  N5  UNL     1       5.174  -0.232  -0.279  1.00  0.00    -0.349 N 
ATOM     20  H5  UNL     1       4.544  -0.523   0.469  1.00  0.00     0.166 HD
BRANCH  18  21
HETATM   21  C1  UNL     1       6.033   1.531   1.205  1.00  0.00     0.187 C 
HETATM   22  N1  UNL     1       5.278   1.234   2.200  1.00  0.00    -0.246 N 
ATOM     23  H1  UNL     1       4.622   0.458   2.105  1.00  0.00     0.196 HD
BRANCH  22  24
HETATM   24  O1  UNL     1       5.320   1.922   3.389  1.00  0.00    -0.288 OA
ATOM     25  H1  UNL     1       4.761   1.702   4.125  1.00  0.00     0.244 HD
ENDBRANCH  22  24
BRANCH  21  26
HETATM   26  O2  UNL     1       6.918   2.585   1.345  1.00  0.00    -0.343 OA
ATOM     27  H2  UNL     1       7.477   2.805   0.609  1.00  0.00     0.219 HD
ENDBRANCH  21  26
ENDBRANCH  18  21
ENDBRANCH   7   8
ENDBRANCH   1   7
BRANCH   4  28
HETATM   28  C12 UNL     1      -1.477   0.253   0.184  1.00  0.00     0.026 C 
HETATM   29  C13 UNL     1      -2.693  -0.180   0.300  1.00  0.00     0.002 C 
BRANCH  29  30
HETATM   30  C14 UNL     1      -3.059  -1.567   0.210  1.00  0.00    -0.024 A 
HETATM   31  C15 UNL     1      -2.470  -2.523  -0.589  1.00  0.00     0.012 A 
HETATM   32  C16 UNL     1      -2.776  -3.865  -0.544  1.00  0.00     0.001 A 
HETATM   33  C17 UNL     1      -3.717  -4.335   0.330  1.00  0.00     0.000 A 
HETATM   34  C18 UNL     1      -4.325  -3.411   1.142  1.00  0.00     0.001 A 
HETATM   35  C19 UNL     1      -4.017  -2.077   1.095  1.00  0.00     0.012 A 
ENDBRANCH  29  30
BRANCH  29  36
HETATM   36  C20 UNL     1      -3.769   0.825   0.506  1.00  0.00     0.044 A 
HETATM   37  C21 UNL     1      -5.131   0.661   0.430  1.00  0.00     0.044 A 
HETATM   38  C22 UNL     1      -5.778   1.840   0.735  1.00  0.00    -0.007 A 
HETATM   39  C23 UNL     1      -7.088   2.241   0.814  1.00  0.00     0.014 A 
HETATM   40  C27 UNL     1      -4.787   2.755   1.005  1.00  0.00     0.043 A 
HETATM   41  C24 UNL     1      -7.446   3.533   1.156  1.00  0.00     0.001 A 
HETATM   42  C25 UNL     1      -6.415   4.410   1.417  1.00  0.00     0.002 A 
HETATM   43  C26 UNL     1      -5.098   4.059   1.352  1.00  0.00     0.030 A 
HETATM   44  N4  UNL     1      -3.601   2.113   0.859  1.00  0.00    -0.355 N 
ATOM     45  H4  UNL     1      -2.692   2.553   1.000  1.00  0.00     0.166 HD
ENDBRANCH  29  36
ENDBRANCH   4  28
TORSDOF 8
