REMARK  1 active torsions:
REMARK  status: ('A' for Active; 'I' for Inactive)
REMARK    1  A    between atoms: N1_2  and  C2_4 
ROOT
HETATM    1  C2  UNL     1       0.732  -0.664  -0.183  1.00  0.00     0.128 C 
HETATM    2  C3  UNL     1       0.166   0.541   0.456  1.00  0.00     0.262 C 
HETATM    3  N2  UNL     1      -1.139   0.203  -0.063  1.00  0.00    -0.071 N 
HETATM    4  C4  UNL     1      -2.023  -0.480   0.875  1.00  0.00     0.272 C 
HETATM    5  C5  UNL     1      -1.855   1.330  -0.633  1.00  0.00     0.272 C 
HETATM    6  C6  UNL     1      -0.529  -0.676  -1.009  1.00  0.00     0.262 C 
ENDROOT
BRANCH   1   7
HETATM    7  N1  UNL     1       1.953  -0.520  -0.921  1.00  0.00    -0.418 N 
HETATM    8  C1  UNL     1       3.078  -0.105  -0.174  1.00  0.00     0.140 C 
ATOM      9  H1  UNL     1       2.006  -0.706  -1.923  1.00  0.00     0.153 HD
ENDBRANCH   1   7
TORSDOF 1
