REMARK  1 active torsions:
REMARK  status: ('A' for Active; 'I' for Inactive)
REMARK    1  A    between atoms: C2_2  and  N1_3 
ROOT
HETATM    1  N1  UNL     1       0.098  -0.087   0.343  1.00  0.00     0.006 N 
HETATM    2  C3  UNL     1       0.586   0.251   1.662  1.00  0.00     0.297 C 
HETATM    3  C4  UNL     1      -1.140  -0.791   0.454  1.00  0.00     0.261 C 
HETATM    4  C5  UNL     1      -2.094  -0.102  -0.514  1.00  0.00     0.047 C 
HETATM    5  C6  UNL     1      -1.491   1.302  -0.539  1.00  0.00     0.144 C 
HETATM    6  N2  UNL     1      -0.090   1.019  -0.470  1.00  0.00    -0.047 NA
ENDROOT
BRANCH   1   7
HETATM    7  C2  UNL     1       1.124  -0.951  -0.261  1.00  0.00     0.255 C 
HETATM    8  C1  UNL     1       2.221  -0.108  -0.826  1.00  0.00     0.036 C 
ENDBRANCH   1   7
TORSDOF 1
