REMARK  10 active torsions:
REMARK  status: ('A' for Active; 'I' for Inactive)
REMARK    1  A    between atoms: C1_2  and  C2_3 
REMARK       I    between atoms: C1_2  and  N1_11 
REMARK    2  A    between atoms: C2_3  and  C3_4 
REMARK    3  A    between atoms: N1_11  and  C7_13 
REMARK    4  A    between atoms: C8_14  and  O4_15 
REMARK    5  A    between atoms: C9_17  and  C10_18 
REMARK    6  A    between atoms: C10_18  and  O5_19 
REMARK    7  A    between atoms: C11_22  and  C12_23 
REMARK    8  A    between atoms: C12_23  and  N2_24 
REMARK       I    between atoms: N2_24  and  C13_26 
REMARK    9  A    between atoms: C13_26  and  C14_28 
REMARK   10  A    between atoms: C20_34  and  O8_35 
ROOT
HETATM    1  C7  UNL     1       0.699  -0.890  -0.747  1.00  0.00     0.147 C 
HETATM    2  C8  UNL     1       0.095  -1.837  -1.742  1.00  0.00     0.174 C 
HETATM    3  C9  UNL     1      -1.381  -1.526  -1.815  1.00  0.00     0.176 C 
HETATM    4  O6  UNL     1      -2.047  -1.492  -0.650  1.00  0.00    -0.371 OA
HETATM    5  C11 UNL     1      -1.504  -0.987   0.476  1.00  0.00     0.170 C 
HETATM    6  C20 UNL     1      -0.007  -0.979   0.559  1.00  0.00     0.174 C 
ENDROOT
BRANCH   1   7
HETATM    7  N1  UNL     1       2.109  -1.152  -0.518  1.00  0.00    -0.351 N 
HETATM    8  C1  UNL     1       3.126  -0.212  -0.759  1.00  0.00     0.220 C 
HETATM    9  O1  UNL     1       2.851   0.919  -1.193  1.00  0.00    -0.274 OA
ATOM     10  H1  UNL     1       2.376  -2.070  -0.162  1.00  0.00     0.163 HD
BRANCH   8  11
HETATM   11  C2  UNL     1       4.533  -0.553  -0.502  1.00  0.00     0.137 C 
BRANCH  11  12
HETATM   12  C3  UNL     1       5.452   0.627  -0.839  1.00  0.00     0.154 C 
HETATM   13  C4  UNL     1       5.065   1.773   0.006  1.00  0.00     0.201 C 
HETATM   14  O2  UNL     1       6.088   2.335   0.751  1.00  0.00    -0.370 OA
HETATM   15  C5  UNL     1       7.211   2.399  -0.046  1.00  0.00     0.217 C 
HETATM   16  S1  UNL     1       6.896   3.168  -1.656  1.00  0.00    -0.061 SA
HETATM   17  C6  UNL     1       7.676   0.995  -0.270  1.00  0.00     0.212 C 
HETATM   18  O3  UNL     1       6.724   0.189  -0.789  1.00  0.00    -0.380 OA
ENDBRANCH  11  12
ENDBRANCH   8  11
ENDBRANCH   1   7
BRANCH   2  19
HETATM   19  O4  UNL     1       0.622  -1.566  -3.024  1.00  0.00    -0.391 OA
ATOM     20  H4  UNL     1       0.240  -2.166  -3.654  1.00  0.00     0.210 HD
ENDBRANCH   2  19
BRANCH   6  21
HETATM   21  O8  UNL     1       0.465  -2.121   1.224  1.00  0.00    -0.391 OA
ATOM     22  H8  UNL     1       0.014  -2.178   2.058  1.00  0.00     0.210 HD
ENDBRANCH   6  21
BRANCH   3  23
HETATM   23  C10 UNL     1      -1.637  -0.329  -2.735  1.00  0.00     0.198 C 
BRANCH  23  24
HETATM   24  O5  UNL     1      -2.994  -0.299  -3.025  1.00  0.00    -0.398 OA
ATOM     25  H5  UNL     1      -3.153   0.444  -3.596  1.00  0.00     0.209 HD
ENDBRANCH  23  24
ENDBRANCH   3  23
BRANCH   5  26
HETATM   26  C12 UNL     1      -1.998   0.415   0.730  1.00  0.00     0.157 C 
BRANCH  26  27
HETATM   27  N2  UNL     1      -3.428   0.538   0.884  1.00  0.00    -0.354 N 
HETATM   28  C13 UNL     1      -4.108  -0.100   1.935  1.00  0.00     0.251 C 
HETATM   29  O7  UNL     1      -3.485  -0.785   2.768  1.00  0.00    -0.268 OA
ATOM     30  H2  UNL     1      -3.956   1.100   0.216  1.00  0.00     0.162 HD
BRANCH  28  31
HETATM   31  C14 UNL     1      -5.548   0.028   2.066  1.00  0.00     0.032 A 
HETATM   32  C15 UNL     1      -6.379   0.660   1.177  1.00  0.00     0.017 A 
HETATM   33  C16 UNL     1      -7.758   0.750   1.366  1.00  0.00     0.001 A 
HETATM   34  C17 UNL     1      -8.357   0.198   2.473  1.00  0.00     0.000 A 
HETATM   35  C18 UNL     1      -7.534  -0.441   3.375  1.00  0.00     0.001 A 
HETATM   36  C19 UNL     1      -6.174  -0.529   3.189  1.00  0.00     0.017 A 
ENDBRANCH  28  31
ENDBRANCH  26  27
ENDBRANCH   5  26
TORSDOF 10
