REMARK  13 active torsions:
REMARK  status: ('A' for Active; 'I' for Inactive)
REMARK    1  A    between atoms: C3_5  and  N2_6 
REMARK    2  A    between atoms: C5_13  and  C6_14 
REMARK    3  A    between atoms: C6_14  and  C7_16 
REMARK    4  A    between atoms: N5_19  and  C8_20 
REMARK    5  A    between atoms: C8_20  and  C9_21 
REMARK    6  A    between atoms: C9_21  and  C10_22 
REMARK    7  A    between atoms: C10_22  and  N6_23 
REMARK    8  A    between atoms: C13_30  and  C14_31 
REMARK    9  A    between atoms: C15_34  and  C16_35 
REMARK   10  A    between atoms: C17_38  and  C18_39 
REMARK   11  A    between atoms: N9_44  and  C20_45 
REMARK   12  A    between atoms: C22_48  and  C23_49 
REMARK   13  A    between atoms: C23_49  and  O12_50 
ROOT
HETATM    1  C7  UNL     1      -2.701  -0.039  -0.259  1.00  0.00     0.180 A 
HETATM    2  N4  UNL     1      -1.592  -0.696   0.055  1.00  0.00    -0.272 N 
ATOM      3  H4  UNL     1      -1.361  -1.628  -0.290  1.00  0.00     0.189 HD
HETATM    4  N5  UNL     1      -0.809   0.018   0.884  1.00  0.00    -0.219 N 
HETATM    5  C19 UNL     1      -1.496   1.178   1.064  1.00  0.00     0.350 A 
HETATM    6  O11 UNL     1      -1.079   2.127   1.783  1.00  0.00    -0.244 OA
HETATM    7  N9  UNL     1      -2.653   1.145   0.372  1.00  0.00    -0.264 N 
ENDROOT
BRANCH   4   8
HETATM    8  C8  UNL     1       0.387  -0.433   1.517  1.00  0.00     0.096 C 
BRANCH   8   9
HETATM    9  C9  UNL     1       1.730  -0.238   1.048  1.00  0.00     0.067 C 
BRANCH   9  10
HETATM   10  C10 UNL     1       2.142  -0.781  -0.308  1.00  0.00     0.144 C 
BRANCH  10  11
HETATM   11  N6  UNL     1       3.610  -0.667  -0.404  1.00  0.00    -0.248 N 
HETATM   12  C11 UNL     1       4.440  -1.676   0.020  1.00  0.00     0.352 A 
HETATM   13  O3  UNL     1       3.985  -2.755   0.470  1.00  0.00    -0.244 OA
HETATM   14  N7  UNL     1       5.722  -1.299  -0.136  1.00  0.00    -0.190 N 
HETATM   15  N8  UNL     1       5.705  -0.098  -0.638  1.00  0.00    -0.211 N 
HETATM   16  C17 UNL     1       7.104  -1.702   0.047  1.00  0.00     0.153 A 
HETATM   17  C12 UNL     1       4.404   0.301  -0.809  1.00  0.00     0.349 A 
HETATM   18  C13 UNL     1       7.039   0.393  -0.814  1.00  0.00     0.257 A 
HETATM   19  O4  UNL     1       4.054   1.402  -1.274  1.00  0.00    -0.245 OA
HETATM   20  C15 UNL     1       7.912  -0.735  -0.345  1.00  0.00     0.089 A 
BRANCH  18  21
HETATM   21  C14 UNL     1       7.238   1.574   0.099  1.00  0.00     0.204 C 
HETATM   22  O5  UNL     1       6.336   1.768   0.981  1.00  0.00    -0.646 OA
HETATM   23  O6  UNL     1       8.290   2.429   0.051  1.00  0.00    -0.646 OA
ENDBRANCH  18  21
BRANCH  20  24
HETATM   24  C16 UNL     1       9.346  -0.638  -0.367  1.00  0.00     0.210 C 
HETATM   25  O7  UNL     1       9.912   0.418  -0.819  1.00  0.00    -0.644 OA
HETATM   26  O8  UNL     1      10.228  -1.598   0.065  1.00  0.00    -0.644 OA
ENDBRANCH  20  24
BRANCH  16  27
HETATM   27  C18 UNL     1       7.482  -2.990   0.584  1.00  0.00     0.230 C 
HETATM   28  O9  UNL     1       8.616  -3.449   0.784  1.00  0.00    -0.643 OA
HETATM   29  O10 UNL     1       6.460  -3.892   0.948  1.00  0.00    -0.643 OA
ENDBRANCH  16  27
ENDBRANCH  10  11
ENDBRANCH   9  10
ENDBRANCH   8   9
ENDBRANCH   4   8
BRANCH   1  30
HETATM   30  C6  UNL     1      -3.765  -0.615  -1.104  1.00  0.00     0.235 C 
HETATM   31  O2  UNL     1      -3.683  -0.396  -2.350  1.00  0.00    -0.283 OA
BRANCH  30  32
HETATM   32  C5  UNL     1      -4.869  -1.394  -0.621  1.00  0.00     0.109 A 
HETATM   33  C2  UNL     1      -4.813  -2.616  -0.004  1.00  0.00     0.042 A 
HETATM   34  C1  UNL     1      -3.525  -3.317   0.218  1.00  0.00     0.070 C 
HETATM   35  N1  UNL     1      -5.927  -3.245   0.421  1.00  0.00    -0.195 N 
HETATM   36  C3  UNL     1      -7.149  -2.728   0.272  1.00  0.00     0.679 A 
ATOM     37  H1  UNL     1      -5.832  -4.153   0.875  1.00  0.00     0.184 HD
HETATM   38  N3  UNL     1      -7.242  -1.530  -0.330  1.00  0.00    -0.155 N 
HETATM   39  C4  UNL     1      -6.156  -0.855  -0.776  1.00  0.00     0.276 A 
ATOM     40  H3  UNL     1      -8.165  -1.114  -0.456  1.00  0.00     0.187 HD
HETATM   41  O1  UNL     1      -6.374   0.252  -1.322  1.00  0.00    -0.267 OA
BRANCH  36  42
HETATM   42  N2  UNL     1      -8.189  -3.375   0.695  1.00  0.00    -0.234 N 
ATOM     43  H22 UNL     1      -8.118  -4.284   1.152  1.00  0.00     0.174 HD
ATOM     44  H21 UNL     1      -9.123  -2.980   0.581  1.00  0.00     0.174 HD
ENDBRANCH  36  42
ENDBRANCH  30  32
ENDBRANCH   1  30
BRANCH   7  45
HETATM   45  C20 UNL     1      -3.678   2.115   0.360  1.00  0.00     0.168 C 
HETATM   46  C21 UNL     1      -3.495   3.263   1.334  1.00  0.00     0.112 C 
HETATM   47  S1  UNL     1      -5.121   4.103   1.153  1.00  0.00    -0.149 SA
HETATM   48  C22 UNL     1      -5.476   3.957  -0.647  1.00  0.00     0.134 C 
HETATM   49  S2  UNL     1      -3.969   3.021  -1.169  1.00  0.00    -0.125 SA
BRANCH  48  50
HETATM   50  C23 UNL     1      -5.548   5.302  -1.286  1.00  0.00     0.190 C 
BRANCH  50  51
HETATM   51  O12 UNL     1      -6.590   5.994  -0.637  1.00  0.00    -0.399 OA
ATOM     52  H12 UNL     1      -6.636   6.851  -1.044  1.00  0.00     0.209 HD
ENDBRANCH  50  51
ENDBRANCH  48  50
ENDBRANCH   7  45
TORSDOF 13
