REMARK  18 active torsions:
REMARK  status: ('A' for Active; 'I' for Inactive)
REMARK    1  A    between atoms: N1_1  and  N2_4 
REMARK    2  A    between atoms: N2_4  and  C1_6 
REMARK    3  A    between atoms: N5_13  and  C4_14 
REMARK    4  A    between atoms: C4_14  and  C5_15 
REMARK    5  A    between atoms: C4_14  and  C6_18 
REMARK    6  A    between atoms: C5_15  and  O1_16 
REMARK    7  A    between atoms: C6_18  and  S1_19 
REMARK    8  A    between atoms: S1_19  and  S2_20 
REMARK    9  A    between atoms: S2_20  and  C7_21 
REMARK   10  A    between atoms: C9_23  and  S3_24 
REMARK   11  A    between atoms: C11_29  and  S4_30 
REMARK   12  A    between atoms: C12_34  and  S5_35 
REMARK   13  A    between atoms: S5_35  and  N6_36 
REMARK   14  A    between atoms: N7_42  and  C14_43 
REMARK   15  A    between atoms: C14_43  and  O10_44 
REMARK   16  A    between atoms: O10_44  and  C15_45 
REMARK   17  A    between atoms: C15_45  and  C16_47 
REMARK   18  A    between atoms: C16_47  and  O12_48 
ROOT
HETATM    1  C4  UNL     1       1.350  -1.030   0.476  1.00  0.00     0.126 C 
ENDROOT
BRANCH   1   2
HETATM    2  N5  UNL     1       2.155  -1.392  -0.664  1.00  0.00    -0.318 N 
HETATM    3  C3  UNL     1       1.700  -1.787  -1.878  1.00  0.00     0.186 A 
HETATM    4  N4  UNL     1       2.696  -2.057  -2.707  1.00  0.00    -0.335 N 
HETATM    5  C2  UNL     1       3.831  -1.838  -2.033  1.00  0.00     0.168 A 
ATOM      6  H4  UNL     1       2.614  -2.372  -3.674  1.00  0.00     0.168 HD
HETATM    7  N3  UNL     1       5.167  -1.882  -2.163  1.00  0.00    -0.171 N 
HETATM    8  C13 UNL     1       3.490  -1.419  -0.747  1.00  0.00     0.179 A 
HETATM    9  C1  UNL     1       5.702  -1.502  -0.993  1.00  0.00     0.707 A 
ATOM     10  H3  UNL     1       5.682  -2.155  -3.000  1.00  0.00     0.186 HD
HETATM   11  N7  UNL     1       4.700  -1.218  -0.128  1.00  0.00    -0.117 N 
BRANCH   9  12
HETATM   12  N2  UNL     1       6.975  -1.448  -0.700  1.00  0.00    -0.138 N 
ATOM     13  H2  UNL     1       7.290  -1.145   0.221  1.00  0.00     0.205 HD
BRANCH  12  14
HETATM   14  N1  UNL     1       7.888  -1.818  -1.687  1.00  0.00    -0.331 N 
ATOM     15  H12 UNL     1       7.557  -2.119  -2.604  1.00  0.00     0.177 HD
ATOM     16  H11 UNL     1       8.881  -1.776  -1.458  1.00  0.00     0.177 HD
ENDBRANCH  12  14
ENDBRANCH   9  12
BRANCH  11  17
HETATM   17  C14 UNL     1       4.779  -0.726   1.226  1.00  0.00     0.264 C 
BRANCH  17  18
HETATM   18  O10 UNL     1       4.614   0.606   1.452  1.00  0.00    -0.271 OA
BRANCH  18  19
HETATM   19  C15 UNL     1       5.236   1.725   1.079  1.00  0.00     0.288 C 
HETATM   20  O11 UNL     1       6.238   1.658   0.340  1.00  0.00    -0.262 OA
BRANCH  19  21
HETATM   21  C16 UNL     1       4.827   3.109   1.483  1.00  0.00     0.275 C 
BRANCH  21  22
HETATM   22  O12 UNL     1       3.717   3.142   2.290  1.00  0.00    -0.391 OA
ATOM     23  H12 UNL     1       3.458   4.019   2.546  1.00  0.00     0.210 HD
ENDBRANCH  21  22
ENDBRANCH  19  21
ENDBRANCH  18  19
ENDBRANCH  17  18
ENDBRANCH  11  17
ENDBRANCH   1   2
BRANCH   1  24
HETATM   24  C5  UNL     1       0.643  -2.184   1.098  1.00  0.00     0.190 C 
BRANCH  24  25
HETATM   25  O1  UNL     1       1.549  -3.149   1.578  1.00  0.00    -0.399 OA
ATOM     26  H1  UNL     1       1.098  -3.885   1.975  1.00  0.00     0.209 HD
ENDBRANCH  24  25
ENDBRANCH   1  24
BRANCH   1  27
HETATM   27  C6  UNL     1       0.479   0.133   0.165  1.00  0.00     0.114 C 
BRANCH  27  28
HETATM   28  S1  UNL     1      -0.596   0.708   1.437  1.00  0.00    -0.090 SA
BRANCH  28  29
HETATM   29  S2  UNL     1      -2.441  -0.234   1.698  1.00  0.00    -0.056 SA
BRANCH  29  30
HETATM   30  C7  UNL     1      -3.748   0.642   0.801  1.00  0.00     0.038 A 
HETATM   31  C8  UNL     1      -4.176   1.862   1.366  1.00  0.00     0.047 A 
HETATM   32  C9  UNL     1      -5.163   2.596   0.763  1.00  0.00     0.083 A 
HETATM   33  C10 UNL     1      -5.692   2.086  -0.389  1.00  0.00     0.054 A 
HETATM   34  C11 UNL     1      -5.287   0.877  -0.970  1.00  0.00     0.106 A 
HETATM   35  C12 UNL     1      -4.278   0.134  -0.343  1.00  0.00     0.121 A 
BRANCH  32  36
HETATM   36  S3  UNL     1      -5.724   4.122   1.441  1.00  0.00     0.137 S 
HETATM   37  O2  UNL     1      -6.227   4.995   0.351  1.00  0.00    -0.591 OA
HETATM   38  O3  UNL     1      -4.613   4.793   2.204  1.00  0.00    -0.591 OA
HETATM   39  O4  UNL     1      -7.006   3.795   2.500  1.00  0.00    -0.591 OA
ENDBRANCH  32  36
BRANCH  34  40
HETATM   40  S4  UNL     1      -5.994   0.331  -2.455  1.00  0.00     0.139 S 
HETATM   41  O5  UNL     1      -7.198   1.270  -2.711  1.00  0.00    -0.591 OA
HETATM   42  O6  UNL     1      -5.115   0.573  -3.659  1.00  0.00    -0.591 OA
HETATM   43  O7  UNL     1      -6.652  -1.187  -2.396  1.00  0.00    -0.591 OA
ENDBRANCH  34  40
BRANCH  35  44
HETATM   44  S5  UNL     1      -3.851  -1.415  -0.994  1.00  0.00     0.259 S 
HETATM   45  O8  UNL     1      -2.535  -1.810  -0.390  1.00  0.00    -0.201 OA
HETATM   46  O9  UNL     1      -3.673  -1.470  -2.458  1.00  0.00    -0.201 OA
BRANCH  44  47
HETATM   47  N6  UNL     1      -4.979  -2.613  -0.403  1.00  0.00    -0.324 N 
ATOM     48  H62 UNL     1      -5.759  -2.416   0.224  1.00  0.00     0.169 HD
ATOM     49  H61 UNL     1      -4.728  -3.524  -0.786  1.00  0.00     0.169 HD
ENDBRANCH  44  47
ENDBRANCH  35  44
ENDBRANCH  29  30
ENDBRANCH  28  29
ENDBRANCH  27  28
ENDBRANCH   1  27
TORSDOF 18
