REMARK  21 active torsions:
REMARK  status: ('A' for Active; 'I' for Inactive)
REMARK    1  A    between atoms: C2_2  and  O1_3 
REMARK    2  A    between atoms: O1_3  and  C3_4 
REMARK    3  A    between atoms: C3_4  and  C4_6 
REMARK    4  A    between atoms: C4_6  and  C5_7 
REMARK    5  A    between atoms: C6_8  and  O3_9 
REMARK    6  A    between atoms: C9_13  and  C10_14 
REMARK    7  A    between atoms: C10_14  and  O4_15 
REMARK    8  A    between atoms: C10_14  and  O5_17 
REMARK    9  A    between atoms: C12_19  and  O6_20 
REMARK   10  A    between atoms: C13_22  and  O7_23 
REMARK   11  A    between atoms: C14_25  and  C15_26 
REMARK       I    between atoms: C15_26  and  N1_28 
REMARK   12  A    between atoms: N1_28  and  C16_30 
REMARK   13  A    between atoms: C16_30  and  C17_31 
REMARK   14  A    between atoms: C16_30  and  C18_36 
REMARK   15  A    between atoms: C17_31  and  N2_32 
REMARK   16  A    between atoms: C22_43  and  O12_44 
REMARK   17  A    between atoms: C22_43  and  C23_46 
REMARK   18  A    between atoms: C23_46  and  O14_48 
REMARK   19  A    between atoms: O14_48  and  C24_49 
REMARK   20  A    between atoms: C24_49  and  C25_50 
REMARK   21  A    between atoms: C25_50  and  O16_52 
ROOT
HETATM    1  C5  UNL     1       2.404  -2.076   1.417  1.00  0.00     0.019 A 
HETATM    2  C6  UNL     1       2.839  -1.126   0.487  1.00  0.00     0.089 A 
HETATM    3  C7  UNL     1       1.919  -0.191   0.040  1.00  0.00     0.054 A 
HETATM    4  C8  UNL     1       0.605  -0.128   0.441  1.00  0.00     0.012 A 
HETATM    5  C9  UNL     1       0.181  -1.071   1.375  1.00  0.00     0.066 A 
HETATM    6  C12 UNL     1       1.128  -2.029   1.829  1.00  0.00     0.090 A 
HETATM    7  C13 UNL     1      -0.369   0.835  -0.182  1.00  0.00     0.107 C 
HETATM    8  C14 UNL     1      -1.336   0.086  -0.990  1.00  0.00     0.128 C 
HETATM    9  C19 UNL     1      -1.855   0.714  -2.284  1.00  0.00     0.071 C 
HETATM   10  C20 UNL     1      -3.380   0.697  -2.347  1.00  0.00     0.019 C 
HETATM   11  C21 UNL     1      -1.410   2.076  -2.525  1.00  0.00     0.176 C 
HETATM   12  O11 UNL     1      -2.189   2.920  -2.999  1.00  0.00    -0.294 OA
HETATM   13  C22 UNL     1      -0.028   2.389  -2.184  1.00  0.00     0.213 C 
HETATM   14  C27 UNL     1       0.230   2.066  -0.758  1.00  0.00     0.085 C 
HETATM   15  C28 UNL     1       1.755   2.194  -0.612  1.00  0.00     0.096 C 
HETATM   16  C29 UNL     1       2.382   0.875  -0.878  1.00  0.00     0.163 C 
HETATM   17  O17 UNL     1       3.205   0.618  -1.750  1.00  0.00    -0.292 OA
ENDROOT
BRANCH   8  18
HETATM   18  C15 UNL     1      -1.010  -1.312  -1.385  1.00  0.00     0.226 C 
HETATM   19  O8  UNL     1       0.082  -1.776  -1.709  1.00  0.00    -0.273 OA
HETATM   20  N1  UNL     1      -2.066  -2.312  -1.420  1.00  0.00    -0.344 N 
ATOM     21  H1  UNL     1      -3.010  -2.025  -1.163  1.00  0.00     0.163 HD
BRANCH  20  22
HETATM   22  C16 UNL     1      -1.854  -3.673  -1.794  1.00  0.00     0.211 C 
BRANCH  22  23
HETATM   23  C17 UNL     1      -1.941  -4.517  -0.511  1.00  0.00     0.265 C 
BRANCH  23  24
HETATM   24  N2  UNL     1      -3.228  -4.372   0.113  1.00  0.00    -0.077 N 
ATOM     25  H23 UNL     1      -3.452  -3.393   0.290  1.00  0.00     0.274 HD
ATOM     26  H22 UNL     1      -3.987  -4.590  -0.533  1.00  0.00     0.274 HD
ATOM     27  H21 UNL     1      -3.286  -4.932   0.964  1.00  0.00     0.274 HD
ENDBRANCH  23  24
ENDBRANCH  22  23
BRANCH  22  28
HETATM   28  C18 UNL     1      -2.798  -4.191  -2.790  1.00  0.00     0.198 C 
HETATM   29  O9  UNL     1      -3.713  -3.428  -3.244  1.00  0.00    -0.646 OA
HETATM   30  O10 UNL     1      -2.730  -5.481  -3.257  1.00  0.00    -0.646 OA
ENDBRANCH  22  28
ENDBRANCH  20  22
ENDBRANCH   8  18
BRANCH   7  31
HETATM   31  O7  UNL     1      -1.007   1.371   0.984  1.00  0.00    -0.383 OA
ATOM     32  H7  UNL     1      -1.622   1.979   0.591  1.00  0.00     0.211 HD
ENDBRANCH   7  31
BRANCH   5  33
HETATM   33  C10 UNL     1      -1.097  -1.161   1.995  1.00  0.00     0.191 C 
BRANCH  33  34
HETATM   34  O4  UNL     1      -1.226  -2.105   2.885  1.00  0.00    -0.340 OA
ATOM     35  H4  UNL     1      -2.079  -2.165   3.299  1.00  0.00     0.220 HD
ENDBRANCH  33  34
BRANCH  33  36
HETATM   36  O5  UNL     1      -2.250  -0.495   1.896  1.00  0.00    -0.335 OA
HETATM   37  C11 UNL     1      -3.416  -0.776   2.636  1.00  0.00     0.212 C 
ENDBRANCH  33  36
ENDBRANCH   5  33
BRANCH  13  38
HETATM   38  O12 UNL     1       0.938   1.877  -3.044  1.00  0.00    -0.372 OA
ATOM     39  H12 UNL     1       1.839   2.081  -2.822  1.00  0.00     0.211 HD
ENDBRANCH  13  38
BRANCH  13  40
HETATM   40  C23 UNL     1       0.092   3.893  -2.323  1.00  0.00     0.302 C 
HETATM   41  O13 UNL     1       1.031   4.384  -2.980  1.00  0.00    -0.261 OA
BRANCH  40  42
HETATM   42  O14 UNL     1      -0.858   4.652  -1.712  1.00  0.00    -0.309 OA
BRANCH  42  43
HETATM   43  C24 UNL     1      -0.854   6.044  -1.774  1.00  0.00     0.289 C 
BRANCH  43  44
HETATM   44  C25 UNL     1      -2.061   6.524  -1.043  1.00  0.00     0.282 C 
HETATM   45  O15 UNL     1      -2.863   5.687  -0.507  1.00  0.00    -0.263 OA
BRANCH  44  46
HETATM   46  O16 UNL     1      -2.394   7.862  -0.896  1.00  0.00    -0.325 OA
HETATM   47  C26 UNL     1      -3.576   8.227  -0.179  1.00  0.00     0.213 C 
ENDBRANCH  44  46
ENDBRANCH  43  44
ENDBRANCH  42  43
ENDBRANCH  40  42
ENDBRANCH  13  40
BRANCH   2  48
HETATM   48  O3  UNL     1       4.128  -1.158   0.064  1.00  0.00    -0.359 OA
ATOM     49  H3  UNL     1       4.423  -0.513  -0.568  1.00  0.00     0.217 HD
ENDBRANCH   2  48
BRANCH   6  50
HETATM   50  O6  UNL     1       0.737  -3.002   2.769  1.00  0.00    -0.359 OA
ATOM     51  H6  UNL     1      -0.166  -2.969   3.061  1.00  0.00     0.217 HD
ENDBRANCH   6  50
BRANCH   1  52
HETATM   52  C4  UNL     1       3.412  -3.064   1.839  1.00  0.00     0.155 C 
BRANCH  52  53
HETATM   53  C3  UNL     1       4.387  -2.533   2.827  1.00  0.00     0.263 C 
HETATM   54  O2  UNL     1       4.296  -1.348   3.202  1.00  0.00    -0.265 OA
BRANCH  53  55
HETATM   55  O1  UNL     1       5.390  -3.327   3.331  1.00  0.00    -0.322 OA
BRANCH  55  56
HETATM   56  C2  UNL     1       6.347  -2.905   4.257  1.00  0.00     0.174 C 
HETATM   57  C1  UNL     1       7.208  -1.770   3.773  1.00  0.00     0.034 C 
ENDBRANCH  55  56
ENDBRANCH  53  55
ENDBRANCH  52  53
ENDBRANCH   1  52
TORSDOF 21
