REMARK  13 active torsions:
REMARK  status: ('A' for Active; 'I' for Inactive)
REMARK    1  A    between atoms: C2_2  and  S1_3 
REMARK    2  A    between atoms: S1_3  and  C3_4 
REMARK    3  A    between atoms: C4_9  and  S2_10 
REMARK    4  A    between atoms: S2_10  and  C5_11 
REMARK    5  A    between atoms: C5_11  and  C6_12 
REMARK    6  A    between atoms: C6_12  and  N3_13 
REMARK       I    between atoms: N3_13  and  C7_15 
REMARK    7  A    between atoms: C7_15  and  C8_17 
REMARK    8  A    between atoms: C10_22  and  O3_23 
REMARK    9  A    between atoms: C11_28  and  C12_29 
REMARK   10  A    between atoms: C14_35  and  C15_36 
REMARK   11  A    between atoms: C16_39  and  N8_40 
REMARK   12  A    between atoms: N8_40  and  C18_42 
REMARK   13  A    between atoms: C22_48  and  N11_49 
ROOT
HETATM    1  C8  UNL     1      -0.706  -0.946   0.633  1.00  0.00     0.269 C 
HETATM    2  O2  UNL     1      -1.814  -1.276   1.444  1.00  0.00    -0.328 OA
HETATM    3  C9  UNL     1      -2.600  -2.230   0.797  1.00  0.00     0.338 C 
HETATM    4  N4  UNL     1      -3.900  -2.284   1.355  1.00  0.00    -0.332 N 
ATOM      5  H4  UNL     1      -4.239  -1.594   2.025  1.00  0.00     0.161 HD
HETATM    6  C10 UNL     1      -4.703  -3.383   0.905  1.00  0.00     0.426 C 
HETATM    7  N5  UNL     1      -4.134  -4.205  -0.112  1.00  0.00    -0.011 N 
ATOM      8  H51 UNL     1      -4.569  -5.127  -0.119  1.00  0.00     0.284 HD
ATOM      9  H52 UNL     1      -3.179  -4.472   0.129  1.00  0.00     0.284 HD
HETATM   10  C11 UNL     1      -4.185  -3.591  -1.451  1.00  0.00     0.355 C 
HETATM   11  C13 UNL     1      -2.809  -2.982  -1.639  1.00  0.00     0.141 C 
HETATM   12  N6  UNL     1      -2.410  -2.739  -2.972  1.00  0.00    -0.084 NA
HETATM   13  N7  UNL     1      -2.587  -2.015  -0.644  1.00  0.00    -0.284 N 
HETATM   14  C14 UNL     1      -2.282  -0.669  -1.082  1.00  0.00     0.142 C 
HETATM   15  C16 UNL     1      -1.281  -0.053  -0.426  1.00  0.00     0.085 C 
ENDROOT
BRANCH   1  16
HETATM   16  C7  UNL     1       0.344  -0.403   1.454  1.00  0.00     0.253 C 
HETATM   17  N3  UNL     1       1.656  -0.062   1.044  1.00  0.00    -0.358 N 
ATOM     18  H3  UNL     1       1.902  -0.216   0.066  1.00  0.00     0.162 HD
HETATM   19  O1  UNL     1       0.132  -0.180   2.710  1.00  0.00    -0.270 OA
BRANCH  17  20
HETATM   20  C6  UNL     1       2.669   0.488   1.913  1.00  0.00     0.133 C 
BRANCH  20  21
HETATM   21  C5  UNL     1       3.051  -0.389   3.061  1.00  0.00     0.101 C 
BRANCH  21  22
HETATM   22  S2  UNL     1       3.711  -1.990   2.473  1.00  0.00    -0.102 SA
BRANCH  22  23
HETATM   23  C4  UNL     1       5.268  -1.703   1.597  1.00  0.00     0.129 A 
HETATM   24  N2  UNL     1       6.503  -1.676   2.084  1.00  0.00    -0.287 N 
HETATM   25  N1  UNL     1       7.479  -1.455   1.315  1.00  0.00    -0.287 N 
ATOM     26  H2  UNL     1       6.663  -1.834   3.079  1.00  0.00     0.188 HD
HETATM   27  C3  UNL     1       7.268  -1.250   0.020  1.00  0.00     0.129 A 
ATOM     28  H1  UNL     1       8.428  -1.434   1.688  1.00  0.00     0.188 HD
HETATM   29  S3  UNL     1       5.557  -1.390  -0.059  1.00  0.00    -0.038 SA
BRANCH  27  30
HETATM   30  S1  UNL     1       8.452  -0.913  -1.290  1.00  0.00    -0.104 SA
BRANCH  30  31
HETATM   31  C2  UNL     1       8.620   0.911  -1.341  1.00  0.00     0.077 C 
HETATM   32  C1  UNL     1       9.581   1.357  -2.402  1.00  0.00     0.016 C 
ENDBRANCH  30  31
ENDBRANCH  27  30
ENDBRANCH  22  23
ENDBRANCH  21  22
ENDBRANCH  20  21
ENDBRANCH  17  20
ENDBRANCH   1  16
BRANCH  15  33
HETATM   33  N8  UNL     1      -0.890   1.245  -0.713  1.00  0.00    -0.346 N 
HETATM   34  C17 UNL     1       0.163   1.539  -1.668  1.00  0.00     0.156 C 
BRANCH  33  35
HETATM   35  C18 UNL     1      -1.437   2.394  -0.029  1.00  0.00     0.097 A 
HETATM   36  C19 UNL     1      -1.932   2.435   1.279  1.00  0.00     0.143 A 
HETATM   37  N9  UNL     1      -2.380   3.666   1.575  1.00  0.00    -0.302 N 
HETATM   38  C20 UNL     1      -2.968   4.079   2.854  1.00  0.00     0.177 C 
HETATM   39  N10 UNL     1      -2.197   4.425   0.512  1.00  0.00    -0.278 N 
HETATM   40  C21 UNL     1      -2.554   5.840   0.426  1.00  0.00     0.179 C 
HETATM   41  C22 UNL     1      -1.626   3.685  -0.479  1.00  0.00     0.144 A 
BRANCH  41  42
HETATM   42  N11 UNL     1      -1.328   4.155  -1.618  1.00  0.00    -0.382 N 
ATOM     43 2H11 UNL     1      -0.900   3.601  -2.360  1.00  0.00     0.157 HD
ATOM     44 1H11 UNL     1      -1.468   5.109  -1.951  1.00  0.00     0.157 HD
ENDBRANCH  41  42
ENDBRANCH  33  35
ENDBRANCH  15  33
BRANCH  14  45
HETATM   45  C15 UNL     1      -3.049  -0.083  -2.111  1.00  0.00     0.229 C 
HETATM   46  O6  UNL     1      -2.740   1.074  -2.516  1.00  0.00    -0.643 OA
HETATM   47  O7  UNL     1      -4.149  -0.602  -2.778  1.00  0.00    -0.643 OA
ENDBRANCH  14  45
BRANCH   6  48
HETATM   48  O3  UNL     1      -5.972  -2.989   0.488  1.00  0.00    -0.355 OA
ATOM     49  H3  UNL     1      -6.504  -3.717   0.190  1.00  0.00     0.213 HD
ENDBRANCH   6  48
BRANCH  10  50
HETATM   50  C12 UNL     1      -4.503  -4.627  -2.448  1.00  0.00     0.212 C 
HETATM   51  O4  UNL     1      -4.679  -5.816  -2.100  1.00  0.00    -0.646 OA
HETATM   52  O5  UNL     1      -4.611  -4.288  -3.785  1.00  0.00    -0.646 OA
ENDBRANCH  10  50
TORSDOF 13
