REMARK  5 active torsions:
REMARK  status: ('A' for Active; 'I' for Inactive)
REMARK    1  A    between atoms: C2_2  and  C3_3 
REMARK    2  A    between atoms: C3_3  and  N1_4 
REMARK    3  A    between atoms: N1_4  and  C4_6 
REMARK    4  A    between atoms: C4_6  and  N2_8 
REMARK    5  A    between atoms: N2_8  and  C5_10 
ROOT
HETATM    1  C5  UNL     1       0.093   0.503   0.763  1.00  0.00     0.191 C 
HETATM    2  C6  UNL     1      -0.443   1.657  -0.106  1.00  0.00     0.052 C 
HETATM    3  C7  UNL     1      -1.965   1.637   0.076  1.00  0.00    -0.009 C 
HETATM    4  C8  UNL     1      -2.663   0.761  -0.896  1.00  0.00     0.011 C 
HETATM    5  C9  UNL     1      -3.477  -0.360  -0.439  1.00  0.00     0.006 C 
HETATM    6  C10 UNL     1      -3.211  -1.649  -1.240  1.00  0.00     0.129 C 
HETATM    7  N3  UNL     1      -1.795  -1.998  -1.131  1.00  0.00    -0.343 N 
ATOM      8  H3  UNL     1      -1.455  -2.664  -1.825  1.00  0.00     0.164 HD
HETATM    9  C11 UNL     1      -0.804  -1.535  -0.179  1.00  0.00     0.320 C 
HETATM   10  O1  UNL     1       0.245  -2.190  -0.203  1.00  0.00    -0.247 OA
HETATM   11  N4  UNL     1      -0.940  -0.459   0.721  1.00  0.00    -0.308 N 
HETATM   12  C12 UNL     1      -2.082  -0.182   1.629  1.00  0.00     0.091 C 
HETATM   13  C13 UNL     1      -3.347  -0.765   1.003  1.00  0.00     0.031 C 
HETATM   14  C14 UNL     1      -2.314   1.321   1.519  1.00  0.00     0.030 C 
ENDROOT
BRANCH   1  15
HETATM   15  N2  UNL     1       1.434   0.199   0.497  1.00  0.00    -0.346 N 
ATOM     16  H2  UNL     1       1.673  -0.657  -0.004  1.00  0.00     0.164 HD
BRANCH  15  17
HETATM   17  C4  UNL     1       2.458   1.078   0.923  1.00  0.00     0.169 C 
HETATM   18  S1  UNL     1       2.108   2.428   1.749  1.00  0.00    -0.041 SA
BRANCH  17  19
HETATM   19  N1  UNL     1       3.819   0.797   0.657  1.00  0.00    -0.364 N 
ATOM     20  H1  UNL     1       4.552   1.436   0.966  1.00  0.00     0.162 HD
BRANCH  19  21
HETATM   21  C3  UNL     1       4.151  -0.416  -0.063  1.00  0.00     0.148 C 
BRANCH  21  22
HETATM   22  C2  UNL     1       5.593  -0.584  -0.270  1.00  0.00    -0.018 C 
HETATM   23  C1  UNL     1       6.112  -0.665  -1.483  1.00  0.00     0.008 C 
ENDBRANCH  21  22
ENDBRANCH  19  21
ENDBRANCH  17  19
ENDBRANCH  15  17
ENDBRANCH   1  15
TORSDOF 5
