REMARK  5 active torsions:
REMARK  status: ('A' for Active; 'I' for Inactive)
REMARK    1  A    between atoms: C3_3  and  C4_4 
REMARK    2  A    between atoms: C4_4  and  N1_5 
REMARK    3  A    between atoms: C9_10  and  C10_11 
REMARK    4  A    between atoms: C14_18  and  C15_19 
REMARK    5  A    between atoms: C15_19  and  N3_20 
REMARK       I    between atoms: N3_20  and  C16_22 
ROOT
HETATM    1  N1  UNL     1       1.425  -0.211   0.208  1.00  0.00    -0.061 N 
HETATM    2  C5  UNL     1       1.452   0.216   1.597  1.00  0.00     0.273 C 
HETATM    3  C6  UNL     1       1.691  -1.620   0.237  1.00  0.00     0.244 C 
HETATM    4  C7  UNL     1       1.173  -2.401  -0.901  1.00  0.00     0.036 C 
HETATM    5  C8  UNL     1       1.182  -1.585  -2.182  1.00  0.00     0.022 C 
HETATM    6  C9  UNL     1      -0.053  -0.931  -1.607  1.00  0.00     0.010 C 
HETATM    7  C12 UNL     1      -0.317  -2.355  -1.156  1.00  0.00     0.100 C 
HETATM    8  N2  UNL     1      -1.226  -2.545  -0.115  1.00  0.00    -0.355 N 
ATOM      9  H2  UNL     1      -1.851  -3.351  -0.120  1.00  0.00     0.162 HD
HETATM   10  C13 UNL     1      -1.276  -1.617   0.944  1.00  0.00     0.225 C 
HETATM   11  O1  UNL     1      -1.530  -1.922   2.128  1.00  0.00    -0.273 OA
HETATM   12  C14 UNL     1      -1.004  -0.211   0.578  1.00  0.00     0.127 C 
HETATM   13  C17 UNL     1       0.122  -0.059  -0.426  1.00  0.00     0.215 C 
ENDROOT
BRANCH  12  14
HETATM   14  C15 UNL     1      -2.257   0.547   0.241  1.00  0.00     0.138 C 
BRANCH  14  15
HETATM   15  N3  UNL     1      -3.139   0.579   1.420  1.00  0.00    -0.364 N 
HETATM   16  C16 UNL     1      -4.396   1.194   1.406  1.00  0.00     0.181 C 
HETATM   17  N4  UNL     1      -5.314   0.803   2.205  1.00  0.00    -0.374 N 
HETATM   18  N5  UNL     1      -4.653   2.247   0.509  1.00  0.00    -0.064 NA
ATOM     19  H42 UNL     1      -5.128   0.040   2.855  1.00  0.00     0.158 HD
ATOM     20  H41 UNL     1      -6.230   1.251   2.195  1.00  0.00     0.158 HD
ATOM     21  H3  UNL     1      -2.821   0.135   2.281  1.00  0.00     0.162 HD
ENDBRANCH  14  15
ENDBRANCH  12  14
BRANCH   1  22
HETATM   22  C4  UNL     1       2.410   0.611  -0.453  1.00  0.00     0.264 C 
BRANCH  22  23
HETATM   23  C3  UNL     1       2.838   1.797   0.324  1.00  0.00    -0.004 C 
HETATM   24  C2  UNL     1       4.095   1.949   0.648  1.00  0.00    -0.033 C 
HETATM   25  C1  UNL     1       4.518   3.132   1.422  1.00  0.00     0.036 C 
ENDBRANCH  22  23
ENDBRANCH   1  22
BRANCH   6  26
HETATM   26  C10 UNL     1      -0.887  -0.382  -2.721  1.00  0.00     0.009 C 
HETATM   27  C11 UNL     1      -1.360  -1.432  -3.693  1.00  0.00     0.006 C 
ENDBRANCH   6  26
TORSDOF 5
