REMARK  8 active torsions:
REMARK  status: ('A' for Active; 'I' for Inactive)
REMARK    1  A    between atoms: C1_4  and  C2_5 
REMARK    2  A    between atoms: N3_10  and  C5_11 
REMARK    3  A    between atoms: C5_11  and  C6_12 
REMARK    4  A    between atoms: C7_13  and  C8_14 
REMARK    5  A    between atoms: C9_15  and  C10_16 
REMARK    6  A    between atoms: C11_17  and  C12_18 
REMARK    7  A    between atoms: C12_18  and  O1_19 
REMARK    8  A    between atoms: C15_23  and  N4_24 
ROOT
HETATM    1  C8  UNL     1       0.348   0.851  -0.129  1.00  0.00    -0.015 C 
HETATM    2  C9  UNL     1      -0.793   0.877   0.270  1.00  0.00    -0.085 C 
ENDROOT
BRANCH   2   3
HETATM    3  C10 UNL     1      -2.168   0.911   0.778  1.00  0.00     0.097 C 
HETATM    4  C11 UNL     1      -2.710   2.296   0.885  1.00  0.00     0.027 C 
HETATM    5  C13 UNL     1      -4.206   2.068   0.867  1.00  0.00     0.010 C 
HETATM    6  C14 UNL     1      -4.421   0.724   0.191  1.00  0.00     0.029 C 
HETATM    7  C15 UNL     1      -3.040   0.250  -0.222  1.00  0.00     0.123 C 
BRANCH   4   8
HETATM    8  C12 UNL     1      -2.264   2.987   2.158  1.00  0.00     0.170 C 
BRANCH   8   9
HETATM    9  O1  UNL     1      -2.775   4.276   2.246  1.00  0.00    -0.400 OA
ATOM     10  H1  UNL     1      -2.495   4.709   3.044  1.00  0.00     0.209 HD
ENDBRANCH   8   9
ENDBRANCH   4   8
BRANCH   7  11
HETATM   11  N4  UNL     1      -2.945  -1.203  -0.193  1.00  0.00    -0.298 N 
HETATM   12  C16 UNL     1      -2.356  -1.941   0.751  1.00  0.00     0.112 A 
HETATM   13  C17 UNL     1      -2.504  -3.263   0.374  1.00  0.00     0.037 A 
HETATM   14  C18 UNL     1      -3.193  -3.284  -0.813  1.00  0.00     0.108 A 
HETATM   15  N5  UNL     1      -3.444  -1.998  -1.124  1.00  0.00    -0.310 N 
ATOM     16  H5  UNL     1      -3.945  -1.684  -1.955  1.00  0.00     0.186 HD
ENDBRANCH   7  11
ENDBRANCH   2   3
BRANCH   1  17
HETATM   17  C7  UNL     1       1.697   0.823  -0.574  1.00  0.00    -0.013 C 
HETATM   18  C6  UNL     1       2.850   0.808  -0.935  1.00  0.00    -0.072 C 
BRANCH  18  19
HETATM   19  C5  UNL     1       4.257   0.807  -1.354  1.00  0.00     0.224 C 
BRANCH  19  20
HETATM   20  N3  UNL     1       4.727  -0.537  -1.403  1.00  0.00    -0.330 N 
HETATM   21  C2  UNL     1       5.265  -1.256  -0.424  1.00  0.00     0.123 A 
HETATM   22  N2  UNL     1       5.584  -2.482  -0.961  1.00  0.00    -0.350 N 
HETATM   23  C3  UNL     1       5.238  -2.504  -2.257  1.00  0.00     0.107 A 
ATOM     24  H2  UNL     1       6.016  -3.254  -0.453  1.00  0.00     0.166 HD
HETATM   25  C4  UNL     1       4.694  -1.281  -2.553  1.00  0.00     0.110 A 
BRANCH  21  26
HETATM   26  C1  UNL     1       5.528  -0.958   0.969  1.00  0.00     0.129 C 
HETATM   27  N1  UNL     1       5.258   0.091   1.598  1.00  0.00    -0.405 N 
ATOM     28  H12 UNL     1       4.796   0.814   1.046  1.00  0.00     0.155 HD
ATOM     29  H11 UNL     1       5.443   0.301   2.579  1.00  0.00     0.155 HD
ENDBRANCH  21  26
ENDBRANCH  19  20
ENDBRANCH  18  19
ENDBRANCH   1  17
TORSDOF 8
