REMARK  4 active torsions:
REMARK  status: ('A' for Active; 'I' for Inactive)
REMARK    1  A    between atoms: C3_3  and  C4_4 
REMARK    2  A    between atoms: N1_7  and  C8_9 
REMARK    3  A    between atoms: C11_12  and  C12_13 
REMARK    4  A    between atoms: C12_13  and  C13_14 
REMARK       I    between atoms: C13_14  and  N2_16 
ROOT
HETATM    1  C8  UNL     1       0.221  -0.344   0.326  1.00  0.00     0.290 C 
HETATM    2  C9  UNL     1      -0.328  -1.034  -0.875  1.00  0.00     0.056 C 
HETATM    3  C10 UNL     1      -1.750  -1.445  -0.564  1.00  0.00     0.018 C 
HETATM    4  C11 UNL     1      -2.562  -0.233  -0.207  1.00  0.00     0.086 C 
HETATM    5  C15 UNL     1      -1.790   0.990   0.041  1.00  0.00     0.223 C 
HETATM    6  O2  UNL     1      -2.416   2.092  -0.002  1.00  0.00    -0.273 OA
HETATM    7  N5  UNL     1      -0.381   0.994   0.323  1.00  0.00    -0.333 N 
ATOM      8  H5  UNL     1       0.150   1.846   0.504  1.00  0.00     0.164 HD
ENDROOT
BRANCH   1   9
HETATM    9  N1  UNL     1       1.635  -0.276   0.436  1.00  0.00    -0.049 N 
HETATM   10  C6  UNL     1       2.197  -1.510   0.936  1.00  0.00     0.240 C 
HETATM   11  C5  UNL     1       3.695  -1.317   0.645  1.00  0.00     0.038 C 
HETATM   12  C4  UNL     1       3.713  -0.590  -0.641  1.00  0.00     0.035 C 
HETATM   13  C16 UNL     1       2.319  -0.009  -0.813  1.00  0.00     0.248 C 
HETATM   14  C7  UNL     1       1.960   0.761   1.398  1.00  0.00     0.275 C 
BRANCH  12  15
HETATM   15  C3  UNL     1       4.759   0.420  -0.824  1.00  0.00    -0.025 C 
HETATM   16  C2  UNL     1       5.649   0.776   0.069  1.00  0.00    -0.035 C 
HETATM   17  C1  UNL     1       6.672   1.823  -0.229  1.00  0.00     0.036 C 
ENDBRANCH  12  15
ENDBRANCH   1   9
BRANCH   4  18
HETATM   18  C12 UNL     1      -3.563  -0.551   0.904  1.00  0.00     0.117 C 
BRANCH  18  19
HETATM   19  C13 UNL     1      -4.372   0.601   1.293  1.00  0.00     0.224 C 
HETATM   20  O1  UNL     1      -4.153   1.157   2.416  1.00  0.00    -0.273 OA
HETATM   21  N2  UNL     1      -5.390   1.139   0.485  1.00  0.00    -0.304 N 
HETATM   22  C14 UNL     1      -6.377   0.546  -0.041  1.00  0.00     0.203 C 
ATOM     23  H2  UNL     1      -5.324   2.140   0.298  1.00  0.00     0.171 HD
HETATM   24  N3  UNL     1      -7.278   1.327  -0.829  1.00  0.00    -0.066 NA
HETATM   25  N4  UNL     1      -6.633  -0.835   0.118  1.00  0.00    -0.066 NA
ENDBRANCH  18  19
ENDBRANCH   4  18
TORSDOF 4
