REMARK  2 active torsions:
REMARK  status: ('A' for Active; 'I' for Inactive)
REMARK    1  A    between atoms: C5_6  and  N1_7 
REMARK    2  A    between atoms: N1_7  and  N2_9 
ROOT
HETATM    1  N1  UNL     1      -0.424   0.363  -0.649  1.00  0.00    -0.347 N 
ATOM      2  H1  UNL     1      -0.618   1.125  -1.299  1.00  0.00     0.174 HD
ENDROOT
BRANCH   1   3
HETATM    3  C5  UNL     1      -1.405  -0.120   0.252  1.00  0.00     0.124 C 
HETATM    4  C2  UNL     1      -2.688   0.664   0.063  1.00  0.00     0.141 C 
HETATM    5  C1  UNL     1      -3.150   1.218   1.401  1.00  0.00     0.041 C 
HETATM    6  O1  UNL     1      -3.639  -0.208  -0.403  1.00  0.00    -0.384 OA
HETATM    7  C3  UNL     1      -2.949  -1.236  -1.079  1.00  0.00     0.170 C 
HETATM    8  C4  UNL     1      -1.877  -1.522  -0.019  1.00  0.00     0.055 C 
ENDBRANCH   1   3
BRANCH   1   9
HETATM    9  N2  UNL     1       0.800  -0.251  -0.599  1.00  0.00    -0.235 NA
HETATM   10  C6  UNL     1       1.710   0.343  -1.532  1.00  0.00     0.113 C 
HETATM   11  C7  UNL     1       2.884   1.014  -0.886  1.00  0.00     0.016 C 
HETATM   12  C8  UNL     1       3.691   0.017  -0.123  1.00  0.00     0.002 C 
HETATM   13  C9  UNL     1       2.774  -0.917   0.598  1.00  0.00     0.016 C 
HETATM   14  C10 UNL     1       1.402  -0.241   0.713  1.00  0.00     0.113 C 
ENDBRANCH   1   9
TORSDOF 2
