REMARK  3 active torsions:
REMARK  status: ('A' for Active; 'I' for Inactive)
REMARK    1  A    between atoms: O1_1  and  C1_3 
REMARK    2  A    between atoms: C1_3  and  C2_4 
REMARK    3  A    between atoms: C2_4  and  C3_5 
ROOT
HETATM    1  C3  UNL     1       1.558  -0.438   0.243  1.00  0.00     0.151 C 
HETATM    2  C4  UNL     1       1.267  -1.929   0.291  1.00  0.00     0.203 C 
HETATM    3  O2  UNL     1      -0.110  -1.898   0.567  1.00  0.00    -0.353 OA
HETATM    4  C5  UNL     1      -0.591  -0.693   0.132  1.00  0.00     0.164 C 
HETATM    5  C6  UNL     1      -1.692  -0.960  -0.873  1.00  0.00     0.068 C 
HETATM    6  C7  UNL     1      -3.058  -0.604  -0.325  1.00  0.00     0.005 C 
HETATM    7  C8  UNL     1      -3.165   0.871  -0.005  1.00  0.00     0.000 C 
HETATM    8  C9  UNL     1      -1.831   1.360   0.542  1.00  0.00     0.005 C 
HETATM    9  C10 UNL     1      -1.195   0.155   1.232  1.00  0.00     0.068 C 
HETATM   10  O3  UNL     1       0.446   0.028  -0.429  1.00  0.00    -0.348 OA
ENDROOT
BRANCH   1  11
HETATM   11  C2  UNL     1       2.853  -0.129  -0.444  1.00  0.00     0.060 C 
BRANCH  11  12
HETATM   12  C1  UNL     1       3.021   1.377  -0.424  1.00  0.00     0.166 C 
BRANCH  12  13
HETATM   13  O1  UNL     1       4.200   1.777  -1.041  1.00  0.00    -0.401 OA
ATOM     14  H1  UNL     1       4.305   2.721  -1.028  1.00  0.00     0.209 HD
ENDBRANCH  12  13
ENDBRANCH  11  12
ENDBRANCH   1  11
TORSDOF 3
