REMARK  3 active torsions:
REMARK  status: ('A' for Active; 'I' for Inactive)
REMARK    1  A    between atoms: O1_1  and  C1_3 
REMARK    2  A    between atoms: C3_5  and  O2_6 
REMARK    3  A    between atoms: O2_6  and  C4_7 
ROOT
HETATM    1  C1  UNL     1      -3.760  -0.264  -0.390  1.00  0.00     0.259 C 
HETATM    2  C2  UNL     1      -2.477  -1.049  -0.425  1.00  0.00     0.094 C 
HETATM    3  C3  UNL     1      -1.618  -0.312   0.600  1.00  0.00     0.150 C 
HETATM    4  C10 UNL     1      -2.610   0.603   1.235  1.00  0.00     0.203 C 
HETATM    5  O3  UNL     1      -3.876   0.028   0.989  1.00  0.00    -0.359 OA
ENDROOT
BRANCH   3   6
HETATM    6  O2  UNL     1      -0.605   0.309  -0.076  1.00  0.00    -0.378 OA
BRANCH   6   7
HETATM    7  C4  UNL     1       0.660  -0.115   0.230  1.00  0.00     0.122 C 
HETATM    8  C5  UNL     1       1.364  -0.678  -0.983  1.00  0.00     0.032 C 
HETATM    9  C6  UNL     1       2.813  -0.959  -0.690  1.00  0.00     0.002 C 
HETATM   10  C7  UNL     1       3.550   0.205  -0.122  1.00  0.00     0.000 C 
HETATM   11  C8  UNL     1       2.837   0.866   1.014  1.00  0.00     0.002 C 
HETATM   12  C9  UNL     1       1.384   1.062   0.821  1.00  0.00     0.032 C 
ENDBRANCH   6   7
ENDBRANCH   3   6
BRANCH   1  13
HETATM   13  O1  UNL     1      -3.586   0.939  -1.074  1.00  0.00    -0.371 OA
ATOM     14  H1  UNL     1      -4.396   1.435  -1.052  1.00  0.00     0.212 HD
ENDBRANCH   1  13
TORSDOF 3
