REMARK  2 active torsions:
REMARK  status: ('A' for Active; 'I' for Inactive)
REMARK    1  A    between atoms: C2_2  and  S1_3 
REMARK    2  A    between atoms: S1_3  and  C3_4 
ROOT
HETATM    1  C3  UNL     1      -0.714   0.324  -0.415  1.00  0.00     0.074 C 
HETATM    2  C4  UNL     1      -0.170   1.034   0.792  1.00  0.00     0.184 C 
HETATM    3  O1  UNL     1       0.794   0.219   1.364  1.00  0.00    -0.377 OA
HETATM    4  C5  UNL     1       1.419  -0.347   0.261  1.00  0.00     0.087 C 
HETATM    5  C6  UNL     1       2.329   0.665  -0.396  1.00  0.00     0.067 C 
HETATM    6  C7  UNL     1       3.710   0.207   0.017  1.00  0.00     0.235 C 
HETATM    7  N1  UNL     1       3.541  -1.221   0.037  1.00  0.00    -0.072 N 
ATOM      8  H11 UNL     1       4.326  -1.704   0.475  1.00  0.00     0.277 HD
ATOM      9  H12 UNL     1       3.621  -1.640  -0.890  1.00  0.00     0.277 HD
HETATM   10  C8  UNL     1       2.286  -1.515   0.671  1.00  0.00     0.270 C 
HETATM   11  C9  UNL     1       0.301  -0.790  -0.646  1.00  0.00     0.057 C 
ENDROOT
BRANCH   1  12
HETATM   12  S1  UNL     1      -2.314  -0.466  -0.101  1.00  0.00    -0.162 SA
BRANCH  12  13
HETATM   13  C2  UNL     1      -3.682   0.729  -0.186  1.00  0.00     0.070 C 
HETATM   14  C1  UNL     1      -4.931  -0.059  -0.527  1.00  0.00     0.016 C 
ENDBRANCH  12  13
ENDBRANCH   1  12
TORSDOF 2
