REMARK  5 active torsions:
REMARK  status: ('A' for Active; 'I' for Inactive)
REMARK    1  A    between atoms: C2_2  and  C3_3 
REMARK    2  A    between atoms: C4_4  and  C5_5 
REMARK    3  A    between atoms: C5_5  and  C6_6 
REMARK    4  A    between atoms: N2_9  and  C7_10 
REMARK    5  A    between atoms: C7_10  and  N3_12 
ROOT
HETATM    1  C6  UNL     1       0.151   0.917   0.360  1.00  0.00     0.016 C 
HETATM    2  N1  UNL     1      -0.820   0.419   1.005  1.00  0.00    -0.308 N 
ATOM      3  H1  UNL     1      -0.926   0.489   2.017  1.00  0.00     0.186 HD
HETATM    4  N2  UNL     1      -1.726  -0.235   0.171  1.00  0.00    -0.297 N 
HETATM    5  C9  UNL     1      -0.989  -0.539  -1.064  1.00  0.00     0.150 C 
HETATM    6  C10 UNL     1      -0.028   0.627  -1.083  1.00  0.00     0.076 C 
ENDROOT
BRANCH   4   7
HETATM    7  C7  UNL     1      -3.098  -0.550   0.453  1.00  0.00     0.294 C 
HETATM    8  C8  UNL     1      -3.314  -2.053   0.387  1.00  0.00     0.064 C 
BRANCH   7   9
HETATM    9  N3  UNL     1      -4.020   0.060  -0.483  1.00  0.00    -0.057 N 
ATOM     10  H33 UNL     1      -3.879   1.069  -0.528  1.00  0.00     0.276 HD
ATOM     11  H32 UNL     1      -3.780  -0.185  -1.444  1.00  0.00     0.276 HD
ATOM     12  H31 UNL     1      -4.995  -0.164  -0.283  1.00  0.00     0.276 HD
ENDBRANCH   7   9
ENDBRANCH   4   7
BRANCH   1  13
HETATM   13  C5  UNL     1       1.283   1.679   0.993  1.00  0.00     0.148 C 
BRANCH  13  14
HETATM   14  C4  UNL     1       2.557   1.021   0.721  1.00  0.00    -0.096 C 
HETATM   15  C3  UNL     1       3.603   0.471   0.477  1.00  0.00    -0.079 C 
BRANCH  15  16
HETATM   16  C2  UNL     1       4.850  -0.196   0.161  1.00  0.00     0.054 C 
HETATM   17  C1  UNL     1       5.881   0.490  -0.267  1.00  0.00     0.020 C 
ENDBRANCH  15  16
ENDBRANCH  13  14
ENDBRANCH   1  13
TORSDOF 5
