REMARK  2 active torsions:
REMARK  status: ('A' for Active; 'I' for Inactive)
REMARK    1  A    between atoms: N2_5  and  C3_7 
REMARK    2  A    between atoms: C3_7  and  C4_8 
ROOT
HETATM    1  C1  UNL     1       4.541   0.831  -0.506  1.00  0.00     0.208 A 
HETATM    2  N1  UNL     1       3.496   0.725  -1.345  1.00  0.00    -0.315 N 
ATOM      3  H1  UNL     1       3.459   1.126  -2.282  1.00  0.00     0.170 HD
HETATM    4  C2  UNL     1       2.510   0.019  -0.777  1.00  0.00     0.244 A 
HETATM    5  N2  UNL     1       1.394  -0.243  -1.339  1.00  0.00    -0.354 N 
ATOM      6  H2  UNL     1       1.250   0.113  -2.284  1.00  0.00     0.163 HD
HETATM    7  O1  UNL     1       2.950  -0.313   0.420  1.00  0.00    -0.200 OA
HETATM    8  N3  UNL     1       4.149   0.153   0.610  1.00  0.00    -0.253 N 
ATOM      9  H3  UNL     1       4.706   0.031   1.456  1.00  0.00     0.195 HD
ENDROOT
BRANCH   5  10
HETATM   10  C3  UNL     1       0.329  -0.995  -0.750  1.00  0.00     0.128 C 
BRANCH  10  11
HETATM   11  C4  UNL     1      -0.219  -0.255   0.441  1.00  0.00     0.003 C 
HETATM   12  C5  UNL     1      -1.346  -0.989   1.113  1.00  0.00     0.006 C 
HETATM   13  C6  UNL     1      -2.467  -1.186   0.140  1.00  0.00     0.000 C 
HETATM   14  C7  UNL     1      -2.975   0.129  -0.334  1.00  0.00     0.000 C 
HETATM   15  C8  UNL     1      -2.142   1.304   0.024  1.00  0.00     0.000 C 
HETATM   16  C9  UNL     1      -0.683   1.102   0.042  1.00  0.00     0.006 C 
ENDBRANCH  10  11
ENDBRANCH   5  10
TORSDOF 2
