REMARK  3 active torsions:
REMARK  status: ('A' for Active; 'I' for Inactive)
REMARK    1  A    between atoms: C2_2  and  C3_3 
REMARK    2  A    between atoms: C5_7  and  N2_8 
REMARK    3  A    between atoms: N2_8  and  N3_10 
ROOT
HETATM    1  C3  UNL     1       2.607  -0.132  -0.425  1.00  0.00     0.010 C 
HETATM    2  C4  UNL     1       2.018  -1.407  -0.971  1.00  0.00     0.126 C 
HETATM    3  N1  UNL     1       0.602  -1.106  -0.975  1.00  0.00    -0.379 N 
ATOM      4  H1  UNL     1      -0.083  -1.551  -1.587  1.00  0.00     0.160 HD
HETATM    5  C5  UNL     1       0.324  -0.203  -0.104  1.00  0.00     0.087 C 
HETATM    6  C10 UNL     1       1.547   0.237   0.620  1.00  0.00     0.083 C 
ENDROOT
BRANCH   5   7
HETATM    7  N2  UNL     1      -0.995   0.294   0.118  1.00  0.00    -0.308 N 
ATOM      8  H2  UNL     1      -1.116   1.113   0.713  1.00  0.00     0.182 HD
BRANCH   7   9
HETATM    9  N3  UNL     1      -2.113  -0.289  -0.440  1.00  0.00    -0.230 NA
HETATM   10  C6  UNL     1      -2.984  -0.935   0.487  1.00  0.00     0.113 C 
HETATM   11  C7  UNL     1      -4.109   0.069   0.665  1.00  0.00     0.017 C 
HETATM   12  C8  UNL     1      -4.293   0.589  -0.743  1.00  0.00     0.017 C 
HETATM   13  C9  UNL     1      -2.885   0.572  -1.279  1.00  0.00     0.113 C 
ENDBRANCH   7   9
ENDBRANCH   5   7
BRANCH   1  14
HETATM   14  C2  UNL     1       3.952  -0.339   0.218  1.00  0.00     0.002 C 
HETATM   15  C1  UNL     1       4.444   0.991   0.726  1.00  0.00     0.005 C 
ENDBRANCH   1  14
TORSDOF 3
