REMARK  2 active torsions:
REMARK  status: ('A' for Active; 'I' for Inactive)
REMARK    1  A    between atoms: O1_3  and  N1_4 
REMARK    2  A    between atoms: N1_4  and  C3_6 
ROOT
HETATM    1  C1  UNL     1       4.854   1.333  -0.864  1.00  0.00     0.047 C 
HETATM    2  C2  UNL     1       3.843   0.710  -1.089  1.00  0.00     0.073 C 
HETATM    3  O1  UNL     1       2.695   0.006  -1.366  1.00  0.00    -0.189 OA
ENDROOT
BRANCH   3   4
HETATM    4  N1  UNL     1       2.052  -0.594  -0.339  1.00  0.00    -0.264 N 
ATOM      5  H1  UNL     1       2.538  -0.913   0.499  1.00  0.00     0.191 HD
BRANCH   4   6
HETATM    6  C3  UNL     1       0.645  -0.748  -0.512  1.00  0.00     0.206 C 
HETATM    7  C4  UNL     1       0.112  -1.439   0.745  1.00  0.00     0.053 C 
HETATM    8  C5  UNL     1      -1.173  -0.789   1.166  1.00  0.00    -0.009 C 
HETATM    9  C6  UNL     1      -2.188  -0.995   0.089  1.00  0.00     0.010 C 
HETATM   10  C10 UNL     1      -0.932   0.660   1.500  1.00  0.00     0.024 C 
HETATM   11  C7  UNL     1      -2.360   0.193  -0.801  1.00  0.00     0.044 C 
HETATM   12  C8  UNL     1      -1.083   0.630  -1.463  1.00  0.00     0.060 C 
HETATM   13  N2  UNL     1       0.069   0.561  -0.659  1.00  0.00    -0.371 N 
HETATM   14  C9  UNL     1       0.060   1.298   0.550  1.00  0.00     0.124 C 
ENDBRANCH   4   6
ENDBRANCH   3   4
TORSDOF 2
