REMARK  14 active torsions:
REMARK  status: ('A' for Active; 'I' for Inactive)
REMARK    1  A    between atoms: C3_3  and  C4_4 
REMARK    2  A    between atoms: C4_4  and  O1_5 
REMARK    3  A    between atoms: C5_7  and  C6_8 
REMARK    4  A    between atoms: C6_8  and  C8_10 
REMARK    5  A    between atoms: C8_10  and  N1_11 
REMARK    6  A    between atoms: N3_18  and  C14_19 
REMARK    7  A    between atoms: C14_19  and  C15_20 
REMARK    8  A    between atoms: C15_20  and  O2_21 
REMARK    9  A    between atoms: C15_20  and  C16_23 
REMARK   10  A    between atoms: C16_23  and  N4_24 
REMARK   11  A    between atoms: C19_27  and  C20_28 
REMARK   12  A    between atoms: C20_28  and  O3_31 
REMARK   13  A    between atoms: C25_35  and  C26_36 
REMARK   14  A    between atoms: C26_36  and  N5_37 
ROOT
HETATM    1  C1  UNL     1      -1.913  -2.083  -3.424  1.00  0.00     0.051 C 
HETATM    2  C2  UNL     1      -1.679  -1.558  -2.039  1.00  0.00    -0.027 A 
HETATM    3  C3  UNL     1      -2.077  -0.297  -1.630  1.00  0.00    -0.004 A 
HETATM    4  C5  UNL     1      -1.693  -0.186  -0.291  1.00  0.00     0.026 A 
HETATM    5  N3  UNL     1      -1.055  -1.336   0.068  1.00  0.00    -0.348 N 
HETATM    6  C25 UNL     1      -1.068  -2.171  -0.971  1.00  0.00     0.046 A 
ENDROOT
BRANCH   5   7
HETATM    7  C14 UNL     1      -0.224  -1.567   1.270  1.00  0.00     0.166 C 
BRANCH   7   8
HETATM    8  C15 UNL     1       1.288  -1.429   0.955  1.00  0.00     0.175 C 
BRANCH   8   9
HETATM    9  O2  UNL     1       1.890  -1.699   2.188  1.00  0.00    -0.389 OA
ATOM     10  H2  UNL     1       2.816  -1.614   1.995  1.00  0.00     0.210 HD
ENDBRANCH   8   9
BRANCH   8  11
HETATM   11  C16 UNL     1       1.568  -0.030   0.500  1.00  0.00     0.096 C 
BRANCH  11  12
HETATM   12  N4  UNL     1       2.907   0.323   0.280  1.00  0.00    -0.371 N 
HETATM   13  C17 UNL     1       3.607  -0.231  -0.800  1.00  0.00     0.063 C 
HETATM   14  C18 UNL     1       5.081   0.141  -0.681  1.00  0.00     0.052 C 
HETATM   15  C19 UNL     1       5.248   1.546  -0.176  1.00  0.00     0.025 C 
HETATM   16  C23 UNL     1       4.495   1.832   1.109  1.00  0.00     0.028 C 
HETATM   17  C24 UNL     1       3.678   0.608   1.468  1.00  0.00     0.127 C 
BRANCH  15  18
HETATM   18  C20 UNL     1       6.677   1.851   0.079  1.00  0.00     0.054 C 
HETATM   19  C21 UNL     1       7.300   0.913   1.109  1.00  0.00     0.045 C 
HETATM   20  C22 UNL     1       7.568   1.897  -1.123  1.00  0.00     0.045 C 
BRANCH  18  21
HETATM   21  O3  UNL     1       6.729   3.162   0.643  1.00  0.00    -0.390 OA
ATOM     22  H3  UNL     1       7.644   3.357   0.806  1.00  0.00     0.210 HD
ENDBRANCH  18  21
ENDBRANCH  15  18
ENDBRANCH  11  12
ENDBRANCH   8  11
ENDBRANCH   7   8
ENDBRANCH   5   7
BRANCH   4  23
HETATM   23  C6  UNL     1      -2.156   0.891   0.590  1.00  0.00     0.060 C 
HETATM   24  C7  UNL     1      -1.965   0.806   2.058  1.00  0.00     0.018 C 
BRANCH  23  25
HETATM   25  C8  UNL     1      -3.684   1.135   0.471  1.00  0.00     0.282 C 
BRANCH  25  26
HETATM   26  N1  UNL     1      -4.067   2.148   1.462  1.00  0.00     0.092 N 
HETATM   27  C9  UNL     1      -3.530   3.450   1.264  1.00  0.00     0.302 C 
HETATM   28  C10 UNL     1      -4.573   4.539   1.454  1.00  0.00     0.302 C 
HETATM   29  N2  UNL     1      -5.704   4.337   0.597  1.00  0.00     0.087 N 
HETATM   30  C11 UNL     1      -5.419   4.724  -0.780  1.00  0.00     0.310 C 
HETATM   31  C12 UNL     1      -6.234   2.998   0.709  1.00  0.00     0.302 C 
HETATM   32  C13 UNL     1      -5.484   2.135   1.689  1.00  0.00     0.302 C 
ENDBRANCH  25  26
ENDBRANCH  23  25
ENDBRANCH   4  23
BRANCH   6  33
HETATM   33  C26 UNL     1      -0.530  -3.564  -1.112  1.00  0.00     0.330 C 
BRANCH  33  34
HETATM   34  N5  UNL     1      -0.226  -4.165   0.138  1.00  0.00     0.094 N 
HETATM   35  C27 UNL     1       0.566  -5.359   0.021  1.00  0.00     0.273 C 
HETATM   36  C28 UNL     1      -0.221  -6.169  -0.977  1.00  0.00     0.032 C 
HETATM   37  C29 UNL     1      -1.645  -5.968  -0.421  1.00  0.00     0.032 C 
HETATM   38  C30 UNL     1      -1.532  -4.859   0.568  1.00  0.00     0.273 C 
ENDBRANCH  33  34
ENDBRANCH   6  33
BRANCH   3  39
HETATM   39  C4  UNL     1      -2.814   0.631  -2.507  1.00  0.00     0.205 C 
BRANCH  39  40
HETATM   40  O1  UNL     1      -1.952   0.964  -3.626  1.00  0.00    -0.396 OA
ATOM     41  H1  UNL     1      -2.427   1.562  -4.191  1.00  0.00     0.209 HD
ENDBRANCH  39  40
ENDBRANCH   3  39
TORSDOF 14
