REMARK  13 active torsions:
REMARK  status: ('A' for Active; 'I' for Inactive)
REMARK    1  A    between atoms: C2_2  and  C3_3 
REMARK    2  A    between atoms: C3_3  and  C4_4 
REMARK    3  A    between atoms: C4_4  and  N1_5 
REMARK    4  A    between atoms: C6_8  and  C7_9 
REMARK    5  A    between atoms: C7_9  and  C8_10 
REMARK       I    between atoms: N2_12  and  C10_14 
REMARK    6  A    between atoms: C10_14  and  C11_16 
REMARK    7  A    between atoms: C11_16  and  N3_18 
REMARK       I    between atoms: N3_18  and  C13_20 
REMARK    8  A    between atoms: C13_20  and  C14_22 
REMARK    9  A    between atoms: C14_22  and  N4_24 
REMARK       I    between atoms: N4_24  and  C16_26 
REMARK   10  A    between atoms: C16_26  and  C17_28 
REMARK   11  A    between atoms: C21_32  and  O5_33 
REMARK   12  A    between atoms: N5_35  and  C22_36 
REMARK   13  A    between atoms: C22_36  and  C23_37 
ROOT
HETATM    1  C7  UNL     1      -1.590   0.156   1.080  1.00  0.00     0.032 C 
HETATM    2  N2  UNL     1      -0.818  -0.423   0.213  1.00  0.00    -0.328 N 
ATOM      3  H2  UNL     1      -1.145  -0.391  -0.753  1.00  0.00     0.168 HD
HETATM    4  C10 UNL     1       0.394  -1.082   0.412  1.00  0.00     0.244 C 
HETATM    5  O2  UNL     1       0.582  -2.079   1.172  1.00  0.00    -0.271 OA
ENDROOT
BRANCH   1   6
HETATM    6  C6  UNL     1      -2.824   0.786   0.618  1.00  0.00     0.106 A 
HETATM    7  C5  UNL     1      -3.098   0.770  -0.773  1.00  0.00     0.268 A 
HETATM    8  N1  UNL     1      -4.228   1.266  -1.282  1.00  0.00    -0.265 N 
HETATM    9  O1  UNL     1      -2.210   0.261  -1.497  1.00  0.00    -0.267 OA
HETATM   10  C26 UNL     1      -5.147   1.802  -0.470  1.00  0.00     0.333 A 
HETATM   11  N5  UNL     1      -4.931   1.838   0.849  1.00  0.00    -0.278 N 
HETATM   12  O6  UNL     1      -6.234   2.283  -0.968  1.00  0.00    -0.246 OA
HETATM   13  C21 UNL     1      -3.776   1.333   1.386  1.00  0.00     0.164 A 
BRANCH   8  14
HETATM   14  C4  UNL     1      -4.442   1.232  -2.687  1.00  0.00     0.137 C 
BRANCH  14  15
HETATM   15  C3  UNL     1      -5.113   0.044  -3.255  1.00  0.00     0.020 C 
BRANCH  15  16
HETATM   16  C2  UNL     1      -4.448  -1.272  -3.058  1.00  0.00    -0.003 C 
HETATM   17  C1  UNL     1      -5.341  -2.315  -3.757  1.00  0.00     0.005 C 
ENDBRANCH  15  16
ENDBRANCH  14  15
ENDBRANCH   8  14
BRANCH  11  18
HETATM   18  C22 UNL     1      -5.903   2.404   1.718  1.00  0.00     0.140 C 
BRANCH  18  19
HETATM   19  C23 UNL     1      -6.965   1.512   2.244  1.00  0.00    -0.004 C 
HETATM   20  C24 UNL     1      -6.491   0.336   3.054  1.00  0.00     0.011 C 
HETATM   21  C25 UNL     1      -7.971   1.021   1.238  1.00  0.00     0.011 C 
ENDBRANCH  18  19
ENDBRANCH  11  18
BRANCH  13  22
HETATM   22  O5  UNL     1      -3.622   1.404   2.788  1.00  0.00    -0.345 OA
ATOM     23  H5  UNL     1      -4.297   1.792   3.333  1.00  0.00     0.219 HD
ENDBRANCH  13  22
ENDBRANCH   1   6
BRANCH   1  24
HETATM   24  C8  UNL     1      -1.112   0.228   2.463  1.00  0.00     0.054 C 
HETATM   25  C9  UNL     1      -0.665   1.651   2.779  1.00  0.00     0.011 C 
ENDBRANCH   1  24
BRANCH   4  26
HETATM   26  C11 UNL     1       1.631  -0.625  -0.311  1.00  0.00     0.172 C 
HETATM   27  C12 UNL     1       1.360  -0.797  -1.805  1.00  0.00     0.042 C 
BRANCH  26  28
HETATM   28  N3  UNL     1       2.806  -1.394   0.051  1.00  0.00    -0.346 N 
HETATM   29  C13 UNL     1       4.063  -0.777   0.104  1.00  0.00     0.240 C 
HETATM   30  O3  UNL     1       4.199   0.465  -0.160  1.00  0.00    -0.271 OA
ATOM     31  H3  UNL     1       2.717  -2.387   0.268  1.00  0.00     0.163 HD
BRANCH  29  32
HETATM   32  C14 UNL     1       5.282  -1.530   0.462  1.00  0.00     0.172 C 
HETATM   33  C15 UNL     1       5.169  -2.978  -0.004  1.00  0.00     0.042 C 
BRANCH  32  34
HETATM   34  N4  UNL     1       6.445  -0.888  -0.093  1.00  0.00    -0.348 N 
HETATM   35  C16 UNL     1       7.605  -0.579   0.611  1.00  0.00     0.226 C 
HETATM   36  O4  UNL     1       7.746  -0.838   1.825  1.00  0.00    -0.273 OA
ATOM     37  H4  UNL     1       6.416  -0.640  -1.082  1.00  0.00     0.163 HD
BRANCH  35  38
HETATM   38  C17 UNL     1       8.740   0.093  -0.105  1.00  0.00     0.030 C 
HETATM   39  C18 UNL     1       9.114  -0.794  -1.278  1.00  0.00     0.024 C 
HETATM   40  C19 UNL     1       8.327   1.459  -0.543  1.00  0.00     0.024 C 
HETATM   41  C20 UNL     1       9.963   0.197   0.769  1.00  0.00     0.024 C 
ENDBRANCH  35  38
ENDBRANCH  32  34
ENDBRANCH  29  32
ENDBRANCH  26  28
ENDBRANCH   4  26
TORSDOF 13
