REMARK  12 active torsions:
REMARK  status: ('A' for Active; 'I' for Inactive)
REMARK    1  A    between atoms: C2_2  and  C3_3 
REMARK    2  A    between atoms: C3_3  and  C4_4 
REMARK    3  A    between atoms: C4_4  and  C5_5 
REMARK    4  A    between atoms: C5_5  and  C6_6 
REMARK    5  A    between atoms: C5_5  and  C15_22 
REMARK       I    between atoms: C6_6  and  N1_8 
REMARK       I    between atoms: N1_8  and  C7_10 
REMARK    6  A    between atoms: C7_10  and  C8_12 
REMARK    7  A    between atoms: C15_22  and  O6_23 
REMARK    8  A    between atoms: C15_22  and  C16_25 
REMARK    9  A    between atoms: C16_25  and  O7_26 
REMARK   10  A    between atoms: C16_25  and  N2_28 
REMARK   11  A    between atoms: C19_31  and  C20_32 
REMARK   12  A    between atoms: C20_32  and  C21_34 
ROOT
HETATM    1  C5  UNL     1      -1.532  -1.695  -0.535  1.00  0.00     0.111 C 
ENDROOT
BRANCH   1   2
HETATM    2  C4  UNL     1      -1.396  -3.153  -1.017  1.00  0.00     0.020 C 
BRANCH   2   3
HETATM    3  C3  UNL     1      -0.700  -3.188  -2.325  1.00  0.00     0.027 C 
BRANCH   3   4
HETATM    4  C2  UNL     1      -0.568  -4.605  -2.782  1.00  0.00    -0.037 C 
HETATM    5  C1  UNL     1      -1.037  -5.601  -2.080  1.00  0.00     0.007 C 
ENDBRANCH   3   4
ENDBRANCH   2   3
ENDBRANCH   1   2
BRANCH   1   6
HETATM    6  C6  UNL     1      -2.250  -1.701   0.744  1.00  0.00     0.231 C 
HETATM    7  O1  UNL     1      -1.861  -2.621   1.566  1.00  0.00    -0.273 OA
HETATM    8  N1  UNL     1      -3.262  -0.864   1.168  1.00  0.00    -0.295 N 
HETATM    9  C7  UNL     1      -3.886   0.135   0.433  1.00  0.00     0.253 C 
ATOM     10  H1  UNL     1      -3.587  -0.993   2.126  1.00  0.00     0.171 HD
HETATM   11  O2  UNL     1      -3.626   0.445  -0.733  1.00  0.00    -0.270 OA
BRANCH   9  12
HETATM   12  C8  UNL     1      -4.977   0.917   1.098  1.00  0.00     0.219 C 
HETATM   13  C9  UNL     1      -6.130   0.011   1.476  1.00  0.00     0.078 C 
HETATM   14  C10 UNL     1      -7.274   0.597   0.696  1.00  0.00     0.183 C 
HETATM   15  O3  UNL     1      -7.840   1.700   1.338  1.00  0.00    -0.345 OA
HETATM   16  C14 UNL     1      -6.536   1.304  -0.447  1.00  0.00     0.293 C 
HETATM   17  C11 UNL     1      -8.263   2.507   0.285  1.00  0.00     0.160 C 
HETATM   18  C12 UNL     1      -9.716   2.159   0.029  1.00  0.00     0.078 C 
HETATM   19  C13 UNL     1      -8.123   3.989   0.648  1.00  0.00     0.078 C 
HETATM   20  O4  UNL     1      -7.449   2.271  -0.796  1.00  0.00    -0.324 OA
HETATM   21  O5  UNL     1      -5.465   1.863   0.242  1.00  0.00    -0.344 OA
ENDBRANCH   9  12
ENDBRANCH   1   6
BRANCH   1  22
HETATM   22  C15 UNL     1      -0.181  -1.060  -0.387  1.00  0.00     0.180 C 
BRANCH  22  23
HETATM   23  O6  UNL     1      -0.453   0.287   0.010  1.00  0.00    -0.390 OA
ATOM     24  H6  UNL     1       0.403   0.689   0.104  1.00  0.00     0.210 HD
ENDBRANCH  22  23
BRANCH  22  25
HETATM   25  C16 UNL     1       0.752  -1.632   0.628  1.00  0.00     0.253 C 
BRANCH  25  26
HETATM   26  O7  UNL     1       1.064  -2.953   0.324  1.00  0.00    -0.374 OA
ATOM     27  H7  UNL     1       1.658  -3.317   0.970  1.00  0.00     0.212 HD
ENDBRANCH  25  26
BRANCH  25  28
HETATM   28  N2  UNL     1       1.972  -0.895   0.653  1.00  0.00    -0.341 N 
HETATM   29  C17 UNL     1       1.959   0.454   1.021  1.00  0.00     0.093 C 
HETATM   30  C18 UNL     1       3.328   0.866   1.551  1.00  0.00     0.028 C 
HETATM   31  C19 UNL     1       4.395   0.456   0.849  1.00  0.00    -0.006 C 
HETATM   32  C27 UNL     1       4.145  -0.361  -0.352  1.00  0.00     0.087 C 
HETATM   33  C28 UNL     1       3.028  -1.354  -0.143  1.00  0.00     0.071 C 
BRANCH  31  34
HETATM   34  C20 UNL     1       5.744   0.826   1.316  1.00  0.00     0.160 C 
HETATM   35  O8  UNL     1       5.868   1.506   2.384  1.00  0.00    -0.292 OA
BRANCH  34  36
HETATM   36  C21 UNL     1       6.942   0.437   0.586  1.00  0.00     0.060 C 
HETATM   37  C22 UNL     1       7.101   1.060  -0.774  1.00  0.00     0.012 C 
HETATM   38  C23 UNL     1       7.374   2.539  -0.567  1.00  0.00     0.001 C 
HETATM   39  C24 UNL     1       8.631   2.793   0.188  1.00  0.00     0.000 C 
HETATM   40  C25 UNL     1       8.731   1.998   1.468  1.00  0.00     0.001 C 
HETATM   41  C26 UNL     1       8.214   0.614   1.356  1.00  0.00     0.012 C 
ENDBRANCH  34  36
ENDBRANCH  31  34
ENDBRANCH  25  28
ENDBRANCH  22  25
ENDBRANCH   1  22
TORSDOF 12
