REMARK  13 active torsions:
REMARK  status: ('A' for Active; 'I' for Inactive)
REMARK    1  A    between atoms: C4_4  and  C5_5 
REMARK    2  A    between atoms: C5_5  and  C7_7 
REMARK    3  A    between atoms: C13_16  and  C14_17 
REMARK    4  A    between atoms: C14_17  and  O2_18 
REMARK    5  A    between atoms: C14_17  and  C15_20 
REMARK    6  A    between atoms: C15_20  and  C16_21 
REMARK    7  A    between atoms: C19_25  and  C20_26 
REMARK    8  A    between atoms: C20_26  and  C21_27 
REMARK    9  A    between atoms: C21_27  and  C22_28 
REMARK   10  A    between atoms: C22_28  and  C23_29 
REMARK   11  A    between atoms: C23_29  and  C24_30 
REMARK   12  A    between atoms: C24_30  and  C25_31 
REMARK   13  A    between atoms: C25_31  and  C26_32 
ROOT
HETATM    1  C14 UNL     1      -1.042  -3.226   0.025  1.00  0.00     0.133 C 
ENDROOT
BRANCH   1   2
HETATM    2  C13 UNL     1      -2.503  -2.875   0.171  1.00  0.00     0.112 C 
HETATM    3  C10 UNL     1      -2.718  -1.505   0.741  1.00  0.00     0.025 C 
HETATM    4  C9  UNL     1      -3.612  -1.577   1.969  1.00  0.00     0.008 C 
HETATM    5  C11 UNL     1      -3.454  -0.684  -0.287  1.00  0.00     0.097 C 
HETATM    6  C8  UNL     1      -4.996  -1.515   1.348  1.00  0.00     0.011 C 
HETATM    7  C7  UNL     1      -4.877  -0.504   0.239  1.00  0.00     0.039 C 
HETATM    8  N1  UNL     1      -3.497  -1.534  -1.460  1.00  0.00    -0.355 N 
HETATM    9  C12 UNL     1      -3.218  -2.886  -1.129  1.00  0.00     0.225 C 
ATOM     10  H1  UNL     1      -3.702  -1.203  -2.403  1.00  0.00     0.162 HD
HETATM   11  O1  UNL     1      -3.508  -3.922  -1.793  1.00  0.00    -0.273 OA
BRANCH   7  12
HETATM   12  C5  UNL     1      -5.125   0.885   0.652  1.00  0.00    -0.054 C 
HETATM   13  C6  UNL     1      -5.439   1.246   1.873  1.00  0.00     0.017 C 
BRANCH  12  14
HETATM   14  C4  UNL     1      -5.024   1.973  -0.390  1.00  0.00     0.165 C 
HETATM   15  C3  UNL     1      -6.014   1.746  -1.496  1.00  0.00     0.081 C 
HETATM   16  C2  UNL     1      -7.228   2.526  -1.121  1.00  0.00     0.011 C 
HETATM   17  C1  UNL     1      -8.401   2.449  -1.702  1.00  0.00     0.025 C 
HETATM   18  C28 UNL     1      -6.802   3.353  -0.000  1.00  0.00     0.289 C 
HETATM   19  O8  UNL     1      -5.431   3.219   0.150  1.00  0.00    -0.307 OA
HETATM   20  O9  UNL     1      -7.622   4.055   0.679  1.00  0.00    -0.260 OA
ENDBRANCH  12  14
ENDBRANCH   7  12
ENDBRANCH   1   2
BRANCH   1  21
HETATM   21  O2  UNL     1      -0.922  -4.530  -0.507  1.00  0.00    -0.395 OA
ATOM     22  H2  UNL     1      -0.003  -4.751  -0.599  1.00  0.00     0.210 HD
ENDBRANCH   1  21
BRANCH   1  23
HETATM   23  C15 UNL     1      -0.286  -2.265  -0.819  1.00  0.00     0.054 C 
BRANCH  23  24
HETATM   24  C16 UNL     1       1.161  -2.615  -0.975  1.00  0.00     0.157 C 
HETATM   25  C17 UNL     1       1.840  -1.584  -1.864  1.00  0.00     0.143 C 
HETATM   26  O3  UNL     1       1.181  -0.756  -2.470  1.00  0.00    -0.297 OA
HETATM   27  C18 UNL     1       3.327  -1.670  -1.926  1.00  0.00     0.111 C 
HETATM   28  C19 UNL     1       3.843  -1.255  -0.544  1.00  0.00     0.139 C 
HETATM   29  O6  UNL     1       2.834  -1.488   0.427  1.00  0.00    -0.315 OA
HETATM   30  C27 UNL     1       1.943  -2.555   0.297  1.00  0.00     0.270 C 
HETATM   31  O7  UNL     1       1.762  -3.444   1.157  1.00  0.00    -0.264 OA
BRANCH  28  32
HETATM   32  C20 UNL     1       4.297   0.158  -0.650  1.00  0.00     0.033 C 
BRANCH  32  33
HETATM   33  C21 UNL     1       4.838   0.758   0.612  1.00  0.00     0.006 C 
BRANCH  33  34
HETATM   34  C22 UNL     1       5.270   2.198   0.281  1.00  0.00     0.027 C 
BRANCH  34  35
HETATM   35  C23 UNL     1       5.828   2.938   1.415  1.00  0.00    -0.026 C 
BRANCH  35  36
HETATM   36  C24 UNL     1       7.052   2.577   2.117  1.00  0.00     0.003 C 
BRANCH  36  37
HETATM   37  C25 UNL     1       8.372   2.618   1.501  1.00  0.00     0.084 C 
BRANCH  37  38
HETATM   38  C26 UNL     1       8.781   1.768   0.404  1.00  0.00     0.198 C 
HETATM   39  O4  UNL     1       8.190   0.801  -0.075  1.00  0.00    -0.645 OA
HETATM   40  O5  UNL     1      10.038   2.061  -0.234  1.00  0.00    -0.645 OA
ENDBRANCH  37  38
ENDBRANCH  36  37
ENDBRANCH  35  36
ENDBRANCH  34  35
ENDBRANCH  33  34
ENDBRANCH  32  33
ENDBRANCH  28  32
ENDBRANCH  23  24
ENDBRANCH   1  23
TORSDOF 13
