REMARK  13 active torsions:
REMARK  status: ('A' for Active; 'I' for Inactive)
REMARK    1  A    between atoms: C2_2  and  C3_3 
REMARK    2  A    between atoms: C2_2  and  C4_6 
REMARK    3  A    between atoms: C3_3  and  O1_4 
REMARK    4  A    between atoms: C4_6  and  O2_7 
REMARK    5  A    between atoms: C4_6  and  C5_9 
REMARK    6  A    between atoms: C5_9  and  C6_10 
REMARK    7  A    between atoms: C6_10  and  C7_11 
REMARK    8  A    between atoms: C19_26  and  O6_27 
REMARK    9  A    between atoms: O6_27  and  C20_28 
REMARK   10  A    between atoms: C20_28  and  C21_29 
REMARK   11  A    between atoms: C21_29  and  C22_30 
REMARK   12  A    between atoms: C22_30  and  C23_31 
REMARK   13  A    between atoms: C23_31  and  S1_32 
ROOT
HETATM    1  C7  UNL     1      -1.788  -0.670   0.350  1.00  0.00     0.028 C 
HETATM    2  C8  UNL     1      -2.132  -0.584   1.831  1.00  0.00     0.024 C 
HETATM    3  C9  UNL     1      -2.447  -1.882  -0.161  1.00  0.00     0.139 C 
HETATM    4  O3  UNL     1      -3.389  -2.375   0.386  1.00  0.00    -0.297 OA
HETATM    5  C10 UNL     1      -1.882  -2.473  -1.400  1.00  0.00     0.106 C 
HETATM    6  C11 UNL     1      -0.455  -2.754  -1.005  1.00  0.00    -0.015 C 
HETATM    7  C12 UNL     1       0.252  -1.901  -0.309  1.00  0.00    -0.061 C 
HETATM    8  C13 UNL     1       1.669  -2.261   0.045  1.00  0.00     0.103 C 
HETATM    9  C14 UNL     1       2.063  -3.645  -0.080  1.00  0.00     0.158 C 
HETATM   10  O4  UNL     1       2.198  -4.224  -1.220  1.00  0.00    -0.292 OA
HETATM   11  C15 UNL     1       2.361  -4.562   1.043  1.00  0.00     0.054 C 
HETATM   12  C16 UNL     1       2.778  -4.025   2.181  1.00  0.00     0.054 C 
HETATM   13  C17 UNL     1       2.887  -2.546   2.174  1.00  0.00     0.157 C 
HETATM   14  O5  UNL     1       3.896  -2.048   2.753  1.00  0.00    -0.293 OA
HETATM   15  C18 UNL     1       1.820  -1.835   1.502  1.00  0.00     0.104 C 
HETATM   16  C19 UNL     1       1.843  -0.356   1.480  1.00  0.00     0.135 C 
HETATM   17  C24 UNL     1       0.413   0.085   1.240  1.00  0.00     0.047 C 
HETATM   18  C25 UNL     1      -0.307  -0.598   0.114  1.00  0.00    -0.004 C 
HETATM   19  C26 UNL     1      -0.099   0.366  -1.083  1.00  0.00     0.021 C 
ENDROOT
BRANCH   1  20
HETATM   20  C6  UNL     1      -2.491   0.528  -0.301  1.00  0.00     0.020 C 
BRANCH  20  21
HETATM   21  C5  UNL     1      -3.962   0.438  -0.088  1.00  0.00     0.033 C 
BRANCH  21  22
HETATM   22  C4  UNL     1      -4.661   1.633  -0.724  1.00  0.00     0.124 C 
BRANCH  22  23
HETATM   23  C2  UNL     1      -6.147   1.506  -0.487  1.00  0.00     0.034 C 
HETATM   24  C1  UNL     1      -6.516   1.435   0.961  1.00  0.00     0.015 C 
BRANCH  23  25
HETATM   25  C3  UNL     1      -6.891   2.701  -1.082  1.00  0.00     0.170 C 
BRANCH  25  26
HETATM   26  O1  UNL     1      -6.519   3.853  -0.434  1.00  0.00    -0.400 OA
ATOM     27  H1  UNL     1      -6.981   4.596  -0.804  1.00  0.00     0.209 HD
ENDBRANCH  25  26
ENDBRANCH  23  25
ENDBRANCH  22  23
BRANCH  22  28
HETATM   28  O2  UNL     1      -4.460   1.688  -2.100  1.00  0.00    -0.395 OA
ATOM     29  H2  UNL     1      -3.525   1.768  -2.249  1.00  0.00     0.210 HD
ENDBRANCH  22  28
ENDBRANCH  21  22
ENDBRANCH  20  21
ENDBRANCH   1  20
BRANCH  16  30
HETATM   30  O6  UNL     1       2.706   0.215   0.550  1.00  0.00    -0.385 OA
BRANCH  30  31
HETATM   31  C20 UNL     1       3.567   1.106   1.142  1.00  0.00     0.168 C 
BRANCH  31  32
HETATM   32  C21 UNL     1       4.518   1.736   0.125  1.00  0.00     0.027 C 
BRANCH  32  33
HETATM   33  C22 UNL     1       5.317   0.654  -0.519  1.00  0.00     0.020 C 
BRANCH  33  34
HETATM   34  C23 UNL     1       6.279   1.030  -1.570  1.00  0.00     0.165 C 
BRANCH  34  35
HETATM   35  S1  UNL     1       7.523   2.142  -1.001  1.00  0.00     0.101 S 
HETATM   36  O7  UNL     1       8.283   1.583   0.157  1.00  0.00    -0.595 OA
HETATM   37  O8  UNL     1       6.841   3.455  -0.639  1.00  0.00    -0.595 OA
HETATM   38  O9  UNL     1       8.578   2.439  -2.304  1.00  0.00    -0.595 OA
ENDBRANCH  34  35
ENDBRANCH  33  34
ENDBRANCH  32  33
ENDBRANCH  31  32
ENDBRANCH  30  31
ENDBRANCH  16  30
TORSDOF 13
