REMARK  16 active torsions:
REMARK  status: ('A' for Active; 'I' for Inactive)
REMARK    1  A    between atoms: C2_2  and  C3_3 
REMARK    2  A    between atoms: C3_3  and  C4_4 
REMARK    3  A    between atoms: C4_4  and  S1_5 
REMARK    4  A    between atoms: S1_5  and  N1_8 
REMARK    5  A    between atoms: N1_8  and  C5_9 
REMARK    6  A    between atoms: N1_8  and  C8_14 
REMARK    7  A    between atoms: C5_9  and  C6_10 
REMARK    8  A    between atoms: C6_10  and  C7_11 
REMARK    9  A    between atoms: C7_11  and  O3_12 
REMARK   10  A    between atoms: C8_14  and  C9_15 
REMARK       I    between atoms: C9_15  and  N2_17 
REMARK   11  A    between atoms: C14_22  and  C15_23 
REMARK   12  A    between atoms: C15_23  and  N3_24 
REMARK   13  A    between atoms: C16_25  and  O5_26 
REMARK   14  A    between atoms: C19_30  and  O6_31 
REMARK   15  A    between atoms: C20_33  and  C25_39 
REMARK   16  A    between atoms: C22_36  and  C23_37 
ROOT
HETATM    1  C9  UNL     1      -1.426  -1.690  -1.389  1.00  0.00     0.239 C 
HETATM    2  O4  UNL     1      -2.310  -2.138  -2.153  1.00  0.00    -0.271 OA
HETATM    3  N2  UNL     1      -0.117  -2.156  -1.566  1.00  0.00    -0.344 N 
HETATM    4  C10 UNL     1       0.228  -3.141  -2.599  1.00  0.00     0.126 C 
HETATM    5  C11 UNL     1       0.335  -4.469  -1.872  1.00  0.00     0.020 C 
HETATM    6  C12 UNL     1       1.079  -4.215  -0.575  1.00  0.00     0.004 C 
HETATM    7  C13 UNL     1       1.924  -2.948  -0.683  1.00  0.00     0.027 C 
HETATM    8  C14 UNL     1       1.031  -1.724  -0.750  1.00  0.00     0.105 C 
ENDROOT
BRANCH   8   9
HETATM    9  C15 UNL     1       1.692  -0.569  -1.437  1.00  0.00     0.158 C 
BRANCH   9  10
HETATM   10  N3  UNL     1       2.834  -0.025  -0.740  1.00  0.00    -0.306 N 
HETATM   11  C16 UNL     1       2.749   0.957   0.212  1.00  0.00     0.151 A 
HETATM   12  C17 UNL     1       4.000   1.234   0.641  1.00  0.00     0.013 A 
HETATM   13  C18 UNL     1       4.890   0.411  -0.056  1.00  0.00     0.033 A 
HETATM   14  C22 UNL     1       4.689   2.138   1.616  1.00  0.00     0.052 C 
HETATM   15  C19 UNL     1       4.127  -0.349  -0.897  1.00  0.00     0.153 A 
HETATM   16  C20 UNL     1       6.308   0.616   0.323  1.00  0.00     0.163 C 
HETATM   17  O7  UNL     1       6.437   0.463   1.701  1.00  0.00    -0.380 OA
HETATM   18  C21 UNL     1       5.568   1.198   2.455  1.00  0.00     0.178 C 
BRANCH  11  19
HETATM   19  O5  UNL     1       1.606   1.592   0.693  1.00  0.00    -0.345 OA
ATOM     20  H5  UNL     1       1.547   2.273   1.353  1.00  0.00     0.219 HD
ENDBRANCH  11  19
BRANCH  15  21
HETATM   21  O6  UNL     1       4.707  -1.293  -1.754  1.00  0.00    -0.345 OA
ATOM     22  H6  UNL     1       5.622  -1.522  -1.865  1.00  0.00     0.219 HD
ENDBRANCH  15  21
BRANCH  16  23
HETATM   23  C25 UNL     1       6.595   2.100   0.047  1.00  0.00     0.025 A 
HETATM   24  C23 UNL     1       5.660   2.974   0.811  1.00  0.00     0.004 A 
HETATM   25  C24 UNL     1       5.605   2.898  -0.712  1.00  0.00     0.013 A 
ENDBRANCH  16  23
ENDBRANCH   9  10
ENDBRANCH   8   9
BRANCH   1  26
HETATM   26  C8  UNL     1      -1.760  -0.720  -0.356  1.00  0.00     0.243 C 
BRANCH  26  27
HETATM   27  N1  UNL     1      -3.172  -0.344  -0.315  1.00  0.00    -0.281 N 
BRANCH  27  28
HETATM   28  S1  UNL     1      -4.098  -1.256   0.660  1.00  0.00     0.232 S 
HETATM   29  O1  UNL     1      -3.101  -2.197   1.444  1.00  0.00    -0.205 OA
HETATM   30  O2  UNL     1      -4.873  -2.350  -0.215  1.00  0.00    -0.205 OA
BRANCH  28  31
HETATM   31  C4  UNL     1      -5.272  -0.748   1.790  1.00  0.00     0.163 C 
BRANCH  31  32
HETATM   32  C3  UNL     1      -6.476   0.029   1.490  1.00  0.00     0.016 C 
BRANCH  32  33
HETATM   33  C2  UNL     1      -6.406   1.461   1.146  1.00  0.00    -0.004 C 
HETATM   34  C1  UNL     1      -5.806   2.220   2.356  1.00  0.00     0.005 C 
ENDBRANCH  32  33
ENDBRANCH  31  32
ENDBRANCH  28  31
ENDBRANCH  27  28
BRANCH  27  35
HETATM   35  C5  UNL     1      -3.572   0.502  -1.341  1.00  0.00     0.078 C 
BRANCH  35  36
HETATM   36  C6  UNL     1      -2.689   1.690  -1.592  1.00  0.00     0.071 C 
BRANCH  36  37
HETATM   37  C7  UNL     1      -2.485   2.675  -0.524  1.00  0.00     0.169 C 
BRANCH  37  38
HETATM   38  O3  UNL     1      -3.592   3.370  -0.096  1.00  0.00    -0.401 OA
ATOM     39  H3  UNL     1      -3.460   4.008   0.596  1.00  0.00     0.209 HD
ENDBRANCH  37  38
ENDBRANCH  36  37
ENDBRANCH  35  36
ENDBRANCH  27  35
ENDBRANCH  26  27
ENDBRANCH   1  26
TORSDOF 16
