REMARK  8 active torsions:
REMARK  status: ('A' for Active; 'I' for Inactive)
REMARK    1  A    between atoms: C2_2  and  N1_3 
REMARK    2  A    between atoms: N1_3  and  C3_4 
REMARK    3  A    between atoms: C3_4  and  C4_5 
REMARK    4  A    between atoms: C5_6  and  C6_7 
REMARK    5  A    between atoms: C7_8  and  N2_9 
REMARK    6  A    between atoms: N3_14  and  C9_15 
REMARK    7  A    between atoms: C13_20  and  C15_22 
REMARK    8  A    between atoms: C15_22  and  N4_23 
ROOT
HETATM    1  N1  UNL     1       1.387  -1.507  -0.228  1.00  0.00    -0.110 N 
HETATM    2  B1  UNL     1       0.171  -2.378   0.060  1.00  0.00     0.454 B 
HETATM    3  C8  UNL     1      -1.058  -2.379   1.086  1.00  0.00     0.221 C 
HETATM    4  N3  UNL     1      -2.172  -1.714   0.416  1.00  0.00    -0.042 N 
HETATM    5  C10 UNL     1      -3.314  -1.604   1.352  1.00  0.00     0.245 C 
HETATM    6  C11 UNL     1      -3.552  -0.241   0.675  1.00  0.00     0.063 C 
HETATM    7  C12 UNL     1      -2.035  -0.346   0.552  1.00  0.00     0.206 C 
HETATM    8  C13 UNL     1      -1.354   0.518  -0.423  1.00  0.00     0.011 C 
HETATM    9  C14 UNL     1      -1.593   0.281  -1.861  1.00  0.00     0.019 C 
HETATM   10  C17 UNL     1       0.111   0.578  -0.030  1.00  0.00     0.039 C 
HETATM   11  C18 UNL     1       1.011  -0.256  -0.876  1.00  0.00     0.217 C 
ENDROOT
BRANCH   1  12
HETATM   12  C2  UNL     1       2.266  -2.290  -1.026  1.00  0.00     0.212 C 
HETATM   13  C1  UNL     1       3.230  -1.556  -1.882  1.00  0.00     0.033 C 
ENDBRANCH   1  12
BRANCH   1  14
HETATM   14  C3  UNL     1       2.036  -1.285   1.057  1.00  0.00     0.309 C 
BRANCH  14  15
HETATM   15  C4  UNL     1       2.881  -0.092   1.055  1.00  0.00    -0.066 C 
HETATM   16  C5  UNL     1       3.593   0.884   1.065  1.00  0.00    -0.012 C 
BRANCH  16  17
HETATM   17  C6  UNL     1       4.435   2.022   1.095  1.00  0.00     0.008 C 
HETATM   18  C7  UNL     1       5.167   2.982   1.132  1.00  0.00     0.017 C 
BRANCH  18  19
HETATM   19  N2  UNL     1       6.010   4.096   1.198  1.00  0.00    -0.359 N 
ATOM     20  H22 UNL     1       5.413   3.546   1.815  1.00  0.00     0.166 HD
ATOM     21  H21 UNL     1       6.628   4.907   1.229  1.00  0.00     0.166 HD
ENDBRANCH  18  19
ENDBRANCH  16  17
ENDBRANCH  14  15
ENDBRANCH   1  14
BRANCH   4  22
HETATM   22  C9  UNL     1      -2.605  -2.364  -0.752  1.00  0.00     0.257 C 
HETATM   23 BR1  UNL     1      -3.632  -3.980  -0.330  1.00  0.00    -0.037 Br
ENDBRANCH   4  22
BRANCH   8  24
HETATM   24  C15 UNL     1      -1.925   1.909  -0.169  1.00  0.00     0.242 C 
BRANCH  24  25
HETATM   25  N4  UNL     1      -1.408   2.922  -1.035  1.00  0.00    -0.078 N 
HETATM   26  C16 UNL     1      -2.084   4.172  -0.663  1.00  0.00     0.267 C 
ATOM     27  H42 UNL     1      -0.391   2.991  -1.014  1.00  0.00     0.276 HD
ATOM     28  H41 UNL     1      -1.499   2.693  -2.025  1.00  0.00     0.276 HD
ENDBRANCH  24  25
ENDBRANCH   8  24
TORSDOF 8
