REMARK  6 active torsions:
REMARK  status: ('A' for Active; 'I' for Inactive)
REMARK       I    between atoms: N1_2  and  C2_4 
REMARK    1  A    between atoms: C2_4  and  C3_6 
REMARK    2  A    between atoms: C3_6  and  C5_8 
REMARK       I    between atoms: C5_8  and  N2_10 
REMARK    3  A    between atoms: N2_10  and  C6_12 
REMARK    4  A    between atoms: C7_15  and  C8_16 
REMARK    5  A    between atoms: C8_16  and  C9_17 
REMARK    6  A    between atoms: C12_22  and  C13_23 
ROOT
HETATM    1  C6  UNL     1      -0.669   0.047  -0.087  1.00  0.00     0.132 A 
HETATM    2  N3  UNL     1      -1.756   0.821  -0.034  1.00  0.00    -0.343 N 
ATOM      3  H3  UNL     1      -1.648   1.815   0.169  1.00  0.00     0.167 HD
HETATM    4  C7  UNL     1      -3.009   0.317  -0.244  1.00  0.00     0.027 A 
HETATM    5  C10 UNL     1      -3.170  -1.024  -0.518  1.00  0.00     0.115 A 
HETATM    6  N4  UNL     1      -2.091  -1.822  -0.577  1.00  0.00    -0.359 N 
HETATM    7  C11 UNL     1      -2.249  -3.242  -0.866  1.00  0.00     0.155 C 
HETATM    8  C12 UNL     1      -0.879  -1.310  -0.369  1.00  0.00     0.065 A 
ENDROOT
BRANCH   1   9
HETATM    9  N2  UNL     1       0.512   0.418   0.081  1.00  0.00    -0.311 N 
HETATM   10  C5  UNL     1       1.100   1.638   0.358  1.00  0.00     0.236 C 
HETATM   11  O2  UNL     1       0.537   2.750   0.233  1.00  0.00    -0.272 OA
ATOM     12  H2  UNL     1       1.187  -0.342  -0.005  1.00  0.00     0.170 HD
BRANCH  10  13
HETATM   13  C3  UNL     1       2.509   1.646   0.841  1.00  0.00     0.166 C 
HETATM   14  C4  UNL     1       2.563   0.868   2.147  1.00  0.00     0.030 C 
BRANCH  13  15
HETATM   15  C2  UNL     1       3.434   1.025  -0.101  1.00  0.00     0.230 C 
HETATM   16  N1  UNL     1       4.808   0.937   0.198  1.00  0.00    -0.365 N 
HETATM   17  C1  UNL     1       5.764   0.328  -0.709  1.00  0.00     0.149 C 
ATOM     18  H1  UNL     1       5.143   1.315   1.084  1.00  0.00     0.161 HD
HETATM   19  O1  UNL     1       3.026   0.559  -1.190  1.00  0.00    -0.273 OA
ENDBRANCH  13  15
ENDBRANCH  10  13
ENDBRANCH   1   9
BRANCH   8  20
HETATM   20  C13 UNL     1       0.284  -2.252  -0.441  1.00  0.00     0.146 C 
HETATM   21 BR2  UNL     1       0.941  -2.738   1.292  1.00  0.00    -0.090 Br
ENDBRANCH   8  20
BRANCH   4  22
HETATM   22  C8  UNL     1      -4.223   1.171  -0.188  1.00  0.00     0.069 C 
BRANCH  22  23
HETATM   23  C9  UNL     1      -4.821   1.245   1.190  1.00  0.00     0.091 C 
HETATM   24 BR1  UNL     1      -6.390   2.403   1.051  1.00  0.00    -0.096 Br
ENDBRANCH  22  23
ENDBRANCH   4  22
TORSDOF 6
