REMARK  8 active torsions:
REMARK  status: ('A' for Active; 'I' for Inactive)
REMARK    1  A    between atoms: N1_2  and  C2_4 
REMARK    2  A    between atoms: C4_6  and  N2_7 
REMARK    3  A    between atoms: C5_13  and  C6_14 
REMARK    4  A    between atoms: C6_14  and  N6_15 
REMARK    5  A    between atoms: N6_15  and  C7_17 
REMARK    6  A    between atoms: C8_20  and  N8_21 
REMARK    7  A    between atoms: N8_21  and  N9_23 
REMARK    8  A    between atoms: C11_35  and  N13_36 
ROOT
HETATM    1  N2  UNL     1      -2.046  -0.776  -1.643  1.00  0.00    -0.207 N 
HETATM    2  N3  UNL     1      -2.202  -0.520  -2.930  1.00  0.00     0.004 NA
HETATM    3  N4  UNL     1      -1.012  -0.457  -3.523  1.00  0.00    -0.224 N 
ATOM      4  H4  UNL     1      -0.823  -0.274  -4.509  1.00  0.00     0.205 HD
HETATM    5  N5  UNL     1      -0.129  -0.680  -2.572  1.00  0.00    -0.273 N 
ATOM      6  H5  UNL     1       0.881  -0.696  -2.715  1.00  0.00     0.189 HD
HETATM    7  C5  UNL     1      -0.737  -0.885  -1.378  1.00  0.00     0.137 A 
ENDROOT
BRANCH   7   8
HETATM    8  C6  UNL     1      -0.173  -1.165  -0.056  1.00  0.00     0.203 C 
BRANCH   8   9
HETATM    9  N6  UNL     1       1.247  -1.234  -0.022  1.00  0.00    -0.348 N 
ATOM     10  H6  UNL     1       1.662  -2.163  -0.097  1.00  0.00     0.163 HD
BRANCH   9  11
HETATM   11  C7  UNL     1       2.053  -0.257   0.092  1.00  0.00     0.241 A 
HETATM   12  N7  UNL     1       3.365  -0.472   0.109  1.00  0.00    -0.153 N 
HETATM   13  C8  UNL     1       4.248   0.543   0.230  1.00  0.00     0.704 A 
ATOM     14  H7  UNL     1       3.713  -1.427   0.029  1.00  0.00     0.188 HD
HETATM   15  N10 UNL     1       3.723   1.775   0.331  1.00  0.00    -0.153 N 
HETATM   16  C10 UNL     1       2.397   1.996   0.314  1.00  0.00     0.239 A 
ATOM     17  H10 UNL     1       4.353   2.572   0.424  1.00  0.00     0.188 HD
HETATM   18  N11 UNL     1       1.867   3.156   0.409  1.00  0.00    -0.364 N 
HETATM   19  O1  UNL     1       1.605   0.954   0.194  1.00  0.00    -0.246 OA
ATOM     20 2H11 UNL     1       2.482   3.965   0.502  1.00  0.00     0.159 HD
ATOM     21 1H11 UNL     1       0.861   3.324   0.396  1.00  0.00     0.159 HD
BRANCH  13  22
HETATM   22  N8  UNL     1       5.648   0.300   0.246  1.00  0.00    -0.135 N 
HETATM   23  C9  UNL     1       6.124  -1.063   0.131  1.00  0.00     0.197 C 
BRANCH  22  24
HETATM   24  N9  UNL     1       6.562   1.341   0.370  1.00  0.00    -0.329 N 
ATOM     25  H92 UNL     1       6.227   2.301   0.451  1.00  0.00     0.177 HD
ATOM     26  H91 UNL     1       7.567   1.167   0.381  1.00  0.00     0.177 HD
ENDBRANCH  22  24
ENDBRANCH  13  22
ENDBRANCH   9  11
ENDBRANCH   8   9
ENDBRANCH   7   8
BRANCH   1  27
HETATM   27  C4  UNL     1      -3.075  -0.918  -0.676  1.00  0.00     0.146 A 
HETATM   28  C3  UNL     1      -3.697   0.155  -0.071  1.00  0.00     0.099 A 
HETATM   29  C2  UNL     1      -4.700   0.004   0.871  1.00  0.00     0.120 A 
HETATM   30  N14 UNL     1      -5.062  -1.247   1.188  1.00  0.00    -0.177 N 
HETATM   31  C11 UNL     1      -4.474  -2.329   0.614  1.00  0.00     0.679 A 
ATOM     32  H14 UNL     1      -5.799  -1.391   1.879  1.00  0.00     0.185 HD
HETATM   33  N12 UNL     1      -3.498  -2.138  -0.302  1.00  0.00    -0.175 N 
ATOM     34  H12 UNL     1      -3.063  -2.956  -0.728  1.00  0.00     0.186 HD
BRANCH  29  35
HETATM   35  N1  UNL     1      -5.282   1.032   1.438  1.00  0.00    -0.380 N 
HETATM   36  C1  UNL     1      -4.819   2.342   1.026  1.00  0.00     0.147 C 
ATOM     37  H1  UNL     1      -6.021   0.916   2.132  1.00  0.00     0.160 HD
ENDBRANCH  29  35
BRANCH  31  38
HETATM   38  N13 UNL     1      -4.844  -3.523   0.940  1.00  0.00    -0.234 N 
ATOM     39 2H13 UNL     1      -4.403  -4.335   0.509  1.00  0.00     0.174 HD
ATOM     40 1H13 UNL     1      -5.580  -3.667   1.631  1.00  0.00     0.174 HD
ENDBRANCH  31  38
ENDBRANCH   1  27
TORSDOF 8
