REMARK  6 active torsions:
REMARK  status: ('A' for Active; 'I' for Inactive)
REMARK    1  A    between atoms: N1_2  and  N3_5 
REMARK    2  A    between atoms: C3_10  and  C4_11 
REMARK    3  A    between atoms: C7_21  and  N10_22 
REMARK    4  A    between atoms: N10_22  and  N11_24 
REMARK    5  A    between atoms: C8_26  and  C9_27 
REMARK    6  A    between atoms: C9_27  and  N12_28 
REMARK       I    between atoms: N12_28  and  C10_30 
ROOT
HETATM    1  C1  UNL     1       5.217   0.515   1.554  1.00  0.00     0.193 C 
HETATM    2  N1  UNL     1       4.817  -0.274   0.408  1.00  0.00    -0.211 N 
HETATM    3  C2  UNL     1       5.469  -0.055  -0.813  1.00  0.00     0.201 C 
HETATM    4  N2  UNL     1       6.000   0.145  -1.833  1.00  0.00    -0.170 NA
ENDROOT
BRANCH   2   5
HETATM    5  N3  UNL     1       3.807  -1.238   0.481  1.00  0.00    -0.151 N 
HETATM    6  N4  UNL     1       3.970  -2.494   0.887  1.00  0.00     0.017 NA
HETATM    7  N5  UNL     1       2.769  -3.054   0.801  1.00  0.00    -0.005 NA
HETATM    8  N6  UNL     1       1.881  -2.168   0.352  1.00  0.00    -0.267 N 
HETATM    9  C3  UNL     1       2.535  -1.025   0.151  1.00  0.00     0.187 A 
ATOM     10  H6  UNL     1       0.887  -2.334   0.192  1.00  0.00     0.185 HD
BRANCH   9  11
HETATM   11  C4  UNL     1       1.909   0.209  -0.351  1.00  0.00     0.126 A 
HETATM   12  N7  UNL     1       2.567   1.346  -0.552  1.00  0.00    -0.293 N 
HETATM   13  N8  UNL     1       1.991   2.442  -1.000  1.00  0.00    -0.283 N 
ATOM     14  H7  UNL     1       3.566   1.371  -0.349  1.00  0.00     0.187 HD
HETATM   15  C5  UNL     1       0.652   2.510  -1.302  1.00  0.00     0.147 A 
ATOM     16  H8  UNL     1       2.563   3.277  -1.128  1.00  0.00     0.188 HD
HETATM   17  N9  UNL     1      -0.320   3.318  -1.748  1.00  0.00    -0.309 N 
HETATM   18  C6  UNL     1      -0.076   1.378  -1.118  1.00  0.00     0.098 A 
HETATM   19  S1  UNL     1      -1.484   2.153  -1.646  1.00  0.00    -0.007 SA
ATOM     20  H9  UNL     1      -0.335   4.294  -2.042  1.00  0.00     0.176 HD
HETATM   21  C7  UNL     1       0.540   0.221  -0.642  1.00  0.00     0.102 A 
BRANCH  21  22
HETATM   22  N10 UNL     1      -0.090  -0.843  -0.458  1.00  0.00    -0.297 N 
ATOM     23  H10 UNL     1       0.522  -1.581  -0.110  1.00  0.00     0.187 HD
BRANCH  22  24
HETATM   24  N11 UNL     1      -1.327  -1.269  -0.591  1.00  0.00    -0.314 N 
HETATM   25  C8  UNL     1      -2.416  -1.208  -0.019  1.00  0.00     0.099 C 
ATOM     26  H11 UNL     1      -1.412  -1.829  -1.439  1.00  0.00     0.185 HD
BRANCH  25  27
HETATM   27  C9  UNL     1      -3.587  -1.919  -0.628  1.00  0.00     0.168 C 
BRANCH  27  28
HETATM   28  N12 UNL     1      -4.803  -1.721   0.106  1.00  0.00    -0.360 N 
HETATM   29  C10 UNL     1      -5.438  -0.460   0.132  1.00  0.00     0.182 C 
HETATM   30  N13 UNL     1      -6.733  -0.431   0.384  1.00  0.00    -0.374 N 
HETATM   31  N14 UNL     1      -4.815   0.788  -0.092  1.00  0.00    -0.064 NA
ATOM     32 2H13 UNL     1      -7.183  -1.332   0.546  1.00  0.00     0.158 HD
ATOM     33 1H13 UNL     1      -7.192   0.480   0.403  1.00  0.00     0.158 HD
ATOM     34  H12 UNL     1      -5.215  -2.502   0.616  1.00  0.00     0.162 HD
ENDBRANCH  27  28
ENDBRANCH  25  27
ENDBRANCH  22  24
ENDBRANCH  21  22
ENDBRANCH   9  11
ENDBRANCH   2   5
TORSDOF 6
