REMARK  9 active torsions:
REMARK  status: ('A' for Active; 'I' for Inactive)
REMARK    1  A    between atoms: O1_2  and  C2_3 
REMARK    2  A    between atoms: C2_3  and  C3_5 
REMARK    3  A    between atoms: C5_11  and  N2_12 
REMARK    4  A    between atoms: C5_11  and  C6_16 
REMARK    5  A    between atoms: N3_18  and  N4_20 
REMARK    6  A    between atoms: N4_20  and  C8_22 
REMARK    7  A    between atoms: C8_22  and  O4_23 
REMARK    8  A    between atoms: C8_22  and  C9_25 
REMARK    9  A    between atoms: C11_27  and  O5_28 
ROOT
HETATM    1  C3  UNL     1      -3.137  -0.003   0.128  1.00  0.00     0.322 A 
HETATM    2  O3  UNL     1      -2.365  -0.051   1.330  1.00  0.00    -0.283 OA
HETATM    3  C4  UNL     1      -1.120  -0.665   1.351  1.00  0.00     0.186 C 
HETATM    4  N1  UNL     1      -0.373  -0.681   2.401  1.00  0.00    -0.379 N 
ATOM      5  H11 UNL     1       0.542  -1.132   2.416  1.00  0.00     0.158 HD
ATOM      6  H12 UNL     1      -0.670  -0.237   3.270  1.00  0.00     0.158 HD
HETATM    7  C5  UNL     1      -0.685  -1.316   0.078  1.00  0.00     0.332 C 
HETATM    8  O6  UNL     1      -1.028  -0.450  -0.942  1.00  0.00    -0.301 OA
HETATM    9  C12 UNL     1      -2.363  -0.155  -1.020  1.00  0.00     0.235 A 
HETATM   10  C13 UNL     1      -2.749   0.581  -2.304  1.00  0.00     0.086 C 
HETATM   11  O7  UNL     1      -3.242  -1.145  -0.633  1.00  0.00    -0.299 OA
ENDROOT
BRANCH   7  12
HETATM   12  N2  UNL     1      -1.321  -2.613  -0.063  1.00  0.00    -0.033 N 
ATOM     13  H23 UNL     1      -1.154  -3.210   0.747  1.00  0.00     0.279 HD
ATOM     14  H22 UNL     1      -2.337  -2.549   0.005  1.00  0.00     0.279 HD
ATOM     15  H21 UNL     1      -1.024  -3.057  -0.932  1.00  0.00     0.279 HD
ENDBRANCH   7  12
BRANCH   7  16
HETATM   16  C6  UNL     1       0.771  -1.551   0.058  1.00  0.00     0.070 C 
HETATM   17  C7  UNL     1       1.440  -2.401   1.070  1.00  0.00     0.071 C 
HETATM   18  N3  UNL     1       1.492  -1.009  -0.857  1.00  0.00    -0.306 N 
ATOM     19  H3  UNL     1       1.013  -0.427  -1.544  1.00  0.00     0.186 HD
BRANCH  18  20
HETATM   20  N4  UNL     1       2.856  -1.146  -0.991  1.00  0.00    -0.307 N 
ATOM     21  H4  UNL     1       3.254  -2.080  -0.900  1.00  0.00     0.183 HD
BRANCH  20  22
HETATM   22  C8  UNL     1       3.760  -0.044  -1.254  1.00  0.00     0.239 C 
BRANCH  22  23
HETATM   23  O4  UNL     1       3.381   0.524  -2.456  1.00  0.00    -0.375 OA
ATOM     24  H4  UNL     1       3.974   1.246  -2.628  1.00  0.00     0.212 HD
ENDBRANCH  22  23
BRANCH  22  25
HETATM   25  C9  UNL     1       3.736   0.985  -0.130  1.00  0.00     0.067 A 
HETATM   26  C10 UNL     1       4.130   0.475   1.228  1.00  0.00     0.043 A 
HETATM   27  C11 UNL     1       5.021   1.428   0.489  1.00  0.00     0.127 A 
BRANCH  27  28
HETATM   28  O5  UNL     1       5.176   2.708   0.982  1.00  0.00    -0.395 OA
ATOM     29  H5  UNL     1       5.993   2.990   1.376  1.00  0.00     0.210 HD
ENDBRANCH  27  28
ENDBRANCH  22  25
ENDBRANCH  20  22
ENDBRANCH  18  20
ENDBRANCH   7  16
BRANCH   1  30
HETATM   30  C2  UNL     1      -4.336   0.838   0.171  1.00  0.00     0.328 C 
HETATM   31  O2  UNL     1      -5.053   0.912  -0.871  1.00  0.00    -0.259 OA
BRANCH  30  32
HETATM   32  O1  UNL     1      -4.753   1.565   1.269  1.00  0.00    -0.322 OA
HETATM   33  C1  UNL     1      -5.948   2.353   1.189  1.00  0.00     0.213 C 
ENDBRANCH  30  32
ENDBRANCH   1  30
TORSDOF 9
