REMARK  10 active torsions:
REMARK  status: ('A' for Active; 'I' for Inactive)
REMARK    1  A    between atoms: C2_2  and  N1_3 
REMARK    2  A    between atoms: C3_4  and  C4_5 
REMARK       I    between atoms: C4_5  and  N2_7 
REMARK    3  A    between atoms: N2_7  and  N3_9 
REMARK    4  A    between atoms: C5_13  and  C6_14 
REMARK    5  A    between atoms: C5_13  and  O3_16 
REMARK    6  A    between atoms: O3_16  and  C8_17 
REMARK       I    between atoms: C8_17  and  N4_19 
REMARK    7  A    between atoms: N4_19  and  N5_20 
REMARK    8  A    between atoms: C9_24  and  O6_25 
REMARK    9  A    between atoms: C9_24  and  C10_27 
REMARK   10  A    between atoms: C10_27  and  O8_29 
ROOT
HETATM    1  N1  UNL     1      -1.254   0.256   0.058  1.00  0.00    -0.296 N 
HETATM    2  C3  UNL     1      -0.852  -1.065   0.133  1.00  0.00     0.328 C 
HETATM    3  O2  UNL     1       0.492  -1.004   0.659  1.00  0.00    -0.297 OA
HETATM    4  C5  UNL     1       1.352  -0.389  -0.185  1.00  0.00     0.297 C 
HETATM    5  O5  UNL     1       0.969   0.942  -0.445  1.00  0.00    -0.267 OA
HETATM    6  C9  UNL     1      -0.394   1.112  -0.647  1.00  0.00     0.348 C 
ENDROOT
BRANCH   4   7
HETATM    7  C6  UNL     1       1.546  -1.051  -1.528  1.00  0.00     0.098 C 
HETATM    8  C7  UNL     1       2.544  -0.239  -2.350  1.00  0.00     0.013 C 
ENDBRANCH   4   7
BRANCH   4   9
HETATM    9  O3  UNL     1       2.611  -0.260   0.412  1.00  0.00    -0.227 OA
BRANCH   9  10
HETATM   10  C8  UNL     1       3.374  -1.361   0.910  1.00  0.00     0.462 C 
HETATM   11  O4  UNL     1       2.701  -2.441   0.741  1.00  0.00    -0.219 OA
HETATM   12  N4  UNL     1       4.601  -1.189   1.449  1.00  0.00    -0.266 NA
BRANCH  12  13
HETATM   13  N5  UNL     1       5.785  -1.028   1.971  1.00  0.00    -0.275 N 
ATOM     14  H52 UNL     1       4.873  -1.346   1.643  1.00  0.00     0.191 HD
ATOM     15  H51 UNL     1       6.711  -0.898   2.378  1.00  0.00     0.191 HD
ENDBRANCH  12  13
ENDBRANCH   9  10
ENDBRANCH   4   9
BRANCH   2  16
HETATM   16  C4  UNL     1      -1.573  -2.030   0.958  1.00  0.00     0.285 C 
HETATM   17  O1  UNL     1      -1.074  -2.463   2.070  1.00  0.00    -0.267 OA
HETATM   18  N2  UNL     1      -2.832  -2.566   0.619  1.00  0.00    -0.273 N 
ATOM     19  H2  UNL     1      -3.261  -2.254  -0.252  1.00  0.00     0.189 HD
BRANCH  18  20
HETATM   20  N3  UNL     1      -3.521  -3.477   1.377  1.00  0.00    -0.342 N 
ATOM     21  H32 UNL     1      -3.077  -3.778   2.245  1.00  0.00     0.176 HD
ATOM     22  H31 UNL     1      -4.432  -3.865   1.132  1.00  0.00     0.176 HD
ENDBRANCH  18  20
ENDBRANCH   2  16
BRANCH   6  23
HETATM   23  O6  UNL     1      -0.609   1.110  -2.036  1.00  0.00    -0.340 OA
ATOM     24  H6  UNL     1      -0.027   1.689  -2.513  1.00  0.00     0.215 HD
ENDBRANCH   6  23
BRANCH   6  25
HETATM   25  C10 UNL     1      -0.652   2.527  -0.186  1.00  0.00     0.345 C 
HETATM   26  O7  UNL     1      -0.625   2.854   1.015  1.00  0.00    -0.257 OA
BRANCH  25  27
HETATM   27  O8  UNL     1      -0.931   3.516  -1.102  1.00  0.00    -0.321 OA
HETATM   28  C11 UNL     1      -1.179   4.845  -0.749  1.00  0.00     0.213 C 
ENDBRANCH  25  27
ENDBRANCH   6  25
BRANCH   1  29
HETATM   29  C2  UNL     1      -2.593   0.628   0.022  1.00  0.00     0.063 C 
HETATM   30  C1  UNL     1      -3.410   0.468   1.274  1.00  0.00     0.055 C 
ENDBRANCH   1  29
TORSDOF 10
