REMARK  6 active torsions:
REMARK  status: ('A' for Active; 'I' for Inactive)
REMARK    1  A    between atoms: C2_3  and  C3_4 
REMARK    2  A    between atoms: C3_4  and  N2_5 
REMARK    3  A    between atoms: N2_5  and  C4_7 
REMARK    4  A    between atoms: C7_15  and  N6_16 
REMARK    5  A    between atoms: C9_27  and  C10_28 
REMARK    6  A    between atoms: N11_29  and  N12_31 
REMARK       I    between atoms: N12_31  and  C11_33 
ROOT
HETATM    1  N1  UNL     1      -0.311  -5.121  -2.519  1.00  0.00    -0.197 NA
HETATM    2  C1  UNL     1      -0.102  -4.216  -1.812  1.00  0.00     0.060 C 
HETATM    3  C2  UNL     1       0.136  -3.087  -0.944  1.00  0.00     0.143 C 
ENDROOT
BRANCH   3   4
HETATM    4  C3  UNL     1       0.489  -1.838  -1.739  1.00  0.00     0.135 C 
BRANCH   4   5
HETATM    5  N2  UNL     1       0.727  -0.711  -0.895  1.00  0.00    -0.373 N 
ATOM      6  H2  UNL     1       1.697  -0.462  -0.700  1.00  0.00     0.161 HD
BRANCH   5   7
HETATM    7  C4  UNL     1      -0.194   0.013  -0.363  1.00  0.00     0.133 A 
HETATM    8  N3  UNL     1      -1.501  -0.222  -0.553  1.00  0.00    -0.335 N 
HETATM    9  C5  UNL     1      -2.469   0.530  -0.001  1.00  0.00     0.123 A 
ATOM     10  H3  UNL     1      -1.773  -1.008  -1.144  1.00  0.00     0.168 HD
HETATM   11  C6  UNL     1      -3.823   0.295  -0.191  1.00  0.00     0.162 A 
HETATM   12  C8  UNL     1      -2.136   1.600   0.801  1.00  0.00     0.174 A 
HETATM   13  N4  UNL     1      -4.161  -0.804  -1.015  1.00  0.00    -0.080 NA
HETATM   14  N5  UNL     1      -4.749   1.085   0.390  1.00  0.00    -0.177 N 
HETATM   15  C7  UNL     1      -4.415   2.126   1.170  1.00  0.00     0.678 A 
ATOM     16  H5  UNL     1      -5.737   0.885   0.232  1.00  0.00     0.185 HD
HETATM   17  N7  UNL     1      -3.090   2.364   1.362  1.00  0.00    -0.173 N 
ATOM     18  H7  UNL     1      -2.810   3.148   1.951  1.00  0.00     0.186 HD
HETATM   19  N8  UNL     1      -0.833   1.842   0.996  1.00  0.00    -0.217 N 
HETATM   20  N9  UNL     1      -0.286   2.814   1.728  1.00  0.00    -0.233 N 
HETATM   21  C12 UNL     1       0.152   1.080   0.437  1.00  0.00     0.133 A 
HETATM   22  N10 UNL     1       1.016   2.708   1.662  1.00  0.00    -0.282 N 
ATOM     23  H9  UNL     1      -0.799   3.523   2.253  1.00  0.00     0.209 HD
HETATM   24  C9  UNL     1       1.314   1.651   0.876  1.00  0.00     0.099 A 
ATOM     25  H10 UNL     1       1.690   3.318   2.124  1.00  0.00     0.188 HD
BRANCH  15  26
HETATM   26  N6  UNL     1      -5.317   2.866   1.713  1.00  0.00    -0.234 N 
ATOM     27  H62 UNL     1      -6.311   2.687   1.569  1.00  0.00     0.174 HD
ATOM     28  H61 UNL     1      -5.063   3.657   2.305  1.00  0.00     0.174 HD
ENDBRANCH  15  26
BRANCH  24  29
HETATM   29  C10 UNL     1       2.667   1.204   0.556  1.00  0.00     0.140 C 
HETATM   30  N11 UNL     1       3.681   1.839   1.041  1.00  0.00    -0.306 N 
ATOM     31  H11 UNL     1       3.546   2.650   1.645  1.00  0.00     0.186 HD
BRANCH  30  32
HETATM   32  N12 UNL     1       4.961   1.396   0.724  1.00  0.00    -0.254 N 
HETATM   33  C11 UNL     1       5.332   0.035   0.875  1.00  0.00     0.347 C 
HETATM   34  N13 UNL     1       6.659  -0.340   0.529  1.00  0.00    -0.038 NA
HETATM   35  O1  UNL     1       4.521  -0.839   1.303  1.00  0.00    -0.249 OA
ATOM     36  H12 UNL     1       5.648   2.064   0.375  1.00  0.00     0.191 HD
ENDBRANCH  30  32
ENDBRANCH  24  29
ENDBRANCH   5   7
ENDBRANCH   4   5
ENDBRANCH   3   4
TORSDOF 6
