REMARK  7 active torsions:
REMARK  status: ('A' for Active; 'I' for Inactive)
REMARK    1  A    between atoms: C2_3  and  N2_4 
REMARK       I    between atoms: N2_4  and  C3_6 
REMARK    2  A    between atoms: C5_10  and  C6_11 
REMARK    3  A    between atoms: C6_11  and  O3_12 
REMARK    4  A    between atoms: C6_11  and  N3_14 
REMARK    5  A    between atoms: N3_14  and  N4_16 
REMARK    6  A    between atoms: C7_17  and  C8_18 
REMARK    7  A    between atoms: C10_29  and  N8_30 
ROOT
HETATM    1  C1  UNL     1      -4.048   1.472   1.603  1.00  0.00     0.177 C 
HETATM    2  N1  UNL     1      -2.712   1.158   1.105  1.00  0.00    -0.173 N 
HETATM    3  C2  UNL     1      -1.739   0.683   1.871  1.00  0.00     0.130 A 
HETATM    4  C4  UNL     1      -0.472   0.414   1.270  1.00  0.00     0.079 A 
HETATM    5  C5  UNL     1      -0.255   0.636  -0.058  1.00  0.00     0.079 A 
HETATM    6  N7  UNL     1      -1.269   1.113  -0.772  1.00  0.00    -0.191 N 
ATOM      7  H7  UNL     1      -1.133   1.288  -1.768  1.00  0.00     0.184 HD
HETATM    8  C10 UNL     1      -2.479   1.374  -0.217  1.00  0.00     0.679 A 
ENDROOT
BRANCH   5   9
HETATM    9  C6  UNL     1       1.098   0.350  -0.715  1.00  0.00     0.285 C 
BRANCH   9  10
HETATM   10  O3  UNL     1       1.987   0.900   0.234  1.00  0.00    -0.370 OA
ATOM     11  H3  UNL     1       2.827   0.723  -0.174  1.00  0.00     0.212 HD
ENDBRANCH   9  10
BRANCH   9  12
HETATM   12  N3  UNL     1       1.340  -1.038  -0.780  1.00  0.00    -0.291 N 
ATOM     13  H3  UNL     1       0.597  -1.587  -0.347  1.00  0.00     0.184 HD
BRANCH  12  14
HETATM   14  N4  UNL     1       2.340  -1.817  -1.289  1.00  0.00    -0.206 N 
HETATM   15  C7  UNL     1       3.452  -1.606  -1.996  1.00  0.00     0.222 A 
HETATM   16  N5  UNL     1       4.122  -2.801  -2.177  1.00  0.00    -0.276 N 
HETATM   17  N6  UNL     1       3.433  -3.736  -1.593  1.00  0.00    -0.273 N 
ATOM     18  H5  UNL     1       5.001  -2.927  -2.679  1.00  0.00     0.189 HD
HETATM   19  C9  UNL     1       2.358  -3.187  -1.050  1.00  0.00     0.214 A 
ATOM     20  H6  UNL     1       3.679  -4.725  -1.559  1.00  0.00     0.189 HD
HETATM   21  S1  UNL     1       1.238  -4.034  -0.222  1.00  0.00    -0.037 SA
BRANCH  15  22
HETATM   22  C8  UNL     1       3.957  -0.410  -2.563  1.00  0.00     0.248 C 
HETATM   23  O4  UNL     1       5.084  -0.519  -3.204  1.00  0.00    -0.642 OA
HETATM   24  O5  UNL     1       3.485   0.856  -2.572  1.00  0.00    -0.642 OA
ENDBRANCH  15  22
ENDBRANCH  12  14
ENDBRANCH   9  12
ENDBRANCH   5   9
BRANCH   3  25
HETATM   25  N2  UNL     1      -1.862   0.453   3.097  1.00  0.00    -0.286 N 
HETATM   26  C3  UNL     1      -2.778   0.525   4.094  1.00  0.00     0.289 C 
HETATM   27  O1  UNL     1      -3.481  -0.485   4.474  1.00  0.00    -0.629 OA
HETATM   28  O2  UNL     1      -3.080   1.690   4.840  1.00  0.00    -0.629 OA
ATOM     29  H2  UNL     1      -0.982   0.093   3.467  1.00  0.00     0.173 HD
ENDBRANCH   3  25
BRANCH   8  30
HETATM   30  N8  UNL     1      -3.454   1.841  -0.934  1.00  0.00    -0.234 N 
ATOM     31  H82 UNL     1      -4.364   2.037  -0.517  1.00  0.00     0.174 HD
ATOM     32  H81 UNL     1      -3.279   2.003  -1.926  1.00  0.00     0.174 HD
ENDBRANCH   8  30
TORSDOF 7
