REMARK  8 active torsions:
REMARK  status: ('A' for Active; 'I' for Inactive)
REMARK    1  A    between atoms: C5_9  and  C6_10 
REMARK    2  A    between atoms: C6_10  and  C7_11 
REMARK    3  A    between atoms: C7_11  and  C8_12 
REMARK    4  A    between atoms: C8_12  and  C9_13 
REMARK    5  A    between atoms: C9_13  and  C10_14 
REMARK    6  A    between atoms: C11_15  and  C12_16 
REMARK    7  A    between atoms: C13_17  and  C14_18 
REMARK    8  A    between atoms: C14_18  and  N3_19 
ROOT
HETATM    1  C7  UNL     1      -1.225  -0.346  -0.692  1.00  0.00     0.001 C 
ENDROOT
BRANCH   1   2
HETATM    2  C6  UNL     1      -2.043  -0.389   0.604  1.00  0.00     0.007 C 
BRANCH   2   3
HETATM    3  C5  UNL     1      -3.480  -0.410   0.265  1.00  0.00     0.022 A 
HETATM    4  C3  UNL     1      -4.564  -1.097  -0.410  1.00  0.00     0.114 A 
HETATM    5  N2  UNL     1      -5.801  -1.375  -0.865  1.00  0.00    -0.330 N 
HETATM    6  C4  UNL     1      -4.674   0.120   0.325  1.00  0.00     0.067 A 
HETATM    7  N1  UNL     1      -6.629  -0.443  -0.470  1.00  0.00    -0.309 N 
ATOM      8  H2  UNL     1      -6.053  -2.186  -1.430  1.00  0.00     0.180 HD
HETATM    9  C2  UNL     1      -6.009   0.502   0.262  1.00  0.00     0.022 A 
ATOM     10  H1  UNL     1      -7.625  -0.433  -0.690  1.00  0.00     0.186 HD
HETATM   11  C1  UNL     1      -6.565   1.568   0.802  1.00  0.00     0.040 C 
ENDBRANCH   2   3
ENDBRANCH   1   2
BRANCH   1  12
HETATM   12  C8  UNL     1       0.222  -0.326  -0.282  1.00  0.00     0.012 C 
BRANCH  12  13
HETATM   13  C9  UNL     1       1.164  -0.284  -1.451  1.00  0.00     0.095 C 
BRANCH  13  14
HETATM   14  C10 UNL     1       2.532  -0.268  -0.895  1.00  0.00    -0.092 C 
HETATM   15  C11 UNL     1       3.656  -0.241  -0.451  1.00  0.00    -0.015 C 
BRANCH  15  16
HETATM   16  C12 UNL     1       4.971  -0.192   0.073  1.00  0.00    -0.013 C 
HETATM   17  C13 UNL     1       6.100  -0.139   0.505  1.00  0.00    -0.065 C 
BRANCH  17  18
HETATM   18  C14 UNL     1       7.473  -0.059   1.016  1.00  0.00     0.324 C 
BRANCH  18  19
HETATM   19  N3  UNL     1       8.270   0.730   0.080  1.00  0.00    -0.069 N 
ATOM     20  H33 UNL     1       8.227   0.368  -0.873  1.00  0.00     0.275 HD
ATOM     21  H32 UNL     1       7.865   1.649  -0.101  1.00  0.00     0.275 HD
ATOM     22  H31 UNL     1       9.225   0.786   0.435  1.00  0.00     0.275 HD
ENDBRANCH  18  19
ENDBRANCH  17  18
ENDBRANCH  15  16
ENDBRANCH  13  14
ENDBRANCH  12  13
ENDBRANCH   1  12
TORSDOF 8
