REMARK  4 active torsions:
REMARK  status: ('A' for Active; 'I' for Inactive)
REMARK    1  A    between atoms: C1_4  and  C2_5 
REMARK    2  A    between atoms: C1_4  and  C6_12 
REMARK    3  A    between atoms: C2_5  and  N2_6 
REMARK    4  A    between atoms: C6_12  and  N4_13 
ROOT
HETATM    1  N1  UNL     1      -1.263  -1.639   1.258  1.00  0.00    -0.403 N 
ATOM      2  H11 UNL     1      -0.850  -2.346   1.866  1.00  0.00     0.155 HD
ATOM      3  H12 UNL     1      -2.150  -1.235   1.560  1.00  0.00     0.155 HD
HETATM    4  C1  UNL     1      -0.746  -1.247   0.180  1.00  0.00     0.017 C 
ENDROOT
BRANCH   4   5
HETATM    5  C2  UNL     1      -1.348  -0.215  -0.707  1.00  0.00     0.182 C 
BRANCH   5   6
HETATM    6  N2  UNL     1      -2.602   0.288  -0.182  1.00  0.00    -0.346 N 
HETATM    7  C3  UNL     1      -2.806   1.329   0.643  1.00  0.00     0.109 A 
HETATM    8  C4  UNL     1      -4.135   1.464   0.892  1.00  0.00     0.106 A 
HETATM    9  N3  UNL     1      -4.762   0.485   0.206  1.00  0.00    -0.361 N 
HETATM   10  C5  UNL     1      -3.835  -0.214  -0.435  1.00  0.00     0.182 A 
ATOM     11  H3  UNL     1      -5.767   0.314   0.185  1.00  0.00     0.166 HD
ENDBRANCH   5   6
ENDBRANCH   4   5
BRANCH   4  12
HETATM   12  C6  UNL     1       0.548  -1.836  -0.261  1.00  0.00     0.181 C 
BRANCH  12  13
HETATM   13  N4  UNL     1       1.580  -0.805  -0.388  1.00  0.00    -0.359 N 
HETATM   14  C7  UNL     1       1.795  -0.137  -1.527  1.00  0.00     0.091 A 
HETATM   15  C8  UNL     1       2.764   0.835  -1.657  1.00  0.00     0.019 A 
HETATM   16  C9  UNL     1       3.565   1.156  -0.583  1.00  0.00     0.029 A 
HETATM   17  C10 UNL     1       3.351   0.471   0.598  1.00  0.00     0.061 A 
HETATM   18  N5  UNL     1       4.157   0.778   1.722  1.00  0.00    -0.101 NA
HETATM   19  C11 UNL     1       2.359  -0.495   0.662  1.00  0.00     0.117 A 
ENDBRANCH  12  13
ENDBRANCH   4  12
TORSDOF 4
