REMARK  5 active torsions:
REMARK  status: ('A' for Active; 'I' for Inactive)
REMARK    1  A    between atoms: C1_2  and  N2_4 
REMARK    2  A    between atoms: N2_4  and  C2_6 
REMARK    3  A    between atoms: C2_6  and  C3_7 
REMARK    4  A    between atoms: C3_7  and  C4_8 
REMARK    5  A    between atoms: C4_8  and  N3_9 
ROOT
HETATM    1  N3  UNL     1       0.974  -0.044   1.326  1.00  0.00    -0.226 N 
ATOM      2  H3  UNL     1       0.870   0.163   2.319  1.00  0.00     0.177 HD
HETATM    3  C5  UNL     1       2.046   0.313   0.705  1.00  0.00     0.677 A 
HETATM    4  N4  UNL     1       2.208   0.035  -0.670  1.00  0.00    -0.202 N 
ATOM      5  H4  UNL     1       1.466  -0.453  -1.172  1.00  0.00     0.183 HD
HETATM    6  C6  UNL     1       3.292   0.391  -1.314  1.00  0.00     0.107 A 
HETATM    7  C7  UNL     1       4.351   1.088  -0.593  1.00  0.00     0.035 A 
HETATM    8  C8  UNL     1       4.270   1.384   0.703  1.00  0.00     0.107 A 
HETATM    9  N5  UNL     1       3.080   0.989   1.392  1.00  0.00    -0.202 N 
ATOM     10  H5  UNL     1       2.977   1.197   2.385  1.00  0.00     0.183 HD
ENDROOT
BRANCH   1  11
HETATM   11  C4  UNL     1      -0.090  -0.742   0.614  1.00  0.00     0.139 C 
BRANCH  11  12
HETATM   12  C3  UNL     1      -1.318  -0.890   1.474  1.00  0.00     0.040 C 
BRANCH  12  13
HETATM   13  C2  UNL     1      -2.416  -1.617   0.742  1.00  0.00     0.123 C 
BRANCH  13  14
HETATM   14  N2  UNL     1      -2.844  -0.949  -0.467  1.00  0.00    -0.369 N 
ATOM     15  H2  UNL     1      -2.632  -1.393  -1.361  1.00  0.00     0.161 HD
BRANCH  14  16
HETATM   16  C1  UNL     1      -3.537   0.280  -0.485  1.00  0.00     0.180 C 
HETATM   17  N1  UNL     1      -3.929   0.882  -1.706  1.00  0.00    -0.070 NA
HETATM   18  S1  UNL     1      -3.937   1.091   0.882  1.00  0.00    -0.044 SA
ENDBRANCH  14  16
ENDBRANCH  13  14
ENDBRANCH  12  13
ENDBRANCH  11  12
ENDBRANCH   1  11
TORSDOF 5
