REMARK  7 active torsions:
REMARK  status: ('A' for Active; 'I' for Inactive)
REMARK    1  A    between atoms: C2_2  and  N1_3 
REMARK    2  A    between atoms: C2_2  and  C3_7 
REMARK    3  A    between atoms: N2_10  and  C6_11 
REMARK    4  A    between atoms: C6_11  and  C7_12 
REMARK    5  A    between atoms: C7_12  and  C8_13 
REMARK    6  A    between atoms: C8_13  and  C9_14 
REMARK    7  A    between atoms: C9_14  and  N3_15 
ROOT
HETATM    1  C3  UNL     1      -2.264  -0.023   0.052  1.00  0.00     0.043 A 
HETATM    2  C4  UNL     1      -1.688   0.415  -1.121  1.00  0.00     0.044 A 
HETATM    3  C5  UNL     1      -0.413   0.039  -1.465  1.00  0.00     0.093 A 
HETATM    4  N2  UNL     1       0.233  -0.768  -0.607  1.00  0.00    -0.353 N 
HETATM    5  C10 UNL     1      -0.335  -1.190   0.533  1.00  0.00     0.185 A 
HETATM    6  N4  UNL     1      -1.582  -0.831   0.884  1.00  0.00    -0.349 N 
HETATM    7  C11 UNL     1      -2.192  -1.291   2.114  1.00  0.00     0.156 C 
ENDROOT
BRANCH   4   8
HETATM    8  C6  UNL     1       1.566  -1.195  -0.910  1.00  0.00     0.129 C 
BRANCH   8   9
HETATM    9  C7  UNL     1       2.594  -0.221  -0.346  1.00  0.00     0.022 C 
BRANCH   9  10
HETATM   10  C8  UNL     1       3.990  -0.683  -0.673  1.00  0.00     0.029 C 
BRANCH  10  11
HETATM   11  C9  UNL     1       4.995   0.280  -0.115  1.00  0.00     0.229 C 
BRANCH  11  12
HETATM   12  N3  UNL     1       4.758   1.578  -0.707  1.00  0.00    -0.079 N 
ATOM     13  H33 UNL     1       4.764   1.551  -1.727  1.00  0.00     0.274 HD
ATOM     14  H32 UNL     1       3.797   1.897  -0.582  1.00  0.00     0.274 HD
ATOM     15  H31 UNL     1       5.442   2.233  -0.327  1.00  0.00     0.274 HD
ENDBRANCH  11  12
ENDBRANCH  10  11
ENDBRANCH   9  10
ENDBRANCH   8   9
ENDBRANCH   4   8
BRANCH   1  16
HETATM   16  C2  UNL     1      -3.625   0.407   0.369  1.00  0.00     0.229 C 
HETATM   17  C1  UNL     1      -3.976   1.584  -0.515  1.00  0.00     0.046 C 
BRANCH  16  18
HETATM   18  N1  UNL     1      -3.819   0.845   1.730  1.00  0.00    -0.070 N 
ATOM     19  H13 UNL     1      -3.299   1.692   1.960  1.00  0.00     0.275 HD
ATOM     20  H12 UNL     1      -4.752   1.218   1.905  1.00  0.00     0.275 HD
ATOM     21  H11 UNL     1      -3.582   0.052   2.326  1.00  0.00     0.275 HD
ENDBRANCH  16  18
ENDBRANCH   1  16
TORSDOF 7
