REMARK  5 active torsions:
REMARK  status: ('A' for Active; 'I' for Inactive)
REMARK    1  A    between atoms: O1_1  and  C1_3 
REMARK    2  A    between atoms: C1_3  and  C2_4 
REMARK    3  A    between atoms: C2_4  and  C3_5 
REMARK    4  A    between atoms: C6_8  and  C7_9 
REMARK    5  A    between atoms: N1_10  and  C8_12 
ROOT
HETATM    1  C3  UNL     1      -2.580  -0.410   0.177  1.00  0.00    -0.056 A 
HETATM    2  C4  UNL     1      -2.032   0.192   1.296  1.00  0.00     0.008 A 
HETATM    3  C5  UNL     1      -0.676   0.391   1.348  1.00  0.00     0.013 A 
HETATM    4  C6  UNL     1       0.185   0.008   0.307  1.00  0.00    -0.021 A 
HETATM    5  C11 UNL     1      -0.384  -0.587  -0.791  1.00  0.00     0.013 A 
HETATM    6  C12 UNL     1      -1.766  -0.799  -0.864  1.00  0.00     0.008 A 
ENDROOT
BRANCH   4   7
HETATM    7  C7  UNL     1       1.615   0.248   0.426  1.00  0.00     0.101 C 
HETATM    8  N1  UNL     1       2.430  -0.086  -0.499  1.00  0.00    -0.350 N 
ATOM      9  H1  UNL     1       2.101  -0.534  -1.354  1.00  0.00     0.166 HD
BRANCH   8  10
HETATM   10  C8  UNL     1       3.837   0.192  -0.295  1.00  0.00     0.121 A 
HETATM   11  C9  UNL     1       4.781  -0.605   0.299  1.00  0.00     0.137 A 
HETATM   12  N2  UNL     1       5.960   0.060   0.268  1.00  0.00    -0.358 N 
HETATM   13  C10 UNL     1       5.781   1.255  -0.329  1.00  0.00     0.182 A 
ATOM     14  H2  UNL     1       6.844  -0.288   0.638  1.00  0.00     0.166 HD
HETATM   15  N3  UNL     1       4.486   1.316  -0.664  1.00  0.00    -0.337 N 
ATOM     16  H3  UNL     1       4.048   2.107  -1.136  1.00  0.00     0.168 HD
ENDBRANCH   8  10
ENDBRANCH   4   7
BRANCH   1  17
HETATM   17  C2  UNL     1      -4.032  -0.627   0.113  1.00  0.00     0.064 C 
BRANCH  17  18
HETATM   18  C1  UNL     1      -4.766   0.541  -0.507  1.00  0.00     0.168 C 
BRANCH  18  19
HETATM   19  O1  UNL     1      -6.129   0.257  -0.530  1.00  0.00    -0.401 OA
ATOM     20  H1  UNL     1      -6.590   0.991  -0.919  1.00  0.00     0.209 HD
ENDBRANCH  18  19
ENDBRANCH  17  18
ENDBRANCH   1  17
TORSDOF 5
