REMARK  6 active torsions:
REMARK  status: ('A' for Active; 'I' for Inactive)
REMARK    1  A    between atoms: S1_2  and  C2_4 
REMARK    2  A    between atoms: C2_4  and  N1_5 
REMARK    3  A    between atoms: C3_6  and  O2_7 
REMARK    4  A    between atoms: C4_9  and  O3_10 
REMARK    5  A    between atoms: C5_12  and  C6_13 
REMARK    6  A    between atoms: C6_13  and  O4_14 
ROOT
HETATM    1  N1  UNL     1       0.095   0.259  -0.040  1.00  0.00     0.140 N 
HETATM    2  C3  UNL     1      -0.527  -0.760  -0.817  1.00  0.00     0.389 C 
HETATM    3  C4  UNL     1      -1.846  -0.591  -0.091  1.00  0.00     0.212 C 
HETATM    4  C5  UNL     1      -1.189   0.659   0.463  1.00  0.00     0.283 C 
ENDROOT
BRANCH   1   5
HETATM    5  C2  UNL     1       0.986  -0.144   0.997  1.00  0.00     0.384 C 
BRANCH   5   6
HETATM    6  S1  UNL     1       2.365  -1.091   0.354  1.00  0.00     0.039 S 
HETATM    7  C1  UNL     1       3.299  -0.154  -0.806  1.00  0.00     0.129 C 
HETATM    8  O1  UNL     1       3.375  -1.414   1.680  1.00  0.00    -0.257 OA
ENDBRANCH   5   6
ENDBRANCH   1   5
BRANCH   2   9
HETATM    9  O2  UNL     1       0.017  -2.021  -0.769  1.00  0.00    -0.366 OA
ATOM     10  H2  UNL     1      -0.398  -2.701  -1.287  1.00  0.00     0.212 HD
ENDBRANCH   2   9
BRANCH   4  11
HETATM   11  C6  UNL     1      -1.652   1.944  -0.189  1.00  0.00     0.203 C 
BRANCH  11  12
HETATM   12  O4  UNL     1      -2.908   2.305   0.325  1.00  0.00    -0.399 OA
ATOM     13  H4  UNL     1      -3.199   3.112  -0.084  1.00  0.00     0.209 HD
ENDBRANCH  11  12
ENDBRANCH   4  11
BRANCH   3  14
HETATM   14  O3  UNL     1      -2.074  -1.580   0.879  1.00  0.00    -0.389 OA
ATOM     15  H3  UNL     1      -2.901  -1.474   1.334  1.00  0.00     0.210 HD
ENDBRANCH   3  14
TORSDOF 6
