REMARK  6 active torsions:
REMARK  status: ('A' for Active; 'I' for Inactive)
REMARK    1  A    between atoms: N1_2  and  C3_4 
REMARK    2  A    between atoms: C3_4  and  C4_5 
REMARK    3  A    between atoms: C5_7  and  C6_8 
REMARK    4  A    between atoms: C6_8  and  O2_9 
REMARK    5  A    between atoms: C7_11  and  O3_12 
REMARK    6  A    between atoms: C8_14  and  O4_15 
ROOT
HETATM    1  C4  UNL     1       0.101  -0.403   0.002  1.00  0.00     0.181 C 
HETATM    2  O1  UNL     1      -0.929  -0.659   0.887  1.00  0.00    -0.371 OA
HETATM    3  C5  UNL     1      -2.069  -0.780   0.120  1.00  0.00     0.176 C 
HETATM    4  C7  UNL     1      -1.923   0.126  -1.063  1.00  0.00     0.180 C 
HETATM    5  C8  UNL     1      -0.503   0.638  -0.901  1.00  0.00     0.180 C 
ENDROOT
BRANCH   1   6
HETATM    6  C3  UNL     1       1.289   0.112   0.767  1.00  0.00     0.305 C 
BRANCH   6   7
HETATM    7  N1  UNL     1       2.412   0.401  -0.110  1.00  0.00     0.082 N 
HETATM    8  C1  UNL     1       3.487   0.890   0.767  1.00  0.00     0.309 C 
HETATM    9  C2  UNL     1       2.921  -0.820  -0.708  1.00  0.00     0.309 C 
ENDBRANCH   6   7
ENDBRANCH   1   6
BRANCH   5  10
HETATM   10  O4  UNL     1      -0.600   1.889  -0.300  1.00  0.00    -0.390 OA
ATOM     11  H4  UNL     1      -0.981   2.546  -0.870  1.00  0.00     0.210 HD
ENDBRANCH   5  10
BRANCH   3  12
HETATM   12  C6  UNL     1      -3.321  -0.482   0.926  1.00  0.00     0.198 C 
BRANCH  12  13
HETATM   13  O2  UNL     1      -3.243   0.821   1.407  1.00  0.00    -0.398 OA
ATOM     14  H2  UNL     1      -4.026   1.007   1.911  1.00  0.00     0.209 HD
ENDBRANCH  12  13
ENDBRANCH   3  12
BRANCH   4  15
HETATM   15  O3  UNL     1      -2.052  -0.548  -2.278  1.00  0.00    -0.390 OA
ATOM     16  H3  UNL     1      -1.959   0.027  -3.029  1.00  0.00     0.210 HD
ENDBRANCH   4  15
TORSDOF 6
