REMARK  6 active torsions:
REMARK  status: ('A' for Active; 'I' for Inactive)
REMARK    1  A    between atoms: N2_6  and  C5_7 
REMARK    2  A    between atoms: C5_7  and  C6_8 
REMARK    3  A    between atoms: C6_8  and  N3_9 
REMARK    4  A    between atoms: C6_8  and  N4_13 
REMARK    5  A    between atoms: C6_8  and  C7_17 
REMARK    6  A    between atoms: C7_17  and  O1_18 
ROOT
HETATM    1  C6  UNL     1      -1.839   0.210  -0.121  1.00  0.00     0.320 C 
ENDROOT
BRANCH   1   2
HETATM    2  C5  UNL     1      -0.827   0.351   0.971  1.00  0.00     0.219 C 
BRANCH   2   3
HETATM    3  N2  UNL     1       0.527   0.144   0.498  1.00  0.00    -0.297 N 
HETATM    4  N1  UNL     1       1.198  -0.983   0.452  1.00  0.00    -0.305 N 
HETATM    5  C3  UNL     1       2.437  -0.806  -0.052  1.00  0.00     0.118 A 
HETATM    6  C4  UNL     1       0.730  -2.294   0.877  1.00  0.00     0.177 C 
HETATM    7  C2  UNL     1       2.566   0.525  -0.348  1.00  0.00    -0.028 A 
HETATM    8  C1  UNL     1       3.765   1.190  -0.928  1.00  0.00     0.051 C 
HETATM    9  C8  UNL     1       1.366   1.101   0.002  1.00  0.00     0.118 A 
ENDBRANCH   2   3
ENDBRANCH   1   2
BRANCH   1  10
HETATM   10  N3  UNL     1      -1.797  -1.109  -0.714  1.00  0.00    -0.041 N 
ATOM     11  H33 UNL     1      -0.859  -1.342  -1.041  1.00  0.00     0.277 HD
ATOM     12  H32 UNL     1      -1.904  -1.839  -0.009  1.00  0.00     0.277 HD
ATOM     13  H31 UNL     1      -2.487  -1.205  -1.459  1.00  0.00     0.277 HD
ENDBRANCH   1  10
BRANCH   1  14
HETATM   14  N4  UNL     1      -1.623   1.198  -1.186  1.00  0.00    -0.041 N 
ATOM     15  H43 UNL     1      -1.604   2.148  -0.815  1.00  0.00     0.277 HD
ATOM     16  H42 UNL     1      -0.672   1.152  -1.551  1.00  0.00     0.277 HD
ATOM     17  H41 UNL     1      -2.313   1.102  -1.931  1.00  0.00     0.277 HD
ENDBRANCH   1  14
BRANCH   1  18
HETATM   18  C7  UNL     1      -3.251   0.432   0.371  1.00  0.00     0.235 C 
BRANCH  18  19
HETATM   19  O1  UNL     1      -3.394   1.724   0.910  1.00  0.00    -0.397 OA
ATOM     20  H1  UNL     1      -4.281   1.864   1.219  1.00  0.00     0.209 HD
ENDBRANCH  18  19
ENDBRANCH   1  18
TORSDOF 6
