REMARK  6 active torsions:
REMARK  status: ('A' for Active; 'I' for Inactive)
REMARK    1  A    between atoms: S1_2  and  C1_3 
REMARK    2  A    between atoms: S1_2  and  C3_7 
REMARK    3  A    between atoms: C1_3  and  C2_4 
REMARK    4  A    between atoms: C2_4  and  O2_5 
REMARK    5  A    between atoms: C5_10  and  O4_11 
REMARK    6  A    between atoms: C6_13  and  O5_14 
ROOT
HETATM    1  C3  UNL     1      -0.577  -0.022  -0.595  1.00  0.00     0.245 C 
HETATM    2  O3  UNL     1      -0.901   1.142   0.101  1.00  0.00    -0.368 OA
HETATM    3  C4  UNL     1      -2.257   1.283  -0.278  1.00  0.00     0.203 C 
HETATM    4  C5  UNL     1      -2.802  -0.060   0.146  1.00  0.00     0.174 C 
HETATM    5  C6  UNL     1      -1.677  -0.994  -0.306  1.00  0.00     0.190 C 
ENDROOT
BRANCH   1   6
HETATM    6  S1  UNL     1       1.024  -0.591  -0.163  1.00  0.00     0.049 S 
HETATM    7  O1  UNL     1       1.492  -1.966  -0.940  1.00  0.00    -0.255 OA
BRANCH   6   8
HETATM    8  C1  UNL     1       2.178   0.746  -0.349  1.00  0.00     0.137 C 
BRANCH   8   9
HETATM    9  C2  UNL     1       3.528   0.362   0.210  1.00  0.00     0.176 C 
BRANCH   9  10
HETATM   10  O2  UNL     1       3.364   0.069   1.547  1.00  0.00    -0.400 OA
ATOM     11  H2  UNL     1       4.213  -0.172   1.899  1.00  0.00     0.209 HD
ENDBRANCH   9  10
ENDBRANCH   8   9
ENDBRANCH   6   8
ENDBRANCH   1   6
BRANCH   5  12
HETATM   12  O5  UNL     1      -1.383  -1.872   0.724  1.00  0.00    -0.389 OA
ATOM     13  H5  UNL     1      -2.081  -2.489   0.908  1.00  0.00     0.210 HD
ENDBRANCH   5  12
BRANCH   4  14
HETATM   14  O4  UNL     1      -2.902  -0.110   1.530  1.00  0.00    -0.391 OA
ATOM     15  H4  UNL     1      -3.245  -0.955   1.797  1.00  0.00     0.210 HD
ENDBRANCH   4  14
TORSDOF 6
