REMARK  4 active torsions:
REMARK  status: ('A' for Active; 'I' for Inactive)
REMARK    1  A    between atoms: O1_1  and  C1_3 
REMARK    2  A    between atoms: C1_3  and  C2_4 
REMARK    3  A    between atoms: C2_4  and  N1_5 
REMARK    4  A    between atoms: N1_5  and  C3_8 
ROOT
HETATM    1  C3  UNL     1       0.189  -0.041  -0.594  1.00  0.00     0.415 C 
HETATM    2  N2  UNL     1       0.146  -0.895  -1.760  1.00  0.00    -0.042 N 
ATOM      3  H21 UNL     1       1.058  -1.235  -2.066  1.00  0.00     0.279 HD
ATOM      4  H22 UNL     1      -0.086  -0.411  -2.627  1.00  0.00     0.279 HD
HETATM    5  C4  UNL     1      -0.796  -1.949  -1.387  1.00  0.00     0.265 C 
HETATM    6  C5  UNL     1      -2.087  -1.476  -0.858  1.00  0.00     0.300 C 
HETATM    7  N3  UNL     1      -2.139  -0.215  -0.215  1.00  0.00     0.098 N 
HETATM    8  C6  UNL     1      -2.130  -0.219   1.210  1.00  0.00     0.273 C 
HETATM    9  C7  UNL     1      -2.137   1.273   1.517  1.00  0.00     0.033 C 
HETATM   10  C8  UNL     1      -1.221   1.798   0.423  1.00  0.00     0.041 C 
HETATM   11  C9  UNL     1      -1.114   0.726  -0.603  1.00  0.00     0.281 C 
ENDROOT
BRANCH   1  12
HETATM   12  N1  UNL     1       1.360   0.727  -0.517  1.00  0.00    -0.042 N 
ATOM     13  H12 UNL     1       1.223   1.609  -0.023  1.00  0.00     0.279 HD
ATOM     14  H11 UNL     1       1.637   1.118  -1.418  1.00  0.00     0.279 HD
BRANCH  12  15
HETATM   15  C2  UNL     1       2.390  -0.096   0.079  1.00  0.00     0.260 C 
BRANCH  15  16
HETATM   16  C1  UNL     1       3.593   0.719   0.539  1.00  0.00     0.191 C 
BRANCH  16  17
HETATM   17  O1  UNL     1       4.520  -0.151   1.099  1.00  0.00    -0.399 OA
ATOM     18  H1  UNL     1       5.270   0.357   1.386  1.00  0.00     0.209 HD
ENDBRANCH  16  17
ENDBRANCH  15  16
ENDBRANCH  12  15
ENDBRANCH   1  12
TORSDOF 4
