REMARK  2 active torsions:
REMARK  status: ('A' for Active; 'I' for Inactive)
REMARK    1  A    between atoms: C1_4  and  N2_5 
REMARK    2  A    between atoms: N3_10  and  N4_12 
ROOT
HETATM    1  N2  UNL     1      -1.319  -0.523   0.055  1.00  0.00    -0.322 N 
HETATM    2  C2  UNL     1      -2.686  -0.183  -0.291  1.00  0.00     0.142 C 
HETATM    3  C3  UNL     1      -3.419   0.110   1.013  1.00  0.00     0.103 C 
HETATM    4  S1  UNL     1      -2.154   1.251   1.722  1.00  0.00    -0.091 SA
HETATM    5  C4  UNL     1      -0.746   0.496   0.867  1.00  0.00     0.162 C 
HETATM    6  N3  UNL     1       0.486   0.804   0.969  1.00  0.00    -0.278 N 
ATOM      7  H3  UNL     1       0.734   1.565   1.601  1.00  0.00     0.189 HD
ENDROOT
BRANCH   1   8
HETATM    8  C1  UNL     1      -0.656  -1.727  -0.385  1.00  0.00     0.178 C 
HETATM    9  N1  UNL     1      -0.102  -1.804  -1.540  1.00  0.00    -0.395 N 
ATOM     10  H12 UNL     1      -0.140  -0.987  -2.149  1.00  0.00     0.156 HD
ATOM     11  H11 UNL     1       0.367  -2.655  -1.851  1.00  0.00     0.156 HD
ENDBRANCH   1   8
BRANCH   6  12
HETATM   12  N4  UNL     1       1.504   0.182   0.286  1.00  0.00    -0.274 N 
HETATM   13  C5  UNL     1       2.615   0.678  -0.053  1.00  0.00     0.215 C 
HETATM   14  N5  UNL     1       3.559  -0.096  -0.755  1.00  0.00    -0.065 NA
HETATM   15  N6  UNL     1       2.921   2.017   0.271  1.00  0.00    -0.065 NA
ATOM     16  H4  UNL     1       1.344  -0.790   0.023  1.00  0.00     0.189 HD
ENDBRANCH   6  12
TORSDOF 2
