REMARK  2 active torsions:
REMARK  status: ('A' for Active; 'I' for Inactive)
REMARK    1  A    between atoms: C2_2  and  C3_4 
REMARK    2  A    between atoms: N2_5  and  C4_6 
REMARK       I    between atoms: N3_10  and  C7_11 
ROOT
HETATM    1  C3  UNL     1      -0.442   0.077   0.512  1.00  0.00     0.238 C 
HETATM    2  N2  UNL     1      -0.727   1.408   0.061  1.00  0.00    -0.331 N 
HETATM    3  C5  UNL     1       0.306   2.207   0.680  1.00  0.00     0.147 C 
HETATM    4  C6  UNL     1       1.515   1.311   0.367  1.00  0.00     0.148 C 
HETATM    5  N3  UNL     1       0.959  -0.056   0.264  1.00  0.00    -0.328 N 
HETATM    6  C7  UNL     1       1.805  -1.140  -0.014  1.00  0.00     0.185 C 
HETATM    7  N4  UNL     1       1.807  -2.187   0.720  1.00  0.00    -0.374 N 
ATOM      8  H41 UNL     1       2.422  -2.975   0.518  1.00  0.00     0.158 HD
ATOM      9  H42 UNL     1       1.169  -2.213   1.516  1.00  0.00     0.158 HD
HETATM   10  N5  UNL     1       2.691  -1.104  -1.119  1.00  0.00    -0.064 NA
ENDROOT
BRANCH   1  11
HETATM   11  C2  UNL     1      -1.327  -0.962   0.040  1.00  0.00     0.057 C 
HETATM   12  C1  UNL     1      -1.105  -1.822  -0.929  1.00  0.00     0.039 C 
HETATM   13  N1  UNL     1      -2.612  -1.072   0.687  1.00  0.00    -0.104 NA
ENDBRANCH   1  11
BRANCH   2  14
HETATM   14  C4  UNL     1      -1.725   1.876  -0.777  1.00  0.00     0.352 C 
HETATM   15  O1  UNL     1      -2.580   1.128  -1.300  1.00  0.00    -0.283 OA
ENDBRANCH   2  14
TORSDOF 2
