REMARK  6 active torsions:
REMARK  status: ('A' for Active; 'I' for Inactive)
REMARK    1  A    between atoms: C1_4  and  C2_5 
REMARK    2  A    between atoms: C1_4  and  N4_13 
REMARK    3  A    between atoms: C2_5  and  N2_6 
REMARK    4  A    between atoms: N4_13  and  C7_15 
REMARK    5  A    between atoms: C7_15  and  C8_16 
REMARK    6  A    between atoms: C8_16  and  O1_17 
ROOT
HETATM    1  N1  UNL     1       1.620   0.137  -1.365  1.00  0.00    -0.388 N 
ATOM      2  H11 UNL     1       2.352  -0.572  -1.407  1.00  0.00     0.157 HD
ATOM      3  H12 UNL     1       1.454   0.787  -2.133  1.00  0.00     0.157 HD
HETATM    4  C1  UNL     1       0.887   0.229  -0.314  1.00  0.00     0.090 C 
ENDROOT
BRANCH   4   5
HETATM    5  C2  UNL     1      -0.166   1.248  -0.253  1.00  0.00     0.223 C 
BRANCH   5   6
HETATM    6  N2  UNL     1      -1.501   0.708  -0.106  1.00  0.00    -0.297 N 
HETATM    7  C3  UNL     1      -2.286   0.395  -1.154  1.00  0.00     0.110 A 
HETATM    8  C4  UNL     1      -3.554  -0.119  -1.021  1.00  0.00     0.020 A 
HETATM    9  C5  UNL     1      -4.070  -0.331   0.260  1.00  0.00     0.020 A 
HETATM   10  C6  UNL     1      -3.238   0.001   1.306  1.00  0.00     0.107 A 
HETATM   11  N3  UNL     1      -2.010   0.498   1.102  1.00  0.00    -0.310 N 
ATOM     12  H3  UNL     1      -1.438   0.726   1.915  1.00  0.00     0.186 HD
ENDBRANCH   5   6
ENDBRANCH   4   5
BRANCH   4  13
HETATM   13  N4  UNL     1       1.118  -0.674   0.754  1.00  0.00    -0.377 N 
ATOM     14  H4  UNL     1       0.331  -0.890   1.366  1.00  0.00     0.160 HD
BRANCH  13  15
HETATM   15  C7  UNL     1       2.379  -1.311   1.042  1.00  0.00     0.147 C 
BRANCH  15  16
HETATM   16  C8  UNL     1       3.370  -0.309   1.552  1.00  0.00     0.183 C 
BRANCH  16  17
HETATM   17  O1  UNL     1       3.657   0.724   0.701  1.00  0.00    -0.399 OA
ATOM     18  H1  UNL     1       4.285   1.359   1.024  1.00  0.00     0.209 HD
ENDBRANCH  16  17
ENDBRANCH  15  16
ENDBRANCH  13  15
ENDBRANCH   4  13
TORSDOF 6
