REMARK  6 active torsions:
REMARK  status: ('A' for Active; 'I' for Inactive)
REMARK    1  A    between atoms: C1_4  and  C2_5 
REMARK    2  A    between atoms: C3_6  and  C4_7 
REMARK    3  A    between atoms: C4_7  and  N2_8 
REMARK    4  A    between atoms: N2_8  and  C5_10 
REMARK    5  A    between atoms: C8_13  and  O1_14 
REMARK    6  A    between atoms: C10_17  and  O2_18 
ROOT
HETATM    1  C5  UNL     1      -0.166  -0.050  -0.008  1.00  0.00     0.129 C 
HETATM    2  C6  UNL     1      -1.013  -0.295   1.174  1.00  0.00    -0.001 C 
HETATM    3  C7  UNL     1      -2.184   0.278   1.369  1.00  0.00     0.003 C 
HETATM    4  C8  UNL     1      -2.793   1.241   0.423  1.00  0.00     0.143 C 
HETATM    5  C9  UNL     1      -1.787   1.800  -0.545  1.00  0.00     0.070 C 
HETATM    6  C10 UNL     1      -0.946   0.666  -1.075  1.00  0.00     0.146 C 
ENDROOT
BRANCH   1   7
HETATM    7  N2  UNL     1       0.268  -1.308  -0.618  1.00  0.00    -0.402 N 
ATOM      8  H2  UNL     1      -0.016  -1.590  -1.556  1.00  0.00     0.154 HD
BRANCH   7   9
HETATM    9  C4  UNL     1       1.113  -2.105   0.195  1.00  0.00     0.210 C 
BRANCH   9  10
HETATM   10  C3  UNL     1       2.435  -1.474   0.325  1.00  0.00    -0.081 C 
HETATM   11  C2  UNL     1       3.532  -0.968   0.408  1.00  0.00    -0.060 C 
BRANCH  11  12
HETATM   12  C1  UNL     1       4.843  -0.395   0.486  1.00  0.00     0.146 C 
HETATM   13  N1  UNL     1       5.028   0.840   0.179  1.00  0.00    -0.401 N 
ATOM     14  H12 UNL     1       4.229   1.399  -0.119  1.00  0.00     0.156 HD
ATOM     15  H11 UNL     1       5.961   1.248   0.235  1.00  0.00     0.156 HD
ENDBRANCH  11  12
ENDBRANCH   9  10
ENDBRANCH   7   9
ENDBRANCH   1   7
BRANCH   6  16
HETATM   16  O2  UNL     1      -1.796  -0.230  -1.681  1.00  0.00    -0.393 OA
ATOM     17  H2  UNL     1      -2.289   0.223  -2.355  1.00  0.00     0.210 HD
ENDBRANCH   6  16
BRANCH   4  18
HETATM   18  O1  UNL     1      -3.815   0.582  -0.307  1.00  0.00    -0.392 OA
ATOM     19  H1  UNL     1      -4.206   1.200  -0.914  1.00  0.00     0.210 HD
ENDBRANCH   4  18
TORSDOF 6
