REMARK  5 active torsions:
REMARK  status: ('A' for Active; 'I' for Inactive)
REMARK    1  A    between atoms: C3_3  and  N1_4 
REMARK    2  A    between atoms: N1_4  and  C4_6 
REMARK    3  A    between atoms: C4_6  and  C5_10 
REMARK    4  A    between atoms: C5_10  and  N3_11 
REMARK    5  A    between atoms: C8_14  and  N4_15 
ROOT
HETATM    1  C1  UNL     1       4.384   0.163   1.251  1.00  0.00     0.014 C 
HETATM    2  C2  UNL     1       3.951   0.444   0.177  1.00  0.00    -0.098 C 
HETATM    3  C3  UNL     1       3.406   0.776  -1.153  1.00  0.00     0.214 C 
ENDROOT
BRANCH   3   4
HETATM    4  N1  UNL     1       1.960   0.655  -1.071  1.00  0.00    -0.368 N 
ATOM      5  H1  UNL     1       1.344   1.465  -1.138  1.00  0.00     0.161 HD
BRANCH   4   6
HETATM    6  C4  UNL     1       1.460  -0.658  -0.892  1.00  0.00     0.100 C 
HETATM    7  N2  UNL     1       1.759  -1.551  -1.756  1.00  0.00    -0.388 N 
ATOM      8  H22 UNL     1       2.345  -1.318  -2.557  1.00  0.00     0.157 HD
ATOM      9  H21 UNL     1       1.399  -2.497  -1.627  1.00  0.00     0.157 HD
BRANCH   6  10
HETATM   10  C5  UNL     1       0.592  -1.003   0.294  1.00  0.00     0.347 C 
BRANCH  10  11
HETATM   11  N3  UNL     1      -0.580  -0.170   0.176  1.00  0.00     0.097 N 
HETATM   12  C6  UNL     1      -1.420  -0.502  -0.924  1.00  0.00     0.275 C 
HETATM   13  C7  UNL     1      -2.696   0.238  -0.573  1.00  0.00     0.065 C 
HETATM   14  C8  UNL     1      -2.783  -0.093   0.921  1.00  0.00     0.213 C 
HETATM   15  C9  UNL     1      -1.336  -0.046   1.369  1.00  0.00     0.305 C 
BRANCH  14  16
HETATM   16  N4  UNL     1      -3.587   0.865   1.634  1.00  0.00    -0.073 N 
ATOM     17  H43 UNL     1      -3.252   1.817   1.483  1.00  0.00     0.274 HD
ATOM     18  H42 UNL     1      -4.514   0.954   1.219  1.00  0.00     0.274 HD
ATOM     19  H41 UNL     1      -3.645   0.645   2.628  1.00  0.00     0.274 HD
ENDBRANCH  14  16
ENDBRANCH  10  11
ENDBRANCH   6  10
ENDBRANCH   4   6
ENDBRANCH   3   4
TORSDOF 5
