REMARK  4 active torsions:
REMARK  status: ('A' for Active; 'I' for Inactive)
REMARK    1  A    between atoms: N1_2  and  N2_3 
REMARK    2  A    between atoms: N2_3  and  C2_5 
REMARK    3  A    between atoms: C2_5  and  N3_7 
REMARK       I    between atoms: N3_7  and  C3_9 
REMARK       I    between atoms: C3_9  and  N5_13 
REMARK    4  A    between atoms: N5_13  and  C4_15 
ROOT
HETATM    1  C2  UNL     1       1.464  -0.058   0.344  1.00  0.00     0.210 C 
HETATM    2  S1  UNL     1       1.771   1.390   1.009  1.00  0.00    -0.039 SA
ENDROOT
BRANCH   1   3
HETATM    3  N2  UNL     1       0.283  -0.299  -0.358  1.00  0.00    -0.191 N 
ATOM      4  H2  UNL     1       0.125  -1.222  -0.761  1.00  0.00     0.196 HD
BRANCH   3   5
HETATM    5  N1  UNL     1      -0.687   0.689  -0.523  1.00  0.00     0.010 N 
HETATM    6  C1  UNL     1      -0.014   1.813  -1.188  1.00  0.00     0.302 C 
HETATM    7  C5  UNL     1      -1.174   1.141   0.730  1.00  0.00     0.264 C 
HETATM    8  C6  UNL     1      -2.667   1.235   0.841  1.00  0.00     0.030 C 
HETATM    9  C7  UNL     1      -3.365  -0.077   1.006  1.00  0.00     0.002 C 
HETATM   10  C8  UNL     1      -2.630  -1.220   0.348  1.00  0.00     0.002 C 
HETATM   11  C9  UNL     1      -2.422  -0.987  -1.115  1.00  0.00     0.030 C 
HETATM   12  C10 UNL     1      -1.690   0.247  -1.467  1.00  0.00     0.264 C 
ENDBRANCH   3   5
ENDBRANCH   1   3
BRANCH   1  13
HETATM   13  N3  UNL     1       2.435  -1.084   0.496  1.00  0.00    -0.165 N 
HETATM   14  C3  UNL     1       3.653  -0.889   1.202  1.00  0.00     0.680 C 
HETATM   15  N4  UNL     1       3.672  -0.827   2.494  1.00  0.00    -0.234 N 
HETATM   16  N5  UNL     1       4.852  -0.763   0.448  1.00  0.00    -0.168 N 
ATOM     17  H42 UNL     1       2.812  -0.917   3.035  1.00  0.00     0.174 HD
ATOM     18  H41 UNL     1       4.546  -0.687   3.001  1.00  0.00     0.174 HD
ATOM     19  H5  UNL     1       5.735  -0.623   0.940  1.00  0.00     0.186 HD
ATOM     20  H3  UNL     1       2.250  -1.998   0.082  1.00  0.00     0.186 HD
BRANCH  16  21
HETATM   21  C4  UNL     1       4.855  -0.827  -0.973  1.00  0.00     0.368 C 
HETATM   22  O1  UNL     1       3.775  -1.000  -1.593  1.00  0.00    -0.283 OA
ENDBRANCH  16  21
ENDBRANCH   1  13
TORSDOF 4
