REMARK  3 active torsions:
REMARK  status: ('A' for Active; 'I' for Inactive)
REMARK    1  A    between atoms: C2_2  and  N1_3 
REMARK       I    between atoms: N1_3  and  C3_5 
REMARK       I    between atoms: C3_5  and  N2_7 
REMARK       I    between atoms: C4_9  and  N3_10 
REMARK       I    between atoms: C4_9  and  N5_14 
REMARK    2  A    between atoms: N5_14  and  C6_16 
REMARK    3  A    between atoms: C11_21  and  N6_22 
ROOT
HETATM    1  N1  UNL     1       3.275  -1.589  -0.300  1.00  0.00    -0.343 N 
ATOM      2  H1  UNL     1       2.939  -2.365  -0.870  1.00  0.00     0.164 HD
HETATM    3  C3  UNL     1       2.392  -0.511  -0.060  1.00  0.00     0.334 C 
HETATM    4  O1  UNL     1       2.813   0.443   0.643  1.00  0.00    -0.247 OA
HETATM    5  N2  UNL     1       1.075  -0.445  -0.562  1.00  0.00    -0.141 N 
ATOM      6  H2  UNL     1       0.494  -1.278  -0.464  1.00  0.00     0.189 HD
HETATM    7  C4  UNL     1       0.553   0.568  -1.127  1.00  0.00     0.691 C 
HETATM    8  N3  UNL     1       1.301   1.745  -1.293  1.00  0.00    -0.126 N 
ATOM      9  H3  UNL     1       2.133   1.683  -1.879  1.00  0.00     0.197 HD
HETATM   10  C5  UNL     1       1.020   2.976  -0.741  1.00  0.00     0.196 C 
HETATM   11  N4  UNL     1       0.787   4.012  -0.296  1.00  0.00    -0.171 NA
HETATM   12  N5  UNL     1      -0.772   0.524  -1.591  1.00  0.00    -0.219 N 
ATOM     13  H5  UNL     1      -0.923   0.751  -2.574  1.00  0.00     0.178 HD
ENDROOT
BRANCH  12  14
HETATM   14  C6  UNL     1      -1.924   0.194  -0.823  1.00  0.00     0.129 C 
HETATM   15  C7  UNL     1      -1.740  -1.227  -0.280  1.00  0.00     0.027 C 
HETATM   16  C8  UNL     1      -3.119  -1.804   0.064  1.00  0.00     0.002 C 
HETATM   17  C9  UNL     1      -3.965  -0.650   0.545  1.00  0.00     0.002 C 
HETATM   18  C10 UNL     1      -3.086   0.329   1.310  1.00  0.00     0.035 C 
HETATM   19  C11 UNL     1      -2.182   1.101   0.341  1.00  0.00     0.206 C 
BRANCH  19  20
HETATM   20  N6  UNL     1      -2.909   2.299  -0.023  1.00  0.00    -0.073 N 
ATOM     21  H63 UNL     1      -2.434   2.798  -0.775  1.00  0.00     0.274 HD
ATOM     22  H62 UNL     1      -3.779   2.065  -0.501  1.00  0.00     0.274 HD
ATOM     23  H61 UNL     1      -3.085   2.917   0.770  1.00  0.00     0.274 HD
ENDBRANCH  19  20
ENDBRANCH  12  14
BRANCH   1  24
HETATM   24  C2  UNL     1       4.614  -1.658   0.209  1.00  0.00     0.120 C 
HETATM   25  C1  UNL     1       5.406  -0.482  -0.315  1.00  0.00     0.026 C 
ENDBRANCH   1  24
TORSDOF 3
