REMARK  4 active torsions:
REMARK  status: ('A' for Active; 'I' for Inactive)
REMARK       I    between atoms: C2_4  and  N2_5 
REMARK       I    between atoms: C2_4  and  N3_15 
REMARK    1  A    between atoms: N2_5  and  C3_7 
REMARK    2  A    between atoms: C4_8  and  C5_9 
REMARK    3  A    between atoms: N3_15  and  C11_17 
REMARK    4  A    between atoms: C11_17  and  C12_18 
REMARK       I    between atoms: C12_18  and  N4_20 
ROOT
HETATM    1  C1  UNL     1       1.698  -0.560  -3.985  1.00  0.00     0.165 C 
HETATM    2  N1  UNL     1       2.393  -0.642  -2.724  1.00  0.00    -0.230 N 
ATOM      3  H1  UNL     1       3.142  -1.325  -2.611  1.00  0.00     0.177 HD
HETATM    4  C2  UNL     1       2.092   0.121  -1.746  1.00  0.00     0.681 C 
HETATM    5  N2  UNL     1       1.079   1.062  -1.864  1.00  0.00    -0.149 N 
ATOM      6  H2  UNL     1       1.244   1.907  -2.411  1.00  0.00     0.195 HD
HETATM    7  N3  UNL     1       2.806  -0.000  -0.531  1.00  0.00    -0.217 N 
ATOM      8  H3  UNL     1       3.322   0.813  -0.195  1.00  0.00     0.178 HD
ENDROOT
BRANCH   5   9
HETATM    9  C3  UNL     1      -0.175   0.875  -1.244  1.00  0.00     0.031 C 
HETATM   10  C4  UNL     1      -1.262   0.723  -0.728  1.00  0.00    -0.048 C 
BRANCH  10  11
HETATM   11  C5  UNL     1      -2.568   0.560  -0.128  1.00  0.00    -0.007 C 
HETATM   12  C6  UNL     1      -2.916   1.211   0.959  1.00  0.00    -0.011 C 
HETATM   13  C7  UNL     1      -4.226   1.098   1.629  1.00  0.00     0.028 C 
HETATM   14  C8  UNL     1      -5.068  -0.035   1.112  1.00  0.00     0.004 C 
HETATM   15  C9  UNL     1      -4.955  -0.008  -0.398  1.00  0.00     0.006 C 
HETATM   16  C10 UNL     1      -3.529  -0.365  -0.759  1.00  0.00     0.048 C 
ENDBRANCH  10  11
ENDBRANCH   5   9
BRANCH   7  17
HETATM   17  C11 UNL     1       2.848  -1.196   0.255  1.00  0.00     0.240 C 
BRANCH  17  18
HETATM   18  C12 UNL     1       3.638  -1.138   1.484  1.00  0.00     0.235 C 
HETATM   19  O1  UNL     1       3.668  -2.216   2.180  1.00  0.00    -0.272 OA
HETATM   20  N4  UNL     1       4.342  -0.032   1.946  1.00  0.00    -0.364 N 
HETATM   21  C13 UNL     1       5.097  -0.111   3.201  1.00  0.00     0.149 C 
ATOM     22  H4  UNL     1       4.334   0.836   1.411  1.00  0.00     0.161 HD
ENDBRANCH  17  18
ENDBRANCH   7  17
TORSDOF 4
