REMARK  8 active torsions:
REMARK  status: ('A' for Active; 'I' for Inactive)
REMARK    1  A    between atoms: C3_3  and  C5_5 
REMARK    2  A    between atoms: C5_5  and  N1_7 
REMARK    3  A    between atoms: N1_7  and  C7_9 
REMARK    4  A    between atoms: C7_9  and  N2_11 
REMARK    5  A    between atoms: N2_11  and  N3_13 
REMARK    6  A    between atoms: N3_13  and  C8_15 
REMARK    7  A    between atoms: C8_15  and  N4_17 
REMARK    8  A    between atoms: N4_17  and  C9_19 
ROOT
HETATM    1  C1  UNL     1      -2.332   2.724   0.189  1.00  0.00     0.097 C 
HETATM    2  C2  UNL     1      -2.469   1.688  -0.460  1.00  0.00    -0.181 C 
HETATM    3  C3  UNL     1      -2.646   0.517  -1.252  1.00  0.00     0.070 C 
HETATM    4  C4  UNL     1      -4.120   0.540  -1.728  1.00  0.00     0.024 C 
ENDROOT
BRANCH   3   5
HETATM    5  C5  UNL     1      -2.420  -0.756  -0.539  1.00  0.00     0.094 C 
HETATM    6  C6  UNL     1      -3.415  -0.812   0.630  1.00  0.00     0.033 C 
BRANCH   5   7
HETATM    7  N1  UNL     1      -1.123  -1.076  -0.083  1.00  0.00    -0.361 N 
ATOM      8  H1  UNL     1      -0.563  -1.585  -0.767  1.00  0.00     0.162 HD
BRANCH   7   9
HETATM    9  C7  UNL     1      -0.455  -0.835   1.117  1.00  0.00     0.186 C 
HETATM   10  S1  UNL     1      -1.165  -0.116   2.382  1.00  0.00    -0.040 SA
BRANCH   9  11
HETATM   11  N2  UNL     1       0.891  -1.268   1.278  1.00  0.00    -0.274 N 
ATOM     12  H2  UNL     1       1.357  -1.080   2.166  1.00  0.00     0.189 HD
BRANCH  11  13
HETATM   13  N3  UNL     1       1.602  -1.933   0.289  1.00  0.00    -0.274 N 
ATOM     14  H3  UNL     1       1.246  -2.802  -0.109  1.00  0.00     0.189 HD
BRANCH  13  15
HETATM   15  C8  UNL     1       2.834  -1.384  -0.161  1.00  0.00     0.186 C 
HETATM   16  S2  UNL     1       3.703  -2.149  -1.334  1.00  0.00    -0.040 SA
BRANCH  15  17
HETATM   17  N4  UNL     1       3.343  -0.176   0.379  1.00  0.00    -0.366 N 
ATOM     18  H4  UNL     1       2.812   0.306   1.104  1.00  0.00     0.161 HD
BRANCH  17  19
HETATM   19  C9  UNL     1       4.581   0.385  -0.066  1.00  0.00     0.117 C 
HETATM   20  C10 UNL     1       4.902   1.658   0.654  1.00  0.00     0.026 C 
ENDBRANCH  17  19
ENDBRANCH  15  17
ENDBRANCH  13  15
ENDBRANCH  11  13
ENDBRANCH   9  11
ENDBRANCH   7   9
ENDBRANCH   5   7
ENDBRANCH   3   5
TORSDOF 8
