REMARK  2 active torsions:
REMARK  status: ('A' for Active; 'I' for Inactive)
REMARK    1  A    between atoms: N1_2  and  C2_5 
REMARK    2  A    between atoms: C4_7  and  N2_8 
REMARK       I    between atoms: N2_8  and  C5_10 
REMARK       I    between atoms: C5_10  and  N3_12 
ROOT
HETATM    1  C2  UNL     1      -2.371   0.879   0.375  1.00  0.00     0.192 C 
HETATM    2  C3  UNL     1      -1.080   1.356  -0.187  1.00  0.00     0.064 C 
HETATM    3  C4  UNL     1      -0.068   0.189   0.028  1.00  0.00     0.037 C 
HETATM    4  C7  UNL     1      -0.259  -0.355   1.416  1.00  0.00     0.036 C 
HETATM    5  C8  UNL     1      -1.522  -1.184   1.518  1.00  0.00    -0.005 C 
HETATM    6  C9  UNL     1      -1.472  -2.393   0.590  1.00  0.00     0.010 C 
HETATM    7  C10 UNL     1      -1.831  -1.404  -0.533  1.00  0.00    -0.005 C 
HETATM    8  C11 UNL     1      -0.506  -0.835  -0.991  1.00  0.00     0.036 C 
HETATM    9  C12 UNL     1      -2.507  -0.590   0.516  1.00  0.00     0.025 C 
ENDROOT
BRANCH   3  10
HETATM   10  N2  UNL     1       1.257   0.694  -0.165  1.00  0.00    -0.334 N 
HETATM   11  C5  UNL     1       2.386  -0.148  -0.088  1.00  0.00     0.322 C 
HETATM   12  O1  UNL     1       2.349  -1.380   0.144  1.00  0.00    -0.247 OA
HETATM   13  N3  UNL     1       3.679   0.435  -0.287  1.00  0.00    -0.285 N 
HETATM   14  C6  UNL     1       4.771  -0.223  -0.289  1.00  0.00     0.204 C 
ATOM     15  H3  UNL     1       3.729   1.443  -0.437  1.00  0.00     0.172 HD
HETATM   16  N4  UNL     1       5.972   0.517  -0.503  1.00  0.00    -0.066 NA
HETATM   17  N5  UNL     1       4.900  -1.622  -0.097  1.00  0.00    -0.066 NA
ATOM     18  H2  UNL     1       1.388   1.686  -0.363  1.00  0.00     0.165 HD
ENDBRANCH   3  10
BRANCH   1  19
HETATM   19  N1  UNL     1      -3.517   1.338  -0.427  1.00  0.00    -0.074 N 
HETATM   20  C1  UNL     1      -3.632   2.763  -0.447  1.00  0.00     0.267 C 
ATOM     21  H12 UNL     1      -4.384   0.903  -0.112  1.00  0.00     0.277 HD
ATOM     22  H11 UNL     1      -3.479   0.959  -1.373  1.00  0.00     0.277 HD
ENDBRANCH   1  19
TORSDOF 2
