REMARK  4 active torsions:
REMARK  status: ('A' for Active; 'I' for Inactive)
REMARK       I    between atoms: C1_2  and  N2_4 
REMARK    1  A    between atoms: N2_4  and  N3_6 
REMARK    2  A    between atoms: N3_6  and  C2_8 
REMARK    3  A    between atoms: C2_8  and  N4_10 
REMARK    4  A    between atoms: N4_10  and  C3_12 
ROOT
HETATM    1  N4  UNL     1       0.612  -0.475  -0.726  1.00  0.00    -0.357 N 
ATOM      2  H4  UNL     1       0.692  -0.832  -1.678  1.00  0.00     0.162 HD
ENDROOT
BRANCH   1   3
HETATM    3  C2  UNL     1       1.821  -0.319  -0.036  1.00  0.00     0.187 C 
HETATM    4  S1  UNL     1       1.903   0.223   1.479  1.00  0.00    -0.040 SA
BRANCH   3   5
HETATM    5  N3  UNL     1       3.087  -0.645  -0.653  1.00  0.00    -0.273 N 
ATOM      6  H3  UNL     1       3.087  -0.994  -1.611  1.00  0.00     0.189 HD
BRANCH   5   7
HETATM    7  N2  UNL     1       4.302  -0.504   0.001  1.00  0.00    -0.252 N 
HETATM    8  C1  UNL     1       4.954   0.694   0.316  1.00  0.00     0.347 C 
HETATM    9  N1  UNL     1       6.217   0.672   1.000  1.00  0.00    -0.038 NA
HETATM   10  O1  UNL     1       4.507   1.833   0.040  1.00  0.00    -0.249 OA
ATOM     11  H2  UNL     1       4.770  -1.365   0.282  1.00  0.00     0.191 HD
ENDBRANCH   5   7
ENDBRANCH   3   5
ENDBRANCH   1   3
BRANCH   1  12
HETATM   12  C3  UNL     1      -0.702  -0.207  -0.286  1.00  0.00     0.033 C 
HETATM   13  C4  UNL     1      -1.702  -0.626  -1.386  1.00  0.00     0.035 C 
HETATM   14  C5  UNL     1      -3.094  -0.260  -1.041  1.00  0.00    -0.012 C 
HETATM   15  C6  UNL     1      -3.462  -0.976   0.256  1.00  0.00     0.010 C 
HETATM   16  C10 UNL     1      -3.263   1.187  -0.593  1.00  0.00     0.010 C 
HETATM   17  C7  UNL     1      -2.504  -0.235   1.201  1.00  0.00    -0.008 C 
HETATM   18  C8  UNL     1      -1.160  -0.937   0.950  1.00  0.00     0.036 C 
HETATM   19  C9  UNL     1      -2.370   1.148   0.647  1.00  0.00    -0.008 C 
HETATM   20  C11 UNL     1      -0.937   1.228   0.093  1.00  0.00     0.036 C 
ENDBRANCH   1  12
TORSDOF 4
