REMARK  18 active torsions:
REMARK  status: ('A' for Active; 'I' for Inactive)
REMARK    1  A    between atoms: C3_3  and  O1_4 
REMARK    2  A    between atoms: O1_4  and  C4_5 
REMARK    3  A    between atoms: C4_5  and  C5_6 
REMARK    4  A    between atoms: C5_6  and  O2_7 
REMARK    5  A    between atoms: O2_7  and  C6_8 
REMARK    6  A    between atoms: C6_8  and  C7_9 
REMARK    7  A    between atoms: C7_9  and  O3_10 
REMARK    8  A    between atoms: O3_10  and  C8_11 
REMARK    9  A    between atoms: C8_11  and  C9_12 
REMARK   10  A    between atoms: C9_12  and  O4_13 
REMARK   11  A    between atoms: O4_13  and  C10_14 
REMARK   12  A    between atoms: C10_14  and  C11_15 
REMARK   13  A    between atoms: C11_15  and  N1_16 
REMARK   14  A    between atoms: N1_16  and  C13_18 
REMARK   15  A    between atoms: C13_18  and  C14_19 
REMARK   16  A    between atoms: C18_23  and  C19_24 
REMARK   17  A    between atoms: C19_24  and  O5_25 
REMARK   18  A    between atoms: O5_25  and  C20_26 
ROOT
HETATM    1  N1  UNL     1      -0.811   0.242   0.152  1.00  0.00     0.088 N 
HETATM    2  C12 UNL     1      -0.822  -0.514   1.380  1.00  0.00     0.310 C 
ENDROOT
BRANCH   1   3
HETATM    3  C11 UNL     1       0.463   0.873  -0.104  1.00  0.00     0.298 C 
BRANCH   3   4
HETATM    4  C10 UNL     1       1.508  -0.177  -0.410  1.00  0.00     0.198 C 
BRANCH   4   5
HETATM    5  O4  UNL     1       2.707   0.447  -0.650  1.00  0.00    -0.387 OA
BRANCH   5   6
HETATM    6  C9  UNL     1       3.754  -0.378  -0.944  1.00  0.00     0.193 C 
BRANCH   6   7
HETATM    7  C8  UNL     1       4.106  -1.374   0.139  1.00  0.00     0.193 C 
BRANCH   7   8
HETATM    8  O3  UNL     1       5.169  -2.135  -0.291  1.00  0.00    -0.387 OA
BRANCH   8   9
HETATM    9  C7  UNL     1       5.640  -3.066   0.582  1.00  0.00     0.193 C 
BRANCH   9  10
HETATM   10  C6  UNL     1       6.277  -2.602   1.840  1.00  0.00     0.193 C 
BRANCH  10  11
HETATM   11  O2  UNL     1       7.390  -1.847   1.772  1.00  0.00    -0.387 OA
BRANCH  11  12
HETATM   12  C5  UNL     1       7.361  -0.652   1.117  1.00  0.00     0.194 C 
BRANCH  12  13
HETATM   13  C4  UNL     1       8.739   0.006   1.219  1.00  0.00     0.200 C 
BRANCH  13  14
HETATM   14  O1  UNL     1       8.736   1.232   0.557  1.00  0.00    -0.361 OA
BRANCH  14  15
HETATM   15  C3  UNL     1       8.445   1.318  -0.789  1.00  0.00     0.130 C 
HETATM   16  C2  UNL     1       9.342   0.943  -1.673  1.00  0.00    -0.007 C 
HETATM   17  C1  UNL     1      10.657   0.430  -1.211  1.00  0.00     0.038 C 
ENDBRANCH  14  15
ENDBRANCH  13  14
ENDBRANCH  12  13
ENDBRANCH  11  12
ENDBRANCH  10  11
ENDBRANCH   9  10
ENDBRANCH   8   9
ENDBRANCH   7   8
ENDBRANCH   6   7
ENDBRANCH   5   6
ENDBRANCH   4   5
ENDBRANCH   3   4
ENDBRANCH   1   3
BRANCH   1  18
HETATM   18  C13 UNL     1      -1.918   1.164   0.056  1.00  0.00     0.303 C 
BRANCH  18  19
HETATM   19  C14 UNL     1      -3.185   0.373   0.312  1.00  0.00     0.150 C 
HETATM   20  C15 UNL     1      -3.278  -0.608  -0.867  1.00  0.00     0.034 C 
HETATM   21  C16 UNL     1      -4.378  -1.588  -0.579  1.00  0.00     0.005 C 
HETATM   22  C17 UNL     1      -5.526  -0.801   0.018  1.00  0.00     0.034 C 
HETATM   23  C18 UNL     1      -5.363   0.650  -0.431  1.00  0.00     0.146 C 
HETATM   24  O6  UNL     1      -4.295   1.212   0.239  1.00  0.00    -0.377 OA
BRANCH  23  25
HETATM   25  C19 UNL     1      -6.642   1.355  -0.020  1.00  0.00     0.207 C 
BRANCH  25  26
HETATM   26  O5  UNL     1      -7.734   0.758  -0.730  1.00  0.00    -0.349 OA
BRANCH  26  27
HETATM   27  C20 UNL     1      -9.040   1.242  -0.517  1.00  0.00     0.068 A 
HETATM   28  C21 UNL     1     -10.114   0.695  -1.182  1.00  0.00     0.037 A 
HETATM   29  C22 UNL     1     -11.419   1.142  -1.000  1.00  0.00     0.003 A 
HETATM   30  C23 UNL     1     -11.661   2.176  -0.120  1.00  0.00     0.000 A 
HETATM   31  C24 UNL     1     -10.590   2.728   0.548  1.00  0.00     0.003 A 
HETATM   32  C25 UNL     1      -9.284   2.274   0.361  1.00  0.00     0.037 A 
ENDBRANCH  26  27
ENDBRANCH  25  26
ENDBRANCH  23  25
ENDBRANCH  18  19
ENDBRANCH   1  18
TORSDOF 18
