REMARK  17 active torsions:
REMARK  status: ('A' for Active; 'I' for Inactive)
REMARK    1  A    between atoms: C4_5  and  C5_6 
REMARK    2  A    between atoms: C5_6  and  O2_7 
REMARK    3  A    between atoms: O2_7  and  C6_8 
REMARK    4  A    between atoms: C6_8  and  C7_9 
REMARK    5  A    between atoms: C7_9  and  O3_10 
REMARK    6  A    between atoms: O3_10  and  C8_11 
REMARK    7  A    between atoms: C8_11  and  C9_12 
REMARK    8  A    between atoms: C9_12  and  O4_13 
REMARK    9  A    between atoms: O4_13  and  C10_14 
REMARK   10  A    between atoms: C10_14  and  C11_15 
REMARK   11  A    between atoms: C11_15  and  O5_16 
REMARK   12  A    between atoms: O5_16  and  C12_17 
REMARK   13  A    between atoms: C12_17  and  C13_18 
REMARK   14  A    between atoms: C13_18  and  O6_19 
REMARK   15  A    between atoms: O6_19  and  C14_20 
REMARK   16  A    between atoms: C14_20  and  C15_21 
REMARK   17  A    between atoms: C17_23  and  C18_24 
ROOT
HETATM    1  C10 UNL     1       1.173   0.277   2.278  1.00  0.00     0.193 C 
ENDROOT
BRANCH   1   2
HETATM    2  O4  UNL     1       1.462  -1.044   2.427  1.00  0.00    -0.387 OA
BRANCH   2   3
HETATM    3  C9  UNL     1       2.064  -1.635   1.377  1.00  0.00     0.193 C 
BRANCH   3   4
HETATM    4  C8  UNL     1       3.387  -0.941   1.062  1.00  0.00     0.193 C 
BRANCH   4   5
HETATM    5  O3  UNL     1       4.235  -0.975   2.093  1.00  0.00    -0.387 OA
BRANCH   5   6
HETATM    6  C7  UNL     1       5.480  -0.458   2.038  1.00  0.00     0.193 C 
BRANCH   6   7
HETATM    7  C6  UNL     1       5.536   0.998   1.721  1.00  0.00     0.194 C 
BRANCH   7   8
HETATM    8  O2  UNL     1       5.106   1.499   0.623  1.00  0.00    -0.385 OA
BRANCH   8   9
HETATM    9  C5  UNL     1       5.392   1.600  -0.627  1.00  0.00     0.231 C 
BRANCH   9  10
HETATM   10  C4  UNL     1       5.620   0.486  -1.587  1.00  0.00     0.382 C 
HETATM   11  O1  UNL     1       5.896   1.004  -2.883  1.00  0.00    -0.353 OA
HETATM   12  C3  UNL     1       7.261   1.299  -2.830  1.00  0.00     0.206 C 
HETATM   13  C2  UNL     1       7.888   0.250  -1.965  1.00  0.00     0.245 C 
HETATM   14  C1  UNL     1       8.847   0.860  -0.973  1.00  0.00     0.045 C 
HETATM   15  N1  UNL     1       6.748  -0.315  -1.258  1.00  0.00     0.121 N 
HETATM   16  C25 UNL     1       6.559  -1.713  -1.626  1.00  0.00     0.314 C 
ENDBRANCH   9  10
ENDBRANCH   8   9
ENDBRANCH   7   8
ENDBRANCH   6   7
ENDBRANCH   5   6
ENDBRANCH   4   5
ENDBRANCH   3   4
ENDBRANCH   2   3
ENDBRANCH   1   2
BRANCH   1  17
HETATM   17  C11 UNL     1       0.278   0.517   1.113  1.00  0.00     0.193 C 
BRANCH  17  18
HETATM   18  O5  UNL     1      -0.911  -0.149   1.224  1.00  0.00    -0.387 OA
BRANCH  18  19
HETATM   19  C12 UNL     1      -1.689   0.180   2.299  1.00  0.00     0.193 C 
BRANCH  19  20
HETATM   20  C13 UNL     1      -2.965  -0.670   2.179  1.00  0.00     0.193 C 
BRANCH  20  21
HETATM   21  O6  UNL     1      -3.573  -0.333   0.965  1.00  0.00    -0.389 OA
BRANCH  21  22
HETATM   22  C14 UNL     1      -4.737  -1.063   0.792  1.00  0.00     0.172 C 
BRANCH  22  23
HETATM   23  C15 UNL     1      -5.365  -0.682  -0.516  1.00  0.00     0.011 C 
HETATM   24  C16 UNL     1      -6.649  -1.476  -0.720  1.00  0.00     0.016 C 
HETATM   25  C17 UNL     1      -7.417  -0.298  -0.126  1.00  0.00     0.019 C 
HETATM   26  C24 UNL     1      -6.225   0.565  -0.496  1.00  0.00     0.016 C 
BRANCH  25  27
HETATM   27  C18 UNL     1      -8.614   0.112  -0.909  1.00  0.00    -0.054 A 
HETATM   28  C19 UNL     1      -8.553   0.309  -2.271  1.00  0.00     0.007 A 
HETATM   29  C20 UNL     1      -9.659   0.691  -3.002  1.00  0.00     0.001 A 
HETATM   30  C21 UNL     1     -10.871   0.880  -2.332  1.00  0.00     0.000 A 
HETATM   31  C22 UNL     1     -10.961   0.690  -0.970  1.00  0.00     0.001 A 
HETATM   32  C23 UNL     1      -9.838   0.309  -0.267  1.00  0.00     0.007 A 
ENDBRANCH  25  27
ENDBRANCH  22  23
ENDBRANCH  21  22
ENDBRANCH  20  21
ENDBRANCH  19  20
ENDBRANCH  18  19
ENDBRANCH  17  18
ENDBRANCH   1  17
TORSDOF 17
