REMARK  18 active torsions:
REMARK  status: ('A' for Active; 'I' for Inactive)
REMARK    1  A    between atoms: C4_4  and  C5_5 
REMARK    2  A    between atoms: C5_5  and  C6_6 
REMARK    3  A    between atoms: C6_6  and  O1_7 
REMARK    4  A    between atoms: O1_7  and  C7_8 
REMARK    5  A    between atoms: C7_8  and  C8_9 
REMARK    6  A    between atoms: C8_9  and  O2_10 
REMARK    7  A    between atoms: O2_10  and  C9_11 
REMARK    8  A    between atoms: C9_11  and  C10_12 
REMARK    9  A    between atoms: C10_12  and  O3_13 
REMARK   10  A    between atoms: O3_13  and  C11_14 
REMARK   11  A    between atoms: C11_14  and  C12_15 
REMARK   12  A    between atoms: C12_15  and  O4_16 
REMARK   13  A    between atoms: O4_16  and  C13_17 
REMARK   14  A    between atoms: C13_17  and  C14_18 
REMARK   15  A    between atoms: C14_18  and  O5_19 
REMARK   16  A    between atoms: O5_19  and  C15_20 
REMARK   17  A    between atoms: C15_20  and  C16_21 
REMARK   18  A    between atoms: C16_21  and  C17_22 
ROOT
HETATM    1  C8  UNL     1      -1.646   1.452  -2.479  1.00  0.00     0.193 C 
ENDROOT
BRANCH   1   2
HETATM    2  C7  UNL     1      -3.087   1.875  -2.799  1.00  0.00     0.193 C 
BRANCH   2   3
HETATM    3  O1  UNL     1      -3.971   1.177  -2.013  1.00  0.00    -0.388 OA
BRANCH   3   4
HETATM    4  C6  UNL     1      -3.823   1.387  -0.670  1.00  0.00     0.182 C 
BRANCH   4   5
HETATM    5  C5  UNL     1      -4.826   0.621   0.155  1.00  0.00     0.012 C 
HETATM    6  C20 UNL     1      -4.570   0.992   1.596  1.00  0.00     0.043 C 
HETATM    7  C21 UNL     1      -3.967  -0.125   2.398  1.00  0.00     0.168 C 
HETATM    8  O7  UNL     1      -2.920  -0.647   1.602  1.00  0.00    -0.391 OA
HETATM    9  C22 UNL     1      -3.566  -1.503   0.714  1.00  0.00     0.168 C 
HETATM   10  C23 UNL     1      -4.592  -0.843  -0.122  1.00  0.00     0.043 C 
BRANCH   5  11
HETATM   11  C4  UNL     1      -6.231   0.967  -0.117  1.00  0.00    -0.047 A 
HETATM   12  C3  UNL     1      -7.190   0.297   0.580  1.00  0.00     0.008 A 
HETATM   13  C2  UNL     1      -8.561   0.544   0.405  1.00  0.00     0.001 A 
HETATM   14  C1  UNL     1      -8.958   1.515  -0.520  1.00  0.00     0.000 A 
HETATM   15  C25 UNL     1      -7.973   2.183  -1.217  1.00  0.00     0.001 A 
HETATM   16  C24 UNL     1      -6.634   1.913  -1.017  1.00  0.00     0.008 A 
ENDBRANCH   5  11
ENDBRANCH   4   5
ENDBRANCH   3   4
ENDBRANCH   2   3
ENDBRANCH   1   2
BRANCH   1  17
HETATM   17  O2  UNL     1      -1.467   0.114  -2.711  1.00  0.00    -0.387 OA
BRANCH  17  18
HETATM   18  C9  UNL     1      -0.222  -0.391  -2.436  1.00  0.00     0.193 C 
BRANCH  18  19
HETATM   19  C10 UNL     1       0.087  -0.304  -0.982  1.00  0.00     0.193 C 
BRANCH  19  20
HETATM   20  O3  UNL     1       1.326  -0.803  -0.631  1.00  0.00    -0.387 OA
BRANCH  20  21
HETATM   21  C11 UNL     1       1.570  -2.101  -0.954  1.00  0.00     0.193 C 
BRANCH  21  22
HETATM   22  C12 UNL     1       2.913  -2.540  -0.447  1.00  0.00     0.193 C 
BRANCH  22  23
HETATM   23  O4  UNL     1       3.991  -1.863  -0.901  1.00  0.00    -0.387 OA
BRANCH  23  24
HETATM   24  C13 UNL     1       4.135  -0.547  -0.584  1.00  0.00     0.193 C 
BRANCH  24  25
HETATM   25  C14 UNL     1       4.225  -0.278   0.892  1.00  0.00     0.193 C 
BRANCH  25  26
HETATM   26  O5  UNL     1       5.266  -0.879   1.545  1.00  0.00    -0.389 OA
BRANCH  26  27
HETATM   27  C15 UNL     1       6.533  -0.491   1.150  1.00  0.00     0.170 C 
BRANCH  27  28
HETATM   28  C16 UNL     1       7.505  -1.290   2.004  1.00  0.00     0.058 C 
BRANCH  28  29
HETATM   29  C17 UNL     1       8.949  -0.932   1.669  1.00  0.00     0.125 C 
HETATM   30  C18 UNL     1       9.195   0.526   1.936  1.00  0.00     0.058 C 
HETATM   31  C19 UNL     1       9.521   0.525   0.493  1.00  0.00     0.170 C 
HETATM   32  O6  UNL     1       9.122  -0.776   0.322  1.00  0.00    -0.386 OA
ENDBRANCH  28  29
ENDBRANCH  27  28
ENDBRANCH  26  27
ENDBRANCH  25  26
ENDBRANCH  24  25
ENDBRANCH  23  24
ENDBRANCH  22  23
ENDBRANCH  21  22
ENDBRANCH  20  21
ENDBRANCH  19  20
ENDBRANCH  18  19
ENDBRANCH  17  18
ENDBRANCH   1  17
TORSDOF 18
