REMARK  7 active torsions:
REMARK  status: ('A' for Active; 'I' for Inactive)
REMARK    1  A    between atoms: N1_2  and  C2_4 
REMARK    2  A    between atoms: C4_9  and  C5_10 
REMARK    3  A    between atoms: C7_16  and  N6_17 
REMARK    4  A    between atoms: N7_20  and  N8_21 
REMARK    5  A    between atoms: N8_21  and  C10_23 
REMARK    6  A    between atoms: C10_23  and  C12_26 
REMARK    7  A    between atoms: C12_26  and  O1_27 
ROOT
HETATM    1  C10 UNL     1       3.709   0.521  -1.261  1.00  0.00     0.230 C 
HETATM    2  C11 UNL     1       3.605   0.213  -2.720  1.00  0.00     0.088 C 
HETATM    3  N9  UNL     1       3.535  -0.042  -3.844  1.00  0.00    -0.195 NA
ENDROOT
BRANCH   1   4
HETATM    4  N8  UNL     1       2.379   0.460  -0.751  1.00  0.00    -0.293 N 
ATOM      5  H8  UNL     1       1.937   1.370  -0.618  1.00  0.00     0.183 HD
BRANCH   4   6
HETATM    6  N7  UNL     1       1.584  -0.615  -0.406  1.00  0.00    -0.069 N 
HETATM    7  C7  UNL     1       1.891  -1.908  -0.312  1.00  0.00     0.704 A 
HETATM    8  N5  UNL     1       0.718  -2.559   0.007  1.00  0.00    -0.171 N 
HETATM    9  C6  UNL     1      -0.264  -1.665   0.101  1.00  0.00     0.169 A 
ATOM     10  H5  UNL     1       0.619  -3.564   0.148  1.00  0.00     0.186 HD
HETATM   11  N4  UNL     1      -1.586  -1.474   0.352  1.00  0.00    -0.324 N 
HETATM   12  C14 UNL     1       0.238  -0.417  -0.152  1.00  0.00     0.191 A 
HETATM   13  C5  UNL     1      -1.900  -0.159   0.259  1.00  0.00     0.128 A 
ATOM     14  H4  UNL     1      -2.248  -2.216   0.578  1.00  0.00     0.169 HD
HETATM   15  N10 UNL     1      -0.773   0.470  -0.050  1.00  0.00    -0.323 N 
ATOM     16  H10 UNL     1      -0.684   1.476  -0.190  1.00  0.00     0.169 HD
BRANCH   7  17
HETATM   17  N6  UNL     1       3.132  -2.618  -0.428  1.00  0.00    -0.225 N 
HETATM   18  C8  UNL     1       4.008  -2.680   0.742  1.00  0.00     0.168 C 
HETATM   19  C9  UNL     1       3.531  -3.325  -1.624  1.00  0.00     0.168 C 
ENDBRANCH   7  17
BRANCH  13  20
HETATM   20  C4  UNL     1      -3.257   0.314   0.487  1.00  0.00     0.118 A 
HETATM   21  C3  UNL     1      -3.659   1.617   0.423  1.00  0.00     0.151 A 
HETATM   22  N2  UNL     1      -4.951   1.969   0.653  1.00  0.00    -0.178 N 
HETATM   23  N3  UNL     1      -2.766   2.645   0.118  1.00  0.00    -0.081 NA
HETATM   24  C2  UNL     1      -5.889   1.064   0.953  1.00  0.00     0.681 A 
ATOM     25  H2  UNL     1      -5.213   2.953   0.595  1.00  0.00     0.185 HD
HETATM   26  N11 UNL     1      -5.528  -0.216   1.024  1.00  0.00    -0.155 N 
HETATM   27  C15 UNL     1      -4.261  -0.600   0.802  1.00  0.00     0.277 A 
ATOM     28  H11 UNL     1      -6.230  -0.920   1.252  1.00  0.00     0.187 HD
HETATM   29  O2  UNL     1      -4.004  -1.830   0.888  1.00  0.00    -0.267 OA
BRANCH  24  30
HETATM   30  N1  UNL     1      -7.096   1.489   1.158  1.00  0.00    -0.230 N 
HETATM   31  C1  UNL     1      -8.195   0.605   1.490  1.00  0.00     0.165 C 
ATOM     32  H1  UNL     1      -7.280   2.489   1.082  1.00  0.00     0.177 HD
ENDBRANCH  24  30
ENDBRANCH  13  20
ENDBRANCH   4   6
ENDBRANCH   1   4
BRANCH   1  33
HETATM   33  C12 UNL     1       4.207   1.962  -1.161  1.00  0.00     0.208 C 
BRANCH  33  34
HETATM   34  O1  UNL     1       4.226   2.452   0.115  1.00  0.00    -0.393 OA
HETATM   35  C13 UNL     1       5.059   1.697   0.908  1.00  0.00     0.201 C 
ENDBRANCH  33  34
ENDBRANCH   1  33
TORSDOF 7
