REMARK  10 active torsions:
REMARK  status: ('A' for Active; 'I' for Inactive)
REMARK    1  A    between atoms: O1_2  and  C2_3 
REMARK    2  A    between atoms: C2_3  and  C3_4 
REMARK    3  A    between atoms: C3_4  and  N1_5 
REMARK    4  A    between atoms: C5_11  and  N4_12 
REMARK    5  A    between atoms: C6_17  and  C7_18 
REMARK    6  A    between atoms: C7_18  and  C8_19 
REMARK    7  A    between atoms: C8_19  and  N6_20 
REMARK    8  A    between atoms: N6_20  and  C9_22 
REMARK    9  A    between atoms: C10_25  and  N8_26 
REMARK   10  A    between atoms: C13_31  and  O2_32 
ROOT
HETATM    1  N1  UNL     1       4.593   0.648  -0.442  1.00  0.00    -0.258 N 
HETATM    2  N2  UNL     1       5.570   0.935  -1.266  1.00  0.00    -0.238 N 
ATOM      3  H2  UNL     1       6.544   0.671  -1.115  1.00  0.00     0.208 HD
HETATM    4  N3  UNL     1       5.139   1.607  -2.315  1.00  0.00    -0.279 N 
ATOM      5  H3  UNL     1       5.711   1.941  -3.090  1.00  0.00     0.189 HD
HETATM    6  C4  UNL     1       3.820   1.773  -2.183  1.00  0.00     0.139 A 
HETATM    7  C5  UNL     1       2.792   2.361  -2.890  1.00  0.00     0.132 A 
HETATM    8  N5  UNL     1       1.544   2.319  -2.413  1.00  0.00    -0.330 N 
ATOM      9  H5  UNL     1       0.802   2.761  -2.955  1.00  0.00     0.168 HD
HETATM   10  C6  UNL     1       1.220   1.722  -1.252  1.00  0.00     0.085 A 
HETATM   11  N11 UNL     1       2.200   1.140  -0.540  1.00  0.00    -0.329 N 
ATOM     12  H11 UNL     1       1.981   0.680   0.344  1.00  0.00     0.168 HD
HETATM   13  C14 UNL     1       3.477   1.162  -0.991  1.00  0.00     0.157 A 
ENDROOT
BRANCH  10  14
HETATM   14  C7  UNL     1      -0.209   1.728  -0.802  1.00  0.00     0.097 C 
BRANCH  14  15
HETATM   15  C8  UNL     1      -0.359   1.014   0.509  1.00  0.00     0.145 C 
BRANCH  15  16
HETATM   16  N6  UNL     1      -1.751   1.054   0.887  1.00  0.00    -0.225 N 
ATOM     17  H6  UNL     1      -2.050   1.781   1.537  1.00  0.00     0.177 HD
BRANCH  16  18
HETATM   18  C9  UNL     1      -2.635   0.232   0.456  1.00  0.00     0.695 A 
HETATM   19  N7  UNL     1      -3.910   0.350   0.867  1.00  0.00    -0.022 N 
HETATM   20  C10 UNL     1      -4.880  -0.483   0.449  1.00  0.00     0.697 A 
ATOM     21  H7  UNL     1      -4.150   1.097   1.518  1.00  0.00     0.203 HD
HETATM   22  N9  UNL     1      -4.524  -1.450  -0.407  1.00  0.00    -0.154 N 
HETATM   23  C13 UNL     1      -3.267  -1.611  -0.847  1.00  0.00     0.250 A 
ATOM     24  H9  UNL     1      -5.242  -2.094  -0.740  1.00  0.00     0.188 HD
HETATM   25  N10 UNL     1      -2.313  -0.744  -0.398  1.00  0.00    -0.154 N 
ATOM     26  H10 UNL     1      -1.349  -0.842  -0.716  1.00  0.00     0.188 HD
BRANCH  20  27
HETATM   27  N8  UNL     1      -6.220  -0.350   0.889  1.00  0.00    -0.226 N 
HETATM   28  C11 UNL     1      -6.585   0.703   1.814  1.00  0.00     0.168 C 
HETATM   29  C12 UNL     1      -7.221  -1.279   0.402  1.00  0.00     0.168 C 
ENDBRANCH  20  27
BRANCH  23  30
HETATM   30  O2  UNL     1      -2.918  -2.625  -1.738  1.00  0.00    -0.332 OA
ATOM     31  H2  UNL     1      -2.028  -2.739  -2.050  1.00  0.00     0.221 HD
ENDBRANCH  23  30
ENDBRANCH  16  18
ENDBRANCH  15  16
ENDBRANCH  14  15
ENDBRANCH  10  14
BRANCH   7  32
HETATM   32  N4  UNL     1       3.090   2.942  -4.013  1.00  0.00    -0.383 N 
ATOM     33  H42 UNL     1       4.042   2.974  -4.377  1.00  0.00     0.157 HD
ATOM     34  H41 UNL     1       2.330   3.377  -4.536  1.00  0.00     0.157 HD
ENDBRANCH   7  32
BRANCH   1  35
HETATM   35  C3  UNL     1       4.685  -0.086   0.826  1.00  0.00     0.178 C 
BRANCH  35  36
HETATM   36  C2  UNL     1       4.487  -1.571   0.529  1.00  0.00     0.189 C 
BRANCH  36  37
HETATM   37  O1  UNL     1       4.554  -2.355   1.652  1.00  0.00    -0.394 OA
HETATM   38  C1  UNL     1       5.743  -2.302   2.339  1.00  0.00     0.201 C 
ENDBRANCH  36  37
ENDBRANCH  35  36
ENDBRANCH   1  35
TORSDOF 10
