REMARK  10 active torsions:
REMARK  status: ('A' for Active; 'I' for Inactive)
REMARK    1  A    between atoms: N1_2  and  O1_3 
REMARK    2  A    between atoms: N1_2  and  N2_5 
REMARK    3  A    between atoms: C2_7  and  N3_8 
REMARK    4  A    between atoms: C2_7  and  C10_33 
REMARK       I    between atoms: N3_8  and  C3_10 
REMARK       I    between atoms: C3_10  and  N4_12 
REMARK    5  A    between atoms: N4_12  and  N5_14 
REMARK    6  A    between atoms: C4_16  and  C5_17 
REMARK    7  A    between atoms: C6_21  and  C7_22 
REMARK       I    between atoms: C7_22  and  N7_24 
REMARK    8  A    between atoms: N7_24  and  N8_26 
REMARK    9  A    between atoms: N8_26  and  C8_28 
REMARK   10  A    between atoms: C9_30  and  O6_31 
ROOT
HETATM    1  N5  UNL     1      -0.071  -1.738  -0.769  1.00  0.00    -0.306 N 
ATOM      2  H5  UNL     1      -0.566  -2.621  -0.893  1.00  0.00     0.186 HD
HETATM    3  C4  UNL     1       1.175  -1.825  -0.562  1.00  0.00     0.141 C 
ENDROOT
BRANCH   1   4
HETATM    4  N4  UNL     1      -0.845  -0.595  -0.848  1.00  0.00    -0.252 N 
HETATM    5  C3  UNL     1      -2.235  -0.654  -0.449  1.00  0.00     0.340 C 
HETATM    6  N3  UNL     1      -2.999   0.522  -0.549  1.00  0.00    -0.290 N 
HETATM    7  O2  UNL     1      -2.665  -1.753  -0.040  1.00  0.00    -0.245 OA
ATOM      8  H3  UNL     1      -2.551   1.371  -0.895  1.00  0.00     0.172 HD
ATOM      9  H4  UNL     1      -0.441   0.279  -1.184  1.00  0.00     0.191 HD
BRANCH   6  10
HETATM   10  C2  UNL     1      -4.344   0.571  -0.194  1.00  0.00     0.160 C 
HETATM   11  N2  UNL     1      -5.023   1.668  -0.286  1.00  0.00    -0.262 N 
ATOM     12  H2  UNL     1      -6.007   1.675  -0.019  1.00  0.00     0.191 HD
BRANCH  11  13
HETATM   13  N1  UNL     1      -4.426   2.843  -0.746  1.00  0.00    -0.205 N 
HETATM   14  C1  UNL     1      -3.553   3.623   0.142  1.00  0.00     0.207 C 
BRANCH  13  15
HETATM   15  O1  UNL     1      -4.674   3.231  -2.009  1.00  0.00    -0.273 OA
ATOM     16  H1  UNL     1      -5.238   2.727  -2.583  1.00  0.00     0.246 HD
ENDBRANCH  13  15
ENDBRANCH  11  13
BRANCH  10  17
HETATM   17  C10 UNL     1      -5.057  -0.597   0.296  1.00  0.00     0.120 A 
HETATM   18  C11 UNL     1      -5.641  -1.611  -0.480  1.00  0.00     0.043 A 
HETATM   19  C12 UNL     1      -6.225  -2.545   0.344  1.00  0.00     0.027 A 
HETATM   20  C13 UNL     1      -5.977  -2.069   1.613  1.00  0.00     0.142 A 
HETATM   21  O7  UNL     1      -5.305  -0.951   1.535  1.00  0.00    -0.319 OA
ENDBRANCH  10  17
ENDBRANCH   6  10
ENDBRANCH   1   4
BRANCH   3  22
HETATM   22  C5  UNL     1       2.100  -0.731  -0.356  1.00  0.00     0.107 A 
HETATM   23  N6  UNL     1       1.942   0.592  -0.328  1.00  0.00    -0.256 N 
HETATM   24  O3  UNL     1       3.046   1.195  -0.115  1.00  0.00    -0.229 OA
ATOM     25  H6  UNL     1       1.048   1.065  -0.461  1.00  0.00     0.195 HD
HETATM   26  C6  UNL     1       4.045   0.324   0.020  1.00  0.00     0.203 A 
HETATM   27  C9  UNL     1       3.464  -0.917  -0.131  1.00  0.00     0.137 A 
BRANCH  26  28
HETATM   28  C7  UNL     1       5.435   0.662   0.272  1.00  0.00     0.298 C 
HETATM   29  O4  UNL     1       5.744   1.877   0.372  1.00  0.00    -0.263 OA
HETATM   30  N7  UNL     1       6.433  -0.304   0.405  1.00  0.00    -0.262 N 
ATOM     31  H7  UNL     1       6.196  -1.293   0.325  1.00  0.00     0.190 HD
BRANCH  30  32
HETATM   32  N8  UNL     1       7.779   0.082   0.651  1.00  0.00    -0.275 N 
ATOM     33  H8  UNL     1       8.246  -0.164   1.524  1.00  0.00     0.189 HD
BRANCH  32  34
HETATM   34  C8  UNL     1       8.446   0.814  -0.348  1.00  0.00     0.368 C 
HETATM   35  O5  UNL     1       7.867   1.106  -1.411  1.00  0.00    -0.282 OA
ENDBRANCH  32  34
ENDBRANCH  30  32
ENDBRANCH  26  28
BRANCH  27  36
HETATM   36  O6  UNL     1       4.122  -2.141  -0.068  1.00  0.00    -0.356 OA
ATOM     37  H6  UNL     1       5.051  -2.268   0.085  1.00  0.00     0.218 HD
ENDBRANCH  27  36
ENDBRANCH   3  22
TORSDOF 10
