REMARK  12 active torsions:
REMARK  status: ('A' for Active; 'I' for Inactive)
REMARK    1  A    between atoms: C2_2  and  O1_3 
REMARK    2  A    between atoms: O1_3  and  C3_4 
REMARK    3  A    between atoms: C3_4  and  C4_6 
REMARK    4  A    between atoms: C4_6  and  N1_7 
REMARK    5  A    between atoms: N1_7  and  C6_9 
REMARK    6  A    between atoms: C6_9  and  O3_10 
REMARK    7  A    between atoms: C6_9  and  C7_12 
REMARK    8  A    between atoms: C7_12  and  N3_16 
REMARK    9  A    between atoms: N3_16  and  C8_18 
REMARK   10  A    between atoms: C8_18  and  C10_23 
REMARK   11  A    between atoms: C11_26  and  N7_27 
REMARK   12  A    between atoms: C13_34  and  O7_35 
ROOT
HETATM    1  C8  UNL     1       1.747  -1.134  -0.074  1.00  0.00     0.146 C 
HETATM    2  N4  UNL     1       1.344  -2.134  -0.793  1.00  0.00    -0.277 N 
ATOM      3  H4  UNL     1       2.020  -2.683  -1.324  1.00  0.00     0.179 HD
HETATM    4  C9  UNL     1      -0.000  -2.460  -0.843  1.00  0.00     0.183 C 
HETATM    5  N5  UNL     1      -1.116  -2.755  -0.887  1.00  0.00    -0.172 NA
ENDROOT
BRANCH   1   6
HETATM    6  N3  UNL     1       0.808  -0.390   0.648  1.00  0.00    -0.326 N 
ATOM      7  H3  UNL     1       0.719  -0.528   1.655  1.00  0.00     0.169 HD
BRANCH   6   8
HETATM    8  C7  UNL     1      -0.040   0.575  -0.023  1.00  0.00     0.126 C 
HETATM    9  N2  UNL     1       0.067   0.705  -1.279  1.00  0.00    -0.385 N 
ATOM     10  H22 UNL     1      -0.530   1.384  -1.751  1.00  0.00     0.157 HD
ATOM     11  H21 UNL     1       0.717   0.130  -1.815  1.00  0.00     0.157 HD
BRANCH   8  12
HETATM   12  C6  UNL     1      -0.979   1.405   0.751  1.00  0.00     0.288 C 
BRANCH  12  13
HETATM   13  N1  UNL     1      -1.932   2.134   0.063  1.00  0.00    -0.357 N 
HETATM   14  C5  UNL     1      -1.476   3.385  -0.471  1.00  0.00     0.152 C 
BRANCH  13  15
HETATM   15  C4  UNL     1      -2.958   1.587  -0.701  1.00  0.00     0.170 C 
BRANCH  15  16
HETATM   16  C3  UNL     1      -3.588   0.336  -0.264  1.00  0.00     0.298 C 
HETATM   17  O2  UNL     1      -4.465  -0.158  -1.057  1.00  0.00    -0.259 OA
BRANCH  16  18
HETATM   18  O1  UNL     1      -3.363  -0.371   0.884  1.00  0.00    -0.317 OA
BRANCH  18  19
HETATM   19  C2  UNL     1      -4.021  -1.570   1.234  1.00  0.00     0.174 C 
HETATM   20  C1  UNL     1      -5.516  -1.393   1.343  1.00  0.00     0.034 C 
ENDBRANCH  18  19
ENDBRANCH  16  18
ENDBRANCH  15  16
ENDBRANCH  13  15
ENDBRANCH  12  13
BRANCH  12  21
HETATM   21  O3  UNL     1      -0.219   2.355   1.521  1.00  0.00    -0.369 OA
ATOM     22  H3  UNL     1       0.436   1.854   1.994  1.00  0.00     0.212 HD
ENDBRANCH  12  21
ENDBRANCH   8  12
ENDBRANCH   6   8
ENDBRANCH   1   6
BRANCH   1  23
HETATM   23  C10 UNL     1       3.187  -0.893  -0.085  1.00  0.00     0.119 A 
HETATM   24  N6  UNL     1       4.042  -1.867  -0.473  1.00  0.00    -0.317 N 
HETATM   25  C11 UNL     1       5.378  -1.731  -0.508  1.00  0.00     0.253 A 
ATOM     26  H6  UNL     1       3.646  -2.763  -0.758  1.00  0.00     0.169 HD
HETATM   27  N8  UNL     1       5.914  -0.541  -0.131  1.00  0.00    -0.288 N 
HETATM   28  C12 UNL     1       5.094   0.447   0.260  1.00  0.00     0.283 A 
ATOM     29  H8  UNL     1       6.924  -0.401  -0.145  1.00  0.00     0.172 HD
HETATM   30  O6  UNL     1       5.557   1.575   0.620  1.00  0.00    -0.265 OA
HETATM   31  C13 UNL     1       3.711   0.307   0.297  1.00  0.00     0.165 A 
BRANCH  25  32
HETATM   32  N7  UNL     1       6.184  -2.811  -0.929  1.00  0.00    -0.079 N 
HETATM   33  O4  UNL     1       5.663  -3.873  -1.266  1.00  0.00    -0.529 OA
HETATM   34  O5  UNL     1       7.536  -2.670  -0.963  1.00  0.00    -0.529 OA
ENDBRANCH  25  32
BRANCH  31  35
HETATM   35  O7  UNL     1       2.885   1.333   0.702  1.00  0.00    -0.354 OA
ATOM     36  H7  UNL     1       3.250   2.169   0.968  1.00  0.00     0.218 HD
ENDBRANCH  31  35
ENDBRANCH   1  23
TORSDOF 12
