REMARK  4 active torsions:
REMARK  status: ('A' for Active; 'I' for Inactive)
REMARK    1  A    between atoms: C3_5  and  N2_6 
REMARK    2  A    between atoms: N3_8  and  C4_10 
REMARK    3  A    between atoms: C6_19  and  C7_20 
REMARK    4  A    between atoms: C7_20  and  O1_21 
ROOT
HETATM    1  N2  UNL     1       0.889  -1.895  -0.684  1.00  0.00    -0.269 N 
ATOM      2  H2  UNL     1       0.653  -2.824  -1.032  1.00  0.00     0.189 HD
HETATM    3  N3  UNL     1       2.090  -1.575  -0.651  1.00  0.00    -0.129 N 
ATOM      4  H3  UNL     1       2.785  -2.250  -0.970  1.00  0.00     0.205 HD
ENDROOT
BRANCH   1   5
HETATM    5  C3  UNL     1      -0.188  -1.043  -0.265  1.00  0.00     0.147 A 
HETATM    6  N1  UNL     1      -0.150  -0.077   0.675  1.00  0.00    -0.330 N 
HETATM    7  C2  UNL     1      -1.342   0.518   0.805  1.00  0.00     0.079 A 
ATOM      8  H1  UNL     1       0.679   0.168   1.216  1.00  0.00     0.168 HD
HETATM    9  C1  UNL     1      -1.753   1.626   1.715  1.00  0.00     0.089 C 
HETATM   10  N7  UNL     1      -2.170  -0.084  -0.079  1.00  0.00    -0.345 N 
HETATM   11  C6  UNL     1      -1.482  -1.042  -0.744  1.00  0.00     0.080 A 
ATOM     12  H7  UNL     1      -3.153   0.146  -0.222  1.00  0.00     0.167 HD
BRANCH  11  13
HETATM   13  C7  UNL     1      -2.002  -1.947  -1.805  1.00  0.00     0.225 C 
BRANCH  13  14
HETATM   14  O1  UNL     1      -3.335  -1.695  -2.057  1.00  0.00    -0.395 OA
ATOM     15  H1  UNL     1      -3.667  -2.273  -2.734  1.00  0.00     0.209 HD
ENDBRANCH  13  14
ENDBRANCH  11  13
ENDBRANCH   1   5
BRANCH   3  16
HETATM   16  C4  UNL     1       2.539  -0.293  -0.182  1.00  0.00     0.713 A 
HETATM   17  N4  UNL     1       2.451   0.890  -0.804  1.00  0.00    -0.128 N 
HETATM   18  N5  UNL     1       2.973   1.850  -0.062  1.00  0.00    -0.261 N 
ATOM     19  H4  UNL     1       2.037   1.030  -1.726  1.00  0.00     0.205 HD
HETATM   20  C5  UNL     1       3.400   1.243   1.058  1.00  0.00     0.205 A 
ATOM     21  H5  UNL     1       3.038   2.842  -0.291  1.00  0.00     0.190 HD
HETATM   22  S1  UNL     1       4.138   1.985   2.334  1.00  0.00    -0.039 SA
HETATM   23  N6  UNL     1       3.138  -0.071   0.993  1.00  0.00    -0.162 N 
ATOM     24  H6  UNL     1       3.355  -0.769   1.705  1.00  0.00     0.187 HD
ENDBRANCH   3  16
TORSDOF 4
