REMARK  5 active torsions:
REMARK  status: ('A' for Active; 'I' for Inactive)
REMARK       I    between atoms: C2_2  and  N1_4 
REMARK    1  A    between atoms: N1_4  and  C3_6 
REMARK    2  A    between atoms: C7_13  and  N5_14 
REMARK    3  A    between atoms: N5_14  and  O2_16 
REMARK    4  A    between atoms: C8_18  and  N6_19 
REMARK    5  A    between atoms: N6_19  and  O3_21 
ROOT
HETATM    1  C3  UNL     1       0.454  -0.004  -0.413  1.00  0.00     0.092 A 
HETATM    2  C4  UNL     1      -0.329   1.001   0.102  1.00  0.00     0.101 A 
HETATM    3  N2  UNL     1       0.267   2.252   0.375  1.00  0.00    -0.098 NA
HETATM    4  C5  UNL     1      -1.669   0.839   0.364  1.00  0.00     0.099 A 
HETATM    5  N3  UNL     1      -2.496   1.867   0.898  1.00  0.00    -0.098 NA
HETATM    6  C6  UNL     1      -2.304  -0.384   0.111  1.00  0.00     0.103 A 
HETATM    7  N4  UNL     1      -3.681  -0.592   0.366  1.00  0.00    -0.098 NA
HETATM    8  C7  UNL     1      -1.512  -1.395  -0.408  1.00  0.00     0.111 A 
HETATM    9  C8  UNL     1      -0.164  -1.235  -0.673  1.00  0.00     0.113 A 
ENDROOT
BRANCH   1  10
HETATM   10  N1  UNL     1       1.840   0.150  -0.688  1.00  0.00    -0.324 N 
HETATM   11  C2  UNL     1       2.840  -0.140   0.294  1.00  0.00     0.218 C 
HETATM   12  C1  UNL     1       4.279   0.015   0.021  1.00  0.00     0.117 C 
HETATM   13  O1  UNL     1       2.518  -0.548   1.454  1.00  0.00    -0.274 OA
ATOM     14  H1  UNL     1       2.130   0.476  -1.610  1.00  0.00     0.169 HD
ENDBRANCH   1  10
BRANCH   9  15
HETATM   15  N6  UNL     1       0.553  -2.340  -1.205  1.00  0.00    -0.265 N 
ATOM     16  H6  UNL     1       1.038  -2.991  -0.587  1.00  0.00     0.194 HD
BRANCH  15  17
HETATM   17  O3  UNL     1       0.578  -2.500  -2.449  1.00  0.00    -0.289 OA
ATOM     18  H3  UNL     1       1.057  -3.239  -2.805  1.00  0.00     0.244 HD
ENDBRANCH  15  17
ENDBRANCH   9  15
BRANCH   8  19
HETATM   19  N5  UNL     1      -2.119  -2.632  -0.673  1.00  0.00    -0.265 N 
ATOM     20  H5  UNL     1      -2.552  -2.831  -1.575  1.00  0.00     0.194 HD
BRANCH  19  21
HETATM   21  O2  UNL     1      -2.105  -3.488   0.256  1.00  0.00    -0.289 OA
ATOM     22  H2  UNL     1      -2.516  -4.326   0.077  1.00  0.00     0.244 HD
ENDBRANCH  19  21
ENDBRANCH   8  19
TORSDOF 5
