REMARK  3 active torsions:
REMARK  status: ('A' for Active; 'I' for Inactive)
REMARK    1  A    between atoms: C2_2  and  N2_6 
REMARK    2  A    between atoms: N2_6  and  C3_8 
REMARK    3  A    between atoms: N4_14  and  C7_15 
ROOT
HETATM    1  C3  UNL     1      -1.424  -0.485  -0.109  1.00  0.00     0.687 A 
HETATM    2  N3  UNL     1      -2.425  -1.412   0.064  1.00  0.00    -0.200 N 
ATOM      3  H3  UNL     1      -3.429  -1.234   0.090  1.00  0.00     0.183 HD
HETATM    4  C4  UNL     1      -1.814  -2.593   0.191  1.00  0.00     0.131 A 
HETATM    5  C5  UNL     1      -0.475  -2.407   0.100  1.00  0.00     0.043 A 
HETATM    6  C6  UNL     1       0.548  -3.478   0.191  1.00  0.00     0.070 C 
HETATM    7  N4  UNL     1      -0.242  -1.060  -0.091  1.00  0.00    -0.163 N 
ENDROOT
BRANCH   7   8
HETATM    8  C7  UNL     1       1.061  -0.560  -0.224  1.00  0.00     0.226 C 
HETATM    9  C8  UNL     1       1.351   0.865   0.046  1.00  0.00     0.075 C 
HETATM   10  C9  UNL     1       2.885   0.945   0.246  1.00  0.00     0.100 C 
HETATM   11  C10 UNL     1       3.331   2.391   0.231  1.00  0.00     0.034 C 
HETATM   12  N5  UNL     1       3.577   0.230  -0.779  1.00  0.00    -0.318 N 
HETATM   13  N6  UNL     1       3.073  -0.594  -1.560  1.00  0.00    -0.249 N 
ATOM     14  H5  UNL     1       4.576   0.413  -0.879  1.00  0.00     0.182 HD
HETATM   15  N7  UNL     1       1.724  -0.906  -1.499  1.00  0.00    -0.298 N 
ATOM     16  H6  UNL     1       3.662  -1.049  -2.258  1.00  0.00     0.207 HD
ATOM     17  H7  UNL     1       1.226  -1.342  -2.275  1.00  0.00     0.184 HD
ENDBRANCH   7   8
BRANCH   1  18
HETATM   18  N2  UNL     1      -1.724   0.885  -0.278  1.00  0.00    -0.181 N 
ATOM     19  H2  UNL     1      -0.972   1.562  -0.407  1.00  0.00     0.185 HD
BRANCH  18  20
HETATM   20  C2  UNL     1      -3.111   1.325  -0.267  1.00  0.00     0.087 C 
HETATM   21  C1  UNL     1      -3.699   1.987   0.911  1.00  0.00     0.089 C 
HETATM   22  N1  UNL     1      -3.809   1.121  -1.310  1.00  0.00    -0.389 N 
ATOM     23  H12 UNL     1      -4.781   1.429  -1.302  1.00  0.00     0.157 HD
ATOM     24  H11 UNL     1      -3.402   0.663  -2.125  1.00  0.00     0.157 HD
ENDBRANCH  18  20
ENDBRANCH   1  18
TORSDOF 3
