REMARK  6 active torsions:
REMARK  status: ('A' for Active; 'I' for Inactive)
REMARK    1  A    between atoms: C2_2  and  C3_3 
REMARK    2  A    between atoms: C3_3  and  S1_4 
REMARK    3  A    between atoms: S1_4  and  C4_5 
REMARK    4  A    between atoms: N3_12  and  C6_13 
REMARK    5  A    between atoms: C6_13  and  O1_14 
REMARK    6  A    between atoms: N4_16  and  O2_18 
ROOT
HETATM    1  C4  UNL     1      -0.744   0.080  -0.800  1.00  0.00     0.171 A 
HETATM    2  N1  UNL     1      -0.357   0.372  -2.053  1.00  0.00    -0.277 N 
ATOM      3  H1  UNL     1       0.612   0.479  -2.351  1.00  0.00     0.189 HD
HETATM    4  N2  UNL     1      -1.404   0.501  -2.843  1.00  0.00    -0.274 N 
ATOM      5  H2  UNL     1      -1.395   0.720  -3.839  1.00  0.00     0.189 HD
HETATM    6  C5  UNL     1      -2.475   0.289  -2.084  1.00  0.00     0.202 A 
HETATM    7  S2  UNL     1      -4.033   0.341  -2.618  1.00  0.00    -0.038 SA
HETATM    8  N3  UNL     1      -2.091   0.030  -0.829  1.00  0.00    -0.229 N 
ENDROOT
BRANCH   8   9
HETATM    9  C6  UNL     1      -2.924  -0.247   0.271  1.00  0.00     0.252 C 
HETATM   10  N4  UNL     1      -2.494  -0.204   1.482  1.00  0.00    -0.232 N 
ATOM     11  H4  UNL     1      -1.519   0.038   1.657  1.00  0.00     0.198 HD
BRANCH   9  12
HETATM   12  O1  UNL     1      -4.254  -0.578   0.065  1.00  0.00    -0.331 OA
ATOM     13  H1  UNL     1      -4.816  -0.765   0.808  1.00  0.00     0.221 HD
ENDBRANCH   9  12
BRANCH  10  14
HETATM   14  O2  UNL     1      -3.319  -0.476   2.542  1.00  0.00    -0.287 OA
ATOM     15  H2  UNL     1      -3.001  -0.444   3.437  1.00  0.00     0.244 HD
ENDBRANCH  10  14
ENDBRANCH   8   9
BRANCH   1  16
HETATM   16  S1  UNL     1       0.294  -0.194   0.651  1.00  0.00    -0.092 SA
BRANCH  16  17
HETATM   17  C3  UNL     1       2.033  -0.001   0.103  1.00  0.00     0.082 C 
BRANCH  17  18
HETATM   18  C2  UNL     1       2.977  -0.216   1.267  1.00  0.00     0.006 C 
HETATM   19  C1  UNL     1       4.381  -0.046   0.759  1.00  0.00     0.006 C 
ENDBRANCH  17  18
ENDBRANCH  16  17
ENDBRANCH   1  16
TORSDOF 6
