REMARK  1 active torsions:
REMARK  status: ('A' for Active; 'I' for Inactive)
REMARK    1  A    between atoms: N1_2  and  N2_3 
ROOT
HETATM    1  N2  UNL     1       0.274   0.267   0.081  1.00  0.00    -0.208 NA
HETATM    2  C2  UNL     1      -0.788   1.198  -0.159  1.00  0.00     0.139 C 
HETATM    3  C3  UNL     1      -2.064   0.428   0.150  1.00  0.00     0.249 C 
HETATM    4  N3  UNL     1      -1.563  -0.644   0.999  1.00  0.00    -0.061 N 
ATOM      5  H31 UNL     1      -2.226  -1.390   1.207  1.00  0.00     0.278 HD
ATOM      6  H32 UNL     1      -1.404  -0.397   1.976  1.00  0.00     0.278 HD
HETATM    7  C4  UNL     1      -0.370  -1.045   0.241  1.00  0.00     0.341 C 
ENDROOT
BRANCH   1   8
HETATM    8  N1  UNL     1       1.244   0.239  -0.909  1.00  0.00    -0.168 NA
HETATM    9  C1  UNL     1       2.509  -0.093  -0.235  1.00  0.00     0.152 C 
ENDBRANCH   1   8
TORSDOF 1
