REMARK  2 active torsions:
REMARK  status: ('A' for Active; 'I' for Inactive)
REMARK    1  A    between atoms: C4_6  and  N3_7 
REMARK    2  A    between atoms: N3_7  and  N4_8 
ROOT
HETATM    1  C1  UNL     1      -1.088   1.520  -0.315  1.00  0.00     0.300 C 
HETATM    2  N1  UNL     1      -0.723   0.155  -0.212  1.00  0.00     0.038 N 
HETATM    3  N2  UNL     1      -1.727  -0.777  -0.201  1.00  0.00    -0.042 NA
HETATM    4  C2  UNL     1      -1.243  -1.582   0.892  1.00  0.00     0.182 C 
HETATM    5  C3  UNL     1      -0.308  -0.397   1.088  1.00  0.00     0.279 A 
HETATM    6  C4  UNL     1       0.656  -0.210  -0.008  1.00  0.00     0.357 A 
ENDROOT
BRANCH   6   7
HETATM    7  N3  UNL     1       1.609   0.837   0.207  1.00  0.00    -0.110 NA
BRANCH   7   8
HETATM    8  N4  UNL     1       2.882   0.277   0.383  1.00  0.00    -0.346 N 
ATOM      9  H42 UNL     1       3.082  -0.723   0.359  1.00  0.00     0.172 HD
ATOM     10  H41 UNL     1       3.561   1.023   0.536  1.00  0.00     0.172 HD
ENDBRANCH   7   8
ENDBRANCH   6   7
TORSDOF 2
