REMARK  3 active torsions:
REMARK  status: ('A' for Active; 'I' for Inactive)
REMARK    1  A    between atoms: C3_3  and  C4_7 
REMARK    2  A    between atoms: C4_7  and  N2_9 
REMARK    3  A    between atoms: C4_7  and  O1_13 
ROOT
HETATM    1  C1  UNL     1       3.088   0.537   0.468  1.00  0.00     0.019 C 
HETATM    2  C2  UNL     1       1.988   0.097   0.240  1.00  0.00    -0.059 C 
HETATM    3  C3  UNL     1       0.680  -0.440  -0.055  1.00  0.00     0.119 C 
HETATM    4  N1  UNL     1       0.640  -1.552  -0.705  1.00  0.00    -0.392 N 
ATOM      5  H11 UNL     1      -0.284  -1.931  -0.913  1.00  0.00     0.156 HD
ATOM      6  H12 UNL     1       1.492  -2.030  -0.997  1.00  0.00     0.156 HD
ENDROOT
BRANCH   3   7
HETATM    7  C4  UNL     1      -0.562   0.256   0.371  1.00  0.00     0.269 C 
HETATM    8  C5  UNL     1      -1.741  -0.572  -0.096  1.00  0.00     0.086 C 
BRANCH   7   9
HETATM    9  N2  UNL     1      -0.698   1.557  -0.300  1.00  0.00    -0.041 N 
ATOM     10  H23 UNL     1       0.127   2.140  -0.158  1.00  0.00     0.278 HD
ATOM     11  H22 UNL     1      -0.650   1.463  -1.314  1.00  0.00     0.278 HD
ATOM     12  H21 UNL     1      -1.550   2.035  -0.008  1.00  0.00     0.278 HD
ENDBRANCH   7   9
BRANCH   7  13
HETATM   13  O1  UNL     1      -0.605   0.493   1.728  1.00  0.00    -0.360 OA
ATOM     14  H1  UNL     1      -1.399   0.938   2.000  1.00  0.00     0.213 HD
ENDBRANCH   7  13
ENDBRANCH   3   7
TORSDOF 3
