REMARK  3 active torsions:
REMARK  status: ('A' for Active; 'I' for Inactive)
REMARK    1  A    between atoms: C1_2  and  C2_3 
REMARK    2  A    between atoms: C3_4  and  C4_5 
REMARK    3  A    between atoms: N2_9  and  O2_11 
ROOT
HETATM    1  C4  UNL     1       2.598  -0.315   0.767  1.00  0.00     0.016 C 
HETATM    2  C5  UNL     1       3.742  -0.486   1.128  1.00  0.00     0.066 C 
HETATM    3  O1  UNL     1       5.044  -0.669   1.531  1.00  0.00    -0.313 OA
ATOM      4  H1  UNL     1       5.941  -0.803   1.814  1.00  0.00     0.230 HD
ENDROOT
BRANCH   1   5
HETATM    5  C3  UNL     1       1.260  -0.106   0.326  1.00  0.00    -0.005 C 
HETATM    6  C2  UNL     1       0.130   0.073  -0.069  1.00  0.00    -0.018 C 
BRANCH   6   7
HETATM    7  C1  UNL     1      -1.207   0.308  -0.549  1.00  0.00     0.191 C 
HETATM    8  N1  UNL     1      -1.450   1.331  -1.483  1.00  0.00    -0.071 NA
HETATM    9  N2  UNL     1      -2.208  -0.400  -0.144  1.00  0.00    -0.248 N 
ATOM     10  H2  UNL     1      -3.142  -0.205  -0.505  1.00  0.00     0.196 HD
BRANCH   9  11
HETATM   11  O2  UNL     1      -2.031  -1.416   0.770  1.00  0.00    -0.288 OA
ATOM     12  H2  UNL     1      -2.767  -1.937   1.068  1.00  0.00     0.244 HD
ENDBRANCH   9  11
ENDBRANCH   6   7
ENDBRANCH   1   5
TORSDOF 3
