REMARK  2 active torsions:
REMARK  status: ('A' for Active; 'I' for Inactive)
REMARK    1  A    between atoms: C2_2  and  O1_3 
REMARK       I    between atoms: N1_5  and  C3_7 
REMARK       I    between atoms: C3_7  and  N3_11 
REMARK    2  A    between atoms: N4_13  and  N5_15 
ROOT
HETATM    1  C1  UNL     1      -3.070  -0.300   0.421  1.00  0.00     0.098 C 
HETATM    2  C2  UNL     1      -1.720   0.075  -0.061  1.00  0.00     0.127 C 
HETATM    3  N1  UNL     1      -0.733  -0.158   0.726  1.00  0.00    -0.174 N 
ATOM      4  H1  UNL     1      -0.934  -0.585   1.630  1.00  0.00     0.186 HD
HETATM    5  C3  UNL     1       0.620   0.140   0.419  1.00  0.00     0.693 C 
HETATM    6  N2  UNL     1       1.029   1.354   0.510  1.00  0.00    -0.233 N 
ATOM      7  H21 UNL     1       2.002   1.568   0.289  1.00  0.00     0.174 HD
ATOM      8  H22 UNL     1       0.423   2.123   0.796  1.00  0.00     0.174 HD
HETATM    9  N3  UNL     1       1.457  -0.922   0.024  1.00  0.00    -0.118 N 
ATOM     10  H3  UNL     1       1.020  -1.831  -0.128  1.00  0.00     0.207 HD
HETATM   11  N4  UNL     1       2.700  -0.840  -0.156  1.00  0.00    -0.235 N 
ATOM     12  H4  UNL     1       3.222  -1.669  -0.442  1.00  0.00     0.208 HD
ENDROOT
BRANCH   2  13
HETATM   13  O1  UNL     1      -1.476   0.651  -1.292  1.00  0.00    -0.349 OA
ATOM     14  H1  UNL     1      -0.610   0.891  -1.601  1.00  0.00     0.219 HD
ENDBRANCH   2  13
BRANCH  11  15
HETATM   15  N5  UNL     1       3.370   0.357   0.028  1.00  0.00    -0.330 N 
ATOM     16  H52 UNL     1       2.833   1.176   0.314  1.00  0.00     0.178 HD
ATOM     17  H51 UNL     1       4.377   0.423  -0.118  1.00  0.00     0.178 HD
ENDBRANCH  11  15
TORSDOF 2
