REMARK  1 active torsions:
REMARK  status: ('A' for Active; 'I' for Inactive)
REMARK       I    between atoms: N2_3  and  C2_5 
REMARK    1  A    between atoms: C2_5  and  C3_7 
ROOT
HETATM    1  N1  UNL     1       3.399  -0.445  -1.174  1.00  0.00    -0.172 NA
HETATM    2  C1  UNL     1       2.392  -0.387  -0.601  1.00  0.00     0.184 C 
HETATM    3  N2  UNL     1       1.190  -0.331   0.107  1.00  0.00    -0.254 N 
ATOM      4  H2  UNL     1       1.168  -0.669   1.069  1.00  0.00     0.181 HD
HETATM    5  C2  UNL     1      -0.006   0.182  -0.470  1.00  0.00     0.331 C 
HETATM    6  O1  UNL     1       0.054   0.590  -1.655  1.00  0.00    -0.260 OA
ENDROOT
BRANCH   5   7
HETATM    7  C3  UNL     1      -1.261   0.250   0.243  1.00  0.00     0.271 C 
HETATM    8  O2  UNL     1      -1.341  -0.153   1.430  1.00  0.00    -0.640 OA
HETATM    9  O3  UNL     1      -2.378   0.755  -0.369  1.00  0.00    -0.640 OA
ENDBRANCH   5   7
TORSDOF 1
