REMARK  3 active torsions:
REMARK  status: ('A' for Active; 'I' for Inactive)
REMARK       I    between atoms: N1_2  and  C3_4 
REMARK    1  A    between atoms: C3_4  and  C4_6 
REMARK    2  A    between atoms: C4_6  and  N2_7 
REMARK    3  A    between atoms: C4_6  and  N3_11 
ROOT
HETATM    1  C4  UNL     1       1.374  -0.577   0.051  1.00  0.00     0.468 C 
ENDROOT
BRANCH   1   2
HETATM    2  C3  UNL     1       0.248  -0.272   0.920  1.00  0.00     0.277 C 
HETATM    3  N1  UNL     1      -1.036   0.145   0.557  1.00  0.00    -0.358 N 
HETATM    4  C1  UNL     1      -2.062   0.411   1.591  1.00  0.00     0.152 C 
HETATM    5  C2  UNL     1      -1.486   0.355  -0.796  1.00  0.00     0.152 C 
HETATM    6  O1  UNL     1       0.455  -0.400   2.189  1.00  0.00    -0.269 OA
ENDBRANCH   1   2
BRANCH   1   7
HETATM    7  N2  UNL     1       1.092  -0.426  -1.338  1.00  0.00    -0.042 N 
ATOM      8  H23 UNL     1       0.277  -0.980  -1.600  1.00  0.00     0.277 HD
ATOM      9  H22 UNL     1       0.734   0.509  -1.531  1.00  0.00     0.277 HD
ATOM     10  H21 UNL     1       1.882  -0.640  -1.947  1.00  0.00     0.277 HD
ENDBRANCH   1   7
BRANCH   1  11
HETATM   11  N3  UNL     1       2.518   0.295   0.394  1.00  0.00    -0.042 N 
ATOM     12  H33 UNL     1       2.269   1.284   0.368  1.00  0.00     0.277 HD
ATOM     13  H32 UNL     1       2.766   0.232   1.381  1.00  0.00     0.277 HD
ATOM     14  H31 UNL     1       3.308   0.081  -0.215  1.00  0.00     0.277 HD
ENDBRANCH   1  11
TORSDOF 3
