REMARK  1 active torsions:
REMARK  status: ('A' for Active; 'I' for Inactive)
REMARK       I    between atoms: C2_5  and  N4_7 
REMARK    1  A    between atoms: C3_9  and  O1_10 
ROOT
HETATM    1  N1  UNL     1      -3.170   1.170   0.534  1.00  0.00    -0.172 NA
HETATM    2  C1  UNL     1      -2.061   1.140   0.180  1.00  0.00     0.184 C 
HETATM    3  N2  UNL     1      -0.720   1.109  -0.222  1.00  0.00    -0.267 N 
ATOM      4  H2  UNL     1      -0.231   1.986  -0.401  1.00  0.00     0.180 HD
HETATM    5  C2  UNL     1      -0.081  -0.023  -0.373  1.00  0.00     0.202 C 
HETATM    6  N3  UNL     1      -0.788  -1.217  -0.115  1.00  0.00    -0.062 NA
HETATM    7  N4  UNL     1       1.264  -0.053  -0.776  1.00  0.00    -0.321 N 
ATOM      8  H4  UNL     1       1.467  -0.344  -1.732  1.00  0.00     0.169 HD
HETATM    9  C3  UNL     1       2.258   0.262  -0.021  1.00  0.00     0.225 C 
ENDROOT
BRANCH   9  10
HETATM   10  O1  UNL     1       2.102   0.672   1.297  1.00  0.00    -0.356 OA
ATOM     11  H1  UNL     1       2.836   0.904   1.854  1.00  0.00     0.218 HD
ENDBRANCH   9  10
TORSDOF 1
