REMARK  4 active torsions:
REMARK  status: ('A' for Active; 'I' for Inactive)
REMARK    1  A    between atoms: C2_2  and  C5_5 
REMARK    2  A    between atoms: C5_5  and  C6_7 
REMARK    3  A    between atoms: C7_9  and  N1_10 
REMARK    4  A    between atoms: C8_15  and  C9_16 
ROOT
HETATM    1  C6  UNL     1       0.491  -0.284   0.218  1.00  0.00     0.083 A 
HETATM    2  S1  UNL     1       0.362  -0.791   1.873  1.00  0.00    -0.049 SA
HETATM    3  C7  UNL     1       2.000  -1.085   2.174  1.00  0.00     0.143 A 
HETATM    4  N2  UNL     1       2.580  -0.787   1.013  1.00  0.00    -0.334 N 
ATOM      5  H2  UNL     1       3.590  -0.872   0.898  1.00  0.00     0.168 HD
HETATM    6  C8  UNL     1       1.815  -0.377   0.010  1.00  0.00     0.104 A 
ENDROOT
BRANCH   1   7
HETATM    7  C5  UNL     1      -0.651   0.107  -0.640  1.00  0.00     0.176 C 
HETATM    8  O1  UNL     1      -0.550   0.446  -1.823  1.00  0.00    -0.291 OA
BRANCH   7   9
HETATM    9  C2  UNL     1      -2.006   0.103  -0.078  1.00  0.00     0.015 C 
HETATM   10  C1  UNL     1      -2.200   1.019   1.092  1.00  0.00     0.023 C 
HETATM   11  C3  UNL     1      -2.330  -1.320   0.359  1.00  0.00     0.023 C 
HETATM   12  C4  UNL     1      -2.991   0.521  -1.143  1.00  0.00     0.023 C 
ENDBRANCH   7   9
ENDBRANCH   1   7
BRANCH   6  13
HETATM   13  C9  UNL     1       2.471   0.012  -1.311  1.00  0.00     0.283 C 
HETATM   14  C10 UNL     1       2.286   1.439  -1.665  1.00  0.00     0.097 C 
HETATM   15  F1  UNL     1       1.984  -0.852  -2.311  1.00  0.00    -0.200 F 
HETATM   16  F2  UNL     1       3.822  -0.248  -1.316  1.00  0.00    -0.200 F 
ENDBRANCH   6  13
BRANCH   3  17
HETATM   17  N1  UNL     1       2.576  -1.506   3.282  1.00  0.00    -0.380 N 
ATOM     18  H12 UNL     1       2.132  -1.734   4.171  1.00  0.00     0.158 HD
ATOM     19  H11 UNL     1       3.564  -1.683   3.464  1.00  0.00     0.158 HD
ENDBRANCH   3  17
TORSDOF 4
