REMARK  3 active torsions:
REMARK  status: ('A' for Active; 'I' for Inactive)
REMARK    1  A    between atoms: C2_2  and  N1_4 
REMARK    2  A    between atoms: C2_2  and  C8_15 
REMARK       I    between atoms: N1_4  and  C4_6 
REMARK    3  A    between atoms: C4_6  and  C5_8 
ROOT
HETATM    1  N1  UNL     1      -0.307  -0.119   0.061  1.00  0.00    -0.339 N 
ATOM      2  H1  UNL     1       0.025  -0.877   0.657  1.00  0.00     0.163 HD
HETATM    3  C4  UNL     1       0.685   0.688  -0.492  1.00  0.00     0.260 C 
HETATM    4  O1  UNL     1       0.404   1.643  -1.230  1.00  0.00    -0.267 OA
ENDROOT
BRANCH   1   5
HETATM    5  C2  UNL     1      -1.725  -0.033  -0.091  1.00  0.00     0.123 C 
HETATM    6  C1  UNL     1      -2.353  -1.131   0.777  1.00  0.00     0.047 C 
HETATM    7  C3  UNL     1      -2.170   1.321   0.399  1.00  0.00     0.047 C 
BRANCH   5   8
HETATM    8  C8  UNL     1      -2.264  -0.248  -1.470  1.00  0.00     0.411 C 
HETATM    9  F1  UNL     1      -1.962  -1.459  -2.019  1.00  0.00    -0.168 F 
HETATM   10  F2  UNL     1      -2.050   0.770  -2.347  1.00  0.00    -0.168 F 
HETATM   11  F3  UNL     1      -3.667  -0.285  -1.292  1.00  0.00    -0.168 F 
ENDBRANCH   5   8
ENDBRANCH   1   5
BRANCH   3  12
HETATM   12  C5  UNL     1       2.095   0.444  -0.227  1.00  0.00     0.090 A 
HETATM   13  C6  UNL     1       2.659  -0.538   0.548  1.00  0.00     0.114 A 
HETATM   14  N2  UNL     1       3.955  -0.571   0.646  1.00  0.00    -0.350 N 
HETATM   15  C7  UNL     1       4.680   0.337   0.002  1.00  0.00     0.143 A 
ATOM     16  H2  UNL     1       4.411  -1.287   1.212  1.00  0.00     0.166 HD
HETATM   17  S1  UNL     1       6.332   0.495  -0.023  1.00  0.00    -0.052 SA
HETATM   18  S2  UNL     1       3.490   1.280  -0.779  1.00  0.00    -0.054 SA
ENDBRANCH   3  12
TORSDOF 3
