REMARK  5 active torsions:
REMARK  status: ('A' for Active; 'I' for Inactive)
REMARK    1  A    between atoms: N1_1  and  C1_5 
REMARK    2  A    between atoms: C1_5  and  N2_6 
REMARK    3  A    between atoms: C1_5  and  C2_10 
REMARK    4  A    between atoms: C2_10  and  N3_11 
REMARK    5  A    between atoms: C2_10  and  C3_15 
ROOT
HETATM    1  C2  UNL     1       0.424   0.463   0.420  1.00  0.00     0.272 C 
ENDROOT
BRANCH   1   2
HETATM    2  C1  UNL     1       1.658   0.242  -0.401  1.00  0.00     0.410 C 
BRANCH   2   3
HETATM    3  N1  UNL     1       1.766  -1.146  -0.801  1.00  0.00    -0.048 N 
ATOM      4  H13 UNL     1       2.643  -1.361  -1.275  1.00  0.00     0.276 HD
ATOM      5  H12 UNL     1       1.886  -1.783  -0.014  1.00  0.00     0.276 HD
ATOM      6  H11 UNL     1       0.942  -1.355  -1.365  1.00  0.00     0.276 HD
ENDBRANCH   2   3
BRANCH   2   7
HETATM    7  N2  UNL     1       2.831   0.539   0.402  1.00  0.00    -0.048 N 
ATOM      8  H23 UNL     1       2.951  -0.098   1.189  1.00  0.00     0.276 HD
ATOM      9  H22 UNL     1       3.708   0.324  -0.072  1.00  0.00     0.276 HD
ATOM     10  H21 UNL     1       2.755   1.516   0.684  1.00  0.00     0.276 HD
ENDBRANCH   2   7
ENDBRANCH   1   2
BRANCH   1  11
HETATM   11  N3  UNL     1       0.298   1.859   0.838  1.00  0.00    -0.069 N 
ATOM     12  H33 UNL     1       1.134   2.178   1.328  1.00  0.00     0.274 HD
ATOM     13  H32 UNL     1       0.332   2.492   0.039  1.00  0.00     0.274 HD
ATOM     14  H31 UNL     1      -0.542   2.009   1.397  1.00  0.00     0.274 HD
ENDBRANCH   1  11
BRANCH   1  15
HETATM   15  C3  UNL     1      -0.860   0.115  -0.265  1.00  0.00     0.230 C 
HETATM   16  C4  UNL     1      -0.969  -1.330  -0.697  1.00  0.00     0.110 C 
HETATM   17  S1  UNL     1      -2.807  -1.483  -0.767  1.00  0.00    -0.140 SA
HETATM   18  C5  UNL     1      -3.182   0.167  -0.045  1.00  0.00     0.306 C 
HETATM   19  N4  UNL     1      -1.926   0.339   0.708  1.00  0.00    -0.060 N 
ATOM     20  H42 UNL     1      -1.858  -0.253   1.536  1.00  0.00     0.278 HD
ATOM     21  H41 UNL     1      -1.857   1.233   1.195  1.00  0.00     0.278 HD
ENDBRANCH   1  15
TORSDOF 5
