REMARK  5 active torsions:
REMARK  status: ('A' for Active; 'I' for Inactive)
REMARK    1  A    between atoms: N1_1  and  C1_4 
REMARK    2  A    between atoms: C2_7  and  N3_8 
REMARK    3  A    between atoms: N3_8  and  C3_10 
REMARK    4  A    between atoms: C3_10  and  C4_11 
REMARK    5  A    between atoms: C4_11  and  N4_12 
ROOT
HETATM    1  C1  UNL     1      -2.613   0.861  -0.199  1.00  0.00     0.691 A 
HETATM    2  N2  UNL     1      -1.298   0.583  -0.157  1.00  0.00    -0.023 N 
ATOM      3  H2  UNL     1      -0.639   1.336  -0.356  1.00  0.00     0.203 HD
HETATM    4  C2  UNL     1      -0.802  -0.639   0.134  1.00  0.00     0.693 A 
HETATM    5  N5  UNL     1      -1.727  -1.605   0.390  1.00  0.00    -0.187 N 
ATOM      6  H5  UNL     1      -1.400  -2.545   0.614  1.00  0.00     0.185 HD
HETATM    7  C5  UNL     1      -3.047  -1.378   0.361  1.00  0.00     0.215 A 
HETATM    8  N6  UNL     1      -3.483  -0.142   0.065  1.00  0.00    -0.187 N 
ATOM      9  H6  UNL     1      -4.486   0.044   0.039  1.00  0.00     0.185 HD
ENDROOT
BRANCH   4  10
HETATM   10  N3  UNL     1       0.582  -0.918   0.174  1.00  0.00    -0.224 N 
ATOM     11  H3  UNL     1       0.906  -1.859   0.399  1.00  0.00     0.177 HD
BRANCH  10  12
HETATM   12  C3  UNL     1       1.532   0.121  -0.101  1.00  0.00     0.165 C 
BRANCH  12  13
HETATM   13  C4  UNL     1       2.962  -0.337  -0.017  1.00  0.00     0.249 C 
BRANCH  13  14
HETATM   14  N4  UNL     1       3.806   0.818  -0.319  1.00  0.00    -0.078 N 
ATOM     15  H43 UNL     1       3.579   1.256  -1.212  1.00  0.00     0.274 HD
ATOM     16  H42 UNL     1       3.609   1.623   0.276  1.00  0.00     0.274 HD
ATOM     17  H41 UNL     1       4.776   0.507  -0.262  1.00  0.00     0.274 HD
ENDBRANCH  13  14
ENDBRANCH  12  13
ENDBRANCH  10  12
ENDBRANCH   4  10
BRANCH   1  18
HETATM   18  N1  UNL     1      -3.095   2.026  -0.477  1.00  0.00    -0.234 N 
ATOM     19  H12 UNL     1      -2.439   2.782  -0.676  1.00  0.00     0.174 HD
ATOM     20  H11 UNL     1      -4.092   2.237  -0.509  1.00  0.00     0.174 HD
ENDBRANCH   1  18
TORSDOF 5
