REMARK  5 active torsions:
REMARK  status: ('A' for Active; 'I' for Inactive)
REMARK    1  A    between atoms: N1_1  and  C1_4 
REMARK    2  A    between atoms: C2_7  and  N3_8 
REMARK    3  A    between atoms: N3_8  and  C3_10 
REMARK    4  A    between atoms: C3_10  and  C4_11 
REMARK    5  A    between atoms: C4_11  and  N4_12 
ROOT
HETATM    1  C1  UNL     1       3.118   0.243   0.481  1.00  0.00     0.692 A 
HETATM    2  N2  UNL     1       2.041  -0.453   0.875  1.00  0.00    -0.175 N 
ATOM      3  H2  UNL     1       2.116  -1.103   1.658  1.00  0.00     0.186 HD
HETATM    4  C2  UNL     1       0.844  -0.297   0.234  1.00  0.00     0.134 A 
HETATM    5  C5  UNL     1       0.733   0.574  -0.820  1.00  0.00     0.156 A 
HETATM    6  N5  UNL     1       1.843   1.264  -1.193  1.00  0.00    -0.294 N 
ATOM      7  H5  UNL     1       1.792   1.920  -1.972  1.00  0.00     0.186 HD
HETATM    8  N6  UNL     1       2.990   1.092  -0.553  1.00  0.00    -0.133 N 
ATOM      9  H6  UNL     1       3.806   1.623  -0.856  1.00  0.00     0.205 HD
ENDROOT
BRANCH   4  10
HETATM   10  N3  UNL     1      -0.252  -1.067   0.674  1.00  0.00    -0.373 N 
ATOM     11  H3  UNL     1      -0.069  -1.740   1.418  1.00  0.00     0.161 HD
BRANCH  10  12
HETATM   12  C3  UNL     1      -1.586  -1.002   0.187  1.00  0.00     0.148 C 
BRANCH  12  13
HETATM   13  C4  UNL     1      -2.364   0.218   0.554  1.00  0.00     0.249 C 
BRANCH  13  14
HETATM   14  N4  UNL     1      -3.698   0.090  -0.047  1.00  0.00    -0.078 N 
ATOM     15  H43 UNL     1      -3.666  -0.073  -1.053  1.00  0.00     0.274 HD
ATOM     16  H42 UNL     1      -4.170  -0.776   0.214  1.00  0.00     0.274 HD
ATOM     17  H41 UNL     1      -4.230   0.924   0.204  1.00  0.00     0.274 HD
ENDBRANCH  13  14
ENDBRANCH  12  13
ENDBRANCH  10  12
ENDBRANCH   4  10
BRANCH   1  18
HETATM   18  N1  UNL     1       4.283   0.126   1.064  1.00  0.00    -0.233 N 
ATOM     19  H12 UNL     1       4.380  -0.518   1.849  1.00  0.00     0.174 HD
ATOM     20  H11 UNL     1       5.102   0.655   0.764  1.00  0.00     0.174 HD
ENDBRANCH   1  18
TORSDOF 5
