REMARK  4 active torsions:
REMARK  status: ('A' for Active; 'I' for Inactive)
REMARK    1  A    between atoms: C2_2  and  N1_3 
REMARK    2  A    between atoms: N1_3  and  C4_5 
REMARK    3  A    between atoms: C4_5  and  C5_6 
REMARK    4  A    between atoms: N4_10  and  N5_11 
ROOT
HETATM    1  C5  UNL     1       1.363  -0.634   0.500  1.00  0.00     0.290 C 
HETATM    2  O1  UNL     1       1.467   0.148   1.615  1.00  0.00    -0.243 OA
HETATM    3  N2  UNL     1       2.826   0.312   1.714  1.00  0.00     0.033 NA
HETATM    4  N3  UNL     1       3.381   0.057   0.465  1.00  0.00    -0.005 NA
HETATM    5  N4  UNL     1       2.247   0.047  -0.408  1.00  0.00    -0.098 NA
ENDROOT
BRANCH   1   6
HETATM    6  C4  UNL     1       0.100  -1.127   0.028  1.00  0.00     0.324 C 
BRANCH   6   7
HETATM    7  N1  UNL     1      -0.981  -0.315  -0.347  1.00  0.00     0.087 N 
HETATM    8  C3  UNL     1      -2.034  -1.205  -0.879  1.00  0.00     0.310 C 
BRANCH   7   9
HETATM    9  C2  UNL     1      -1.598   0.362   0.791  1.00  0.00     0.267 C 
HETATM   10  C1  UNL     1      -2.690   1.294   0.378  1.00  0.00     0.037 C 
ENDBRANCH   7   9
ENDBRANCH   6   7
ENDBRANCH   1   6
BRANCH   5  11
HETATM   11  N5  UNL     1       1.967   1.376  -0.608  1.00  0.00    -0.345 NA
ATOM     12  H52 UNL     1       1.159   1.369  -1.230  1.00  0.00     0.172 HD
ATOM     13  H51 UNL     1       2.594   1.859  -1.252  1.00  0.00     0.172 HD
ENDBRANCH   5  11
TORSDOF 4
