REMARK  5 active torsions:
REMARK  status: ('A' for Active; 'I' for Inactive)
REMARK    1  A    between atoms: C1_2  and  N2_4 
REMARK    2  A    between atoms: N2_4  and  N3_6 
REMARK    3  A    between atoms: N3_6  and  O1_8 
REMARK    4  A    between atoms: O1_8  and  C2_9 
REMARK    5  A    between atoms: C2_9  and  C3_10 
ROOT
HETATM    1  O1  UNL     1       0.553   0.042   0.444  1.00  0.00    -0.263 OA
ENDROOT
BRANCH   1   2
HETATM    2  N3  UNL     1       1.849  -0.210   0.323  1.00  0.00    -0.206 N 
ATOM      3  H3  UNL     1       2.233  -1.148   0.440  1.00  0.00     0.216 HD
BRANCH   2   4
HETATM    4  N2  UNL     1       2.643   0.874   0.030  1.00  0.00    -0.259 N 
ATOM      5  H2  UNL     1       2.231   1.773  -0.219  1.00  0.00     0.191 HD
BRANCH   4   6
HETATM    6  C1  UNL     1       4.057   0.708   0.084  1.00  0.00     0.201 C 
HETATM    7  N1  UNL     1       4.654  -0.516   0.423  1.00  0.00    -0.068 NA
HETATM    8  S1  UNL     1       5.006   2.014  -0.269  1.00  0.00    -0.043 SA
ENDBRANCH   4   6
ENDBRANCH   2   4
ENDBRANCH   1   2
BRANCH   1   9
HETATM    9  C2  UNL     1      -0.150  -1.052  -0.058  1.00  0.00     0.235 C 
BRANCH   9  10
HETATM   10  C3  UNL     1      -1.638  -0.866   0.033  1.00  0.00     0.212 C 
HETATM   11  C4  UNL     1      -2.099   0.294  -0.785  1.00  0.00     0.037 C 
HETATM   12  C5  UNL     1      -2.866   1.146   0.225  1.00  0.00     0.029 C 
HETATM   13  C6  UNL     1      -3.324   0.086   1.208  1.00  0.00     0.233 C 
HETATM   14  N4  UNL     1      -2.093  -0.681   1.381  1.00  0.00    -0.069 N 
ATOM     15  H42 UNL     1      -2.199  -1.542   1.917  1.00  0.00     0.277 HD
ATOM     16  H41 UNL     1      -1.410  -0.255   2.007  1.00  0.00     0.277 HD
ENDBRANCH   9  10
ENDBRANCH   1   9
TORSDOF 5
