REMARK  4 active torsions:
REMARK  status: ('A' for Active; 'I' for Inactive)
REMARK    1  A    between atoms: N1_1  and  C1_5 
REMARK    2  A    between atoms: C1_5  and  C2_6 
REMARK       I    between atoms: C2_6  and  N2_8 
REMARK    3  A    between atoms: N2_8  and  C3_10 
REMARK    4  A    between atoms: C5_12  and  C6_13 
ROOT
HETATM    1  C3  UNL     1       0.108  -0.360   0.544  1.00  0.00     0.201 C 
HETATM    2  C4  UNL     1       1.213   0.298  -0.288  1.00  0.00     0.084 C 
HETATM    3  C5  UNL     1       2.390  -0.070   0.630  1.00  0.00     0.191 C 
HETATM    4  N4  UNL     1       2.014  -1.388   1.012  1.00  0.00    -0.325 N 
ATOM      5  H4  UNL     1       2.679  -2.110   1.289  1.00  0.00     0.180 HD
HETATM    6  N5  UNL     1       0.790  -1.558   0.970  1.00  0.00    -0.317 N 
ATOM      7  H5  UNL     1       0.322  -2.433   1.206  1.00  0.00     0.182 HD
ENDROOT
BRANCH   1   8
HETATM    8  N2  UNL     1      -1.054  -0.646  -0.207  1.00  0.00    -0.337 N 
HETATM    9  C2  UNL     1      -2.293  -0.079   0.180  1.00  0.00     0.244 C 
HETATM   10  O1  UNL     1      -2.359   0.685   1.198  1.00  0.00    -0.272 OA
ATOM     11  H2  UNL     1      -1.001  -1.257  -1.022  1.00  0.00     0.164 HD
BRANCH   9  12
HETATM   12  C1  UNL     1      -3.546  -0.350  -0.579  1.00  0.00     0.332 C 
BRANCH  12  13
HETATM   13  N1  UNL     1      -4.641   0.360   0.047  1.00  0.00    -0.071 N 
ATOM     14  H13 UNL     1      -4.732   0.137   1.038  1.00  0.00     0.274 HD
ATOM     15  H12 UNL     1      -4.453   1.358   0.141  1.00  0.00     0.274 HD
ATOM     16  H11 UNL     1      -5.499   0.174  -0.473  1.00  0.00     0.274 HD
ENDBRANCH  12  13
ENDBRANCH   9  12
ENDBRANCH   1   8
BRANCH   3  17
HETATM   17  C6  UNL     1       3.660  -0.028  -0.123  1.00  0.00     0.255 C 
HETATM   18  N3  UNL     1       4.121   1.250  -0.550  1.00  0.00    -0.060 NA
HETATM   19  O2  UNL     1       4.259  -1.092  -0.347  1.00  0.00    -0.275 OA
ENDBRANCH   3  17
TORSDOF 4
