REMARK  6 active torsions:
REMARK  status: ('A' for Active; 'I' for Inactive)
REMARK    1  A    between atoms: N1_1  and  C1_4 
REMARK    2  A    between atoms: C5_10  and  C6_11 
REMARK    3  A    between atoms: C6_11  and  O1_12 
REMARK    4  A    between atoms: C6_11  and  C7_14 
REMARK    5  A    between atoms: C7_14  and  N3_15 
REMARK    6  A    between atoms: C7_14  and  C8_19 
ROOT
HETATM    1  C6  UNL     1       0.294  -0.960   0.507  1.00  0.00     0.096 C 
ENDROOT
BRANCH   1   2
HETATM    2  C5  UNL     1      -0.765  -0.089   0.100  1.00  0.00     0.039 A 
HETATM    3  C1  UNL     1      -2.078  -0.610   0.080  1.00  0.00     0.111 A 
HETATM    4  N2  UNL     1      -3.107   0.169  -0.244  1.00  0.00    -0.352 N 
HETATM    5  C2  UNL     1      -2.973   1.461  -0.564  1.00  0.00     0.089 A 
ATOM      6  H2  UNL     1      -4.042  -0.238  -0.249  1.00  0.00     0.166 HD
HETATM    7  C3  UNL     1      -1.730   2.039  -0.567  1.00  0.00     0.018 A 
HETATM    8  C4  UNL     1      -0.630   1.237  -0.227  1.00  0.00     0.019 A 
BRANCH   3   9
HETATM    9  N1  UNL     1      -2.212  -1.856   0.388  1.00  0.00    -0.385 N 
ATOM     10  H12 UNL     1      -3.160  -2.232   0.374  1.00  0.00     0.157 HD
ATOM     11  H11 UNL     1      -1.423  -2.453   0.636  1.00  0.00     0.157 HD
ENDBRANCH   3   9
ENDBRANCH   1   2
BRANCH   1  12
HETATM   12  O1  UNL     1      -0.016  -1.805   1.449  1.00  0.00    -0.361 OA
ATOM     13  H1  UNL     1       0.687  -2.384   1.719  1.00  0.00     0.217 HD
ENDBRANCH   1  12
BRANCH   1  14
HETATM   14  C7  UNL     1       1.649  -1.055   0.040  1.00  0.00     0.328 C 
BRANCH  14  15
HETATM   15  N3  UNL     1       2.574  -1.416   1.142  1.00  0.00    -0.061 N 
ATOM     16  H33 UNL     1       2.493  -0.769   1.926  1.00  0.00     0.275 HD
ATOM     17  H32 UNL     1       2.279  -2.271   1.613  1.00  0.00     0.275 HD
ATOM     18  H31 UNL     1       3.536  -1.483   0.810  1.00  0.00     0.275 HD
ENDBRANCH  14  15
BRANCH  14  19
HETATM   19  C8  UNL     1       2.259   0.021  -0.719  1.00  0.00     0.268 C 
HETATM   20  N4  UNL     1       3.280   0.889  -0.265  1.00  0.00    -0.060 NA
HETATM   21  O2  UNL     1       1.845   0.214  -1.914  1.00  0.00    -0.274 OA
ENDBRANCH  14  19
ENDBRANCH   1  14
TORSDOF 6
