REMARK  14 active torsions:
REMARK  status: ('A' for Active; 'I' for Inactive)
REMARK    1  A    between atoms: C2_3  and  O1_4 
REMARK    2  A    between atoms: N2_7  and  O2_8 
REMARK    3  A    between atoms: C4_10  and  S1_11 
REMARK    4  A    between atoms: S1_11  and  S2_12 
REMARK    5  A    between atoms: S2_12  and  C5_13 
REMARK    6  A    between atoms: C5_13  and  C6_14 
REMARK    7  A    between atoms: C8_19  and  N5_20 
REMARK    8  A    between atoms: N7_27  and  C10_28 
REMARK    9  A    between atoms: C10_28  and  C11_29 
REMARK   10  A    between atoms: C11_29  and  O4_30 
REMARK   11  A    between atoms: O4_30  and  C12_31 
REMARK   12  A    between atoms: C12_31  and  C13_32 
REMARK   13  A    between atoms: C13_32  and  O5_33 
REMARK   14  A    between atoms: C15_37  and  O7_39 
ROOT
HETATM    1  C6  UNL     1       0.113   0.305   1.675  1.00  0.00     0.166 C 
HETATM    2  N3  UNL     1      -0.184  -0.531   0.614  1.00  0.00    -0.122 N 
HETATM    3  C7  UNL     1      -1.184  -0.349  -0.251  1.00  0.00     0.708 A 
HETATM    4  N4  UNL     1      -1.426  -1.153  -1.332  1.00  0.00    -0.022 N 
ATOM      5  H4  UNL     1      -2.207  -0.955  -1.957  1.00  0.00     0.203 HD
HETATM    6  C8  UNL     1      -0.627  -2.202  -1.560  1.00  0.00     0.694 A 
HETATM    7  N6  UNL     1       0.386  -2.426  -0.711  1.00  0.00    -0.140 N 
ATOM      8  H6  UNL     1       1.002  -3.223  -0.870  1.00  0.00     0.189 HD
HETATM    9  C9  UNL     1       0.609  -1.627   0.343  1.00  0.00     0.355 A 
HETATM   10  O3  UNL     1       1.527  -1.807   1.154  1.00  0.00    -0.245 OA
HETATM   11  N7  UNL     1      -2.189   0.661   0.004  1.00  0.00    -0.145 N 
HETATM   12  C14 UNL     1      -2.018   1.402   1.217  1.00  0.00     0.274 C 
HETATM   13  O6  UNL     1      -3.020   1.834   1.798  1.00  0.00    -0.269 OA
HETATM   14  C15 UNL     1      -0.643   1.605   1.697  1.00  0.00     0.158 C 
HETATM   15  C16 UNL     1      -0.036   2.694   0.825  1.00  0.00     0.059 C 
ENDROOT
BRANCH   1  16
HETATM   16  C5  UNL     1       1.540   0.643   2.023  1.00  0.00     0.116 C 
BRANCH  16  17
HETATM   17  S2  UNL     1       2.537   1.479   0.865  1.00  0.00    -0.087 SA
BRANCH  17  18
HETATM   18  S1  UNL     1       3.216   0.612  -0.859  1.00  0.00    -0.019 SA
BRANCH  18  19
HETATM   19  C4  UNL     1       4.789  -0.163  -0.783  1.00  0.00     0.185 A 
HETATM   20  N1  UNL     1       5.989   0.454  -0.965  1.00  0.00    -0.309 N 
HETATM   21  C1  UNL     1       6.128   1.879  -1.222  1.00  0.00     0.160 C 
HETATM   22  C2  UNL     1       7.000  -0.397  -0.880  1.00  0.00     0.162 A 
HETATM   23  C3  UNL     1       6.460  -1.616  -0.634  1.00  0.00     0.181 A 
HETATM   24  N2  UNL     1       5.100  -1.439  -0.581  1.00  0.00    -0.208 N 
BRANCH  22  25
HETATM   25  O1  UNL     1       8.351  -0.111  -1.014  1.00  0.00    -0.345 OA
ATOM     26  H1  UNL     1       9.076  -0.722  -0.953  1.00  0.00     0.219 HD
ENDBRANCH  22  25
BRANCH  24  27
HETATM   27  O2  UNL     1       4.300  -2.532  -0.361  1.00  0.00    -0.281 OA
ATOM     28  H2  UNL     1       3.359  -2.409  -0.324  1.00  0.00     0.245 HD
ENDBRANCH  24  27
ENDBRANCH  18  19
ENDBRANCH  17  18
ENDBRANCH  16  17
ENDBRANCH   1  16
BRANCH  14  29
HETATM   29  O7  UNL     1      -0.676   2.034   3.039  1.00  0.00    -0.378 OA
ATOM     30  H7  UNL     1      -1.154   2.855   3.053  1.00  0.00     0.211 HD
ENDBRANCH  14  29
BRANCH  11  31
HETATM   31  C10 UNL     1      -3.253   0.855  -0.919  1.00  0.00     0.177 C 
BRANCH  31  32
HETATM   32  C11 UNL     1      -4.464  -0.036  -0.582  1.00  0.00     0.188 C 
BRANCH  32  33
HETATM   33  O4  UNL     1      -5.427   0.218  -1.516  1.00  0.00    -0.387 OA
BRANCH  33  34
HETATM   34  C12 UNL     1      -6.586  -0.455  -1.519  1.00  0.00     0.193 C 
BRANCH  34  35
HETATM   35  C13 UNL     1      -7.476  -0.373  -0.312  1.00  0.00     0.190 C 
BRANCH  35  36
HETATM   36  O5  UNL     1      -6.831  -0.862   0.801  1.00  0.00    -0.399 OA
ATOM     37  H5  UNL     1      -7.394  -0.810   1.564  1.00  0.00     0.209 HD
ENDBRANCH  35  36
ENDBRANCH  34  35
ENDBRANCH  33  34
ENDBRANCH  32  33
ENDBRANCH  31  32
ENDBRANCH  11  31
BRANCH   6  38
HETATM   38  N5  UNL     1      -0.798  -3.002  -2.563  1.00  0.00    -0.234 N 
ATOM     39  H52 UNL     1      -1.569  -2.832  -3.209  1.00  0.00     0.174 HD
ATOM     40  H51 UNL     1      -0.189  -3.802  -2.737  1.00  0.00     0.174 HD
ENDBRANCH   6  38
TORSDOF 14
