REMARK  13 active torsions:
REMARK  status: ('A' for Active; 'I' for Inactive)
REMARK    1  A    between atoms: N1_2  and  C3_4 
REMARK    2  A    between atoms: C4_7  and  N3_8 
REMARK    3  A    between atoms: N5_13  and  C6_14 
REMARK    4  A    between atoms: C6_14  and  C7_15 
REMARK    5  A    between atoms: C7_15  and  O2_16 
REMARK    6  A    between atoms: C8_18  and  N6_19 
REMARK    7  A    between atoms: N9_29  and  C12_30 
REMARK    8  A    between atoms: C12_30  and  C13_31 
REMARK    9  A    between atoms: N11_37  and  C17_38 
REMARK   10  A    between atoms: C17_38  and  C18_39 
REMARK   11  A    between atoms: C18_39  and  O3_40 
REMARK   12  A    between atoms: C18_39  and  C19_42 
REMARK   13  A    between atoms: C19_42  and  O4_43 
ROOT
HETATM    1  C3  UNL     1       1.992  -2.738  -0.824  1.00  0.00     0.149 A 
HETATM    2  N2  UNL     1       2.927  -1.773  -0.688  1.00  0.00    -0.172 N 
ATOM      3  H2  UNL     1       3.910  -2.030  -0.594  1.00  0.00     0.186 HD
HETATM    4  C4  UNL     1       2.574  -0.480  -0.676  1.00  0.00     0.722 A 
HETATM    5  N7  UNL     1       1.297  -0.090  -0.794  1.00  0.00    -0.172 N 
ATOM      6  H7  UNL     1       1.072   0.905  -0.778  1.00  0.00     0.186 HD
HETATM    7  C9  UNL     1       0.313  -0.988  -0.932  1.00  0.00     0.155 A 
HETATM    8  C10 UNL     1       0.666  -2.334  -0.949  1.00  0.00     0.123 A 
HETATM    9  N8  UNL     1      -0.490  -2.998  -1.122  1.00  0.00    -0.346 N 
ATOM     10  H8  UNL     1      -0.586  -4.012  -1.179  1.00  0.00     0.167 HD
HETATM   11  C11 UNL     1      -1.492  -2.121  -1.207  1.00  0.00     0.185 A 
HETATM   12  N9  UNL     1      -0.988  -0.845  -1.087  1.00  0.00    -0.325 N 
ENDROOT
BRANCH  12  13
HETATM   13  C12 UNL     1      -1.891   0.290  -1.097  1.00  0.00     0.158 C 
BRANCH  13  14
HETATM   14  C13 UNL     1      -2.584   0.445   0.204  1.00  0.00     0.119 C 
HETATM   15  C14 UNL     1      -1.625   0.698   1.334  1.00  0.00     0.140 C 
HETATM   16  N10 UNL     1      -2.005   1.799   2.200  1.00  0.00    -0.418 N 
HETATM   17  C15 UNL     1      -3.363   1.809   2.606  1.00  0.00     0.133 C 
ATOM     18  H10 UNL     1      -1.342   2.515   2.496  1.00  0.00     0.153 HD
HETATM   19  C16 UNL     1      -4.319   1.590   1.461  1.00  0.00     0.141 C 
HETATM   20  N11 UNL     1      -3.733   1.275   0.216  1.00  0.00    -0.381 N 
BRANCH  20  21
HETATM   21  C17 UNL     1      -4.438   1.531  -0.961  1.00  0.00     0.092 C 
BRANCH  21  22
HETATM   22  C18 UNL     1      -5.197   0.376  -1.508  1.00  0.00     0.179 C 
BRANCH  22  23
HETATM   23  O3  UNL     1      -5.809   0.734  -2.743  1.00  0.00    -0.388 OA
ATOM     24  H3  UNL     1      -6.294  -0.004  -3.093  1.00  0.00     0.210 HD
ENDBRANCH  22  23
BRANCH  22  25
HETATM   25  C19 UNL     1      -6.367  -0.082  -0.636  1.00  0.00     0.201 C 
BRANCH  25  26
HETATM   26  O4  UNL     1      -7.327   0.868  -0.449  1.00  0.00    -0.398 OA
ATOM     27  H4  UNL     1      -8.054   0.584   0.093  1.00  0.00     0.209 HD
ENDBRANCH  25  26
ENDBRANCH  22  25
ENDBRANCH  21  22
ENDBRANCH  20  21
ENDBRANCH  13  14
ENDBRANCH  12  13
BRANCH   4  28
HETATM   28  N3  UNL     1       3.625   0.495  -0.532  1.00  0.00     0.094 N 
HETATM   29  N4  UNL     1       3.891   1.460  -1.389  1.00  0.00    -0.214 N 
HETATM   30  C5  UNL     1       4.942   2.201  -0.948  1.00  0.00     0.356 A 
ATOM     31  H4  UNL     1       3.382   1.627  -2.257  1.00  0.00     0.193 HD
HETATM   32  O1  UNL     1       5.429   3.188  -1.545  1.00  0.00    -0.244 OA
HETATM   33  N5  UNL     1       5.303   1.642   0.213  1.00  0.00    -0.127 N 
HETATM   34  C8  UNL     1       4.497   0.593   0.475  1.00  0.00     0.718 A 
BRANCH  33  35
HETATM   35  C6  UNL     1       6.385   2.091   1.059  1.00  0.00     0.178 C 
BRANCH  35  36
HETATM   36  C7  UNL     1       5.936   3.114   2.069  1.00  0.00     0.185 C 
BRANCH  36  37
HETATM   37  O2  UNL     1       4.954   2.628   2.919  1.00  0.00    -0.399 OA
ATOM     38  H2  UNL     1       4.671   3.273   3.556  1.00  0.00     0.209 HD
ENDBRANCH  36  37
ENDBRANCH  35  36
ENDBRANCH  33  35
BRANCH  34  39
HETATM   39  N6  UNL     1       4.550  -0.179   1.500  1.00  0.00    -0.232 N 
ATOM     40  H62 UNL     1       3.940  -0.972   1.698  1.00  0.00     0.174 HD
ATOM     41  H61 UNL     1       5.216  -0.104   2.269  1.00  0.00     0.174 HD
ENDBRANCH  34  39
ENDBRANCH   4  28
BRANCH   1  42
HETATM   42  N1  UNL     1       2.335  -4.107  -0.833  1.00  0.00    -0.374 N 
HETATM   43  C1  UNL     1       3.745  -4.473  -0.721  1.00  0.00     0.150 C 
HETATM   44  C2  UNL     1       1.351  -5.148  -0.944  1.00  0.00     0.150 C 
ENDBRANCH   1  42
TORSDOF 13
