REMARK  11 active torsions:
REMARK  status: ('A' for Active; 'I' for Inactive)
REMARK    1  A    between atoms: N1_1  and  C1_4 
REMARK    2  A    between atoms: C3_6  and  C4_7 
REMARK    3  A    between atoms: C4_7  and  N2_8 
REMARK    4  A    between atoms: N2_8  and  O1_9 
REMARK    5  A    between atoms: N2_8  and  C5_14 
REMARK    6  A    between atoms: O1_9  and  N3_10 
REMARK    7  A    between atoms: N3_10  and  N4_11 
REMARK    8  A    between atoms: C7_16  and  O2_17 
REMARK    9  A    between atoms: C8_19  and  C9_20 
REMARK   10  A    between atoms: C9_20  and  O3_21 
REMARK   11  A    between atoms: C10_26  and  N6_27 
ROOT
HETATM    1  N2  UNL     1      -0.113   1.041   0.881  1.00  0.00    -0.215 N 
ENDROOT
BRANCH   1   2
HETATM    2  C4  UNL     1       1.266   1.168   0.891  1.00  0.00     0.152 C 
BRANCH   2   3
HETATM    3  C3  UNL     1       2.142   0.135   0.370  1.00  0.00     0.070 A 
HETATM    4  C2  UNL     1       2.608  -0.910   1.136  1.00  0.00     0.080 A 
HETATM    5  C1  UNL     1       3.455  -1.840   0.583  1.00  0.00     0.116 A 
HETATM    6  N7  UNL     1       3.862  -1.778  -0.707  1.00  0.00    -0.177 N 
HETATM    7  C10 UNL     1       3.390  -0.739  -1.444  1.00  0.00     0.677 A 
ATOM      8  H7  UNL     1       4.491  -2.476  -1.105  1.00  0.00     0.185 HD
HETATM    9  N5  UNL     1       2.575   0.159  -0.915  1.00  0.00    -0.191 N 
ATOM     10  H5  UNL     1       2.251   0.919  -1.513  1.00  0.00     0.184 HD
BRANCH   5  11
HETATM   11  N1  UNL     1       3.920  -2.849   1.270  1.00  0.00    -0.385 N 
ATOM     12  H12 UNL     1       3.613  -2.896   2.242  1.00  0.00     0.157 HD
ATOM     13  H11 UNL     1       4.549  -3.539   0.860  1.00  0.00     0.157 HD
ENDBRANCH   5  11
BRANCH   7  14
HETATM   14  N6  UNL     1       3.793  -0.701  -2.677  1.00  0.00    -0.234 N 
ATOM     15  H62 UNL     1       3.439   0.079  -3.230  1.00  0.00     0.174 HD
ATOM     16  H61 UNL     1       4.421  -1.393  -3.085  1.00  0.00     0.174 HD
ENDBRANCH   7  14
ENDBRANCH   2   3
ENDBRANCH   1   2
BRANCH   1  17
HETATM   17  O1  UNL     1      -0.701   2.140   1.389  1.00  0.00    -0.139 OA
BRANCH  17  18
HETATM   18  N3  UNL     1      -0.298   2.421   2.655  1.00  0.00     0.040 NA
BRANCH  18  19
HETATM   19  N4  UNL     1       0.057   3.796   2.697  1.00  0.00    -0.321 N 
ATOM     20  H42 UNL     1       0.012   4.443   1.910  1.00  0.00     0.174 HD
ATOM     21  H41 UNL     1       0.360   4.007   3.648  1.00  0.00     0.174 HD
ENDBRANCH  18  19
ENDBRANCH  17  18
ENDBRANCH   1  17
BRANCH   1  22
HETATM   22  C5  UNL     1      -0.845   0.553  -0.219  1.00  0.00     0.254 C 
HETATM   23  C6  UNL     1      -0.667  -0.875  -0.609  1.00  0.00     0.090 C 
HETATM   24  C7  UNL     1      -2.110  -1.363  -0.844  1.00  0.00     0.153 C 
HETATM   25  C8  UNL     1      -2.858  -0.069  -0.931  1.00  0.00     0.176 C 
HETATM   26  O4  UNL     1      -2.227   0.723   0.023  1.00  0.00    -0.354 OA
BRANCH  24  27
HETATM   27  O2  UNL     1      -2.153  -2.106  -2.028  1.00  0.00    -0.393 OA
ATOM     28  H2  UNL     1      -3.042  -2.407  -2.173  1.00  0.00     0.210 HD
ENDBRANCH  24  27
BRANCH  25  29
HETATM   29  C9  UNL     1      -4.303  -0.283  -0.504  1.00  0.00     0.198 C 
BRANCH  29  30
HETATM   30  O3  UNL     1      -5.000  -1.064  -1.392  1.00  0.00    -0.398 OA
ATOM     31  H3  UNL     1      -5.902  -1.198  -1.125  1.00  0.00     0.209 HD
ENDBRANCH  29  30
ENDBRANCH  25  29
ENDBRANCH   1  22
TORSDOF 11
