REMARK  4 active torsions:
REMARK  status: ('A' for Active; 'I' for Inactive)
REMARK    1  A    between atoms: N1_2  and  N2_3 
REMARK    2  A    between atoms: N1_2  and  C3_8 
REMARK       I    between atoms: N2_3  and  C2_5 
REMARK    3  A    between atoms: N5_11  and  N6_12 
REMARK    4  A    between atoms: N6_12  and  N7_14 
ROOT
HETATM    1  C3  UNL     1      -0.001  -0.162   0.108  1.00  0.00     0.186 A 
HETATM    2  N4  UNL     1      -1.199  -0.527  -0.303  1.00  0.00    -0.252 N 
ATOM      3  H4  UNL     1      -1.325  -1.440  -0.740  1.00  0.00     0.191 HD
HETATM    4  N5  UNL     1      -2.203   0.248  -0.161  1.00  0.00    -0.134 N 
HETATM    5  C4  UNL     1      -2.003   1.438   0.417  1.00  0.00     0.329 A 
HETATM    6  O2  UNL     1      -2.868   2.352   0.651  1.00  0.00    -0.256 OA
HETATM    7  S1  UNL     1      -0.327   1.396   0.743  1.00  0.00     0.013 SA
ENDROOT
BRANCH   1   8
HETATM    8  N1  UNL     1       1.230  -0.888   0.044  1.00  0.00    -0.270 N 
HETATM    9  C1  UNL     1       1.283  -2.224  -0.472  1.00  0.00     0.180 C 
BRANCH   8  10
HETATM   10  N2  UNL     1       2.383  -0.259   0.493  1.00  0.00    -0.250 N 
HETATM   11  C2  UNL     1       3.047   0.678  -0.373  1.00  0.00     0.347 C 
HETATM   12  N3  UNL     1       4.215   1.296   0.122  1.00  0.00    -0.038 NA
HETATM   13  O1  UNL     1       2.599   0.925  -1.511  1.00  0.00    -0.249 OA
ATOM     14  H2  UNL     1       2.753  -0.458   1.422  1.00  0.00     0.191 HD
ENDBRANCH   8  10
ENDBRANCH   1   8
BRANCH   4  15
HETATM   15  N6  UNL     1      -3.508  -0.128  -0.607  1.00  0.00    -0.224 N 
ATOM     16  H6  UNL     1      -3.638  -1.030  -1.065  1.00  0.00     0.210 HD
BRANCH  15  17
HETATM   17  N7  UNL     1      -4.592   0.700  -0.432  1.00  0.00    -0.329 N 
ATOM     18  H72 UNL     1      -4.444   1.598   0.028  1.00  0.00     0.178 HD
ATOM     19  H71 UNL     1      -5.523   0.432  -0.750  1.00  0.00     0.178 HD
ENDBRANCH  15  17
ENDBRANCH   4  15
TORSDOF 4
