REMARK  5 active torsions:
REMARK  status: ('A' for Active; 'I' for Inactive)
REMARK       I    between atoms: C2_2  and  N1_4 
REMARK    1  A    between atoms: N1_4  and  C3_6 
REMARK    2  A    between atoms: C3_6  and  N2_7 
REMARK    3  A    between atoms: C3_6  and  C4_11 
REMARK    4  A    between atoms: N2_7  and  N3_8 
REMARK       I    between atoms: C4_11  and  N4_13 
REMARK    5  A    between atoms: N4_13  and  N5_15 
ROOT
HETATM    1  C4  UNL     1      -0.435   0.273  -0.059  1.00  0.00     0.277 C 
HETATM    2  O2  UNL     1      -0.380   1.412  -0.536  1.00  0.00    -0.268 OA
HETATM    3  N4  UNL     1      -1.608  -0.408   0.241  1.00  0.00    -0.255 N 
ATOM      4  H4  UNL     1      -1.474  -1.341   0.631  1.00  0.00     0.191 HD
ENDROOT
BRANCH   1   5
HETATM    5  C3  UNL     1       0.900  -0.390   0.203  1.00  0.00     0.293 C 
BRANCH   5   6
HETATM    6  N1  UNL     1       1.986   0.486  -0.177  1.00  0.00    -0.334 N 
HETATM    7  C2  UNL     1       2.946   0.091  -1.127  1.00  0.00     0.215 C 
HETATM    8  C1  UNL     1       4.057   0.988  -1.515  1.00  0.00     0.117 C 
HETATM    9  O1  UNL     1       2.866  -1.044  -1.659  1.00  0.00    -0.274 OA
ATOM     10  H1  UNL     1       2.058   1.409   0.252  1.00  0.00     0.164 HD
ENDBRANCH   5   6
BRANCH   5  11
HETATM   11  N2  UNL     1       0.947  -0.665   1.647  1.00  0.00    -0.113 NA
BRANCH  11  12
HETATM   12  N3  UNL     1       2.191  -1.281   1.906  1.00  0.00    -0.346 N 
ATOM     13  H32 UNL     1       2.910  -1.489   1.213  1.00  0.00     0.172 HD
ATOM     14  H31 UNL     1       2.224  -1.472   2.907  1.00  0.00     0.172 HD
ENDBRANCH  11  12
ENDBRANCH   5  11
ENDBRANCH   1   5
BRANCH   3  15
HETATM   15  N5  UNL     1      -2.927  -0.024   0.096  1.00  0.00    -0.196 N 
HETATM   16  C5  UNL     1      -4.006  -0.799   0.433  1.00  0.00     0.228 A 
HETATM   17  N6  UNL     1      -5.133  -0.129   0.166  1.00  0.00    -0.290 N 
HETATM   18  N7  UNL     1      -4.839   1.037  -0.326  1.00  0.00    -0.249 N 
ATOM     19  H6  UNL     1      -6.078  -0.480   0.324  1.00  0.00     0.188 HD
HETATM   20  C6  UNL     1      -3.468   1.105  -0.371  1.00  0.00     0.361 A 
ATOM     21  H7  UNL     1      -5.496   1.759  -0.621  1.00  0.00     0.192 HD
HETATM   22  O3  UNL     1      -2.934   2.139  -0.810  1.00  0.00    -0.243 OA
ENDBRANCH   3  15
TORSDOF 5
