REMARK  5 active torsions:
REMARK  status: ('A' for Active; 'I' for Inactive)
REMARK    1  A    between atoms: C2_2  and  C3_4 
REMARK    2  A    between atoms: C3_4  and  O2_5 
REMARK    3  A    between atoms: C3_4  and  N1_7 
REMARK    4  A    between atoms: N1_7  and  N2_9 
REMARK    5  A    between atoms: C7_17  and  N5_18 
ROOT
HETATM    1  N2  UNL     1       0.367   0.279   0.037  1.00  0.00    -0.050 N 
HETATM    2  C4  UNL     1       1.086   1.391  -0.328  1.00  0.00     0.285 A 
HETATM    3  O3  UNL     1       0.477   2.479  -0.611  1.00  0.00    -0.266 OA
HETATM    4  C5  UNL     1       2.446   1.302  -0.380  1.00  0.00     0.122 A 
HETATM    5  C6  UNL     1       3.131   0.140  -0.081  1.00  0.00     0.137 A 
HETATM    6  N3  UNL     1       4.538   0.133  -0.159  1.00  0.00    -0.082 NA
HETATM    7  N4  UNL     1       2.398  -0.919   0.270  1.00  0.00    -0.177 N 
ATOM      8  H4  UNL     1       2.862  -1.798   0.500  1.00  0.00     0.185 HD
HETATM    9  C7  UNL     1       1.041  -0.844   0.326  1.00  0.00     0.701 A 
ENDROOT
BRANCH   1  10
HETATM   10  N1  UNL     1      -1.007   0.401   0.066  1.00  0.00    -0.277 N 
ATOM     11  H1  UNL     1      -1.380   1.303  -0.230  1.00  0.00     0.184 HD
BRANCH  10  12
HETATM   12  C3  UNL     1      -1.970  -0.572   0.457  1.00  0.00     0.304 C 
BRANCH  12  13
HETATM   13  C2  UNL     1      -3.370  -0.094   0.183  1.00  0.00     0.172 C 
HETATM   14  C1  UNL     1      -3.800   0.324  -1.177  1.00  0.00     0.096 C 
HETATM   15  O1  UNL     1      -4.153  -0.056   1.103  1.00  0.00    -0.294 OA
ENDBRANCH  12  13
BRANCH  12  16
HETATM   16  O2  UNL     1      -1.932  -0.876   1.833  1.00  0.00    -0.368 OA
ATOM     17  H2  UNL     1      -1.048  -1.178   2.006  1.00  0.00     0.212 HD
ENDBRANCH  12  16
ENDBRANCH  10  12
ENDBRANCH   1  10
BRANCH   9  18
HETATM   18  N5  UNL     1       0.447  -1.926   0.661  1.00  0.00    -0.233 N 
ATOM     19  H52 UNL     1      -0.571  -1.870   0.703  1.00  0.00     0.174 HD
ATOM     20  H51 UNL     1       0.960  -2.780   0.881  1.00  0.00     0.174 HD
ENDBRANCH   9  18
TORSDOF 5
