REMARK  3 active torsions:
REMARK  status: ('A' for Active; 'I' for Inactive)
REMARK    1  A    between atoms: N1_2  and  C2_4 
REMARK    2  A    between atoms: C2_4  and  C5_7 
REMARK    3  A    between atoms: C5_7  and  N2_8 
ROOT
HETATM    1  N2  UNL     1       0.905   0.101   0.478  1.00  0.00    -0.238 N 
HETATM    2  N3  UNL     1       1.119   1.407   0.535  1.00  0.00    -0.127 N 
ATOM      3  H3  UNL     1       0.386   2.048   0.837  1.00  0.00     0.206 HD
HETATM    4  C6  UNL     1       2.332   1.858   0.183  1.00  0.00     0.692 A 
HETATM    5  N4  UNL     1       2.510   3.148   0.249  1.00  0.00    -0.233 N 
ATOM      6  H41 UNL     1       3.433   3.491  -0.019  1.00  0.00     0.174 HD
ATOM      7  H42 UNL     1       1.762   3.771   0.554  1.00  0.00     0.174 HD
HETATM    8  N5  UNL     1       3.319   1.036  -0.219  1.00  0.00    -0.172 N 
ATOM      9  H5  UNL     1       4.225   1.428  -0.477  1.00  0.00     0.185 HD
HETATM   10  C7  UNL     1       3.130  -0.295  -0.286  1.00  0.00     0.201 A 
HETATM   11  N6  UNL     1       4.168  -1.168  -0.708  1.00  0.00    -0.076 NA
HETATM   12  C8  UNL     1       1.864  -0.751   0.084  1.00  0.00     0.304 A 
HETATM   13  O1  UNL     1       1.727  -2.001   0.010  1.00  0.00    -0.263 OA
ENDROOT
BRANCH   1  14
HETATM   14  C5  UNL     1      -0.393  -0.391   0.831  1.00  0.00     0.182 C 
BRANCH  14  15
HETATM   15  C2  UNL     1      -1.412  -0.406  -0.249  1.00  0.00     0.036 C 
HETATM   16  C3  UNL     1      -1.615   0.944  -0.899  1.00  0.00     0.039 C 
HETATM   17  C4  UNL     1      -1.012  -1.352  -1.357  1.00  0.00     0.039 C 
BRANCH  15  18
HETATM   18  N1  UNL     1      -2.654  -0.929   0.284  1.00  0.00    -0.416 N 
HETATM   19  C1  UNL     1      -3.250  -0.150   1.313  1.00  0.00     0.140 C 
ATOM     20  H1  UNL     1      -3.071  -1.796  -0.055  1.00  0.00     0.153 HD
ENDBRANCH  15  18
ENDBRANCH  14  15
ENDBRANCH   1  14
TORSDOF 3
