REMARK  6 active torsions:
REMARK  status: ('A' for Active; 'I' for Inactive)
REMARK    1  A    between atoms: C3_9  and  N4_10 
REMARK    2  A    between atoms: N4_10  and  O1_12 
REMARK    3  A    between atoms: C4_14  and  C5_15 
REMARK    4  A    between atoms: C5_15  and  N5_16 
REMARK    5  A    between atoms: C5_15  and  C6_20 
REMARK       I    between atoms: C6_20  and  N6_22 
REMARK    6  A    between atoms: N6_22  and  N7_24 
ROOT
HETATM    1  C1  UNL     1      -2.038  -1.887   1.189  1.00  0.00     0.177 C 
HETATM    2  N1  UNL     1      -1.766  -0.711   0.396  1.00  0.00    -0.294 N 
HETATM    3  N2  UNL     1      -2.732  -0.039  -0.226  1.00  0.00    -0.282 N 
ATOM      4  H2  UNL     1      -3.721  -0.287  -0.200  1.00  0.00     0.189 HD
HETATM    5  C2  UNL     1      -2.223   1.012  -0.894  1.00  0.00     0.145 A 
HETATM    6  N3  UNL     1      -2.822   1.902  -1.615  1.00  0.00    -0.382 N 
ATOM      7  H31 UNL     1      -2.436   2.699  -2.121  1.00  0.00     0.157 HD
ATOM      8  H32 UNL     1      -3.825   1.942  -1.794  1.00  0.00     0.157 HD
HETATM    9  C3  UNL     1      -0.857   0.958  -0.650  1.00  0.00     0.125 A 
HETATM   10  C4  UNL     1      -0.581  -0.124   0.158  1.00  0.00     0.100 A 
ENDROOT
BRANCH  10  11
HETATM   11  C5  UNL     1       0.747  -0.553   0.662  1.00  0.00     0.329 C 
BRANCH  11  12
HETATM   12  N5  UNL     1       1.173   0.260   1.782  1.00  0.00    -0.061 N 
ATOM     13  H53 UNL     1       1.164   1.253   1.548  1.00  0.00     0.275 HD
ATOM     14  H52 UNL     1       0.475   0.268   2.526  1.00  0.00     0.275 HD
ATOM     15  H51 UNL     1       2.086  -0.035   2.128  1.00  0.00     0.275 HD
ENDBRANCH  11  12
BRANCH  11  16
HETATM   16  C6  UNL     1       1.771  -0.531  -0.373  1.00  0.00     0.272 C 
HETATM   17  O2  UNL     1       1.604  -1.172  -1.433  1.00  0.00    -0.269 OA
HETATM   18  N6  UNL     1       2.960   0.214  -0.186  1.00  0.00    -0.275 N 
ATOM     19  H6  UNL     1       3.084   0.733   0.684  1.00  0.00     0.189 HD
BRANCH  18  20
HETATM   20  N7  UNL     1       3.978   0.265  -1.157  1.00  0.00    -0.343 N 
ATOM     21  H72 UNL     1       3.838  -0.259  -2.021  1.00  0.00     0.176 HD
ATOM     22  H71 UNL     1       4.835   0.802  -1.022  1.00  0.00     0.176 HD
ENDBRANCH  18  20
ENDBRANCH  11  16
ENDBRANCH  10  11
BRANCH   9  23
HETATM   23  N4  UNL     1       0.116   1.864  -1.146  1.00  0.00    -0.264 N 
ATOM     24  H4  UNL     1       0.809   2.299  -0.538  1.00  0.00     0.194 HD
BRANCH  23  25
HETATM   25  O1  UNL     1       0.072   2.099  -2.386  1.00  0.00    -0.289 OA
ATOM     26  H1  UNL     1       0.723   2.706  -2.718  1.00  0.00     0.244 HD
ENDBRANCH  23  25
ENDBRANCH   9  23
TORSDOF 6
