REMARK  3 active torsions:
REMARK  status: ('A' for Active; 'I' for Inactive)
REMARK    1  A    between atoms: N1_1  and  N2_4 
REMARK       I    between atoms: N2_4  and  C1_6 
REMARK    2  A    between atoms: C1_6  and  C2_8 
REMARK    3  A    between atoms: N4_11  and  N5_12 
ROOT
HETATM    1  C2  UNL     1      -0.224  -0.182  -0.003  1.00  0.00     0.147 A 
HETATM    2  C3  UNL     1       1.027   0.410  -0.239  1.00  0.00     0.177 A 
HETATM    3  N3  UNL     1       1.301   1.797  -0.421  1.00  0.00    -0.078 NA
HETATM    4  N4  UNL     1       1.968  -0.542  -0.273  1.00  0.00    -0.185 N 
HETATM    5  N6  UNL     1       1.387  -1.710  -0.072  1.00  0.00    -0.243 N 
ATOM      6  H6  UNL     1       1.868  -2.609  -0.047  1.00  0.00     0.192 HD
HETATM    7  C4  UNL     1       0.043  -1.530   0.098  1.00  0.00     0.280 A 
HETATM    8  O2  UNL     1      -0.770  -2.448   0.306  1.00  0.00    -0.266 OA
ENDROOT
BRANCH   1   9
HETATM    9  C1  UNL     1      -1.455   0.548   0.094  1.00  0.00     0.278 C 
HETATM   10  N2  UNL     1      -2.680  -0.089   0.331  1.00  0.00    -0.272 N 
ATOM     11  H2  UNL     1      -2.705  -1.103   0.438  1.00  0.00     0.189 HD
HETATM   12  O1  UNL     1      -1.437   1.805  -0.037  1.00  0.00    -0.266 OA
BRANCH  10  13
HETATM   13  N1  UNL     1      -3.872   0.644   0.423  1.00  0.00    -0.342 N 
ATOM     14  H12 UNL     1      -3.829   1.657   0.313  1.00  0.00     0.176 HD
ATOM     15  H11 UNL     1      -4.764   0.180   0.596  1.00  0.00     0.176 HD
ENDBRANCH  10  13
ENDBRANCH   1   9
BRANCH   4  16
HETATM   16  N5  UNL     1       3.353  -0.371  -0.485  1.00  0.00    -0.323 N 
ATOM     17  H52 UNL     1       3.802   0.532  -0.640  1.00  0.00     0.179 HD
ATOM     18  H51 UNL     1       4.070  -1.096  -0.511  1.00  0.00     0.179 HD
ENDBRANCH   4  16
TORSDOF 3
