REMARK  5 active torsions:
REMARK  status: ('A' for Active; 'I' for Inactive)
REMARK    1  A    between atoms: N1_1  and  C1_5 
REMARK    2  A    between atoms: C1_5  and  N2_6 
REMARK    3  A    between atoms: C1_5  and  O1_10 
REMARK    4  A    between atoms: O1_10  and  N3_11 
REMARK    5  A    between atoms: N3_11  and  C2_13 
ROOT
HETATM    1  N3  UNL     1       0.320   0.633  -0.306  1.00  0.00    -0.092 N 
ATOM      2  H3  UNL     1       0.633   1.167  -1.116  1.00  0.00     0.213 HD
ENDROOT
BRANCH   1   3
HETATM    3  O1  UNL     1       1.257   0.192   0.564  1.00  0.00    -0.205 OA
BRANCH   3   4
HETATM    4  C1  UNL     1       2.573  -0.028   0.095  1.00  0.00     0.543 C 
BRANCH   4   5
HETATM    5  N1  UNL     1       2.942  -1.420   0.237  1.00  0.00    -0.025 N 
ATOM      6  H13 UNL     1       3.902  -1.594  -0.060  1.00  0.00     0.279 HD
ATOM      7  H12 UNL     1       3.038  -1.693   1.215  1.00  0.00     0.279 HD
ATOM      8  H11 UNL     1       2.274  -2.008  -0.261  1.00  0.00     0.279 HD
ENDBRANCH   4   5
BRANCH   4   9
HETATM    9  N2  UNL     1       3.520   0.805   0.801  1.00  0.00    -0.025 N 
ATOM     10  H23 UNL     1       3.616   0.532   1.779  1.00  0.00     0.279 HD
ATOM     11  H22 UNL     1       4.480   0.631   0.504  1.00  0.00     0.279 HD
ATOM     12  H21 UNL     1       3.260   1.786   0.701  1.00  0.00     0.279 HD
ENDBRANCH   4   9
ENDBRANCH   3   4
ENDBRANCH   1   3
BRANCH   1  13
HETATM   13  C2  UNL     1      -0.952   0.418  -0.173  1.00  0.00     0.710 A 
HETATM   14  N4  UNL     1      -1.818   0.893  -1.086  1.00  0.00    -0.139 N 
HETATM   15  C3  UNL     1      -3.142   0.680  -0.965  1.00  0.00     0.342 A 
ATOM     16  H4  UNL     1      -1.466   1.423  -1.883  1.00  0.00     0.189 HD
HETATM   17  O2  UNL     1      -3.949   1.122  -1.814  1.00  0.00    -0.246 OA
HETATM   18  N5  UNL     1      -3.662  -0.014   0.068  1.00  0.00    -0.260 N 
HETATM   19  C4  UNL     1      -2.802  -0.489   0.979  1.00  0.00     0.342 A 
ATOM     20  H5  UNL     1      -4.666  -0.170   0.152  1.00  0.00     0.175 HD
HETATM   21  O3  UNL     1      -3.271  -1.147   1.964  1.00  0.00    -0.246 OA
HETATM   22  N6  UNL     1      -1.480  -0.273   0.853  1.00  0.00    -0.139 N 
ATOM     23  H6  UNL     1      -0.853  -0.648   1.564  1.00  0.00     0.189 HD
ENDBRANCH   1  13
TORSDOF 5
