REMARK  4 active torsions:
REMARK  status: ('A' for Active; 'I' for Inactive)
REMARK    1  A    between atoms: N1_1  and  C1_4 
REMARK    2  A    between atoms: C2_9  and  C3_10 
REMARK    3  A    between atoms: C4_13  and  N5_14 
REMARK    4  A    between atoms: N5_14  and  N6_16 
ROOT
HETATM    1  C1  UNL     1       2.049   0.034   0.516  1.00  0.00     0.692 A 
HETATM    2  N2  UNL     1       1.690  -1.242   0.438  1.00  0.00    -0.132 N 
ATOM      3  H2  UNL     1       2.398  -1.970   0.538  1.00  0.00     0.205 HD
HETATM    4  N3  UNL     1       0.428  -1.584   0.232  1.00  0.00    -0.278 N 
ATOM      5  H3  UNL     1       0.174  -2.570   0.175  1.00  0.00     0.188 HD
HETATM    6  C2  UNL     1      -0.522  -0.641   0.097  1.00  0.00     0.160 A 
HETATM    7  C4  UNL     1      -0.191   0.696   0.172  1.00  0.00     0.168 A 
HETATM    8  N7  UNL     1       1.099   0.990   0.382  1.00  0.00    -0.172 N 
ATOM      9  H7  UNL     1       1.376   1.970   0.443  1.00  0.00     0.186 HD
ENDROOT
BRANCH   7  10
HETATM   10  N5  UNL     1      -1.107   1.561   0.041  1.00  0.00    -0.290 N 
ATOM     11  H5  UNL     1      -2.051   1.207  -0.116  1.00  0.00     0.188 HD
BRANCH  10  12
HETATM   12  N6  UNL     1      -0.962   2.931   0.088  1.00  0.00    -0.344 N 
ATOM     13  H62 UNL     1      -0.012   3.266   0.245  1.00  0.00     0.176 HD
ATOM     14  H61 UNL     1      -1.700   3.628  -0.017  1.00  0.00     0.176 HD
ENDBRANCH  10  12
ENDBRANCH   7  10
BRANCH   6  15
HETATM   15  C3  UNL     1      -1.905  -1.044  -0.129  1.00  0.00     0.286 C 
HETATM   16  N4  UNL     1      -2.253  -2.419  -0.208  1.00  0.00    -0.056 NA
HETATM   17  O1  UNL     1      -2.830  -0.203  -0.262  1.00  0.00    -0.269 OA
ENDBRANCH   6  15
BRANCH   1  18
HETATM   18  N1  UNL     1       3.289   0.344   0.718  1.00  0.00    -0.233 N 
ATOM     19  H12 UNL     1       4.004  -0.376   0.819  1.00  0.00     0.174 HD
ATOM     20  H11 UNL     1       3.565   1.324   0.778  1.00  0.00     0.174 HD
ENDBRANCH   1  18
TORSDOF 4
