REMARK  4 active torsions:
REMARK  status: ('A' for Active; 'I' for Inactive)
REMARK    1  A    between atoms: C2_2  and  N1_3 
REMARK       I    between atoms: N1_3  and  C3_5 
REMARK    2  A    between atoms: C3_5  and  C4_7 
REMARK    3  A    between atoms: C6_11  and  N3_12 
REMARK    4  A    between atoms: N3_12  and  C8_14 
ROOT
HETATM    1  C4  UNL     1       3.697   0.431   0.293  1.00  0.00     0.122 A 
HETATM    2  N2  UNL     1       3.120   0.519  -0.941  1.00  0.00    -0.358 N 
ATOM      3  H2  UNL     1       3.652   0.946  -1.699  1.00  0.00     0.165 HD
HETATM    4  C5  UNL     1       1.884   0.068  -1.200  1.00  0.00     0.117 A 
HETATM    5  C6  UNL     1       1.187  -0.511  -0.137  1.00  0.00     0.047 A 
HETATM    6  C20 UNL     1       1.736  -0.614   1.117  1.00  0.00     0.057 A 
HETATM    7  C21 UNL     1       3.020  -0.134   1.344  1.00  0.00     0.068 A 
HETATM    8 CL1  UNL     1       3.745  -0.249   2.934  1.00  0.00    -0.082 Cl
ENDROOT
BRANCH   5   9
HETATM    9  N3  UNL     1      -0.100  -1.022  -0.381  1.00  0.00    -0.374 N 
HETATM   10  C7  UNL     1      -0.127  -2.290  -1.139  1.00  0.00     0.150 C 
BRANCH   9  11
HETATM   11  C8  UNL     1      -1.345  -0.455   0.030  1.00  0.00     0.034 C 
HETATM   12  C9  UNL     1      -1.159   0.819   0.808  1.00  0.00     0.035 C 
HETATM   13  C10 UNL     1      -2.530   1.348   1.214  1.00  0.00    -0.011 C 
HETATM   14  C11 UNL     1      -3.241   0.354   2.094  1.00  0.00     0.014 C 
HETATM   15  C17 UNL     1      -3.276   1.699  -0.031  1.00  0.00     0.014 C 
HETATM   16  C12 UNL     1      -3.464  -0.887   1.239  1.00  0.00    -0.041 C 
HETATM   17  C13 UNL     1      -4.231  -1.955   1.999  1.00  0.00     0.015 C 
HETATM   18  C14 UNL     1      -4.268  -0.508   0.038  1.00  0.00     0.018 C 
HETATM   19  C19 UNL     1      -2.097  -1.433   0.925  1.00  0.00     0.040 C 
HETATM   20  C15 UNL     1      -3.473   0.444  -0.850  1.00  0.00    -0.041 C 
HETATM   21  C16 UNL     1      -4.277   0.713  -2.087  1.00  0.00     0.015 C 
HETATM   22  C18 UNL     1      -2.193  -0.252  -1.206  1.00  0.00     0.040 C 
ENDBRANCH   9  11
ENDBRANCH   5   9
BRANCH   1  23
HETATM   23  C3  UNL     1       5.057   0.906   0.477  1.00  0.00     0.269 C 
HETATM   24  N1  UNL     1       5.804   1.313  -0.647  1.00  0.00    -0.356 N 
ATOM     25  H1  UNL     1       5.338   1.258  -1.553  1.00  0.00     0.162 HD
HETATM   26  O1  UNL     1       5.536   0.938   1.630  1.00  0.00    -0.266 OA
BRANCH  24  27
HETATM   27  C2  UNL     1       7.156   1.798  -0.644  1.00  0.00     0.118 C 
HETATM   28  C1  UNL     1       8.053   0.717  -0.088  1.00  0.00     0.026 C 
ENDBRANCH  24  27
ENDBRANCH   1  23
TORSDOF 4
