REMARK  9 active torsions:
REMARK  status: ('A' for Active; 'I' for Inactive)
REMARK    1  A    between atoms: O1_2  and  C2_3 
REMARK    2  A    between atoms: C2_3  and  C3_5 
REMARK    3  A    between atoms: C8_12  and  N2_13 
REMARK       I    between atoms: N2_13  and  C9_15 
REMARK    4  A    between atoms: C9_15  and  C10_17 
REMARK    5  A    between atoms: C10_17  and  O4_19 
REMARK    6  A    between atoms: O4_19  and  C12_20 
REMARK    7  A    between atoms: C12_20  and  C13_22 
REMARK    8  A    between atoms: C14_23  and  C15_24 
REMARK    9  A    between atoms: C14_23  and  C21_31 
ROOT
HETATM    1  O4  UNL     1      -0.158   0.468   1.154  1.00  0.00    -0.303 OA
ENDROOT
BRANCH   1   2
HETATM    2  C10 UNL     1       0.835   1.337   0.680  1.00  0.00     0.220 C 
HETATM    3  C11 UNL     1       1.544   2.073   1.795  1.00  0.00     0.050 C 
BRANCH   2   4
HETATM    4  C9  UNL     1       1.781   0.672  -0.249  1.00  0.00     0.251 C 
HETATM    5  N2  UNL     1       2.835   1.445  -0.805  1.00  0.00    -0.322 N 
ATOM      6  H2  UNL     1       2.909   2.429  -0.548  1.00  0.00     0.169 HD
HETATM    7  O3  UNL     1       1.705  -0.535  -0.573  1.00  0.00    -0.270 OA
BRANCH   5   8
HETATM    8  C8  UNL     1       3.792   0.900  -1.707  1.00  0.00     0.075 A 
HETATM    9  C3  UNL     1       4.995   0.322  -1.379  1.00  0.00     0.090 A 
HETATM   10  C4  UNL     1       5.592  -0.064  -2.561  1.00  0.00     0.024 A 
HETATM   11  C5  UNL     1       6.925  -0.738  -2.659  1.00  0.00     0.069 C 
HETATM   12  N1  UNL     1       4.774   0.271  -3.574  1.00  0.00    -0.361 N 
HETATM   13  C6  UNL     1       3.667   0.861  -3.090  1.00  0.00     0.033 A 
ATOM     14  H1  UNL     1       4.965   0.103  -4.562  1.00  0.00     0.165 HD
HETATM   15  C7  UNL     1       2.513   1.378  -3.901  1.00  0.00     0.070 C 
BRANCH   9  16
HETATM   16  C2  UNL     1       5.580   0.128  -0.050  1.00  0.00     0.297 C 
HETATM   17  O2  UNL     1       4.944   0.523   0.959  1.00  0.00    -0.259 OA
BRANCH  16  18
HETATM   18  O1  UNL     1       6.798  -0.467   0.154  1.00  0.00    -0.322 OA
HETATM   19  C1  UNL     1       7.399  -0.673   1.418  1.00  0.00     0.213 C 
ENDBRANCH  16  18
ENDBRANCH   9  16
ENDBRANCH   5   8
ENDBRANCH   2   4
ENDBRANCH   1   2
BRANCH   1  20
HETATM   20  C12 UNL     1      -1.535   0.644   0.887  1.00  0.00     0.284 C 
HETATM   21  O5  UNL     1      -1.763   1.646   0.194  1.00  0.00    -0.260 OA
BRANCH  20  22
HETATM   22  C13 UNL     1      -2.455  -0.330   1.439  1.00  0.00     0.095 C 
HETATM   23  C14 UNL     1      -3.741  -0.453   1.334  1.00  0.00    -0.010 C 
BRANCH  23  24
HETATM   24  C15 UNL     1      -4.389  -1.579   2.062  1.00  0.00    -0.025 A 
HETATM   25  C16 UNL     1      -3.745  -2.245   3.093  1.00  0.00     0.015 A 
HETATM   26  C17 UNL     1      -4.383  -3.344   3.667  1.00  0.00     0.043 A 
HETATM   27  C18 UNL     1      -5.626  -3.773   3.233  1.00  0.00     0.116 A 
HETATM   28  F1  UNL     1      -6.229  -4.842   3.804  1.00  0.00    -0.206 F 
HETATM   29  C19 UNL     1      -6.256  -3.114   2.218  1.00  0.00     0.043 A 
HETATM   30  C20 UNL     1      -5.624  -2.023   1.645  1.00  0.00     0.015 A 
ENDBRANCH  23  24
BRANCH  23  31
HETATM   31  C21 UNL     1      -4.578   0.332   0.457  1.00  0.00    -0.025 A 
HETATM   32  C22 UNL     1      -5.837   0.799   0.878  1.00  0.00     0.015 A 
HETATM   33  C23 UNL     1      -6.722   1.452   0.069  1.00  0.00     0.043 A 
HETATM   34  C24 UNL     1      -6.423   1.701  -1.253  1.00  0.00     0.116 A 
HETATM   35  F2  UNL     1      -7.310   2.352  -2.047  1.00  0.00    -0.206 F 
HETATM   36  C25 UNL     1      -5.205   1.260  -1.702  1.00  0.00     0.043 A 
HETATM   37  C26 UNL     1      -4.313   0.596  -0.874  1.00  0.00     0.015 A 
ENDBRANCH  23  31
ENDBRANCH  20  22
ENDBRANCH   1  20
TORSDOF 9
