REMARK  9 active torsions:
REMARK  status: ('A' for Active; 'I' for Inactive)
REMARK    1  A    between atoms: C2_2  and  N1_3 
REMARK    2  A    between atoms: C2_2  and  C11_15 
REMARK       I    between atoms: N1_3  and  C3_5 
REMARK    3  A    between atoms: C3_5  and  O2_7 
REMARK    4  A    between atoms: O2_7  and  C4_8 
REMARK    5  A    between atoms: C4_8  and  C5_9 
REMARK       I    between atoms: C11_15  and  N2_17 
REMARK    6  A    between atoms: N2_17  and  C12_19 
REMARK    7  A    between atoms: C15_22  and  S1_23 
REMARK    8  A    between atoms: S1_23  and  C16_26 
REMARK    9  A    between atoms: C17_27  and  C18_28 
ROOT
HETATM    1  C11 UNL     1      -0.018  -0.381  -0.442  1.00  0.00     0.244 C 
HETATM    2  O3  UNL     1      -0.031  -0.168   0.789  1.00  0.00    -0.271 OA
HETATM    3  N2  UNL     1      -1.144  -0.852  -1.117  1.00  0.00    -0.325 N 
ATOM      4  H2  UNL     1      -1.026  -1.011  -2.118  1.00  0.00     0.169 HD
ENDROOT
BRANCH   3   5
HETATM    5  C12 UNL     1      -2.426  -1.138  -0.599  1.00  0.00     0.034 A 
HETATM    6  C13 UNL     1      -2.830  -0.838   0.665  1.00  0.00     0.031 A 
HETATM    7  C14 UNL     1      -4.128  -1.132   1.104  1.00  0.00     0.026 A 
HETATM    8  C15 UNL     1      -5.036  -1.733   0.268  1.00  0.00     0.063 A 
HETATM    9  C19 UNL     1      -4.614  -2.030  -0.998  1.00  0.00     0.026 A 
HETATM   10  C20 UNL     1      -3.352  -1.757  -1.459  1.00  0.00     0.031 A 
BRANCH   8  11
HETATM   11  S1  UNL     1      -6.692  -2.097   0.765  1.00  0.00     0.196 S 
HETATM   12  O4  UNL     1      -7.264  -3.157  -0.157  1.00  0.00    -0.218 OA
HETATM   13  O5  UNL     1      -6.737  -2.539   2.187  1.00  0.00    -0.218 OA
BRANCH  11  14
HETATM   14  C16 UNL     1      -7.642  -0.624   0.596  1.00  0.00     0.114 C 
HETATM   15  C17 UNL     1      -8.071  -0.274  -0.587  1.00  0.00     0.043 C 
BRANCH  15  16
HETATM   16  C18 UNL     1      -8.883   0.980  -0.758  1.00  0.00     0.207 C 
HETATM   17 CL1  UNL     1      -8.008   2.061  -1.897  1.00  0.00    -0.079 Cl
HETATM   18 CL2  UNL     1      -8.959   1.801   0.818  1.00  0.00    -0.079 Cl
HETATM   19 CL3  UNL     1     -10.476   0.584  -1.385  1.00  0.00    -0.079 Cl
ENDBRANCH  15  16
ENDBRANCH  11  14
ENDBRANCH   8  11
ENDBRANCH   3   5
BRANCH   1  20
HETATM   20  C2  UNL     1       1.251  -0.108  -1.203  1.00  0.00     0.175 C 
HETATM   21  C1  UNL     1       0.851   0.978  -2.236  1.00  0.00     0.042 C 
BRANCH  20  22
HETATM   22  N1  UNL     1       2.302   0.419  -0.388  1.00  0.00    -0.324 N 
HETATM   23  C3  UNL     1       3.635  -0.022  -0.624  1.00  0.00     0.361 C 
HETATM   24  O1  UNL     1       3.910  -0.845  -1.504  1.00  0.00    -0.238 OA
ATOM     25  H1  UNL     1       2.101   1.097   0.347  1.00  0.00     0.165 HD
BRANCH  23  26
HETATM   26  O2  UNL     1       4.641   0.514   0.181  1.00  0.00    -0.299 OA
BRANCH  26  27
HETATM   27  C4  UNL     1       5.963   0.096  -0.046  1.00  0.00     0.219 C 
BRANCH  27  28
HETATM   28  C5  UNL     1       6.881   0.785   0.890  1.00  0.00    -0.034 A 
HETATM   29  C6  UNL     1       8.242   0.508   0.862  1.00  0.00     0.009 A 
HETATM   30  C7  UNL     1       9.107   1.138   1.704  1.00  0.00     0.001 A 
HETATM   31  C8  UNL     1       8.658   2.078   2.619  1.00  0.00     0.000 A 
HETATM   32  C9  UNL     1       7.311   2.348   2.643  1.00  0.00     0.001 A 
HETATM   33  C10 UNL     1       6.445   1.726   1.810  1.00  0.00     0.009 A 
ENDBRANCH  27  28
ENDBRANCH  26  27
ENDBRANCH  23  26
ENDBRANCH  20  22
ENDBRANCH   1  20
TORSDOF 9
