REMARK  5 active torsions:
REMARK  status: ('A' for Active; 'I' for Inactive)
REMARK    1  A    between atoms: N1_1  and  C1_5 
REMARK    2  A    between atoms: C1_5  and  C2_6 
REMARK    3  A    between atoms: C2_6  and  C3_7 
REMARK    4  A    between atoms: C3_7  and  N2_8 
REMARK    5  A    between atoms: C3_7  and  C4_12 
ROOT
HETATM    1  C3  UNL     1      -0.166  -1.060   0.085  1.00  0.00     0.234 C 
ENDROOT
BRANCH   1   2
HETATM    2  C2  UNL     1      -1.428  -0.353  -0.163  1.00  0.00     0.066 C 
BRANCH   2   3
HETATM    3  C1  UNL     1      -1.855   0.662   0.836  1.00  0.00     0.232 C 
BRANCH   3   4
HETATM    4  N1  UNL     1      -3.125   1.285   0.451  1.00  0.00    -0.079 N 
ATOM      5  H13 UNL     1      -3.079   1.680  -0.488  1.00  0.00     0.274 HD
ATOM      6  H12 UNL     1      -3.852   0.587   0.292  1.00  0.00     0.274 HD
ATOM      7  H11 UNL     1      -3.418   1.981   1.136  1.00  0.00     0.274 HD
ENDBRANCH   3   4
ENDBRANCH   2   3
ENDBRANCH   1   2
BRANCH   1   8
HETATM    8  N2  UNL     1       0.013  -2.024  -1.032  1.00  0.00    -0.070 N 
ATOM      9  H23 UNL     1      -0.782  -2.651  -1.153  1.00  0.00     0.275 HD
ATOM     10  H22 UNL     1      -0.028  -1.585  -1.952  1.00  0.00     0.275 HD
ATOM     11  H21 UNL     1       0.890  -2.515  -0.860  1.00  0.00     0.275 HD
ENDBRANCH   1   8
BRANCH   1  12
HETATM   12  C4  UNL     1       1.071  -0.243   0.044  1.00  0.00     0.035 A 
HETATM   13  C5  UNL     1       1.261   0.982  -0.383  1.00  0.00     0.005 A 
HETATM   14  C6  UNL     1       2.691   1.312  -0.196  1.00  0.00     0.073 A 
HETATM   15  C7  UNL     1       3.232   0.066   0.388  1.00  0.00     0.065 A 
HETATM   16  N3  UNL     1       2.296  -0.780   0.509  1.00  0.00    -0.371 N 
ATOM     17  H3  UNL     1       2.410  -1.720   0.889  1.00  0.00     0.164 HD
ENDBRANCH   1  12
TORSDOF 5
