REMARK  12 active torsions:
REMARK  status: ('A' for Active; 'I' for Inactive)
REMARK    1  A    between atoms: C2_2  and  C3_3 
REMARK    2  A    between atoms: C4_4  and  C5_5 
REMARK    3  A    between atoms: C11_16  and  C12_17 
REMARK    4  A    between atoms: C12_17  and  C13_18 
REMARK    5  A    between atoms: C13_18  and  C14_19 
REMARK    6  A    between atoms: C14_19  and  C15_20 
REMARK    7  A    between atoms: C15_20  and  N3_21 
REMARK    8  A    between atoms: N3_21  and  C18_24 
REMARK    9  A    between atoms: C18_24  and  C19_25 
REMARK   10  A    between atoms: C19_25  and  C20_26 
REMARK   11  A    between atoms: C20_26  and  C21_27 
REMARK   12  A    between atoms: C23_31  and  O2_32 
ROOT
HETATM    1  C5  UNL     1      -4.406   0.199  -0.397  1.00  0.00     0.097 C 
HETATM    2  C6  UNL     1      -5.299  -0.991  -0.600  1.00  0.00     0.041 C 
HETATM    3  C7  UNL     1      -5.099  -2.068   0.442  1.00  0.00     0.120 C 
HETATM    4  N1  UNL     1      -3.842  -2.050   1.089  1.00  0.00    -0.401 N 
ATOM      5  H1  UNL     1      -3.779  -1.534   1.967  1.00  0.00     0.158 HD
HETATM    6  C8  UNL     1      -2.776  -2.623   0.672  1.00  0.00     0.075 C 
HETATM    7  C9  UNL     1      -2.696  -3.409  -0.581  1.00  0.00     0.166 C 
HETATM    8  N2  UNL     1      -1.435  -3.389  -1.241  1.00  0.00    -0.355 N 
ATOM      9  H2  UNL     1      -0.886  -4.246  -1.183  1.00  0.00     0.162 HD
HETATM   10  C10 UNL     1      -0.852  -2.326  -1.966  1.00  0.00     0.240 C 
HETATM   11  O1  UNL     1      -0.374  -2.523  -3.140  1.00  0.00    -0.271 OA
HETATM   12  C11 UNL     1      -0.729  -0.925  -1.482  1.00  0.00     0.175 C 
HETATM   13  N4  UNL     1      -1.109   0.078  -2.440  1.00  0.00    -0.357 N 
ATOM     14  H4  UNL     1      -0.527   0.071  -3.278  1.00  0.00     0.162 HD
HETATM   15  C23 UNL     1      -2.098   1.056  -2.472  1.00  0.00     0.152 C 
HETATM   16  C24 UNL     1      -3.563   0.998  -2.685  1.00  0.00     0.087 C 
HETATM   17  C25 UNL     1      -4.049   0.027  -3.653  1.00  0.00     0.266 C 
HETATM   18  O3  UNL     1      -3.322  -0.874  -4.078  1.00  0.00    -0.267 OA
HETATM   19  N5  UNL     1      -5.367   0.089  -4.138  1.00  0.00    -0.296 N 
ATOM     20  H5  UNL     1      -5.624  -0.358  -5.018  1.00  0.00     0.177 HD
HETATM   21  S1  UNL     1      -6.578   0.973  -3.169  1.00  0.00    -0.049 SA
HETATM   22  C26 UNL     1      -5.769   1.769  -1.787  1.00  0.00     0.134 C 
HETATM   23  C27 UNL     1      -4.394   1.219  -1.458  1.00  0.00    -0.033 C 
ENDROOT
BRANCH  12  24
HETATM   24  C12 UNL     1       0.770  -0.693  -1.124  1.00  0.00     0.035 C 
BRANCH  24  25
HETATM   25  C13 UNL     1       1.190  -1.664  -0.054  1.00  0.00     0.004 C 
BRANCH  25  26
HETATM   26  C14 UNL     1       2.616  -1.516   0.352  1.00  0.00     0.028 C 
BRANCH  26  27
HETATM   27  C15 UNL     1       2.951  -0.171   0.905  1.00  0.00     0.236 C 
BRANCH  27  28
HETATM   28  N3  UNL     1       4.316  -0.015   1.298  1.00  0.00    -0.075 N 
HETATM   29  C16 UNL     1       5.055  -1.246   1.413  1.00  0.00     0.272 C 
HETATM   30  C17 UNL     1       4.349   0.645   2.609  1.00  0.00     0.272 C 
BRANCH  28  31
HETATM   31  C18 UNL     1       5.051   0.863   0.401  1.00  0.00     0.236 C 
BRANCH  31  32
HETATM   32  C19 UNL     1       6.528   0.697   0.573  1.00  0.00     0.028 C 
BRANCH  32  33
HETATM   33  C20 UNL     1       7.261   1.645  -0.385  1.00  0.00     0.001 C 
BRANCH  33  34
HETATM   34  C21 UNL     1       8.753   1.483  -0.213  1.00  0.00    -0.005 C 
HETATM   35  C22 UNL     1       9.143   1.812   1.202  1.00  0.00     0.005 C 
ENDBRANCH  33  34
ENDBRANCH  32  33
ENDBRANCH  31  32
ENDBRANCH  28  31
ENDBRANCH  27  28
ENDBRANCH  26  27
ENDBRANCH  25  26
ENDBRANCH  24  25
ENDBRANCH  12  24
BRANCH  15  36
HETATM   36  O2  UNL     1      -1.688   2.294  -2.281  1.00  0.00    -0.346 OA
ATOM     37  H2  UNL     1      -2.363   2.962  -2.303  1.00  0.00     0.219 HD
ENDBRANCH  15  36
BRANCH   1  38
HETATM   38  C4  UNL     1      -4.857   0.824   0.892  1.00  0.00    -0.097 C 
HETATM   39  C3  UNL     1      -5.205   1.343   1.925  1.00  0.00    -0.106 C 
BRANCH  39  40
HETATM   40  C2  UNL     1      -5.600   1.981   3.184  1.00  0.00     0.089 C 
HETATM   41  C1  UNL     1      -6.478   3.183   2.942  1.00  0.00     0.018 C 
ENDBRANCH  39  40
ENDBRANCH   1  38
TORSDOF 12
