REMARK  13 active torsions:
REMARK  status: ('A' for Active; 'I' for Inactive)
REMARK       I    between atoms: C2_2  and  N1_4 
REMARK    1  A    between atoms: N1_4  and  C3_6 
REMARK    2  A    between atoms: C3_6  and  C4_7 
REMARK    3  A    between atoms: C3_6  and  C8_15 
REMARK    4  A    between atoms: C4_7  and  C5_8 
REMARK    5  A    between atoms: C5_8  and  C6_9 
REMARK    6  A    between atoms: C6_9  and  N2_10 
REMARK    7  A    between atoms: C8_15  and  C9_16 
REMARK    8  A    between atoms: C9_16  and  C10_17 
REMARK    9  A    between atoms: C10_17  and  N5_18 
REMARK   10  A    between atoms: C11_20  and  C12_22 
REMARK   11  A    between atoms: N8_35  and  C23_36 
REMARK   12  A    between atoms: C23_36  and  O3_37 
REMARK   13  A    between atoms: C23_36  and  C24_39 
ROOT
HETATM    1  C12 UNL     1      -2.110  -0.974   1.131  1.00  0.00     0.098 C 
HETATM    2  C13 UNL     1      -1.796  -2.317   1.708  1.00  0.00     0.042 C 
HETATM    3  C14 UNL     1      -2.986  -3.160   2.111  1.00  0.00     0.084 C 
HETATM    4  C15 UNL     1      -2.932  -4.477   1.377  1.00  0.00     0.032 C 
HETATM    5  N7  UNL     1      -4.116  -2.365   1.717  1.00  0.00    -0.340 N 
HETATM    6  C16 UNL     1      -4.569  -2.182   0.415  1.00  0.00     0.249 C 
HETATM    7  O2  UNL     1      -4.474  -2.984  -0.531  1.00  0.00    -0.270 OA
HETATM    8  C17 UNL     1      -5.221  -0.776   0.361  1.00  0.00     0.118 C 
HETATM    9  C18 UNL     1      -6.102  -0.800  -0.817  1.00  0.00     0.049 C 
HETATM   10  C19 UNL     1      -6.012  -0.950   1.676  1.00  0.00     0.067 C 
HETATM   11  C20 UNL     1      -4.934  -1.530   2.571  1.00  0.00     0.096 C 
HETATM   12  C21 UNL     1      -3.901  -0.399   2.890  1.00  0.00     0.079 C 
HETATM   13  C22 UNL     1      -3.185  -0.144   1.586  1.00  0.00     0.005 C 
HETATM   14  N8  UNL     1      -4.255   0.228   0.575  1.00  0.00    -0.319 N 
ENDROOT
BRANCH   1  15
HETATM   15  C11 UNL     1      -0.798  -0.227   1.188  1.00  0.00     0.098 C 
HETATM   16  N5  UNL     1      -0.220   0.118   0.119  1.00  0.00    -0.381 N 
ATOM     17  H5  UNL     1      -0.681  -0.118  -0.760  1.00  0.00     0.160 HD
HETATM   18  N6  UNL     1      -0.243   0.052   2.444  1.00  0.00    -0.087 NA
BRANCH  16  19
HETATM   19  C10 UNL     1       1.038   0.818   0.039  1.00  0.00     0.120 C 
BRANCH  19  20
HETATM   20  C9  UNL     1       2.141  -0.120  -0.443  1.00  0.00     0.022 C 
BRANCH  20  21
HETATM   21  C8  UNL     1       3.402   0.740  -0.471  1.00  0.00     0.027 C 
BRANCH  21  22
HETATM   22  C3  UNL     1       4.586  -0.087  -0.932  1.00  0.00     0.084 C 
BRANCH  22  23
HETATM   23  N1  UNL     1       4.792  -1.194  -0.036  1.00  0.00    -0.357 N 
HETATM   24  C2  UNL     1       4.726  -2.516  -0.536  1.00  0.00     0.213 C 
HETATM   25  C1  UNL     1       4.937  -3.688   0.377  1.00  0.00     0.117 C 
HETATM   26  O1  UNL     1       4.486  -2.741  -1.768  1.00  0.00    -0.274 OA
ATOM     27  H1  UNL     1       4.984  -1.027   0.952  1.00  0.00     0.162 HD
ENDBRANCH  22  23
BRANCH  22  28
HETATM   28  C4  UNL     1       5.819   0.791  -0.873  1.00  0.00     0.027 C 
BRANCH  28  29
HETATM   29  C5  UNL     1       5.743   1.989  -1.770  1.00  0.00     0.022 C 
BRANCH  29  30
HETATM   30  C6  UNL     1       7.057   2.757  -1.571  1.00  0.00     0.122 C 
BRANCH  30  31
HETATM   31  N2  UNL     1       8.163   1.907  -1.920  1.00  0.00    -0.367 N 
HETATM   32  C7  UNL     1       9.030   1.627  -0.997  1.00  0.00     0.196 C 
HETATM   33  N3  UNL     1       8.905   2.137   0.325  1.00  0.00    -0.067 NA
HETATM   34  N4  UNL     1      10.126   0.777  -1.365  1.00  0.00    -0.067 NA
ATOM     35  H2  UNL     1       8.263   1.536  -2.865  1.00  0.00     0.161 HD
ENDBRANCH  30  31
ENDBRANCH  29  30
ENDBRANCH  28  29
ENDBRANCH  22  28
ENDBRANCH  21  22
ENDBRANCH  20  21
ENDBRANCH  19  20
ENDBRANCH  16  19
ENDBRANCH   1  15
BRANCH  14  36
HETATM   36  C23 UNL     1      -4.200   1.533   0.051  1.00  0.00     0.126 C 
BRANCH  36  37
HETATM   37  O3  UNL     1      -3.067   2.129   0.438  1.00  0.00    -0.349 OA
ATOM     38  H3  UNL     1      -3.030   3.010   0.084  1.00  0.00     0.219 HD
ENDBRANCH  36  37
BRANCH  36  39
HETATM   39  C24 UNL     1      -5.026   2.384  -0.770  1.00  0.00     0.014 C 
HETATM   40  C25 UNL     1      -4.383   3.820  -0.830  1.00  0.00     0.023 C 
HETATM   41  C26 UNL     1      -6.415   2.659  -0.287  1.00  0.00     0.023 C 
HETATM   42  C27 UNL     1      -5.069   1.981  -2.213  1.00  0.00     0.023 C 
ENDBRANCH  36  39
ENDBRANCH  14  36
TORSDOF 13
