REMARK  10 active torsions:
REMARK  status: ('A' for Active; 'I' for Inactive)
REMARK    1  A    between atoms: C2_2  and  C3_3 
REMARK    2  A    between atoms: C4_4  and  C5_5 
REMARK       I    between atoms: C5_5  and  N1_7 
REMARK    3  A    between atoms: C7_9  and  N2_10 
REMARK    4  A    between atoms: N2_10  and  C8_12 
REMARK    5  A    between atoms: C10_16  and  C11_17 
REMARK       I    between atoms: C11_17  and  N4_19 
REMARK    6  A    between atoms: N4_19  and  C12_21 
REMARK    7  A    between atoms: C12_21  and  C13_22 
REMARK    8  A    between atoms: C12_21  and  C14_25 
REMARK       I    between atoms: C14_25  and  N6_27 
REMARK    9  A    between atoms: N6_27  and  C15_28 
REMARK   10  A    between atoms: N6_27  and  C18_31 
ROOT
HETATM    1  C5  UNL     1       2.577   0.982   0.931  1.00  0.00     0.225 C 
HETATM    2  O1  UNL     1       3.262   1.606   1.787  1.00  0.00    -0.273 OA
HETATM    3  N1  UNL     1       1.709   1.762   0.122  1.00  0.00    -0.336 N 
HETATM    4  C6  UNL     1       1.565   3.201   0.185  1.00  0.00     0.152 C 
HETATM    5  C7  UNL     1       1.220   3.705  -1.170  1.00  0.00     0.104 C 
HETATM    6  C9  UNL     1       0.836   2.479  -1.937  1.00  0.00     0.061 C 
HETATM    7  C10 UNL     1       0.776   1.344  -0.907  1.00  0.00     0.181 C 
ENDROOT
BRANCH   7   8
HETATM    8  C11 UNL     1      -0.611   1.284  -0.403  1.00  0.00     0.241 C 
HETATM    9  O2  UNL     1      -0.828   1.621   0.785  1.00  0.00    -0.271 OA
HETATM   10  N4  UNL     1      -1.693   0.863  -1.201  1.00  0.00    -0.339 N 
ATOM     11  H4  UNL     1      -1.511   0.589  -2.166  1.00  0.00     0.163 HD
BRANCH  10  12
HETATM   12  C12 UNL     1      -3.072   0.802  -0.701  1.00  0.00     0.266 C 
BRANCH  12  13
HETATM   13  C13 UNL     1      -3.885   1.603  -1.667  1.00  0.00     0.263 C 
HETATM   14  N5  UNL     1      -5.281   1.778  -1.526  1.00  0.00    -0.060 NA
HETATM   15  O3  UNL     1      -3.325   2.168  -2.675  1.00  0.00    -0.274 OA
ENDBRANCH  12  13
BRANCH  12  16
HETATM   16  C14 UNL     1      -3.556  -0.597  -0.704  1.00  0.00     0.252 C 
HETATM   17  O4  UNL     1      -3.030  -1.369  -1.557  1.00  0.00    -0.270 OA
HETATM   18  N6  UNL     1      -4.522  -1.116   0.148  1.00  0.00    -0.342 N 
BRANCH  18  19
HETATM   19  C15 UNL     1      -4.935  -2.529   0.025  1.00  0.00     0.079 C 
HETATM   20  C16 UNL     1      -3.738  -3.437   0.233  1.00  0.00     0.032 C 
HETATM   21  C17 UNL     1      -5.488  -2.785  -1.340  1.00  0.00     0.032 C 
ENDBRANCH  18  19
BRANCH  18  22
HETATM   22  C18 UNL     1      -5.140  -0.334   1.183  1.00  0.00     0.079 C 
HETATM   23  C19 UNL     1      -4.716  -0.914   2.562  1.00  0.00     0.032 C 
HETATM   24  C20 UNL     1      -6.634  -0.380   1.196  1.00  0.00     0.032 C 
ENDBRANCH  18  22
ENDBRANCH  12  16
ENDBRANCH  10  12
ENDBRANCH   7   8
BRANCH   1  25
HETATM   25  C4  UNL     1       2.730  -0.461   0.842  1.00  0.00     0.088 C 
HETATM   26  C3  UNL     1       3.496  -1.063  -0.294  1.00  0.00     0.008 C 
HETATM   27  C25 UNL     1       4.364  -1.838   0.649  1.00  0.00    -0.027 A 
HETATM   28  C21 UNL     1       3.816  -1.001   1.742  1.00  0.00     0.017 A 
HETATM   29  C22 UNL     1       3.801  -2.481   1.862  1.00  0.00    -0.034 A 
HETATM   30  C26 UNL     1       5.836  -1.959   0.377  1.00  0.00     0.016 C 
HETATM   31  C23 UNL     1       4.697  -3.039   2.915  1.00  0.00     0.016 C 
HETATM   32  C24 UNL     1       2.510  -3.245   1.650  1.00  0.00     0.016 C 
BRANCH  26  33
HETATM   33  C2  UNL     1       4.300  -0.137  -1.159  1.00  0.00     0.002 C 
HETATM   34  C1  UNL     1       4.984  -0.950  -2.238  1.00  0.00     0.005 C 
ENDBRANCH  26  33
ENDBRANCH   1  25
BRANCH   5  35
HETATM   35  N2  UNL     1       2.231   4.483  -1.817  1.00  0.00    -0.363 N 
ATOM     36  H2  UNL     1       2.627   4.139  -2.692  1.00  0.00     0.162 HD
BRANCH  35  37
HETATM   37  C8  UNL     1       2.705   5.709  -1.295  1.00  0.00     0.181 C 
HETATM   38  N3  UNL     1       2.140   6.174  -0.076  1.00  0.00    -0.070 NA
HETATM   39  S1  UNL     1       3.865   6.565  -2.068  1.00  0.00    -0.044 SA
ENDBRANCH  35  37
ENDBRANCH   5  35
TORSDOF 10
