REMARK  7 active torsions:
REMARK  status: ('A' for Active; 'I' for Inactive)
REMARK    1  A    between atoms: C2_2  and  C3_3 
REMARK    2  A    between atoms: C5_5  and  N1_6 
REMARK    3  A    between atoms: C11_16  and  C12_17 
REMARK       I    between atoms: C12_17  and  N3_19 
REMARK    4  A    between atoms: N3_19  and  C13_21 
REMARK    5  A    between atoms: C13_21  and  C14_22 
REMARK    6  A    between atoms: C14_22  and  N4_23 
REMARK    7  A    between atoms: C19_28  and  C20_29 
REMARK       I    between atoms: C20_29  and  N5_31 
ROOT
HETATM    1  C3  UNL     1      -2.731   0.741  -0.547  1.00  0.00     0.000 C 
HETATM    2  C4  UNL     1      -2.681  -0.604   0.149  1.00  0.00     0.031 C 
HETATM    3  C5  UNL     1      -1.260  -1.224   0.022  1.00  0.00     0.103 C 
HETATM    4  C11 UNL     1      -0.431  -0.421   0.953  1.00  0.00     0.101 C 
HETATM    5  C18 UNL     1      -0.444   1.006   0.450  1.00  0.00     0.030 C 
HETATM    6  C19 UNL     1      -1.758   1.629   0.180  1.00  0.00     0.083 C 
ENDROOT
BRANCH   3   7
HETATM    7  N1  UNL     1      -1.372  -2.628   0.284  1.00  0.00    -0.314 N 
HETATM    8  C6  UNL     1      -1.715  -3.296   1.514  1.00  0.00     0.283 C 
HETATM    9  O1  UNL     1      -1.483  -2.849   2.665  1.00  0.00    -0.265 OA
HETATM   10  C7  UNL     1      -2.375  -4.571   1.144  1.00  0.00     0.167 C 
HETATM   11  S1  UNL     1      -2.964  -5.711   2.140  1.00  0.00    -0.055 SA
HETATM   12  N2  UNL     1      -2.380  -4.574  -0.269  1.00  0.00    -0.350 N 
HETATM   13  C8  UNL     1      -1.222  -3.736  -0.642  1.00  0.00     0.102 C 
ATOM     14  H2  UNL     1      -3.035  -5.048  -0.891  1.00  0.00     0.163 HD
HETATM   15  C9  UNL     1      -1.249  -3.335  -2.078  1.00  0.00     0.063 C 
HETATM   16  C10 UNL     1      -0.035  -4.640  -0.297  1.00  0.00     0.063 C 
ENDBRANCH   3   7
BRANCH   4  17
HETATM   17  C12 UNL     1       1.009  -0.768   1.009  1.00  0.00     0.223 C 
HETATM   18  O2  UNL     1       1.553  -1.535   0.204  1.00  0.00    -0.273 OA
HETATM   19  N3  UNL     1       1.801  -0.196   2.030  1.00  0.00    -0.359 N 
ATOM     20  H3  UNL     1       1.338   0.432   2.687  1.00  0.00     0.162 HD
BRANCH  19  21
HETATM   21  C13 UNL     1       3.198  -0.428   2.215  1.00  0.00     0.150 C 
BRANCH  21  22
HETATM   22  C14 UNL     1       4.069  -0.019   1.082  1.00  0.00     0.255 C 
BRANCH  22  23
HETATM   23  N4  UNL     1       4.024   1.378   0.736  1.00  0.00    -0.077 N 
HETATM   24  C15 UNL     1       3.326   1.573  -0.516  1.00  0.00     0.271 C 
HETATM   25  C16 UNL     1       5.393   1.883   0.522  1.00  0.00     0.271 C 
HETATM   26  C17 UNL     1       3.442   2.229   1.727  1.00  0.00     0.271 C 
ENDBRANCH  22  23
ENDBRANCH  21  22
ENDBRANCH  19  21
ENDBRANCH   4  17
BRANCH   1  27
HETATM   27  C2  UNL     1      -4.164   1.223  -0.365  1.00  0.00     0.001 C 
HETATM   28  C1  UNL     1      -4.492   2.532  -0.977  1.00  0.00     0.005 C 
ENDBRANCH   1  27
BRANCH   6  29
HETATM   29  C20 UNL     1      -1.455   2.782  -0.748  1.00  0.00     0.221 C 
HETATM   30  O3  UNL     1      -1.707   3.931  -0.351  1.00  0.00    -0.273 OA
HETATM   31  N5  UNL     1      -0.897   2.583  -2.034  1.00  0.00    -0.365 N 
HETATM   32  C21 UNL     1      -0.620   3.711  -2.889  1.00  0.00     0.149 C 
ATOM     33  H5  UNL     1      -0.690   1.638  -2.357  1.00  0.00     0.161 HD
ENDBRANCH   6  29
TORSDOF 7
