REMARK  19 active torsions:
REMARK  status: ('A' for Active; 'I' for Inactive)
REMARK    1  A    between atoms: C3_4  and  C4_5 
REMARK    2  A    between atoms: C4_5  and  N2_6 
REMARK    3  A    between atoms: C5_8  and  N3_9 
REMARK    4  A    between atoms: C5_8  and  C20_26 
REMARK    5  A    between atoms: N3_9  and  C6_11 
REMARK    6  A    between atoms: C6_11  and  C7_12 
REMARK    7  A    between atoms: C7_12  and  O1_13 
REMARK    8  A    between atoms: O1_13  and  C8_14 
REMARK    9  A    between atoms: C12_18  and  C13_19 
REMARK   10  A    between atoms: C20_26  and  C21_27 
REMARK   11  A    between atoms: C20_26  and  C28_34 
REMARK   12  A    between atoms: C21_27  and  C22_28 
REMARK   13  A    between atoms: C28_34  and  O2_35 
REMARK   14  A    between atoms: C28_34  and  N4_37 
REMARK   15  A    between atoms: N4_37  and  C29_39 
REMARK   16  A    between atoms: C29_39  and  C30_40 
REMARK   17  A    between atoms: C30_40  and  O3_41 
REMARK   18  A    between atoms: C30_40  and  C31_43 
REMARK   19  A    between atoms: C31_43  and  O4_44 
ROOT
HETATM    1  N1  UNL     1       0.923  -5.992  -0.635  1.00  0.00    -0.192 NA
HETATM    2  C1  UNL     1       0.367  -5.045  -1.056  1.00  0.00     0.087 C 
HETATM    3  C2  UNL     1      -0.291  -3.884  -1.575  1.00  0.00     0.095 C 
HETATM    4  C3  UNL     1      -0.213  -3.543  -2.846  1.00  0.00     0.028 C 
ENDROOT
BRANCH   4   5
HETATM    5  C4  UNL     1      -0.864  -2.360  -3.451  1.00  0.00     0.090 C 
BRANCH   5   6
HETATM    6  N2  UNL     1      -1.609  -1.537  -2.610  1.00  0.00    -0.355 N 
HETATM    7  C5  UNL     1      -1.392  -0.725  -1.690  1.00  0.00     0.085 C 
ATOM      8  H2  UNL     1      -2.608  -1.622  -2.799  1.00  0.00     0.166 HD
BRANCH   7   9
HETATM    9  N3  UNL     1      -0.117  -0.371  -1.176  1.00  0.00    -0.377 N 
ATOM     10  H3  UNL     1       0.053  -0.455  -0.174  1.00  0.00     0.160 HD
BRANCH   9  11
HETATM   11  C6  UNL     1       0.937   0.100  -2.020  1.00  0.00     0.147 C 
BRANCH  11  12
HETATM   12  C7  UNL     1       2.188   0.438  -1.212  1.00  0.00     0.195 C 
BRANCH  12  13
HETATM   13  O1  UNL     1       2.643  -0.739  -0.530  1.00  0.00    -0.350 OA
BRANCH  13  14
HETATM   14  C8  UNL     1       3.757  -0.754   0.292  1.00  0.00     0.069 A 
HETATM   15  C9  UNL     1       4.075  -1.970   0.881  1.00  0.00     0.037 A 
HETATM   16  C10 UNL     1       5.175  -2.033   1.707  1.00  0.00     0.004 A 
HETATM   17  C11 UNL     1       5.957  -0.902   1.951  1.00  0.00     0.012 A 
HETATM   18  C12 UNL     1       5.647   0.309   1.369  1.00  0.00    -0.023 A 
HETATM   19  C19 UNL     1       4.542   0.355   0.544  1.00  0.00     0.049 A 
BRANCH  18  20
HETATM   20  C13 UNL     1       6.476   1.494   1.634  1.00  0.00    -0.026 A 
HETATM   21  C14 UNL     1       6.604   2.449   0.664  1.00  0.00     0.012 A 
HETATM   22  C15 UNL     1       7.365   3.557   0.881  1.00  0.00     0.001 A 
HETATM   23  C16 UNL     1       8.011   3.729   2.071  1.00  0.00     0.000 A 
HETATM   24  C17 UNL     1       7.908   2.790   3.076  1.00  0.00     0.001 A 
HETATM   25  C18 UNL     1       7.128   1.671   2.832  1.00  0.00     0.012 A 
ENDBRANCH  18  20
ENDBRANCH  13  14
ENDBRANCH  12  13
ENDBRANCH  11  12
ENDBRANCH   9  11
ENDBRANCH   7   9
BRANCH   7  26
HETATM   26  C20 UNL     1      -2.543  -0.034  -1.072  1.00  0.00     0.105 C 
BRANCH  26  27
HETATM   27  C21 UNL     1      -3.885  -0.613  -1.258  1.00  0.00     0.055 C 
BRANCH  27  28
HETATM   28  C22 UNL     1      -4.106  -1.978  -0.724  1.00  0.00    -0.057 A 
HETATM   29  C23 UNL     1      -4.122  -3.135  -1.457  1.00  0.00     0.007 A 
HETATM   30  C24 UNL     1      -4.304  -4.364  -0.861  1.00  0.00     0.001 A 
HETATM   31  C25 UNL     1      -4.481  -4.515   0.487  1.00  0.00     0.000 A 
HETATM   32  C26 UNL     1      -4.467  -3.351   1.234  1.00  0.00     0.001 A 
HETATM   33  C27 UNL     1      -4.288  -2.122   0.666  1.00  0.00     0.007 A 
ENDBRANCH  27  28
ENDBRANCH  26  27
BRANCH  26  34
HETATM   34  C28 UNL     1      -2.517   1.465  -1.381  1.00  0.00     0.225 C 
BRANCH  34  35
HETATM   35  O2  UNL     1      -1.359   2.067  -0.894  1.00  0.00    -0.376 OA
ATOM     36  H2  UNL     1      -1.343   2.997  -1.086  1.00  0.00     0.212 HD
ENDBRANCH  34  35
BRANCH  34  37
HETATM   37  N4  UNL     1      -3.648   2.135  -0.833  1.00  0.00    -0.394 N 
ATOM     38  H4  UNL     1      -4.338   2.601  -1.422  1.00  0.00     0.155 HD
BRANCH  37  39
HETATM   39  C29 UNL     1      -3.756   2.115   0.583  1.00  0.00     0.150 C 
BRANCH  39  40
HETATM   40  C30 UNL     1      -5.005   2.839   1.040  1.00  0.00     0.159 C 
BRANCH  40  41
HETATM   41  O3  UNL     1      -6.151   2.244   0.518  1.00  0.00    -0.392 OA
ATOM     42  H3  UNL     1      -6.935   2.698   0.805  1.00  0.00     0.210 HD
ENDBRANCH  40  41
BRANCH  40  43
HETATM   43  C31 UNL     1      -5.006   4.302   0.613  1.00  0.00     0.197 C 
BRANCH  43  44
HETATM   44  O4  UNL     1      -3.891   4.975   1.093  1.00  0.00    -0.398 OA
ATOM     45  H4  UNL     1      -3.892   5.887   0.827  1.00  0.00     0.209 HD
ENDBRANCH  43  44
ENDBRANCH  40  43
ENDBRANCH  39  40
ENDBRANCH  37  39
ENDBRANCH  34  37
ENDBRANCH  26  34
ENDBRANCH   7  26
ENDBRANCH   5   6
ENDBRANCH   4   5
TORSDOF 19
