REMARK  16 active torsions:
REMARK  status: ('A' for Active; 'I' for Inactive)
REMARK    1  A    between atoms: N1_2  and  C3_4 
REMARK    2  A    between atoms: N1_2  and  C13_28 
REMARK    3  A    between atoms: C3_4  and  C4_5 
REMARK    4  A    between atoms: C4_5  and  C5_6 
REMARK    5  A    between atoms: C5_6  and  N2_7 
REMARK    6  A    between atoms: N2_7  and  C6_10 
REMARK    7  A    between atoms: C6_10  and  C7_11 
REMARK    8  A    between atoms: C7_11  and  N3_12 
REMARK    9  A    between atoms: N3_12  and  C8_13 
REMARK   10  A    between atoms: N3_12  and  C9_15 
REMARK   11  A    between atoms: C11_20  and  N6_21 
REMARK   12  A    between atoms: C13_28  and  C14_29 
REMARK   13  A    between atoms: C17_32  and  O3_33 
REMARK   14  A    between atoms: O3_33  and  C18_34 
REMARK   15  A    between atoms: C18_34  and  C19_35 
REMARK   16  A    between atoms: C22_38  and  C23_39 
ROOT
HETATM    1  C3  UNL     1      -0.396  -0.044   0.489  1.00  0.00     0.238 C 
ENDROOT
BRANCH   1   2
HETATM    2  N1  UNL     1      -0.082   1.324   0.682  1.00  0.00    -0.071 N 
HETATM    3  C1  UNL     1      -1.209   2.059   1.300  1.00  0.00     0.272 C 
HETATM    4  C2  UNL     1       0.263   2.066  -0.494  1.00  0.00     0.272 C 
BRANCH   2   5
HETATM    5  C13 UNL     1       0.985   1.475   1.665  1.00  0.00     0.275 C 
BRANCH   5   6
HETATM    6  C14 UNL     1       2.328   1.127   1.242  1.00  0.00    -0.032 A 
HETATM    7  C15 UNL     1       2.857  -0.122   1.551  1.00  0.00     0.011 A 
HETATM    8  C16 UNL     1       4.145  -0.461   1.171  1.00  0.00     0.037 A 
HETATM    9  C17 UNL     1       4.954   0.410   0.477  1.00  0.00     0.069 A 
HETATM   10  C26 UNL     1       4.442   1.649   0.166  1.00  0.00     0.037 A 
HETATM   11  C27 UNL     1       3.142   1.992   0.549  1.00  0.00     0.011 A 
BRANCH   9  12
HETATM   12  O3  UNL     1       6.250   0.109   0.081  1.00  0.00    -0.347 OA
BRANCH  12  13
HETATM   13  C18 UNL     1       6.775  -1.163   0.410  1.00  0.00     0.214 C 
BRANCH  13  14
HETATM   14  C19 UNL     1       8.174  -1.210  -0.136  1.00  0.00    -0.034 A 
HETATM   15  C20 UNL     1       8.516  -2.029  -1.184  1.00  0.00     0.010 A 
HETATM   16  C21 UNL     1       9.821  -2.059  -1.690  1.00  0.00     0.013 A 
HETATM   17  C22 UNL     1      10.806  -1.254  -1.139  1.00  0.00    -0.021 A 
HETATM   18  C24 UNL     1      10.439  -0.442  -0.089  1.00  0.00     0.013 A 
HETATM   19  C25 UNL     1       9.143  -0.409   0.418  1.00  0.00     0.010 A 
BRANCH  17  20
HETATM   20  C23 UNL     1      12.158  -1.298  -1.675  1.00  0.00     0.091 C 
HETATM   21  N8  UNL     1      13.107  -0.570  -1.213  1.00  0.00    -0.407 N 
ATOM     22  H82 UNL     1      12.889   0.059  -0.440  1.00  0.00     0.155 HD
ATOM     23  H81 UNL     1      14.055  -0.601  -1.589  1.00  0.00     0.155 HD
ENDBRANCH  17  20
ENDBRANCH  13  14
ENDBRANCH  12  13
ENDBRANCH   9  12
ENDBRANCH   5   6
ENDBRANCH   2   5
ENDBRANCH   1   2
BRANCH   1  24
HETATM   24  C4  UNL     1      -1.200  -0.449  -0.678  1.00  0.00     0.055 C 
BRANCH  24  25
HETATM   25  C5  UNL     1      -2.588   0.058  -0.802  1.00  0.00     0.234 C 
BRANCH  25  26
HETATM   26  N2  UNL     1      -3.456  -0.310   0.269  1.00  0.00    -0.074 N 
ATOM     27  H22 UNL     1      -3.506  -1.325   0.357  1.00  0.00     0.277 HD
ATOM     28  H21 UNL     1      -3.033  -0.079   1.168  1.00  0.00     0.277 HD
BRANCH  26  29
HETATM   29  C6  UNL     1      -4.755   0.245   0.173  1.00  0.00     0.252 C 
BRANCH  29  30
HETATM   30  C7  UNL     1      -5.546  -0.323  -0.966  1.00  0.00     0.159 C 
BRANCH  30  31
HETATM   31  N3  UNL     1      -6.875   0.305  -1.011  1.00  0.00    -0.316 N 
BRANCH  31  32
HETATM   32  C8  UNL     1      -7.006   1.476  -1.798  1.00  0.00     0.356 C 
HETATM   33  O1  UNL     1      -8.099   2.093  -1.883  1.00  0.00    -0.283 OA
ENDBRANCH  31  32
BRANCH  31  34
HETATM   34  C9  UNL     1      -7.974  -0.205  -0.301  1.00  0.00     0.148 A 
HETATM   35  C10 UNL     1      -8.586  -1.376  -0.678  1.00  0.00     0.164 A 
HETATM   36  N4  UNL     1      -8.104  -2.080  -1.797  1.00  0.00    -0.080 NA
HETATM   37  N5  UNL     1      -9.636  -1.785   0.071  1.00  0.00    -0.177 N 
HETATM   38  C11 UNL     1     -10.070  -1.091   1.134  1.00  0.00     0.680 A 
ATOM     39  H5  UNL     1     -10.114  -2.650  -0.181  1.00  0.00     0.185 HD
HETATM   40  N7  UNL     1      -9.459   0.071   1.504  1.00  0.00    -0.154 N 
HETATM   41  C12 UNL     1      -8.411   0.533   0.804  1.00  0.00     0.290 A 
ATOM     42  H7  UNL     1      -9.799   0.590   2.314  1.00  0.00     0.187 HD
HETATM   43  O2  UNL     1      -7.806   1.608   1.105  1.00  0.00    -0.265 OA
BRANCH  38  44
HETATM   44  N6  UNL     1     -11.072  -1.472   1.855  1.00  0.00    -0.234 N 
ATOM     45  H62 UNL     1     -11.529  -2.341   1.578  1.00  0.00     0.174 HD
ATOM     46  H61 UNL     1     -11.402  -0.944   2.663  1.00  0.00     0.174 HD
ENDBRANCH  38  44
ENDBRANCH  31  34
ENDBRANCH  30  31
ENDBRANCH  29  30
ENDBRANCH  26  29
ENDBRANCH  25  26
ENDBRANCH  24  25
ENDBRANCH   1  24
TORSDOF 16
