REMARK  14 active torsions:
REMARK  status: ('A' for Active; 'I' for Inactive)
REMARK    1  A    between atoms: C4_10  and  C5_11 
REMARK    2  A    between atoms: C5_11  and  C6_12 
REMARK    3  A    between atoms: C6_12  and  C7_13 
REMARK    4  A    between atoms: C7_13  and  N3_14 
REMARK    5  A    between atoms: N3_14  and  C8_15 
REMARK       I    between atoms: N3_14  and  C20_35 
REMARK    6  A    between atoms: C8_15  and  C9_16 
REMARK    7  A    between atoms: C9_16  and  C10_17 
REMARK    8  A    between atoms: C10_17  and  C11_18 
REMARK    9  A    between atoms: C11_18  and  N4_19 
REMARK       I    between atoms: N4_19  and  C12_21 
REMARK       I    between atoms: C12_21  and  N7_26 
REMARK   10  A    between atoms: N7_26  and  C14_28 
REMARK   11  A    between atoms: C14_28  and  C15_29 
REMARK   12  A    between atoms: C15_29  and  N8_30 
REMARK   13  A    between atoms: C20_35  and  C21_37 
REMARK   14  A    between atoms: C21_37  and  C22_38 
ROOT
HETATM    1  N4  UNL     1       3.194  -0.824   0.781  1.00  0.00    -0.226 N 
ATOM      2  H4  UNL     1       3.741  -1.673   0.638  1.00  0.00     0.177 HD
HETATM    3  C12 UNL     1       3.809   0.440   0.544  1.00  0.00     0.682 C 
HETATM    4  N5  UNL     1       3.498   1.414   1.318  1.00  0.00    -0.126 N 
ATOM      5  H5  UNL     1       2.830   1.273   2.076  1.00  0.00     0.197 HD
HETATM    6  C13 UNL     1       4.077   2.665   1.118  1.00  0.00     0.196 C 
HETATM    7  N6  UNL     1       4.548   3.691   0.957  1.00  0.00    -0.171 NA
HETATM    8  N7  UNL     1       4.734   0.651  -0.501  1.00  0.00    -0.224 N 
ATOM      9  H7  UNL     1       4.692   1.542  -0.996  1.00  0.00     0.177 HD
ENDROOT
BRANCH   1  10
HETATM   10  C11 UNL     1       1.820  -0.941   1.217  1.00  0.00     0.138 C 
BRANCH  10  11
HETATM   11  C10 UNL     1       0.853  -0.511   0.141  1.00  0.00     0.022 C 
BRANCH  11  12
HETATM   12  C9  UNL     1      -0.564  -0.644   0.657  1.00  0.00     0.021 C 
BRANCH  12  13
HETATM   13  C8  UNL     1      -1.511  -0.213  -0.438  1.00  0.00     0.126 C 
BRANCH  13  14
HETATM   14  N3  UNL     1      -2.915  -0.313  -0.005  1.00  0.00    -0.352 N 
HETATM   15  C20 UNL     1      -3.615  -1.498  -0.255  1.00  0.00     0.225 C 
HETATM   16  O1  UNL     1      -4.782  -1.716   0.142  1.00  0.00    -0.273 OA
BRANCH  14  17
HETATM   17  C7  UNL     1      -3.443   0.835   0.654  1.00  0.00     0.126 C 
BRANCH  17  18
HETATM   18  C6  UNL     1      -3.969   1.926  -0.183  1.00  0.00     0.025 C 
BRANCH  18  19
HETATM   19  C5  UNL     1      -5.142   1.810  -1.034  1.00  0.00     0.050 C 
BRANCH  19  20
HETATM   20  C4  UNL     1      -6.472   1.640  -0.344  1.00  0.00     0.008 A 
HETATM   21  C2  UNL     1      -7.146   2.631   0.349  1.00  0.00     0.020 A 
HETATM   22  C1  UNL     1      -6.529   4.016   0.491  1.00  0.00     0.069 C 
HETATM   23  N1  UNL     1      -8.310   2.332   0.855  1.00  0.00    -0.340 N 
HETATM   24  C3  UNL     1      -8.782   1.097   0.679  1.00  0.00     0.142 A 
ATOM     25  H1  UNL     1      -8.847   3.027   1.374  1.00  0.00     0.168 HD
HETATM   26  N2  UNL     1      -9.932   0.627   1.117  1.00  0.00    -0.380 N 
HETATM   27  S1  UNL     1      -7.558   0.340  -0.222  1.00  0.00    -0.057 SA
ATOM     28  H22 UNL     1     -10.667   1.082   1.658  1.00  0.00     0.158 HD
ATOM     29  H21 UNL     1     -10.293  -0.317   0.982  1.00  0.00     0.158 HD
ENDBRANCH  19  20
ENDBRANCH  18  19
ENDBRANCH  17  18
ENDBRANCH  14  17
BRANCH  15  30
HETATM   30  C21 UNL     1      -3.007  -2.626  -1.040  1.00  0.00     0.161 C 
BRANCH  30  31
HETATM   31  C22 UNL     1      -3.916  -3.766  -1.170  1.00  0.00     0.034 A 
HETATM   32  C23 UNL     1      -4.848  -3.968  -2.159  1.00  0.00     0.114 A 
HETATM   33  N9  UNL     1      -5.484  -5.130  -1.933  1.00  0.00    -0.360 N 
HETATM   34  C24 UNL     1      -4.967  -5.668  -0.811  1.00  0.00     0.180 A 
ATOM     35  H9  UNL     1      -6.225  -5.532  -2.507  1.00  0.00     0.166 HD
HETATM   36  N10 UNL     1      -4.022  -4.845  -0.352  1.00  0.00    -0.354 N 
ATOM     37  H10 UNL     1      -3.463  -5.003   0.487  1.00  0.00     0.166 HD
ENDBRANCH  30  31
ENDBRANCH  15  30
ENDBRANCH  13  14
ENDBRANCH  12  13
ENDBRANCH  11  12
ENDBRANCH  10  11
ENDBRANCH   1  10
BRANCH   8  38
HETATM   38  C14 UNL     1       5.737  -0.301  -0.923  1.00  0.00     0.168 C 
BRANCH  38  39
HETATM   39  C15 UNL     1       6.805  -0.499   0.128  1.00  0.00     0.292 C 
BRANCH  39  40
HETATM   40  N8  UNL     1       7.501   0.697   0.462  1.00  0.00     0.090 N 
HETATM   41  C16 UNL     1       8.503   0.403   1.453  1.00  0.00     0.272 C 
HETATM   42  C17 UNL     1       9.794   0.214   0.693  1.00  0.00     0.032 C 
HETATM   43  C18 UNL     1       9.588   0.791  -0.684  1.00  0.00     0.032 C 
HETATM   44  C19 UNL     1       8.206   1.348  -0.581  1.00  0.00     0.272 C 
ENDBRANCH  39  40
ENDBRANCH  38  39
ENDBRANCH   8  38
TORSDOF 14
