REMARK  18 active torsions:
REMARK  status: ('A' for Active; 'I' for Inactive)
REMARK    1  A    between atoms: N1_1  and  C1_5 
REMARK    2  A    between atoms: C1_5  and  C2_6 
REMARK    3  A    between atoms: C1_5  and  C3_9 
REMARK    4  A    between atoms: C1_5  and  C13_31 
REMARK    5  A    between atoms: C2_6  and  O1_7 
REMARK    6  A    between atoms: C3_9  and  O2_10 
REMARK    7  A    between atoms: O2_10  and  C4_11 
REMARK    8  A    between atoms: C7_14  and  C8_15 
REMARK    9  A    between atoms: C8_15  and  N2_16 
REMARK   10  A    between atoms: N2_16  and  C9_19 
REMARK   11  A    between atoms: C9_19  and  C10_20 
REMARK   12  A    between atoms: C10_20  and  N3_21 
REMARK   13  A    between atoms: N3_21  and  S1_23 
REMARK   14  A    between atoms: S1_23  and  N4_24 
REMARK   15  A    between atoms: C13_31  and  C14_32 
REMARK   16  A    between atoms: C14_32  and  C15_33 
REMARK   17  A    between atoms: C14_32  and  C22_40 
REMARK   18  A    between atoms: C15_33  and  C16_34 
ROOT
HETATM    1  C1  UNL     1      -2.467   0.308  -0.320  1.00  0.00     0.166 C 
ENDROOT
BRANCH   1   2
HETATM    2  N1  UNL     1      -2.223  -1.081  -0.357  1.00  0.00    -0.066 N 
ATOM      3  H13 UNL     1      -2.842  -1.580  -0.995  1.00  0.00     0.275 HD
ATOM      4  H12 UNL     1      -1.344  -1.322  -0.815  1.00  0.00     0.275 HD
ATOM      5  H11 UNL     1      -2.281  -1.419   0.604  1.00  0.00     0.275 HD
ENDBRANCH   1   2
BRANCH   1   6
HETATM    6  C2  UNL     1      -2.380   0.816  -1.766  1.00  0.00     0.205 C 
BRANCH   6   7
HETATM    7  O1  UNL     1      -2.588   2.168  -1.863  1.00  0.00    -0.398 OA
ATOM      8  H1  UNL     1      -2.534   2.482  -2.758  1.00  0.00     0.209 HD
ENDBRANCH   6   7
ENDBRANCH   1   6
BRANCH   1   9
HETATM    9  C3  UNL     1      -1.370   1.067   0.458  1.00  0.00     0.216 C 
BRANCH   9  10
HETATM   10  O2  UNL     1      -0.155   0.997   0.055  1.00  0.00    -0.349 OA
BRANCH  10  11
HETATM   11  C4  UNL     1       1.077   0.927  -0.353  1.00  0.00     0.068 A 
HETATM   12  C5  UNL     1       1.465   1.372  -1.628  1.00  0.00     0.037 A 
HETATM   13  C6  UNL     1       2.757   1.294  -2.044  1.00  0.00     0.011 A 
HETATM   14  C7  UNL     1       3.766   0.781  -1.264  1.00  0.00    -0.033 A 
HETATM   15  C11 UNL     1       3.396   0.342  -0.012  1.00  0.00     0.011 A 
HETATM   16  C12 UNL     1       2.119   0.405   0.435  1.00  0.00     0.037 A 
BRANCH  14  17
HETATM   17  C8  UNL     1       5.171   0.701  -1.730  1.00  0.00     0.270 C 
BRANCH  17  18
HETATM   18  N2  UNL     1       6.017   0.102  -0.717  1.00  0.00    -0.070 N 
ATOM     19  H22 UNL     1       5.964   0.568   0.189  1.00  0.00     0.277 HD
ATOM     20  H21 UNL     1       5.693  -0.812  -0.401  1.00  0.00     0.277 HD
BRANCH  18  21
HETATM   21  C9  UNL     1       7.370   0.083  -1.294  1.00  0.00     0.253 C 
BRANCH  21  22
HETATM   22  C10 UNL     1       8.278  -0.532  -0.262  1.00  0.00     0.161 C 
BRANCH  22  23
HETATM   23  N3  UNL     1       9.617  -0.567  -0.802  1.00  0.00    -0.301 N 
ATOM     24  H3  UNL     1       9.899  -0.233  -1.723  1.00  0.00     0.173 HD
BRANCH  23  25
HETATM   25  S1  UNL     1      10.659  -1.273   0.383  1.00  0.00     0.312 S 
HETATM   26  O3  UNL     1       9.831  -2.200   1.242  1.00  0.00    -0.183 OA
HETATM   27  O4  UNL     1      11.708  -2.052  -0.318  1.00  0.00    -0.183 OA
BRANCH  25  28
HETATM   28  N4  UNL     1      11.291  -0.004   1.362  1.00  0.00    -0.312 N 
ATOM     29  H42 UNL     1      11.078   0.987   1.249  1.00  0.00     0.170 HD
ATOM     30  H41 UNL     1      11.906  -0.421   2.061  1.00  0.00     0.170 HD
ENDBRANCH  25  28
ENDBRANCH  23  25
ENDBRANCH  22  23
ENDBRANCH  21  22
ENDBRANCH  18  21
ENDBRANCH  17  18
ENDBRANCH  14  17
ENDBRANCH  10  11
ENDBRANCH   9  10
ENDBRANCH   1   9
BRANCH   1  31
HETATM   31  C13 UNL     1      -3.821   0.686   0.168  1.00  0.00     0.053 C 
BRANCH  31  32
HETATM   32  C14 UNL     1      -4.221   0.289   1.525  1.00  0.00     0.032 C 
BRANCH  32  33
HETATM   33  C15 UNL     1      -5.592   0.823   1.852  1.00  0.00     0.048 C 
BRANCH  33  34
HETATM   34  C16 UNL     1      -6.710   0.407   1.022  1.00  0.00    -0.058 A 
HETATM   35  C17 UNL     1      -7.543  -0.654   1.306  1.00  0.00     0.007 A 
HETATM   36  C18 UNL     1      -8.596  -1.004   0.496  1.00  0.00     0.001 A 
HETATM   37  C19 UNL     1      -8.815  -0.252  -0.646  1.00  0.00     0.000 A 
HETATM   38  C20 UNL     1      -8.004   0.816  -0.964  1.00  0.00     0.001 A 
HETATM   39  C21 UNL     1      -6.968   1.128  -0.129  1.00  0.00     0.007 A 
ENDBRANCH  33  34
ENDBRANCH  32  33
BRANCH  32  40
HETATM   40  C22 UNL     1      -4.203  -1.175   1.820  1.00  0.00    -0.013 A 
HETATM   41  C23 UNL     1      -4.655  -2.253   1.105  1.00  0.00     0.015 A 
HETATM   42  C24 UNL     1      -4.517  -3.463   1.644  1.00  0.00     0.008 A 
HETATM   43  C25 UNL     1      -3.934  -3.559   2.874  1.00  0.00     0.050 A 
HETATM   44  S2  UNL     1      -3.591  -1.933   3.249  1.00  0.00    -0.106 SA
ENDBRANCH  32  40
ENDBRANCH  31  32
ENDBRANCH   1  31
TORSDOF 18
