REMARK  16 active torsions:
REMARK  status: ('A' for Active; 'I' for Inactive)
REMARK    1  A    between atoms: N1_1  and  S1_4 
REMARK    2  A    between atoms: S1_4  and  C1_7 
REMARK    3  A    between atoms: C4_10  and  C5_11 
REMARK    4  A    between atoms: C5_11  and  C6_12 
REMARK    5  A    between atoms: C6_12  and  N2_13 
REMARK    6  A    between atoms: N2_13  and  C7_15 
REMARK    7  A    between atoms: C7_15  and  C8_16 
REMARK    8  A    between atoms: C8_16  and  C9_17 
REMARK    9  A    between atoms: C9_17  and  C10_18 
REMARK   10  A    between atoms: C10_18  and  C11_19 
REMARK   11  A    between atoms: C11_19  and  C12_20 
REMARK   12  A    between atoms: C12_20  and  N3_21 
REMARK   13  A    between atoms: N3_21  and  C13_23 
REMARK   14  A    between atoms: C13_23  and  C14_24 
REMARK       I    between atoms: C14_24  and  N4_26 
REMARK   15  A    between atoms: N4_26  and  C15_28 
REMARK   16  A    between atoms: C19_32  and  N5_33 
ROOT
HETATM    1  C12 UNL     1       0.756   0.578   2.353  1.00  0.00     0.119 C 
ENDROOT
BRANCH   1   2
HETATM    2  C11 UNL     1      -0.597   1.276   2.114  1.00  0.00     0.020 C 
BRANCH   2   3
HETATM    3  C10 UNL     1      -1.653   0.370   2.682  1.00  0.00     0.002 C 
BRANCH   3   4
HETATM    4  C9  UNL     1      -3.034   0.876   2.574  1.00  0.00     0.002 C 
BRANCH   4   5
HETATM    5  C8  UNL     1      -3.583   1.140   1.228  1.00  0.00     0.019 C 
BRANCH   5   6
HETATM    6  C7  UNL     1      -3.660  -0.102   0.330  1.00  0.00     0.113 C 
BRANCH   6   7
HETATM    7  N2  UNL     1      -4.191   0.264  -0.944  1.00  0.00    -0.421 N 
ATOM      8  H2  UNL     1      -4.408   1.235  -1.167  1.00  0.00     0.153 HD
BRANCH   7   9
HETATM    9  C6  UNL     1      -4.404  -0.769  -1.883  1.00  0.00     0.118 C 
BRANCH   9  10
HETATM   10  C5  UNL     1      -5.525  -1.732  -1.531  1.00  0.00     0.057 C 
BRANCH  10  11
HETATM   11  C4  UNL     1      -6.826  -0.975  -1.399  1.00  0.00    -0.057 A 
HETATM   12  C3  UNL     1      -7.259  -0.513  -0.180  1.00  0.00     0.009 A 
HETATM   13  C2  UNL     1      -8.435   0.202  -0.056  1.00  0.00     0.026 A 
HETATM   14  C1  UNL     1      -9.209   0.472  -1.163  1.00  0.00     0.079 A 
HETATM   15  C26 UNL     1      -8.755  -0.005  -2.390  1.00  0.00     0.026 A 
HETATM   16  C25 UNL     1      -7.586  -0.716  -2.513  1.00  0.00     0.009 A 
BRANCH  14  17
HETATM   17  S1  UNL     1     -10.705   1.383  -1.025  1.00  0.00     0.256 S 
HETATM   18  O1  UNL     1     -10.905   2.298  -2.194  1.00  0.00    -0.201 OA
HETATM   19  O2  UNL     1     -10.595   2.187   0.245  1.00  0.00    -0.201 OA
BRANCH  17  20
HETATM   20  N1  UNL     1     -11.990   0.255  -0.842  1.00  0.00    -0.324 N 
ATOM     21  H12 UNL     1     -12.794   0.225  -1.469  1.00  0.00     0.169 HD
ATOM     22  H11 UNL     1     -11.854  -0.368  -0.046  1.00  0.00     0.169 HD
ENDBRANCH  17  20
ENDBRANCH  14  17
ENDBRANCH  10  11
ENDBRANCH   9  10
ENDBRANCH   7   9
ENDBRANCH   6   7
ENDBRANCH   5   6
ENDBRANCH   4   5
ENDBRANCH   3   4
ENDBRANCH   2   3
ENDBRANCH   1   2
BRANCH   1  23
HETATM   23  N3  UNL     1       0.839  -0.687   1.706  1.00  0.00    -0.394 N 
ATOM     24  H3  UNL     1       0.105  -1.059   1.104  1.00  0.00     0.159 HD
BRANCH  23  25
HETATM   25  C13 UNL     1       2.036  -1.371   1.982  1.00  0.00     0.158 C 
BRANCH  25  26
HETATM   26  C14 UNL     1       3.295  -0.920   1.380  1.00  0.00     0.260 C 
HETATM   27  O3  UNL     1       4.320  -1.595   1.779  1.00  0.00    -0.267 OA
HETATM   28  N4  UNL     1       3.410   0.129   0.459  1.00  0.00    -0.322 N 
ATOM     29  H4  UNL     1       2.533   0.587   0.212  1.00  0.00     0.169 HD
BRANCH  28  30
HETATM   30  C15 UNL     1       4.554   0.644  -0.175  1.00  0.00     0.037 A 
HETATM   31  C16 UNL     1       4.430   1.818  -0.944  1.00  0.00     0.029 A 
HETATM   32  C17 UNL     1       5.516   2.344  -1.580  1.00  0.00     0.004 A 
HETATM   33  C18 UNL     1       6.750   1.728  -1.472  1.00  0.00     0.029 A 
HETATM   34  C19 UNL     1       6.921   0.583  -0.734  1.00  0.00     0.032 A 
HETATM   35  C24 UNL     1       5.791   0.066  -0.094  1.00  0.00     0.058 A 
BRANCH  34  36
HETATM   36  N5  UNL     1       8.183  -0.052  -0.613  1.00  0.00    -0.378 N 
HETATM   37  C20 UNL     1       8.393  -1.336   0.023  1.00  0.00     0.150 C 
HETATM   38  C21 UNL     1       9.587  -2.062  -0.584  1.00  0.00     0.252 C 
HETATM   39  N6  UNL     1      10.803  -1.302  -0.501  1.00  0.00    -0.072 N 
HETATM   40  C22 UNL     1      10.573   0.118  -0.376  1.00  0.00     0.252 C 
ATOM     41  H62 UNL     1      11.395  -1.643   0.257  1.00  0.00     0.277 HD
ATOM     42  H61 UNL     1      11.413  -1.504  -1.293  1.00  0.00     0.277 HD
HETATM   43  C23 UNL     1       9.364   0.598  -1.146  1.00  0.00     0.150 C 
ENDBRANCH  34  36
ENDBRANCH  28  30
ENDBRANCH  25  26
ENDBRANCH  23  25
ENDBRANCH   1  23
TORSDOF 16
