REMARK  19 active torsions:
REMARK  status: ('A' for Active; 'I' for Inactive)
REMARK    1  A    between atoms: C4_4  and  C5_5 
REMARK    2  A    between atoms: C5_5  and  C6_6 
REMARK    3  A    between atoms: C6_6  and  N1_7 
REMARK    4  A    between atoms: N1_7  and  C7_9 
REMARK    5  A    between atoms: C7_9  and  C8_10 
REMARK    6  A    between atoms: C8_10  and  C9_11 
REMARK    7  A    between atoms: C9_11  and  C10_12 
REMARK    8  A    between atoms: C10_12  and  N2_13 
REMARK    9  A    between atoms: N2_13  and  C11_15 
REMARK   10  A    between atoms: C11_15  and  O1_16 
REMARK   11  A    between atoms: N3_18  and  C12_20 
REMARK   12  A    between atoms: C19_28  and  O3_29 
REMARK   13  A    between atoms: O3_29  and  C20_30 
REMARK   14  A    between atoms: C20_30  and  C21_31 
REMARK       I    between atoms: C21_31  and  N4_33 
REMARK   15  A    between atoms: N4_33  and  C22_34 
REMARK   16  A    between atoms: C25_37  and  C26_38 
REMARK   17  A    between atoms: C26_38  and  C27_39 
REMARK   18  A    between atoms: C30_50  and  C31_51 
REMARK   19  A    between atoms: C31_51  and  C32_52 
ROOT
HETATM    1  C1  UNL     1       0.848  -0.244  -1.800  1.00  0.00     0.018 C 
HETATM    2  C2  UNL     1       0.326  -0.642  -0.808  1.00  0.00    -0.077 C 
HETATM    3  C3  UNL     1      -0.373  -1.080   0.451  1.00  0.00     0.032 A 
HETATM    4  C4  UNL     1       0.488  -1.090   1.514  1.00  0.00    -0.034 A 
HETATM    5  C17 UNL     1      -0.080  -1.216   2.741  1.00  0.00     0.012 A 
HETATM    6  C18 UNL     1      -1.490  -1.340   2.855  1.00  0.00     0.038 A 
HETATM    7  C19 UNL     1      -2.320  -1.339   1.798  1.00  0.00     0.077 A 
HETATM    8  C30 UNL     1      -1.659  -1.184   0.421  1.00  0.00    -0.005 A 
ENDROOT
BRANCH   4   9
HETATM    9  C5  UNL     1       1.971  -1.267   1.292  1.00  0.00     0.084 C 
BRANCH   9  10
HETATM   10  C6  UNL     1       2.014  -2.751   0.847  1.00  0.00     0.060 C 
BRANCH  10  11
HETATM   11  N1  UNL     1       3.252  -3.278   0.601  1.00  0.00    -0.402 N 
ATOM     12  H1  UNL     1       3.645  -3.969   1.240  1.00  0.00     0.158 HD
BRANCH  11  13
HETATM   13  C7  UNL     1       4.016  -2.857  -0.572  1.00  0.00     0.118 C 
BRANCH  13  14
HETATM   14  C8  UNL     1       5.285  -3.603  -0.751  1.00  0.00     0.021 C 
BRANCH  14  15
HETATM   15  C9  UNL     1       6.201  -3.578   0.503  1.00  0.00     0.021 C 
BRANCH  15  16
HETATM   16  C10 UNL     1       6.768  -2.260   0.628  1.00  0.00     0.123 C 
BRANCH  16  17
HETATM   17  N2  UNL     1       5.974  -1.088   0.781  1.00  0.00    -0.357 N 
ATOM     18  H2  UNL     1       4.989  -1.118   1.042  1.00  0.00     0.163 HD
BRANCH  17  19
HETATM   19  C11 UNL     1       6.687   0.155   0.533  1.00  0.00     0.212 C 
HETATM   20  N3  UNL     1       6.478   1.446   0.486  1.00  0.00    -0.352 N 
ATOM     21  H3  UNL     1       5.613   1.757   0.928  1.00  0.00     0.163 HD
BRANCH  19  22
HETATM   22  O1  UNL     1       7.977  -0.217   0.214  1.00  0.00    -0.333 OA
ATOM     23  H1  UNL     1       8.443   0.595   0.052  1.00  0.00     0.220 HD
ENDBRANCH  19  22
BRANCH  20  24
HETATM   24  C12 UNL     1       7.293   2.520  -0.104  1.00  0.00     0.089 C 
HETATM   25  C13 UNL     1       8.739   2.153  -0.192  1.00  0.00     0.051 C 
HETATM   26  C14 UNL     1       9.471   3.112  -1.171  1.00  0.00     0.169 C 
HETATM   27  O2  UNL     1       8.986   3.030  -2.444  1.00  0.00    -0.391 OA
HETATM   28  C15 UNL     1       7.787   2.370  -2.530  1.00  0.00     0.169 C 
HETATM   29  C16 UNL     1       6.765   2.823  -1.539  1.00  0.00     0.051 C 
ENDBRANCH  20  24
ENDBRANCH  17  19
ENDBRANCH  16  17
ENDBRANCH  15  16
ENDBRANCH  14  15
ENDBRANCH  13  14
ENDBRANCH  11  13
ENDBRANCH  10  11
ENDBRANCH   9  10
ENDBRANCH   4   9
BRANCH   8  30
HETATM   30  C31 UNL     1      -2.604  -1.017  -0.646  1.00  0.00     0.042 C 
BRANCH  30  31
HETATM   31  C32 UNL     1      -2.453  -2.001  -1.799  1.00  0.00     0.000 C 
HETATM   32  C33 UNL     1      -2.577  -3.428  -1.317  1.00  0.00     0.005 C 
ENDBRANCH  30  31
ENDBRANCH   8  30
BRANCH   7  33
HETATM   33  O3  UNL     1      -3.613  -1.462   1.724  1.00  0.00    -0.340 OA
BRANCH  33  34
HETATM   34  C20 UNL     1      -4.823  -1.567   2.219  1.00  0.00     0.294 C 
BRANCH  34  35
HETATM   35  C21 UNL     1      -5.151  -0.082   2.754  1.00  0.00     0.316 C 
HETATM   36  O4  UNL     1      -4.540   0.432   3.654  1.00  0.00    -0.255 OA
HETATM   37  N4  UNL     1      -6.250   0.405   1.980  1.00  0.00    -0.369 NA
BRANCH  37  38
HETATM   38  C22 UNL     1      -7.236   0.934   1.349  1.00  0.00     0.111 A 
HETATM   39  C23 UNL     1      -7.090   1.513   0.069  1.00  0.00     0.045 A 
HETATM   40  C24 UNL     1      -8.151   1.963  -0.571  1.00  0.00     0.011 A 
HETATM   41  C25 UNL     1      -9.447   1.905  -0.039  1.00  0.00    -0.051 A 
HETATM   42  C28 UNL     1      -9.657   1.353   1.189  1.00  0.00     0.011 A 
HETATM   43  C29 UNL     1      -8.514   0.847   1.908  1.00  0.00     0.045 A 
BRANCH  41  44
HETATM   44  C26 UNL     1     -10.588   2.521  -0.831  1.00  0.00     0.118 C 
BRANCH  44  45
HETATM   45  C27 UNL     1     -10.152   3.954  -0.964  1.00  0.00     0.117 A 
HETATM   46  N5  UNL     1      -9.847   4.607  -2.128  1.00  0.00    -0.272 N 
HETATM   47  N6  UNL     1      -9.499   5.868  -1.841  1.00  0.00    -0.227 N 
ATOM     48  H5  UNL     1      -9.880   4.199  -3.062  1.00  0.00     0.190 HD
HETATM   49  N7  UNL     1      -9.593   5.977  -0.535  1.00  0.00    -0.227 N 
ATOM     50  H6  UNL     1      -9.219   6.594  -2.500  1.00  0.00     0.210 HD
HETATM   51  N8  UNL     1      -9.985   4.838   0.025  1.00  0.00    -0.272 N 
ATOM     52  H7  UNL     1      -9.390   6.831  -0.015  1.00  0.00     0.210 HD
ATOM     53  H8  UNL     1     -10.131   4.670   1.020  1.00  0.00     0.190 HD
ENDBRANCH  44  45
ENDBRANCH  41  44
ENDBRANCH  37  38
ENDBRANCH  34  35
ENDBRANCH  33  34
ENDBRANCH   7  33
TORSDOF 19
