REMARK  17 active torsions:
REMARK  status: ('A' for Active; 'I' for Inactive)
REMARK    1  A    between atoms: C1_2  and  C2_4 
REMARK    2  A    between atoms: C2_4  and  N1_5 
REMARK    3  A    between atoms: N1_5  and  C3_6 
REMARK       I    between atoms: N1_5  and  C27_42 
REMARK    4  A    between atoms: C3_6  and  C4_7 
REMARK    5  A    between atoms: C4_7  and  C5_8 
REMARK    6  A    between atoms: C5_8  and  N2_9 
REMARK    7  A    between atoms: N2_9  and  C6_12 
REMARK    8  A    between atoms: C6_12  and  C7_13 
REMARK    9  A    between atoms: C7_13  and  C8_14 
REMARK   10  A    between atoms: C8_14  and  C9_15 
REMARK   11  A    between atoms: C9_15  and  N3_16 
REMARK   12  A    between atoms: N3_16  and  C10_18 
REMARK   13  A    between atoms: C13_21  and  S1_22 
REMARK   14  A    between atoms: S1_22  and  N4_25 
REMARK   15  A    between atoms: N4_25  and  C14_27 
REMARK   16  A    between atoms: C17_30  and  C18_31 
REMARK   17  A    between atoms: C27_42  and  C28_44 
ROOT
HETATM    1  C10 UNL     1       1.552  -0.115   0.910  1.00  0.00     0.028 A 
HETATM    2  C11 UNL     1       1.858  -0.623   2.182  1.00  0.00     0.030 A 
HETATM    3  C12 UNL     1       2.806  -1.611   2.298  1.00  0.00     0.027 A 
HETATM    4  C13 UNL     1       3.477  -2.133   1.211  1.00  0.00     0.080 A 
HETATM    5  C25 UNL     1       3.188  -1.646  -0.035  1.00  0.00     0.027 A 
HETATM    6  C26 UNL     1       2.232  -0.646  -0.172  1.00  0.00     0.030 A 
ENDROOT
BRANCH   1   7
HETATM    7  N3  UNL     1       0.593   0.913   0.767  1.00  0.00    -0.390 N 
ATOM      8  H3  UNL     1       0.279   1.418   1.595  1.00  0.00     0.159 HD
BRANCH   7   9
HETATM    9  C9  UNL     1       0.048   1.265  -0.517  1.00  0.00     0.120 C 
BRANCH   9  10
HETATM   10  C8  UNL     1      -0.807   0.124  -1.053  1.00  0.00     0.021 C 
BRANCH  10  11
HETATM   11  C7  UNL     1      -1.958  -0.154  -0.079  1.00  0.00     0.029 C 
BRANCH  11  12
HETATM   12  C6  UNL     1      -2.765  -1.283  -0.659  1.00  0.00     0.232 C 
BRANCH  12  13
HETATM   13  N2  UNL     1      -3.880  -1.648   0.170  1.00  0.00    -0.075 N 
ATOM     14  H22 UNL     1      -3.563  -1.907   1.104  1.00  0.00     0.277 HD
ATOM     15  H21 UNL     1      -4.274  -2.539  -0.131  1.00  0.00     0.277 HD
BRANCH  13  16
HETATM   16  C5  UNL     1      -4.916  -0.631   0.246  1.00  0.00     0.234 C 
BRANCH  16  17
HETATM   17  C4  UNL     1      -5.605  -0.489  -1.063  1.00  0.00     0.047 C 
BRANCH  17  18
HETATM   18  C3  UNL     1      -6.687   0.547  -1.105  1.00  0.00     0.128 C 
BRANCH  18  19
HETATM   19  N1  UNL     1      -7.772   0.320  -0.156  1.00  0.00    -0.340 N 
HETATM   20  C27 UNL     1      -8.837  -0.497  -0.570  1.00  0.00     0.249 C 
HETATM   21  O5  UNL     1      -8.745  -0.992  -1.760  1.00  0.00    -0.270 OA
BRANCH  19  22
HETATM   22  C2  UNL     1      -7.640   0.992   1.115  1.00  0.00     0.238 C 
BRANCH  22  23
HETATM   23  C1  UNL     1      -8.159   2.389   1.104  1.00  0.00     0.191 C 
HETATM   24  O1  UNL     1      -8.630   2.920   0.093  1.00  0.00    -0.647 OA
HETATM   25  O2  UNL     1      -8.094   3.083   2.290  1.00  0.00    -0.647 OA
ENDBRANCH  22  23
ENDBRANCH  19  22
BRANCH  20  26
HETATM   26  C28 UNL     1     -10.039  -0.871   0.171  1.00  0.00     0.213 C 
HETATM   27  C29 UNL     1     -11.109   0.169   0.276  1.00  0.00     0.043 C 
HETATM   28  C30 UNL     1     -11.689   0.159  -1.124  1.00  0.00     0.029 C 
HETATM   29  C31 UNL     1     -11.452  -1.269  -1.528  1.00  0.00     0.168 C 
HETATM   30  O6  UNL     1     -10.756  -1.888  -0.511  1.00  0.00    -0.376 OA
ENDBRANCH  20  26
ENDBRANCH  18  19
ENDBRANCH  17  18
ENDBRANCH  16  17
ENDBRANCH  13  16
ENDBRANCH  12  13
ENDBRANCH  11  12
ENDBRANCH  10  11
ENDBRANCH   9  10
ENDBRANCH   7   9
ENDBRANCH   1   7
BRANCH   4  31
HETATM   31  S1  UNL     1       4.642  -3.397   1.500  1.00  0.00     0.263 S 
HETATM   32  O3  UNL     1       4.107  -4.230   2.643  1.00  0.00    -0.200 OA
HETATM   33  O4  UNL     1       4.743  -4.336   0.330  1.00  0.00    -0.200 OA
BRANCH  31  34
HETATM   34  N4  UNL     1       6.132  -2.703   1.921  1.00  0.00    -0.281 N 
ATOM     35  H4  UNL     1       6.510  -2.920   2.843  1.00  0.00     0.179 HD
BRANCH  34  36
HETATM   36  C14 UNL     1       6.890  -1.845   1.088  1.00  0.00     0.042 A 
HETATM   37  C15 UNL     1       7.131  -2.067  -0.243  1.00  0.00     0.030 A 
HETATM   38  C16 UNL     1       7.888  -1.195  -1.001  1.00  0.00     0.010 A 
HETATM   39  C17 UNL     1       8.445  -0.050  -0.460  1.00  0.00    -0.054 A 
HETATM   40  C23 UNL     1       8.200   0.176   0.887  1.00  0.00     0.010 A 
HETATM   41  C24 UNL     1       7.442  -0.698   1.644  1.00  0.00     0.030 A 
BRANCH  39  42
HETATM   42  C18 UNL     1       9.268   0.898  -1.264  1.00  0.00     0.021 C 
HETATM   43  C19 UNL     1       8.756   2.292  -1.285  1.00  0.00     0.028 C 
HETATM   44  C20 UNL     1       9.807   3.332  -0.993  1.00  0.00     0.114 C 
HETATM   45  N5  UNL     1      10.610   3.020   0.147  1.00  0.00    -0.421 N 
HETATM   46  C21 UNL     1      11.195   1.722   0.155  1.00  0.00     0.114 C 
ATOM     47  H5  UNL     1      10.755   3.685   0.907  1.00  0.00     0.153 HD
HETATM   48  C22 UNL     1      10.729   0.788  -0.915  1.00  0.00     0.028 C 
ENDBRANCH  39  42
ENDBRANCH  34  36
ENDBRANCH  31  34
ENDBRANCH   4  31
TORSDOF 17
