REMARK  19 active torsions:
REMARK  status: ('A' for Active; 'I' for Inactive)
REMARK    1  A    between atoms: O1_2  and  C2_3 
REMARK    2  A    between atoms: C6_7  and  O2_8 
REMARK    3  A    between atoms: O2_8  and  C7_9 
REMARK    4  A    between atoms: C7_9  and  C8_10 
REMARK    5  A    between atoms: C8_10  and  O3_11 
REMARK    6  A    between atoms: C8_10  and  C9_13 
REMARK    7  A    between atoms: C9_13  and  N1_14 
REMARK    8  A    between atoms: N1_14  and  C10_17 
REMARK    9  A    between atoms: C10_17  and  C11_18 
REMARK   10  A    between atoms: C11_18  and  N2_19 
REMARK   11  A    between atoms: N2_19  and  C13_21 
REMARK   12  A    between atoms: C13_21  and  C14_22 
REMARK   13  A    between atoms: C14_22  and  C15_23 
REMARK   14  A    between atoms: C15_23  and  C16_24 
REMARK   15  A    between atoms: C23_35  and  N5_36 
REMARK   16  A    between atoms: N5_36  and  C24_38 
REMARK   17  A    between atoms: C24_38  and  C25_39 
REMARK   18  A    between atoms: C25_39  and  N6_40 
REMARK   19  A    between atoms: C28_48  and  C29_49 
ROOT
HETATM    1  C13 UNL     1      -1.786   2.553   2.013  1.00  0.00     0.272 C 
ENDROOT
BRANCH   1   2
HETATM    2  N2  UNL     1      -0.818   1.874   2.859  1.00  0.00     0.085 N 
HETATM    3  C12 UNL     1      -1.341   2.045   4.222  1.00  0.00     0.309 C 
BRANCH   2   4
HETATM    4  C11 UNL     1      -0.624   0.487   2.556  1.00  0.00     0.299 C 
BRANCH   4   5
HETATM    5  C10 UNL     1       0.081   0.369   1.241  1.00  0.00     0.262 C 
BRANCH   5   6
HETATM    6  N1  UNL     1       0.365  -0.979   0.813  1.00  0.00    -0.071 N 
ATOM      7  H12 UNL     1       0.670  -0.992  -0.160  1.00  0.00     0.277 HD
ATOM      8  H11 UNL     1      -0.496  -1.520   0.728  1.00  0.00     0.277 HD
BRANCH   6   9
HETATM    9  C9  UNL     1       1.307  -1.656   1.647  1.00  0.00     0.266 C 
BRANCH   9  10
HETATM   10  C8  UNL     1       2.689  -1.116   1.650  1.00  0.00     0.168 C 
BRANCH  10  11
HETATM   11  C7  UNL     1       3.319  -0.921   0.280  1.00  0.00     0.209 C 
BRANCH  11  12
HETATM   12  O2  UNL     1       4.532  -0.291   0.497  1.00  0.00    -0.347 OA
BRANCH  12  13
HETATM   13  C6  UNL     1       5.538   0.140  -0.282  1.00  0.00     0.082 A 
HETATM   14  C4  UNL     1       5.396   1.407  -0.864  1.00  0.00    -0.025 A 
HETATM   15  C3  UNL     1       6.351   1.950  -1.662  1.00  0.00     0.046 A 
HETATM   16  C5  UNL     1       4.150   2.204  -0.606  1.00  0.00     0.051 C 
HETATM   17  C2  UNL     1       7.489   1.254  -1.914  1.00  0.00     0.069 A 
HETATM   18  C33 UNL     1       7.645   0.022  -1.359  1.00  0.00     0.047 A 
HETATM   19  C28 UNL     1       6.690  -0.560  -0.541  1.00  0.00    -0.014 A 
BRANCH  17  20
HETATM   20  O1  UNL     1       8.513   1.767  -2.733  1.00  0.00    -0.356 OA
HETATM   21  C1  UNL     1       9.665   1.008  -2.958  1.00  0.00     0.210 C 
ENDBRANCH  17  20
BRANCH  19  22
HETATM   22  C29 UNL     1       6.958  -1.906   0.030  1.00  0.00    -0.021 C 
HETATM   23  C30 UNL     1       8.355  -2.347  -0.444  1.00  0.00     0.019 C 
HETATM   24  C31 UNL     1       6.995  -1.915   1.539  1.00  0.00     0.019 C 
HETATM   25  C32 UNL     1       6.029  -2.969  -0.538  1.00  0.00     0.019 C 
ENDBRANCH  19  22
ENDBRANCH  12  13
ENDBRANCH  11  12
ENDBRANCH  10  11
BRANCH  10  26
HETATM   26  O3  UNL     1       3.469  -1.900   2.494  1.00  0.00    -0.392 OA
ATOM     27  H3  UNL     1       3.075  -2.022   3.350  1.00  0.00     0.210 HD
ENDBRANCH  10  26
ENDBRANCH   9  10
ENDBRANCH   6   9
ENDBRANCH   5   6
ENDBRANCH   4   5
ENDBRANCH   2   4
ENDBRANCH   1   2
BRANCH   1  28
HETATM   28  C14 UNL     1      -3.159   2.084   2.355  1.00  0.00     0.036 C 
BRANCH  28  29
HETATM   29  C15 UNL     1      -4.196   2.778   1.518  1.00  0.00     0.060 C 
BRANCH  29  30
HETATM   30  C16 UNL     1      -4.010   2.461   0.104  1.00  0.00     0.025 A 
HETATM   31  C17 UNL     1      -3.257   3.215  -0.749  1.00  0.00     0.114 A 
HETATM   32  N3  UNL     1      -3.145   2.830  -2.051  1.00  0.00    -0.348 N 
HETATM   33  C18 UNL     1      -3.778   1.705  -2.497  1.00  0.00     0.135 A 
ATOM     34  H3  UNL     1      -2.585   3.386  -2.697  1.00  0.00     0.167 HD
HETATM   35  N4  UNL     1      -3.676   1.309  -3.769  1.00  0.00    -0.344 N 
HETATM   36  C27 UNL     1      -4.540   0.941  -1.635  1.00  0.00     0.104 A 
HETATM   37  C19 UNL     1      -4.285   0.191  -4.256  1.00  0.00     0.015 A 
ATOM     38  H4  UNL     1      -3.114   1.872  -4.408  1.00  0.00     0.167 HD
HETATM   39  C20 UNL     1      -4.146  -0.219  -5.686  1.00  0.00     0.069 C 
HETATM   40  C21 UNL     1      -5.052  -0.593  -3.425  1.00  0.00    -0.011 A 
HETATM   41  C22 UNL     1      -5.751  -1.825  -3.856  1.00  0.00     0.052 C 
HETATM   42  C23 UNL     1      -5.177  -0.204  -2.087  1.00  0.00     0.067 A 
HETATM   43  N9  UNL     1      -4.615   1.363  -0.375  1.00  0.00    -0.354 N 
ATOM     44  H9  UNL     1      -5.174   0.811   0.275  1.00  0.00     0.166 HD
BRANCH  42  45
HETATM   45  N5  UNL     1      -5.890  -0.936  -1.316  1.00  0.00    -0.386 N 
ATOM     46  H5  UNL     1      -6.313  -1.756  -1.752  1.00  0.00     0.159 HD
BRANCH  45  47
HETATM   47  C24 UNL     1      -6.171  -0.761   0.061  1.00  0.00     0.139 C 
BRANCH  47  48
HETATM   48  C25 UNL     1      -7.090  -1.865   0.624  1.00  0.00     0.141 C 
BRANCH  48  49
HETATM   49  N6  UNL     1      -7.321  -1.624   2.029  1.00  0.00    -0.365 N 
HETATM   50  C26 UNL     1      -8.365  -1.112   2.538  1.00  0.00     0.197 C 
HETATM   51  N7  UNL     1      -9.447  -0.713   1.737  1.00  0.00    -0.067 NA
HETATM   52  N8  UNL     1      -8.407  -0.941   3.941  1.00  0.00    -0.067 NA
ATOM     53  H6  UNL     1      -6.576  -1.890   2.672  1.00  0.00     0.161 HD
ENDBRANCH  48  49
ENDBRANCH  47  48
ENDBRANCH  45  47
ENDBRANCH  42  45
ENDBRANCH  29  30
ENDBRANCH  28  29
ENDBRANCH   1  28
TORSDOF 19
