REMARK  18 active torsions:
REMARK  status: ('A' for Active; 'I' for Inactive)
REMARK    1  A    between atoms: N1_2  and  C3_4 
REMARK    2  A    between atoms: N2_12  and  C10_13 
REMARK    3  A    between atoms: C10_13  and  C11_14 
REMARK    4  A    between atoms: C11_14  and  C12_15 
REMARK    5  A    between atoms: C17_23  and  C18_24 
REMARK    6  A    between atoms: C18_24  and  C19_25 
REMARK    7  A    between atoms: C19_25  and  C20_26 
REMARK       I    between atoms: C20_26  and  N4_28 
REMARK    8  A    between atoms: N4_28  and  C21_30 
REMARK    9  A    between atoms: C21_30  and  C22_31 
REMARK   10  A    between atoms: C22_31  and  C23_32 
REMARK   11  A    between atoms: C23_32  and  C24_33 
REMARK   12  A    between atoms: C24_33  and  C25_34 
REMARK   13  A    between atoms: C25_34  and  C26_35 
REMARK   14  A    between atoms: C26_35  and  N5_36 
REMARK       I    between atoms: N5_36  and  C27_38 
REMARK   15  A    between atoms: C27_38  and  C28_40 
REMARK   16  A    between atoms: C28_40  and  C29_41 
REMARK   17  A    between atoms: C32_44  and  C33_45 
REMARK   18  A    between atoms: C33_45  and  O4_46 
ROOT
HETATM    1  C3  UNL     1      -4.059  -4.310  -0.826  1.00  0.00     0.030 A 
HETATM    2  C4  UNL     1      -2.873  -4.222  -1.568  1.00  0.00     0.031 A 
HETATM    3  C5  UNL     1      -2.307  -2.992  -1.828  1.00  0.00     0.032 A 
HETATM    4  C6  UNL     1      -2.913  -1.840  -1.355  1.00  0.00     0.045 A 
HETATM    5  C7  UNL     1      -4.085  -1.900  -0.620  1.00  0.00     0.060 A 
HETATM    6  C8  UNL     1      -4.627  -3.141  -0.375  1.00  0.00     0.048 A 
HETATM    7  C9  UNL     1      -4.657  -0.645  -0.174  1.00  0.00     0.257 C 
HETATM    8  O1  UNL     1      -5.738  -0.663   0.507  1.00  0.00    -0.267 OA
HETATM    9  N2  UNL     1      -4.070   0.619  -0.462  1.00  0.00    -0.327 N 
HETATM   10  C17 UNL     1      -2.787   0.692  -1.078  1.00  0.00     0.187 C 
HETATM   11  N6  UNL     1      -2.342  -0.595  -1.619  1.00  0.00    -0.368 N 
ATOM     12  H6  UNL     1      -1.539  -0.579  -2.248  1.00  0.00     0.161 HD
ENDROOT
BRANCH  10  13
HETATM   13  C18 UNL     1      -1.667   1.233  -0.280  1.00  0.00     0.056 C 
BRANCH  13  14
HETATM   14  C19 UNL     1      -1.288   0.512   0.962  1.00  0.00     0.106 C 
BRANCH  14  15
HETATM   15  C20 UNL     1      -0.135   1.289   1.558  1.00  0.00     0.217 C 
HETATM   16  O2  UNL     1       0.202   2.404   1.066  1.00  0.00    -0.274 OA
HETATM   17  N4  UNL     1       0.564   0.767   2.665  1.00  0.00    -0.361 N 
ATOM     18  H4  UNL     1       0.286  -0.134   3.055  1.00  0.00     0.162 HD
BRANCH  17  19
HETATM   19  C21 UNL     1       1.652   1.478   3.248  1.00  0.00     0.122 C 
BRANCH  19  20
HETATM   20  C22 UNL     1       2.810   1.761   2.316  1.00  0.00     0.020 C 
BRANCH  20  21
HETATM   21  C23 UNL     1       3.386   0.497   1.771  1.00  0.00     0.002 C 
BRANCH  21  22
HETATM   22  C24 UNL     1       4.563   0.733   0.816  1.00  0.00     0.005 C 
BRANCH  22  23
HETATM   23  C25 UNL     1       4.184   1.532  -0.354  1.00  0.00     0.044 C 
BRANCH  23  24
HETATM   24  C26 UNL     1       5.207   1.896  -1.347  1.00  0.00     0.064 C 
BRANCH  24  25
HETATM   25  N5  UNL     1       5.968   0.964  -2.052  1.00  0.00    -0.341 N 
HETATM   26  C27 UNL     1       6.952   0.085  -1.589  1.00  0.00     0.227 C 
HETATM   27  O3  UNL     1       7.305   0.032  -0.405  1.00  0.00    -0.273 OA
ATOM     28  H5  UNL     1       5.779   0.916  -3.053  1.00  0.00     0.167 HD
BRANCH  26  29
HETATM   29  C28 UNL     1       7.661  -0.870  -2.513  1.00  0.00     0.168 C 
BRANCH  29  30
HETATM   30  C29 UNL     1       8.678  -1.652  -1.779  1.00  0.00     0.062 A 
HETATM   31  C30 UNL     1       9.962  -1.192  -1.497  1.00  0.00     0.036 A 
HETATM   32  C31 UNL     1      10.585  -2.210  -0.808  1.00  0.00     0.037 A 
HETATM   33  C32 UNL     1       9.696  -3.226  -0.694  1.00  0.00     0.076 A 
HETATM   34  O5  UNL     1       8.588  -2.872  -1.270  1.00  0.00    -0.317 OA
BRANCH  33  35
HETATM   35  C33 UNL     1       9.977  -4.537  -0.005  1.00  0.00     0.229 C 
BRANCH  35  36
HETATM   36  O4  UNL     1       8.866  -5.356  -0.105  1.00  0.00    -0.394 OA
ATOM     37  H4  UNL     1       9.043  -6.182   0.329  1.00  0.00     0.209 HD
ENDBRANCH  35  36
ENDBRANCH  33  35
ENDBRANCH  29  30
ENDBRANCH  26  29
ENDBRANCH  24  25
ENDBRANCH  23  24
ENDBRANCH  22  23
ENDBRANCH  21  22
ENDBRANCH  20  21
ENDBRANCH  19  20
ENDBRANCH  17  19
ENDBRANCH  14  15
ENDBRANCH  13  14
ENDBRANCH  10  13
BRANCH   9  38
HETATM   38  C10 UNL     1      -4.774   1.848  -0.179  1.00  0.00     0.129 C 
BRANCH  38  39
HETATM   39  C11 UNL     1      -4.571   2.408   1.184  1.00  0.00     0.024 C 
BRANCH  39  40
HETATM   40  C12 UNL     1      -5.337   3.716   1.374  1.00  0.00    -0.010 C 
HETATM   41  C13 UNL     1      -4.872   4.761   0.384  1.00  0.00     0.032 C 
HETATM   42  C14 UNL     1      -5.577   6.053   0.721  1.00  0.00     0.232 C 
HETATM   43  N3  UNL     1      -7.009   5.843   0.595  1.00  0.00    -0.075 N 
HETATM   44  C15 UNL     1      -7.474   4.875   1.567  1.00  0.00     0.232 C 
ATOM     45  H32 UNL     1      -7.526   6.720   0.658  1.00  0.00     0.277 HD
ATOM     46  H31 UNL     1      -7.270   5.579  -0.355  1.00  0.00     0.277 HD
HETATM   47  C16 UNL     1      -6.829   3.521   1.284  1.00  0.00     0.032 C 
ENDBRANCH  39  40
ENDBRANCH  38  39
ENDBRANCH   9  38
BRANCH   1  48
HETATM   48  N1  UNL     1      -4.585  -5.596  -0.603  1.00  0.00    -0.390 N 
HETATM   49  C1  UNL     1      -4.240  -6.312   0.593  1.00  0.00     0.149 C 
HETATM   50  C2  UNL     1      -5.462  -6.196  -1.569  1.00  0.00     0.149 C 
ENDBRANCH   1  48
TORSDOF 18
