REMARK  18 active torsions:
REMARK  status: ('A' for Active; 'I' for Inactive)
REMARK    1  A    between atoms: C2_2  and  C3_3 
REMARK    2  A    between atoms: C3_3  and  C4_4 
REMARK    3  A    between atoms: C4_4  and  C5_5 
REMARK    4  A    between atoms: C11_15  and  C12_16 
REMARK    5  A    between atoms: C12_16  and  C13_17 
REMARK    6  A    between atoms: C13_17  and  S1_18 
REMARK    7  A    between atoms: C16_24  and  C17_25 
REMARK    8  A    between atoms: C17_25  and  C18_26 
REMARK    9  A    between atoms: C18_26  and  C19_27 
REMARK   10  A    between atoms: C19_27  and  C20_28 
REMARK   11  A    between atoms: C20_28  and  C21_29 
REMARK   12  A    between atoms: C21_29  and  C22_30 
REMARK   13  A    between atoms: C22_30  and  O3_31 
REMARK   14  A    between atoms: C22_30  and  C23_33 
REMARK   15  A    between atoms: C23_33  and  C24_34 
REMARK   16  A    between atoms: C23_33  and  C28_38 
REMARK   17  A    between atoms: C24_34  and  C25_35 
REMARK   18  A    between atoms: C25_35  and  C26_36 
ROOT
HETATM    1  C5  UNL     1      -5.538  -3.002  -1.291  1.00  0.00    -0.054 C 
HETATM    2  C6  UNL     1      -4.741  -3.462  -2.445  1.00  0.00     0.046 C 
HETATM    3  C7  UNL     1      -5.184  -1.887  -0.683  1.00  0.00     0.053 C 
HETATM    4  C8  UNL     1      -5.958  -1.421   0.464  1.00  0.00     0.085 C 
HETATM    5  C9  UNL     1      -5.434  -0.214   1.144  1.00  0.00     0.137 C 
HETATM    6  N1  UNL     1      -4.358   0.481   0.485  1.00  0.00    -0.298 N 
HETATM    7  C10 UNL     1      -4.300   1.897   0.562  1.00  0.00     0.321 C 
HETATM    8  O1  UNL     1      -5.423   2.510   0.480  1.00  0.00    -0.247 OA
HETATM    9  N2  UNL     1      -3.145   2.670   0.716  1.00  0.00    -0.330 N 
ATOM     10  H2  UNL     1      -3.047   3.495   0.125  1.00  0.00     0.165 HD
HETATM   11  C11 UNL     1      -2.060   2.381   1.668  1.00  0.00     0.179 C 
HETATM   12  C15 UNL     1      -0.857   2.165   0.861  1.00  0.00     0.242 C 
HETATM   13  O2  UNL     1      -0.648   3.079  -0.021  1.00  0.00    -0.271 OA
HETATM   14  N3  UNL     1       0.071   1.126   0.918  1.00  0.00    -0.338 N 
ATOM     15  H3  UNL     1       1.042   1.415   1.041  1.00  0.00     0.164 HD
HETATM   16  C16 UNL     1      -0.142  -0.295   0.829  1.00  0.00     0.186 C 
HETATM   17  N4  UNL     1      -1.378  -0.774   1.358  1.00  0.00    -0.336 N 
ATOM     18  H4  UNL     1      -1.404  -0.867   2.373  1.00  0.00     0.164 HD
HETATM   19  C29 UNL     1      -2.559  -1.136   0.701  1.00  0.00     0.269 C 
HETATM   20  O6  UNL     1      -3.029  -2.311   0.916  1.00  0.00    -0.269 OA
HETATM   21  C30 UNL     1      -3.357  -0.304  -0.236  1.00  0.00     0.326 C 
HETATM   22  O7  UNL     1      -4.085  -1.141  -1.113  1.00  0.00    -0.321 OA
ENDROOT
BRANCH  16  23
HETATM   23  C17 UNL     1       0.147  -0.806  -0.581  1.00  0.00     0.047 C 
BRANCH  23  24
HETATM   24  C18 UNL     1       1.571  -0.554  -1.016  1.00  0.00     0.004 C 
BRANCH  24  25
HETATM   25  C19 UNL     1       2.581  -1.229  -0.169  1.00  0.00     0.000 C 
BRANCH  25  26
HETATM   26  C20 UNL     1       4.023  -0.990  -0.646  1.00  0.00     0.002 C 
BRANCH  26  27
HETATM   27  C21 UNL     1       4.358   0.455  -0.602  1.00  0.00     0.032 C 
BRANCH  27  28
HETATM   28  C22 UNL     1       5.704   0.903  -0.994  1.00  0.00     0.132 C 
BRANCH  28  29
HETATM   29  O3  UNL     1       5.718   2.313  -0.858  1.00  0.00    -0.395 OA
ATOM     30  H3  UNL     1       6.587   2.602  -1.111  1.00  0.00     0.210 HD
ENDBRANCH  28  29
BRANCH  28  31
HETATM   31  C23 UNL     1       6.877   0.369  -0.249  1.00  0.00     0.115 C 
BRANCH  31  32
HETATM   32  C24 UNL     1       8.170   1.043  -0.798  1.00  0.00     0.018 C 
BRANCH  32  33
HETATM   33  C25 UNL     1       9.315   0.472  -0.024  1.00  0.00     0.001 C 
BRANCH  33  34
HETATM   34  C26 UNL     1      10.645   1.068  -0.458  1.00  0.00    -0.005 C 
HETATM   35  C27 UNL     1      11.726   0.411   0.390  1.00  0.00     0.005 C 
ENDBRANCH  33  34
ENDBRANCH  32  33
ENDBRANCH  31  32
BRANCH  31  36
HETATM   36  C28 UNL     1       7.087  -1.070  -0.639  1.00  0.00     0.179 C 
HETATM   37  O4  UNL     1       6.909  -1.444  -1.821  1.00  0.00    -0.648 OA
HETATM   38  O5  UNL     1       7.480  -1.995   0.291  1.00  0.00    -0.648 OA
ENDBRANCH  31  36
ENDBRANCH  28  31
ENDBRANCH  27  28
ENDBRANCH  26  27
ENDBRANCH  25  26
ENDBRANCH  24  25
ENDBRANCH  23  24
ENDBRANCH  16  23
BRANCH  11  39
HETATM   39  C12 UNL     1      -1.959   3.538   2.642  1.00  0.00     0.045 C 
BRANCH  39  40
HETATM   40  C13 UNL     1      -1.665   4.857   2.017  1.00  0.00     0.076 C 
BRANCH  40  41
HETATM   41  S1  UNL     1      -1.607   6.070   3.398  1.00  0.00    -0.173 SA
HETATM   42  C14 UNL     1      -1.263   7.726   2.782  1.00  0.00     0.089 C 
ENDBRANCH  40  41
ENDBRANCH  39  40
ENDBRANCH  11  39
BRANCH   1  43
HETATM   43  C4  UNL     1      -6.697  -3.775  -0.829  1.00  0.00     0.036 C 
BRANCH  43  44
HETATM   44  C3  UNL     1      -7.763  -3.939  -1.901  1.00  0.00     0.004 C 
BRANCH  44  45
HETATM   45  C2  UNL     1      -8.909  -4.744  -1.327  1.00  0.00    -0.004 C 
HETATM   46  C1  UNL     1      -9.533  -4.071  -0.134  1.00  0.00     0.005 C 
ENDBRANCH  44  45
ENDBRANCH  43  44
ENDBRANCH   1  43
TORSDOF 18
