REMARK  22 active torsions:
REMARK  status: ('A' for Active; 'I' for Inactive)
REMARK    1  A    between atoms: C2_2  and  C3_3 
REMARK    2  A    between atoms: C3_3  and  C4_4 
REMARK    3  A    between atoms: C10_15  and  O2_16 
REMARK    4  A    between atoms: N3_18  and  C11_19 
REMARK    5  A    between atoms: C11_19  and  C12_21 
REMARK    6  A    between atoms: C12_21  and  C13_22 
REMARK    7  A    between atoms: C13_22  and  C14_23 
REMARK    8  A    between atoms: C14_23  and  O3_24 
REMARK    9  A    between atoms: O3_24  and  C15_25 
REMARK   10  A    between atoms: C15_25  and  C16_26 
REMARK   11  A    between atoms: C16_26  and  C17_27 
REMARK   12  A    between atoms: C17_27  and  C18_28 
REMARK   13  A    between atoms: C18_28  and  C19_29 
REMARK   14  A    between atoms: C19_29  and  C20_30 
REMARK   15  A    between atoms: C21_32  and  N4_33 
REMARK       I    between atoms: N4_33  and  C22_35 
REMARK   16  A    between atoms: C22_35  and  C23_37 
REMARK   17  A    between atoms: C23_37  and  C24_38 
REMARK   18  A    between atoms: C24_38  and  C25_39 
REMARK   19  A    between atoms: C25_39  and  C26_40 
REMARK   20  A    between atoms: C26_40  and  C27_41 
REMARK   21  A    between atoms: C27_41  and  C28_42 
REMARK   22  A    between atoms: C28_42  and  N5_43 
ROOT
HETATM    1  C15 UNL     1      -1.668   3.361  -1.484  1.00  0.00     0.167 C 
ENDROOT
BRANCH   1   2
HETATM    2  O3  UNL     1      -2.489   3.588  -2.538  1.00  0.00    -0.391 OA
BRANCH   2   3
HETATM    3  C14 UNL     1      -2.860   2.549  -3.325  1.00  0.00     0.168 C 
BRANCH   3   4
HETATM    4  C13 UNL     1      -3.583   1.415  -2.648  1.00  0.00     0.033 C 
BRANCH   4   5
HETATM    5  C12 UNL     1      -4.856   1.881  -1.973  1.00  0.00     0.071 C 
BRANCH   5   6
HETATM    6  C11 UNL     1      -5.583   0.731  -1.331  1.00  0.00     0.080 C 
HETATM    7  S1  UNL     1      -4.783  -0.699  -1.414  1.00  0.00    -0.065 SA
BRANCH   6   8
HETATM    8  N3  UNL     1      -6.826   0.877  -0.718  1.00  0.00    -0.314 N 
HETATM    9  C2  UNL     1      -7.667  -0.092  -0.064  1.00  0.00     0.118 C 
HETATM   10  C1  UNL     1      -8.996  -0.233  -0.863  1.00  0.00     0.049 C 
HETATM   11  C9  UNL     1      -8.073   0.689   1.128  1.00  0.00     0.249 C 
HETATM   12  O1  UNL     1      -8.177   0.362   2.307  1.00  0.00    -0.271 OA
HETATM   13  N2  UNL     1      -8.337   2.000   0.555  1.00  0.00    -0.316 N 
HETATM   14  C10 UNL     1      -7.531   2.144  -0.637  1.00  0.00     0.333 C 
ATOM     15  H2  UNL     1      -8.980   2.698   0.930  1.00  0.00     0.166 HD
BRANCH   9  16
HETATM   16  C3  UNL     1      -7.089  -1.428   0.184  1.00  0.00     0.079 C 
BRANCH  16  17
HETATM   17  C4  UNL     1      -7.954  -2.361   0.980  1.00  0.00    -0.053 A 
HETATM   18  C5  UNL     1      -8.984  -3.069   0.352  1.00  0.00     0.024 A 
HETATM   19  C6  UNL     1      -9.761  -3.960   1.047  1.00  0.00     0.088 A 
HETATM   20  N1  UNL     1      -9.553  -4.185   2.379  1.00  0.00    -0.375 N 
HETATM   21  C7  UNL     1      -8.571  -3.520   3.012  1.00  0.00     0.088 A 
ATOM     22  H1  UNL     1     -10.136  -4.850   2.887  1.00  0.00     0.164 HD
HETATM   23  C8  UNL     1      -7.772  -2.611   2.318  1.00  0.00     0.024 A 
ENDBRANCH  16  17
ENDBRANCH   9  16
BRANCH  14  24
HETATM   24  O2  UNL     1      -6.672   3.244  -0.519  1.00  0.00    -0.359 OA
ATOM     25  H2  UNL     1      -6.143   3.339  -1.302  1.00  0.00     0.214 HD
ENDBRANCH  14  24
ENDBRANCH   6   8
ENDBRANCH   5   6
ENDBRANCH   4   5
ENDBRANCH   3   4
ENDBRANCH   2   3
ENDBRANCH   1   2
BRANCH   1  26
HETATM   26  C16 UNL     1      -0.336   2.741  -1.821  1.00  0.00     0.026 C 
BRANCH  26  27
HETATM   27  C17 UNL     1       0.517   2.573  -0.586  1.00  0.00     0.002 C 
BRANCH  27  28
HETATM   28  C18 UNL     1      -0.115   1.716   0.475  1.00  0.00     0.005 C 
BRANCH  28  29
HETATM   29  C19 UNL     1       0.880   1.688   1.637  1.00  0.00     0.050 C 
BRANCH  29  30
HETATM   30  C20 UNL     1       2.188   1.075   1.195  1.00  0.00     0.027 A 
HETATM   31  S2  UNL     1       3.652   1.810   0.748  1.00  0.00    -0.055 SA
HETATM   32  C21 UNL     1       4.564   0.365   0.390  1.00  0.00     0.152 A 
HETATM   33  N6  UNL     1       3.670  -0.582   0.643  1.00  0.00    -0.324 N 
HETATM   34  C29 UNL     1       2.474  -0.255   1.046  1.00  0.00     0.131 A 
ATOM     35  H6  UNL     1       3.918  -1.564   0.522  1.00  0.00     0.169 HD
HETATM   36  N7  UNL     1       1.429  -1.234   1.348  1.00  0.00    -0.082 NA
BRANCH  32  37
HETATM   37  N4  UNL     1       5.788   0.341  -0.013  1.00  0.00    -0.307 N 
HETATM   38  C22 UNL     1       6.530  -0.781  -0.300  1.00  0.00     0.223 C 
HETATM   39  O4  UNL     1       6.010  -1.908  -0.469  1.00  0.00    -0.273 OA
ATOM     40  H4  UNL     1       6.252   1.242  -0.131  1.00  0.00     0.171 HD
BRANCH  38  41
HETATM   41  C23 UNL     1       8.047  -0.662  -0.424  1.00  0.00     0.103 C 
BRANCH  41  42
HETATM   42  C24 UNL     1       8.595  -2.045  -0.501  1.00  0.00     0.009 C 
BRANCH  42  43
HETATM   43  C25 UNL     1      10.082  -2.106  -0.636  1.00  0.00     0.001 C 
BRANCH  43  44
HETATM   44  C26 UNL     1      10.826  -1.443   0.502  1.00  0.00     0.002 C 
BRANCH  44  45
HETATM   45  C27 UNL     1      12.296  -1.609   0.205  1.00  0.00     0.027 C 
BRANCH  45  46
HETATM   46  C28 UNL     1      13.187  -0.988   1.259  1.00  0.00     0.229 C 
BRANCH  46  47
HETATM   47  N5  UNL     1      12.986  -1.554   2.566  1.00  0.00    -0.079 N 
ATOM     48  H53 UNL     1      12.005  -1.500   2.840  1.00  0.00     0.274 HD
ATOM     49  H52 UNL     1      13.097  -2.568   2.546  1.00  0.00     0.274 HD
ATOM     50  H51 UNL     1      13.587  -1.135   3.276  1.00  0.00     0.274 HD
ENDBRANCH  46  47
ENDBRANCH  45  46
ENDBRANCH  44  45
ENDBRANCH  43  44
ENDBRANCH  42  43
ENDBRANCH  41  42
ENDBRANCH  38  41
ENDBRANCH  32  37
ENDBRANCH  29  30
ENDBRANCH  28  29
ENDBRANCH  27  28
ENDBRANCH  26  27
ENDBRANCH   1  26
TORSDOF 22
