REMARK  2 active torsions:
REMARK  status: ('A' for Active; 'I' for Inactive)
REMARK    1  A    between atoms: C5_11  and  C6_12 
REMARK    2  A    between atoms: C7_17  and  C8_18 
ROOT
HETATM    1  C6  UNL     1       0.030  -0.419  -0.047  1.00  0.00     0.182 A 
HETATM    2  N3  UNL     1       0.076  -1.747  -0.082  1.00  0.00    -0.277 N 
ATOM      3  H3  UNL     1      -0.720  -2.372  -0.208  1.00  0.00     0.189 HD
HETATM    4  N4  UNL     1       1.329  -2.111   0.074  1.00  0.00    -0.274 N 
ATOM      5  H4  UNL     1       1.665  -3.074   0.088  1.00  0.00     0.189 HD
HETATM    6  C7  UNL     1       2.098  -1.021   0.212  1.00  0.00     0.212 A 
HETATM    7  O3  UNL     1       1.265  -0.017   0.132  1.00  0.00    -0.269 OA
ENDROOT
BRANCH   1   8
HETATM    8  C5  UNL     1      -1.161   0.451  -0.179  1.00  0.00     0.107 A 
HETATM    9  C2  UNL     1      -2.410  -0.058  -0.363  1.00  0.00     0.030 A 
HETATM   10  C1  UNL     1      -2.654  -1.522  -0.442  1.00  0.00     0.069 C 
HETATM   11  N1  UNL     1      -3.426   0.834  -0.472  1.00  0.00    -0.312 N 
HETATM   12  C3  UNL     1      -3.236   2.165  -0.404  1.00  0.00     0.327 A 
ATOM     13  H1  UNL     1      -4.373   0.482  -0.611  1.00  0.00     0.170 HD
HETATM   14  O1  UNL     1      -4.253   2.930  -0.517  1.00  0.00    -0.247 OA
HETATM   15  N2  UNL     1      -2.020   2.678  -0.225  1.00  0.00    -0.275 N 
HETATM   16  C4  UNL     1      -0.990   1.814  -0.114  1.00  0.00     0.265 A 
ATOM     17  H2  UNL     1      -1.873   3.686  -0.174  1.00  0.00     0.173 HD
HETATM   18  O2  UNL     1       0.150   2.326   0.056  1.00  0.00    -0.267 OA
ENDBRANCH   1   8
BRANCH   6  19
HETATM   19  C8  UNL     1       3.544  -1.004   0.407  1.00  0.00     0.191 A 
HETATM   20  N5  UNL     1       4.337  -2.074   0.480  1.00  0.00    -0.265 N 
HETATM   21  N6  UNL     1       5.565  -1.653   0.658  1.00  0.00    -0.226 N 
ATOM     22  H5  UNL     1       4.040  -3.047   0.410  1.00  0.00     0.190 HD
HETATM   23  N7  UNL     1       5.616  -0.336   0.706  1.00  0.00    -0.226 N 
ATOM     24  H6  UNL     1       6.376  -2.265   0.748  1.00  0.00     0.210 HD
HETATM   25  N8  UNL     1       4.356   0.060   0.549  1.00  0.00    -0.265 N 
ATOM     26  H7  UNL     1       6.441   0.250   0.835  1.00  0.00     0.210 HD
ATOM     27  H8  UNL     1       4.049   1.032   0.538  1.00  0.00     0.190 HD
ENDBRANCH   6  19
TORSDOF 2
