REMARK  6 active torsions:
REMARK  status: ('A' for Active; 'I' for Inactive)
REMARK    1  A    between atoms: N1_1  and  C1_5 
REMARK    2  A    between atoms: C1_5  and  O1_6 
REMARK    3  A    between atoms: C1_5  and  C2_8 
REMARK       I    between atoms: C2_8  and  N2_10 
REMARK       I    between atoms: N3_12  and  C3_14 
REMARK    4  A    between atoms: C3_14  and  C4_16 
REMARK    5  A    between atoms: C7_25  and  N6_26 
REMARK    6  A    between atoms: N6_26  and  O6_28 
ROOT
HETATM    1  C2  UNL     1       2.183  -0.698  -0.739  1.00  0.00     0.292 C 
HETATM    2  O2  UNL     1       1.378  -0.311  -1.616  1.00  0.00    -0.267 OA
HETATM    3  N2  UNL     1       1.726  -1.457   0.366  1.00  0.00    -0.263 N 
ATOM      4  H2  UNL     1       2.239  -2.307   0.600  1.00  0.00     0.190 HD
HETATM    5  N3  UNL     1       0.741  -1.163   1.075  1.00  0.00    -0.262 N 
ATOM      6  H3  UNL     1       0.481  -1.768   1.854  1.00  0.00     0.190 HD
HETATM    7  C3  UNL     1      -0.017   0.001   0.808  1.00  0.00     0.289 C 
HETATM    8  O3  UNL     1       0.573   1.102   0.773  1.00  0.00    -0.264 OA
ENDROOT
BRANCH   7   9
HETATM    9  C4  UNL     1      -1.446  -0.118   0.585  1.00  0.00     0.140 A 
HETATM   10  N4  UNL     1      -2.098  -1.293   0.619  1.00  0.00    -0.302 N 
HETATM   11  C5  UNL     1      -3.424  -1.372   0.408  1.00  0.00     0.327 A 
ATOM     12  H4  UNL     1      -1.574  -2.147   0.810  1.00  0.00     0.171 HD
HETATM   13  O4  UNL     1      -3.963  -2.516   0.457  1.00  0.00    -0.247 OA
HETATM   14  N5  UNL     1      -4.136  -0.260   0.155  1.00  0.00    -0.273 N 
HETATM   15  C6  UNL     1      -3.532   0.936   0.111  1.00  0.00     0.280 A 
ATOM     16  H5  UNL     1      -5.141  -0.327  -0.004  1.00  0.00     0.173 HD
HETATM   17  O5  UNL     1      -4.164   2.000  -0.123  1.00  0.00    -0.265 OA
HETATM   18  C7  UNL     1      -2.175   1.048   0.323  1.00  0.00     0.154 A 
BRANCH  18  19
HETATM   19  N6  UNL     1      -1.481   2.285   0.288  1.00  0.00    -0.262 N 
ATOM     20  H6  UNL     1      -0.466   2.263   0.194  1.00  0.00     0.194 HD
BRANCH  19  21
HETATM   21  O6  UNL     1      -2.033   3.384   0.364  1.00  0.00    -0.289 OA
ATOM     22  H6  UNL     1      -1.568   4.212   0.341  1.00  0.00     0.244 HD
ENDBRANCH  19  21
ENDBRANCH  18  19
ENDBRANCH   7   9
BRANCH   1  23
HETATM   23  C1  UNL     1       3.625  -0.360  -0.856  1.00  0.00     0.411 C 
BRANCH  23  24
HETATM   24  N1  UNL     1       3.859   1.055  -0.877  1.00  0.00    -0.044 N 
ATOM     25  H13 UNL     1       3.626   1.508   0.006  1.00  0.00     0.278 HD
ATOM     26  H12 UNL     1       4.851   1.292  -0.893  1.00  0.00     0.278 HD
ATOM     27  H11 UNL     1       3.346   1.443  -1.669  1.00  0.00     0.278 HD
ENDBRANCH  23  24
BRANCH  23  28
HETATM   28  O1  UNL     1       4.327  -0.891   0.228  1.00  0.00    -0.363 OA
ATOM     29  H1  UNL     1       4.172  -1.828   0.242  1.00  0.00     0.212 HD
ENDBRANCH  23  28
ENDBRANCH   1  23
TORSDOF 6
