REMARK  2 active torsions:
REMARK  status: ('A' for Active; 'I' for Inactive)
REMARK    1  A    between atoms: N1_1  and  C1_5 
REMARK    2  A    between atoms: C3_9  and  N3_10 
ROOT
HETATM    1  C1  UNL     1       2.378  -0.792  -0.198  1.00  0.00     0.368 C 
HETATM    2  N2  UNL     1       1.020  -1.322  -0.158  1.00  0.00    -0.349 N 
ATOM      3  H2  UNL     1       0.901  -2.335  -0.166  1.00  0.00     0.162 HD
HETATM    4  C2  UNL     1      -0.137  -0.521  -0.109  1.00  0.00     0.101 A 
HETATM    5  C3  UNL     1      -1.348  -1.168   0.074  1.00  0.00     0.199 A 
HETATM    6  C4  UNL     1      -2.504  -0.392   0.121  1.00  0.00     0.281 A 
HETATM    7  O3  UNL     1      -3.636  -0.938   0.286  1.00  0.00    -0.265 OA
HETATM    8  N4  UNL     1      -2.491   0.946  -0.002  1.00  0.00    -0.315 N 
ATOM      9  H4  UNL     1      -3.365   1.470   0.039  1.00  0.00     0.169 HD
HETATM   10  C5  UNL     1      -1.326   1.594  -0.179  1.00  0.00     0.137 A 
HETATM   11  C6  UNL     1      -0.954   2.912  -0.338  1.00  0.00     0.290 A 
HETATM   12  O4  UNL     1      -1.765   3.871  -0.343  1.00  0.00    -0.264 OA
HETATM   13  N5  UNL     1       0.377   2.908  -0.475  1.00  0.00    -0.251 N 
ATOM     14  H5  UNL     1       0.954   3.738  -0.611  1.00  0.00     0.191 HD
HETATM   15  N6  UNL     1       0.841   1.649  -0.407  1.00  0.00    -0.218 N 
HETATM   16  C7  UNL     1      -0.182   0.838  -0.227  1.00  0.00     0.125 A 
HETATM   17  S1  UNL     1       2.461   0.959  -0.513  1.00  0.00     0.025 SA
ENDROOT
BRANCH   1  18
HETATM   18  N1  UNL     1       3.028  -1.093   1.079  1.00  0.00    -0.048 N 
ATOM     19  H13 UNL     1       2.497  -0.751   1.880  1.00  0.00     0.277 HD
ATOM     20  H12 UNL     1       3.001  -2.086   1.308  1.00  0.00     0.277 HD
ATOM     21  H11 UNL     1       3.978  -0.722   1.051  1.00  0.00     0.277 HD
ENDBRANCH   1  18
BRANCH   5  22
HETATM   22  N3  UNL     1      -1.441  -2.582   0.214  1.00  0.00    -0.107 N 
HETATM   23  O1  UNL     1      -1.061  -3.044   1.318  1.00  0.00    -0.531 OA
HETATM   24  O2  UNL     1      -1.906  -3.362  -0.801  1.00  0.00    -0.531 OA
ENDBRANCH   5  22
TORSDOF 2
