REMARK  5 active torsions:
REMARK  status: ('A' for Active; 'I' for Inactive)
REMARK    1  A    between atoms: N1_1  and  C1_4 
REMARK    2  A    between atoms: C2_7  and  N3_8 
REMARK    3  A    between atoms: N4_11  and  N5_12 
REMARK    4  A    between atoms: N5_12  and  O1_14 
REMARK    5  A    between atoms: C7_19  and  O3_20 
ROOT
HETATM    1  C1  UNL     1       2.254   1.626   1.269  1.00  0.00     0.679 A 
HETATM    2  N2  UNL     1       0.935   1.476   1.164  1.00  0.00    -0.175 N 
ATOM      3  H2  UNL     1       0.301   2.114   1.645  1.00  0.00     0.186 HD
HETATM    4  C2  UNL     1       0.444   0.451   0.400  1.00  0.00     0.145 A 
HETATM    5  C6  UNL     1       1.321  -0.409  -0.252  1.00  0.00     0.107 A 
HETATM    6  C7  UNL     1       1.161  -1.497  -1.071  1.00  0.00     0.173 A 
HETATM    7  N6  UNL     1       2.399  -1.928  -1.401  1.00  0.00    -0.278 N 
ATOM      8  H6  UNL     1       2.597  -2.727  -2.003  1.00  0.00     0.189 HD
HETATM    9  N7  UNL     1       3.313  -1.167  -0.833  1.00  0.00    -0.282 N 
ATOM     10  H7  UNL     1       4.322  -1.282  -0.925  1.00  0.00     0.188 HD
HETATM   11  C8  UNL     1       2.688  -0.201  -0.102  1.00  0.00     0.154 A 
HETATM   12  N8  UNL     1       3.135   0.811   0.655  1.00  0.00    -0.174 N 
ATOM     13  H8  UNL     1       4.137   0.964   0.766  1.00  0.00     0.186 HD
ENDROOT
BRANCH   4  14
HETATM   14  N3  UNL     1      -0.958   0.273   0.285  1.00  0.00    -0.281 N 
HETATM   15  C3  UNL     1      -1.863   1.202  -0.368  1.00  0.00     0.157 C 
HETATM   16  C4  UNL     1      -3.236   0.555  -0.295  1.00  0.00     0.176 C 
HETATM   17  N4  UNL     1      -2.993  -0.778   0.186  1.00  0.00    -0.221 N 
HETATM   18  C5  UNL     1      -1.700  -0.818   0.797  1.00  0.00     0.346 C 
HETATM   19  O2  UNL     1      -1.332  -1.702   1.647  1.00  0.00    -0.245 OA
BRANCH  17  20
HETATM   20  N5  UNL     1      -3.879  -1.846   0.076  1.00  0.00    -0.204 N 
ATOM     21  H5  UNL     1      -4.703  -1.859   0.678  1.00  0.00     0.216 HD
BRANCH  20  22
HETATM   22  O1  UNL     1      -3.711  -2.793  -0.729  1.00  0.00    -0.274 OA
ATOM     23  H1  UNL     1      -4.316  -3.522  -0.804  1.00  0.00     0.246 HD
ENDBRANCH  20  22
ENDBRANCH  17  20
ENDBRANCH   4  14
BRANCH   1  24
HETATM   24  N1  UNL     1       2.761   2.601   1.992  1.00  0.00    -0.234 N 
ATOM     25  H12 UNL     1       2.094   3.218   2.457  1.00  0.00     0.174 HD
ATOM     26  H11 UNL     1       3.771   2.716   2.072  1.00  0.00     0.174 HD
ENDBRANCH   1  24
BRANCH   6  27
HETATM   27  O3  UNL     1      -0.058  -2.024  -1.462  1.00  0.00    -0.344 OA
ATOM     28  H3  UNL     1      -0.169  -2.778  -2.029  1.00  0.00     0.219 HD
ENDBRANCH   6  27
TORSDOF 5
