REMARK  13 active torsions:
REMARK  status: ('A' for Active; 'I' for Inactive)
REMARK    1  A    between atoms: C3_3  and  C4_4 
REMARK    2  A    between atoms: C4_4  and  C5_5 
REMARK    3  A    between atoms: C5_5  and  C6_6 
REMARK    4  A    between atoms: C7_7  and  C8_8 
REMARK    5  A    between atoms: C8_8  and  C9_9 
REMARK    6  A    between atoms: C13_15  and  O1_16 
REMARK    7  A    between atoms: C14_19  and  C15_20 
REMARK    8  A    between atoms: C16_23  and  C17_24 
REMARK    9  A    between atoms: C17_24  and  C18_25 
REMARK   10  A    between atoms: C23_30  and  C24_31 
REMARK   11  A    between atoms: C24_31  and  C25_33 
REMARK       I    between atoms: C25_33  and  N3_35 
REMARK   12  A    between atoms: N3_35  and  C26_37 
REMARK   13  A    between atoms: C26_37  and  C27_38 
ROOT
HETATM    1  C9  UNL     1       1.819   0.424   0.449  1.00  0.00     0.081 C 
HETATM    2  C10 UNL     1       2.649  -0.824   0.740  1.00  0.00     0.016 C 
HETATM    3  C11 UNL     1       2.689  -1.821  -0.392  1.00  0.00     0.020 C 
HETATM    4  C12 UNL     1       2.396  -3.183   0.237  1.00  0.00     0.123 C 
HETATM    5  N1  UNL     1       1.884  -4.127  -0.691  1.00  0.00    -0.350 N 
ATOM      6  H1  UNL     1       2.536  -4.834  -1.030  1.00  0.00     0.163 HD
HETATM    7  C13 UNL     1       0.585  -4.189  -1.187  1.00  0.00     0.258 C 
HETATM    8  O2  UNL     1      -0.544  -3.553  -0.821  1.00  0.00    -0.301 OA
HETATM    9  C14 UNL     1      -1.268  -3.412   0.329  1.00  0.00     0.229 C 
HETATM   10  C16 UNL     1      -2.495  -2.583   0.157  1.00  0.00     0.047 C 
HETATM   11  C21 UNL     1      -2.190  -1.082   0.284  1.00  0.00     0.014 C 
HETATM   12  C22 UNL     1      -1.293  -0.619  -0.809  1.00  0.00     0.034 C 
HETATM   13  C23 UNL     1      -0.934   0.892  -0.475  1.00  0.00     0.164 C 
HETATM   14  N4  UNL     1      -0.679   0.824   0.944  1.00  0.00    -0.349 N 
ATOM     15  H4  UNL     1      -1.435   0.933   1.619  1.00  0.00     0.163 HD
HETATM   16  C31 UNL     1       0.699   0.594   1.385  1.00  0.00     0.222 C 
HETATM   17  O7  UNL     1       0.862   0.557   2.636  1.00  0.00    -0.273 OA
ENDROOT
BRANCH  13  18
HETATM   18  C24 UNL     1      -2.146   1.581  -0.899  1.00  0.00     0.238 C 
HETATM   19  O4  UNL     1      -3.122   1.023  -1.489  1.00  0.00    -0.285 OA
BRANCH  18  20
HETATM   20  C25 UNL     1      -2.315   3.017  -0.665  1.00  0.00     0.289 C 
HETATM   21  O5  UNL     1      -1.861   3.560   0.385  1.00  0.00    -0.264 OA
HETATM   22  N3  UNL     1      -2.973   3.795  -1.611  1.00  0.00    -0.352 N 
ATOM     23  H3  UNL     1      -3.270   3.381  -2.494  1.00  0.00     0.162 HD
BRANCH  22  24
HETATM   24  C26 UNL     1      -3.239   5.209  -1.339  1.00  0.00     0.155 C 
BRANCH  24  25
HETATM   25  C27 UNL     1      -4.450   5.403  -0.552  1.00  0.00     0.139 C 
HETATM   26  C28 UNL     1      -4.675   6.903  -0.272  1.00  0.00     0.035 C 
HETATM   27  C29 UNL     1      -6.015   6.703   0.454  1.00  0.00     0.029 C 
HETATM   28  C30 UNL     1      -5.857   5.337   1.100  1.00  0.00     0.168 C 
HETATM   29  O6  UNL     1      -4.568   4.834   0.665  1.00  0.00    -0.384 OA
ENDBRANCH  24  25
ENDBRANCH  22  24
ENDBRANCH  18  20
ENDBRANCH  13  18
BRANCH  10  30
HETATM   30  C17 UNL     1      -3.412  -2.742  -0.963  1.00  0.00    -0.017 C 
BRANCH  30  31
HETATM   31  C18 UNL     1      -4.177  -3.967  -1.210  1.00  0.00    -0.091 C 
HETATM   32  C19 UNL     1      -5.083  -4.337  -0.038  1.00  0.00     0.042 C 
HETATM   33  C20 UNL     1      -3.536  -5.164  -1.780  1.00  0.00     0.042 C 
ENDBRANCH  30  31
ENDBRANCH  10  30
BRANCH   1  34
HETATM   34  C8  UNL     1       2.773   1.600   0.679  1.00  0.00     0.041 C 
BRANCH  34  35
HETATM   35  C7  UNL     1       3.923   1.672  -0.214  1.00  0.00    -0.025 C 
HETATM   36  C6  UNL     1       5.127   1.497   0.244  1.00  0.00     0.004 C 
BRANCH  36  37
HETATM   37  C5  UNL     1       6.385   1.564  -0.550  1.00  0.00     0.055 C 
BRANCH  37  38
HETATM   38  C4  UNL     1       7.537   1.364  -0.290  1.00  0.00    -0.129 C 
BRANCH  38  39
HETATM   39  C3  UNL     1       8.855   1.062   0.274  1.00  0.00     0.051 C 
HETATM   40  C2  UNL     1       9.965   1.160  -0.480  1.00  0.00    -0.023 C 
HETATM   41  C1  UNL     1      11.259   0.823   0.213  1.00  0.00     0.036 C 
ENDBRANCH  38  39
ENDBRANCH  37  38
ENDBRANCH  36  37
ENDBRANCH  34  35
ENDBRANCH   1  34
BRANCH   9  42
HETATM   42  C15 UNL     1      -1.514  -4.608   1.149  1.00  0.00     0.261 C 
HETATM   43  N2  UNL     1      -1.075  -5.916   0.928  1.00  0.00    -0.060 NA
HETATM   44  O3  UNL     1      -2.231  -4.439   2.212  1.00  0.00    -0.274 OA
ENDBRANCH   9  42
BRANCH   7  45
HETATM   45  O1  UNL     1       0.426  -5.004  -2.190  1.00  0.00    -0.327 OA
ATOM     46  H1  UNL     1      -0.461  -5.046  -2.529  1.00  0.00     0.221 HD
ENDBRANCH   7  45
TORSDOF 13
