REMARK  12 active torsions:
REMARK  status: ('A' for Active; 'I' for Inactive)
REMARK    1  A    between atoms: C2_2  and  C3_3 
REMARK    2  A    between atoms: C3_3  and  N1_5 
REMARK       I    between atoms: N1_5  and  C5_7 
REMARK    3  A    between atoms: C5_7  and  C6_9 
REMARK    4  A    between atoms: C9_13  and  C10_14 
REMARK    5  A    between atoms: C10_14  and  N2_16 
REMARK       I    between atoms: N2_16  and  C12_18 
REMARK    6  A    between atoms: C12_18  and  C13_20 
REMARK       I    between atoms: N3_24  and  C17_25 
REMARK    7  A    between atoms: C17_25  and  C18_27 
REMARK    8  A    between atoms: C18_27  and  C19_28 
REMARK    9  A    between atoms: C18_27  and  N4_35 
REMARK   10  A    between atoms: C19_28  and  C20_29 
REMARK       I    between atoms: N4_35  and  C26_37 
REMARK   11  A    between atoms: C26_37  and  O6_39 
REMARK   12  A    between atoms: O6_39  and  C27_40 
ROOT
HETATM    1  C13 UNL     1      -0.452   1.789  -0.327  1.00  0.00     0.114 C 
HETATM    2  C14 UNL     1      -0.697   1.268  -1.730  1.00  0.00     0.049 C 
HETATM    3  C15 UNL     1      -0.117   3.271  -0.307  1.00  0.00     0.061 C 
HETATM    4  C16 UNL     1      -0.872   3.239   0.994  1.00  0.00     0.130 C 
HETATM    5  N3  UNL     1      -1.633   2.093   0.454  1.00  0.00    -0.332 N 
HETATM    6  C17 UNL     1      -2.945   1.672   0.726  1.00  0.00     0.243 C 
HETATM    7  O4  UNL     1      -3.606   2.348   1.601  1.00  0.00    -0.271 OA
ENDROOT
BRANCH   1   8
HETATM    8  C12 UNL     1       0.602   1.048   0.400  1.00  0.00     0.246 C 
HETATM    9  N2  UNL     1       1.811   0.745  -0.268  1.00  0.00    -0.352 N 
ATOM     10  H2  UNL     1       1.923   1.044  -1.237  1.00  0.00     0.163 HD
HETATM   11  O3  UNL     1       0.448   0.688   1.576  1.00  0.00    -0.271 OA
BRANCH   9  12
HETATM   12  C10 UNL     1       2.905   0.021   0.373  1.00  0.00     0.118 C 
HETATM   13  C11 UNL     1       3.117  -1.279  -0.343  1.00  0.00     0.034 C 
BRANCH  12  14
HETATM   14  C9  UNL     1       4.108   0.919   0.358  1.00  0.00     0.278 C 
HETATM   15  C8  UNL     1       4.541   1.287  -1.000  1.00  0.00     0.162 C 
HETATM   16  C7  UNL     1       5.746   0.421  -1.280  1.00  0.00     0.123 C 
HETATM   17  O2  UNL     1       4.107   2.089  -1.805  1.00  0.00    -0.296 OA
HETATM   18  C6  UNL     1       6.353   0.397   0.109  1.00  0.00     0.285 C 
HETATM   19  N5  UNL     1       5.258   0.410   1.030  1.00  0.00    -0.049 N 
ATOM     20  H52 UNL     1       5.092  -0.503   1.454  1.00  0.00     0.279 HD
ATOM     21  H51 UNL     1       5.471   0.924   1.885  1.00  0.00     0.279 HD
BRANCH  18  22
HETATM   22  C5  UNL     1       7.317  -0.691   0.309  1.00  0.00     0.249 C 
HETATM   23  N1  UNL     1       8.468  -0.862  -0.529  1.00  0.00    -0.355 N 
ATOM     24  H1  UNL     1       8.615  -0.200  -1.291  1.00  0.00     0.162 HD
HETATM   25  O1  UNL     1       7.184  -1.547   1.239  1.00  0.00    -0.271 OA
BRANCH  23  26
HETATM   26  C3  UNL     1       9.418  -1.913  -0.350  1.00  0.00     0.080 C 
HETATM   27  C4  UNL     1       9.411  -2.944  -1.473  1.00  0.00     0.032 C 
BRANCH  26  28
HETATM   28  C2  UNL     1      10.813  -1.461  -0.051  1.00  0.00     0.020 C 
HETATM   29  C1  UNL     1      10.764  -0.443   1.064  1.00  0.00     0.007 C 
ENDBRANCH  26  28
ENDBRANCH  23  26
ENDBRANCH  18  22
ENDBRANCH  12  14
ENDBRANCH   9  12
ENDBRANCH   1   8
BRANCH   6  30
HETATM   30  C18 UNL     1      -3.665   0.552   0.140  1.00  0.00     0.179 C 
BRANCH  30  31
HETATM   31  C19 UNL     1      -4.424   0.874  -1.113  1.00  0.00     0.039 C 
BRANCH  31  32
HETATM   32  C20 UNL     1      -5.470   1.907  -1.046  1.00  0.00    -0.012 C 
HETATM   33  C21 UNL     1      -6.623   1.687  -0.135  1.00  0.00     0.005 C 
HETATM   34  C22 UNL     1      -7.916   2.284  -0.727  1.00  0.00     0.000 C 
HETATM   35  C23 UNL     1      -7.624   3.591  -1.410  1.00  0.00     0.000 C 
HETATM   36  C24 UNL     1      -6.684   3.398  -2.551  1.00  0.00     0.000 C 
HETATM   37  C25 UNL     1      -6.065   2.025  -2.461  1.00  0.00     0.005 C 
ENDBRANCH  31  32
ENDBRANCH  30  31
BRANCH  30  38
HETATM   38  N4  UNL     1      -4.553  -0.060   1.079  1.00  0.00    -0.324 N 
HETATM   39  C26 UNL     1      -4.600  -1.490   1.256  1.00  0.00     0.362 C 
HETATM   40  O5  UNL     1      -3.820  -2.168   0.541  1.00  0.00    -0.238 OA
ATOM     41  H4  UNL     1      -5.169   0.530   1.638  1.00  0.00     0.165 HD
BRANCH  39  42
HETATM   42  O6  UNL     1      -5.428  -2.125   2.137  1.00  0.00    -0.294 OA
BRANCH  42  43
HETATM   43  C27 UNL     1      -5.432  -3.524   2.262  1.00  0.00     0.061 C 
HETATM   44  C28 UNL     1      -5.800  -4.157   0.939  1.00  0.00     0.046 C 
HETATM   45  C29 UNL     1      -6.490  -3.954   3.264  1.00  0.00     0.046 C 
HETATM   46  C30 UNL     1      -4.110  -4.077   2.759  1.00  0.00     0.046 C 
ENDBRANCH  42  43
ENDBRANCH  39  42
ENDBRANCH  30  38
ENDBRANCH   6  30
TORSDOF 12
