REMARK  6 active torsions:
REMARK  status: ('A' for Active; 'I' for Inactive)
REMARK    1  A    between atoms: N1_2  and  C2_4 
REMARK    2  A    between atoms: C4_10  and  N4_11 
REMARK    3  A    between atoms: N4_11  and  N5_13 
REMARK    4  A    between atoms: C5_18  and  N7_19 
REMARK    5  A    between atoms: N7_19  and  N8_21 
REMARK       I    between atoms: N8_21  and  C6_23 
REMARK    6  A    between atoms: N10_25  and  O1_27 
ROOT
HETATM    1  C2  UNL     1      -0.567   1.758  -0.283  1.00  0.00     0.148 C 
HETATM    2  N2  UNL     1      -1.844   1.617  -0.724  1.00  0.00    -0.335 N 
ATOM      3  H2  UNL     1      -2.340   2.484  -0.932  1.00  0.00     0.168 HD
HETATM    4  C3  UNL     1      -2.545   0.475  -0.924  1.00  0.00     0.199 C 
HETATM    5  N3  UNL     1      -2.269  -0.707  -0.338  1.00  0.00    -0.186 N 
ATOM      6  H3  UNL     1      -2.999  -1.409  -0.463  1.00  0.00     0.185 HD
HETATM    7  C4  UNL     1      -1.219  -1.139   0.378  1.00  0.00     0.699 C 
HETATM    8  N6  UNL     1      -0.106  -0.435   0.694  1.00  0.00    -0.170 N 
ATOM      9  H6  UNL     1       0.537  -0.890   1.342  1.00  0.00     0.186 HD
HETATM   10  C5  UNL     1       0.267   0.798   0.262  1.00  0.00     0.179 C 
ENDROOT
BRANCH  10  11
HETATM   11  N7  UNL     1       1.485   1.145   0.347  1.00  0.00    -0.280 N 
ATOM     12  H7  UNL     1       1.713   2.080   0.010  1.00  0.00     0.189 HD
BRANCH  11  13
HETATM   13  N8  UNL     1       2.529   0.405   0.841  1.00  0.00    -0.270 N 
HETATM   14  C6  UNL     1       2.983  -0.786   0.202  1.00  0.00     0.227 C 
HETATM   15  N9  UNL     1       3.603  -1.839   0.966  1.00  0.00    -0.060 NA
HETATM   16  N10 UNL     1       2.865  -0.975  -1.058  1.00  0.00    -0.240 N 
ATOM     17  H10 UNL     1       2.431  -0.254  -1.635  1.00  0.00     0.197 HD
ATOM     18  H8  UNL     1       2.996   0.717   1.693  1.00  0.00     0.189 HD
BRANCH  16  19
HETATM   19  O1  UNL     1       3.311  -2.127  -1.643  1.00  0.00    -0.287 OA
ATOM     20  H1  UNL     1       3.223  -2.267  -2.578  1.00  0.00     0.244 HD
ENDBRANCH  16  19
ENDBRANCH  11  13
ENDBRANCH  10  11
BRANCH   1  21
HETATM   21  N1  UNL     1      -0.022   2.925  -0.366  1.00  0.00    -0.378 N 
HETATM   22  C1  UNL     1      -0.821   3.998  -0.926  1.00  0.00     0.148 C 
ATOM     23  H1  UNL     1       0.934   3.086  -0.050  1.00  0.00     0.160 HD
ENDBRANCH   1  21
BRANCH   7  24
HETATM   24  N4  UNL     1      -1.247  -2.353   0.825  1.00  0.00    -0.138 N 
ATOM     25  H4  UNL     1      -0.470  -2.720   1.374  1.00  0.00     0.205 HD
BRANCH  24  26
HETATM   26  N5  UNL     1      -2.359  -3.154   0.545  1.00  0.00    -0.331 N 
ATOM     27  H52 UNL     1      -3.128  -2.772  -0.005  1.00  0.00     0.177 HD
ATOM     28  H51 UNL     1      -2.381  -4.111   0.897  1.00  0.00     0.177 HD
ENDBRANCH  24  26
ENDBRANCH   7  24
TORSDOF 6
