REMARK  5 active torsions:
REMARK  status: ('A' for Active; 'I' for Inactive)
REMARK    1  A    between atoms: N1_2  and  O1_3 
REMARK    2  A    between atoms: N1_2  and  N2_5 
REMARK       I    between atoms: N2_5  and  C2_7 
REMARK    3  A    between atoms: C2_7  and  C3_9 
REMARK       I    between atoms: C3_9  and  N3_11 
REMARK    4  A    between atoms: N3_11  and  C4_13 
REMARK    5  A    between atoms: C5_16  and  C6_17 
ROOT
HETATM    1  C3  UNL     1       0.760  -0.858   1.074  1.00  0.00     0.329 C 
HETATM    2  O3  UNL     1       0.619  -0.048   2.053  1.00  0.00    -0.261 OA
HETATM    3  N3  UNL     1      -0.192  -1.896   0.913  1.00  0.00    -0.150 N 
ATOM      4  H3  UNL     1       0.094  -2.875   0.916  1.00  0.00     0.188 HD
ENDROOT
BRANCH   3   5
HETATM    5  C4  UNL     1      -1.429  -1.568   0.763  1.00  0.00     0.701 A 
HETATM    6  N4  UNL     1      -1.939  -0.329   0.740  1.00  0.00    -0.169 N 
HETATM    7  C5  UNL     1      -3.287  -0.413   0.564  1.00  0.00     0.201 A 
ATOM      8  H4  UNL     1      -1.406   0.535   0.838  1.00  0.00     0.186 HD
HETATM    9  N6  UNL     1      -3.614  -1.711   0.476  1.00  0.00    -0.267 N 
HETATM   10  N7  UNL     1      -2.491  -2.388   0.597  1.00  0.00    -0.130 N 
ATOM     11  H6  UNL     1      -4.548  -2.097   0.342  1.00  0.00     0.189 HD
ATOM     12  H7  UNL     1      -2.430  -3.406   0.569  1.00  0.00     0.205 HD
BRANCH   7  13
HETATM   13  C6  UNL     1      -4.232   0.685   0.482  1.00  0.00     0.300 C 
HETATM   14  N5  UNL     1      -3.808   2.036   0.610  1.00  0.00    -0.054 NA
HETATM   15  O4  UNL     1      -5.447   0.431   0.295  1.00  0.00    -0.268 OA
ENDBRANCH   7  13
ENDBRANCH   3   5
BRANCH   1  16
HETATM   16  C2  UNL     1       1.868  -0.705   0.168  1.00  0.00     0.326 C 
HETATM   17  N2  UNL     1       2.803   0.330   0.342  1.00  0.00    -0.258 N 
ATOM     18  H2  UNL     1       2.708   0.989   1.115  1.00  0.00     0.186 HD
HETATM   19  O2  UNL     1       1.978  -1.542  -0.801  1.00  0.00    -0.261 OA
BRANCH  17  20
HETATM   20  N1  UNL     1       3.862   0.443  -0.557  1.00  0.00    -0.109 NA
HETATM   21  C1  UNL     1       4.065   1.786  -1.021  1.00  0.00     0.171 C 
BRANCH  20  22
HETATM   22  O1  UNL     1       4.973  -0.153  -0.120  1.00  0.00    -0.294 OA
ATOM     23  H1  UNL     1       4.839  -1.042   0.187  1.00  0.00     0.239 HD
ENDBRANCH  20  22
ENDBRANCH  17  20
ENDBRANCH   1  16
TORSDOF 5
