REMARK  0 active torsions:
REMARK  status: ('A' for Active; 'I' for Inactive)
ROOT
HETATM    1  C1  UNL     1      -2.539  -0.133  -0.357  1.00  0.00     0.053 C 
HETATM    2  C2  UNL     1      -1.948   0.867   0.609  1.00  0.00     0.173 C 
HETATM    3  O1  UNL     1      -0.827   0.387   1.228  1.00  0.00    -0.352 OA
HETATM    4  C3  UNL     1       0.077  -0.126   0.330  1.00  0.00     0.210 C 
HETATM    5  C4  UNL     1       1.334  -0.594   1.045  1.00  0.00     0.305 C 
HETATM    6  N1  UNL     1       2.494   0.170   0.659  1.00  0.00    -0.049 N 
ATOM      7  H11 UNL     1       3.335  -0.222   1.083  1.00  0.00     0.279 HD
ATOM      8  H12 UNL     1       2.483   1.086   1.108  1.00  0.00     0.279 HD
HETATM    9  C5  UNL     1       2.665   0.309  -0.750  1.00  0.00     0.399 C 
HETATM   10  O2  UNL     1       1.463   0.424  -1.452  1.00  0.00    -0.359 OA
HETATM   11  C6  UNL     1       0.557   1.034  -0.554  1.00  0.00     0.240 C 
HETATM   12  O3  UNL     1      -0.388  -1.181  -0.419  1.00  0.00    -0.352 OA
HETATM   13  C7  UNL     1      -1.738  -1.418  -0.301  1.00  0.00     0.173 C 
ENDROOT
TORSDOF 0
