REMARK  0 active torsions:
REMARK  status: ('A' for Active; 'I' for Inactive)
ROOT
HETATM    1  N1  UNL     1       3.147  -1.085  -0.498  1.00  0.00    -0.195 NA
HETATM    2  C1  UNL     1       2.163  -0.783   0.024  1.00  0.00     0.092 C 
HETATM    3  C2  UNL     1       0.941  -0.391   0.696  1.00  0.00     0.298 C 
HETATM    4  S1  UNL     1      -0.399  -1.586   0.333  1.00  0.00    -0.112 SA
HETATM    5  C3  UNL     1      -1.548  -0.511  -0.607  1.00  0.00     0.208 C 
HETATM    6  N2  UNL     1      -1.460   0.754   0.121  1.00  0.00    -0.308 N 
ATOM      7  H2  UNL     1      -2.194   1.290   0.584  1.00  0.00     0.173 HD
HETATM    8  S2  UNL     1       0.245   1.094  -0.020  1.00  0.00     0.253 S 
HETATM    9  O1  UNL     1       0.551   1.191  -1.473  1.00  0.00    -0.204 OA
HETATM   10  O2  UNL     1       0.592   2.302   0.759  1.00  0.00    -0.204 OA
ENDROOT
TORSDOF 0
