REMARK  0 active torsions:
REMARK  status: ('A' for Active; 'I' for Inactive)
ROOT
HETATM    1  O1  UNL     1       2.087  -0.399   1.339  1.00  0.00    -0.205 OA
HETATM    2  S1  UNL     1       1.626  -0.008  -0.008  1.00  0.00     0.235 S 
HETATM    3  O2  UNL     1       2.677  -0.159  -1.072  1.00  0.00    -0.205 OA
HETATM    4  C1  UNL     1       0.211  -0.944  -0.556  1.00  0.00     0.165 C 
HETATM    5  C2  UNL     1      -0.893  -0.832   0.478  1.00  0.00     0.029 C 
HETATM    6  C3  UNL     1      -1.495   0.566   0.287  1.00  0.00     0.099 C 
HETATM    7  S2  UNL     1      -0.318   1.726   1.050  1.00  0.00    -0.045 SA
HETATM    8  N1  UNL     1       1.154   1.669   0.049  1.00  0.00    -0.258 N 
ATOM      9  H1  UNL     1       1.624   2.456  -0.399  1.00  0.00     0.186 HD
ENDROOT
TORSDOF 0
