REMARK  9 active torsions:
REMARK  status: ('A' for Active; 'I' for Inactive)
REMARK    1  A    between atoms: N1_1  and  C1_5 
REMARK    2  A    between atoms: C1_5  and  N2_6 
REMARK    3  A    between atoms: C3_13  and  N4_14 
REMARK    4  A    between atoms: N4_14  and  C4_16 
REMARK    5  A    between atoms: C4_16  and  C5_17 
REMARK    6  A    between atoms: C5_17  and  C6_18 
REMARK    7  A    between atoms: C6_18  and  S1_19 
REMARK    8  A    between atoms: S1_19  and  N5_22 
REMARK    9  A    between atoms: N5_22  and  C7_24 
ROOT
HETATM    1  C1  UNL     1      -4.741  -0.118   0.001  1.00  0.00     0.377 C 
HETATM    2  C2  UNL     1      -3.884   0.671   0.961  1.00  0.00     0.218 C 
HETATM    3  N3  UNL     1      -2.498   0.656   0.659  1.00  0.00    -0.222 N 
ATOM      4  H3  UNL     1      -1.860   0.868   1.426  1.00  0.00     0.177 HD
HETATM    5  C3  UNL     1      -1.965   0.402  -0.483  1.00  0.00     0.676 C 
HETATM    6  N9  UNL     1      -2.792   0.094  -1.604  1.00  0.00    -0.156 N 
ATOM      7  H9  UNL     1      -2.390  -0.111  -2.519  1.00  0.00     0.187 HD
HETATM    8  C8  UNL     1      -4.210   0.084  -1.394  1.00  0.00     0.302 C 
HETATM    9  O4  UNL     1      -5.004   0.241  -2.353  1.00  0.00    -0.268 OA
ENDROOT
BRANCH   5  10
HETATM   10  N4  UNL     1      -0.561   0.421  -0.651  1.00  0.00    -0.226 N 
ATOM     11  H4  UNL     1      -0.158   0.582  -1.574  1.00  0.00     0.177 HD
BRANCH  10  12
HETATM   12  C4  UNL     1       0.290   0.214   0.475  1.00  0.00     0.139 C 
BRANCH  12  13
HETATM   13  C5  UNL     1       1.747   0.256   0.174  1.00  0.00     0.037 C 
BRANCH  13  14
HETATM   14  C6  UNL     1       2.183  -0.788  -0.825  1.00  0.00     0.165 C 
BRANCH  14  15
HETATM   15  S1  UNL     1       3.929  -0.659  -1.120  1.00  0.00     0.244 S 
HETATM   16  O1  UNL     1       4.305  -1.795  -2.034  1.00  0.00    -0.205 OA
HETATM   17  O2  UNL     1       4.294   0.671  -1.719  1.00  0.00    -0.205 OA
BRANCH  15  18
HETATM   18  N5  UNL     1       4.775  -0.902   0.361  1.00  0.00    -0.114 N 
ATOM     19  H5  UNL     1       4.560  -1.705   0.953  1.00  0.00     0.197 HD
BRANCH  18  20
HETATM   20  C7  UNL     1       5.683  -0.057   0.712  1.00  0.00     0.726 A 
HETATM   21  N6  UNL     1       6.072   1.051   0.026  1.00  0.00    -0.106 N 
HETATM   22  N7  UNL     1       7.037   1.673   0.709  1.00  0.00     0.062 NA
ATOM     23  H6  UNL     1       5.688   1.358  -0.868  1.00  0.00     0.203 HD
HETATM   24  O3  UNL     1       7.241   0.966   1.791  1.00  0.00    -0.127 OA
HETATM   25  N8  UNL     1       6.457  -0.051   1.811  1.00  0.00    -0.072 N 
ATOM     26  H8  UNL     1       6.426  -0.751   2.552  1.00  0.00     0.215 HD
ENDBRANCH  18  20
ENDBRANCH  15  18
ENDBRANCH  14  15
ENDBRANCH  13  14
ENDBRANCH  12  13
ENDBRANCH  10  12
ENDBRANCH   5  10
BRANCH   1  27
HETATM   27  N1  UNL     1      -6.094   0.362   0.113  1.00  0.00    -0.034 N 
ATOM     28  H13 UNL     1      -6.729  -0.172  -0.481  1.00  0.00     0.278 HD
ATOM     29  H12 UNL     1      -6.496   0.133   1.022  1.00  0.00     0.278 HD
ATOM     30  H11 UNL     1      -6.155   1.362  -0.080  1.00  0.00     0.278 HD
ENDBRANCH   1  27
BRANCH   1  31
HETATM   31  N2  UNL     1      -4.654  -1.540   0.276  1.00  0.00    -0.034 N 
ATOM     32  H23 UNL     1      -5.056  -1.769   1.185  1.00  0.00     0.278 HD
ATOM     33  H22 UNL     1      -5.289  -2.074  -0.318  1.00  0.00     0.278 HD
ATOM     34  H21 UNL     1      -3.696  -1.880   0.197  1.00  0.00     0.278 HD
ENDBRANCH   1  31
TORSDOF 9
