REMARK  9 active torsions:
REMARK  status: ('A' for Active; 'I' for Inactive)
REMARK    1  A    between atoms: N1_2  and  C2_4 
REMARK    2  A    between atoms: C3_7  and  N3_8 
REMARK    3  A    between atoms: C8_16  and  N5_17 
REMARK    4  A    between atoms: N5_17  and  N6_19 
REMARK    5  A    between atoms: C9_21  and  C10_22 
REMARK    6  A    between atoms: C10_22  and  O2_23 
REMARK    7  A    between atoms: C10_22  and  C11_25 
REMARK    8  A    between atoms: C11_25  and  N7_26 
REMARK    9  A    between atoms: C11_25  and  C12_30 
ROOT
HETATM    1  C2  UNL     1      -1.118   2.401   0.069  1.00  0.00     0.706 A 
HETATM    2  N2  UNL     1      -2.137   1.539   0.035  1.00  0.00    -0.021 N 
ATOM      3  H2  UNL     1      -3.086   1.904  -0.044  1.00  0.00     0.203 HD
HETATM    4  C3  UNL     1      -1.955   0.182   0.102  1.00  0.00     0.709 A 
HETATM    5  N4  UNL     1      -0.686  -0.243   0.204  1.00  0.00    -0.020 N 
ATOM      6  H4  UNL     1      -0.511  -1.247   0.256  1.00  0.00     0.203 HD
HETATM    7  C8  UNL     1       0.358   0.589   0.241  1.00  0.00     0.726 A 
HETATM    8  N8  UNL     1       0.126   1.910   0.173  1.00  0.00    -0.020 N 
ATOM      9  H8  UNL     1       0.915   2.556   0.201  1.00  0.00     0.203 HD
ENDROOT
BRANCH   7  10
HETATM   10  N5  UNL     1       1.542   0.186   0.347  1.00  0.00    -0.132 N 
ATOM     11  H5  UNL     1       2.227   0.941   0.360  1.00  0.00     0.205 HD
BRANCH  10  12
HETATM   12  N6  UNL     1       2.098  -1.048   0.448  1.00  0.00    -0.299 N 
HETATM   13  C9  UNL     1       3.367  -1.183   0.156  1.00  0.00     0.115 C 
ATOM     14  H6  UNL     1       1.541  -1.850   0.744  1.00  0.00     0.186 HD
BRANCH  13  15
HETATM   15  C10 UNL     1       4.237  -0.078  -0.276  1.00  0.00     0.199 C 
BRANCH  15  16
HETATM   16  O2  UNL     1       3.787   1.174   0.099  1.00  0.00    -0.388 OA
ATOM     17  H2  UNL     1       4.349   1.888  -0.180  1.00  0.00     0.210 HD
ENDBRANCH  15  16
BRANCH  15  18
HETATM   18  C11 UNL     1       5.619  -0.316   0.327  1.00  0.00     0.316 C 
BRANCH  18  19
HETATM   19  N7  UNL     1       5.499  -0.227   1.786  1.00  0.00    -0.062 N 
ATOM     20  H73 UNL     1       5.080   0.650   2.094  1.00  0.00     0.275 HD
ATOM     21  H72 UNL     1       4.791  -0.857   2.163  1.00  0.00     0.275 HD
ATOM     22  H71 UNL     1       6.422  -0.386   2.189  1.00  0.00     0.275 HD
ENDBRANCH  18  19
BRANCH  18  23
HETATM   23  C12 UNL     1       6.094  -1.648  -0.105  1.00  0.00     0.207 C 
HETATM   24  O3  UNL     1       6.360  -2.518   0.746  1.00  0.00    -0.646 OA
HETATM   25  O4  UNL     1       6.245  -1.939  -1.437  1.00  0.00    -0.646 OA
ENDBRANCH  18  23
ENDBRANCH  15  18
ENDBRANCH  13  15
ENDBRANCH  10  12
ENDBRANCH   7  10
BRANCH   4  26
HETATM   26  N3  UNL     1      -3.072  -0.686   0.060  1.00  0.00    -0.213 N 
HETATM   27  C4  UNL     1      -4.181  -0.483   0.954  1.00  0.00     0.167 C 
HETATM   28  C5  UNL     1      -5.378  -1.209   0.352  1.00  0.00     0.188 C 
HETATM   29  O1  UNL     1      -5.137  -2.540   0.165  1.00  0.00    -0.388 OA
HETATM   30  C6  UNL     1      -3.959  -2.885  -0.434  1.00  0.00     0.188 C 
HETATM   31  C7  UNL     1      -3.100  -1.758  -0.890  1.00  0.00     0.167 C 
ENDBRANCH   4  26
BRANCH   1  32
HETATM   32  N1  UNL     1      -1.248   3.686   0.016  1.00  0.00    -0.229 N 
HETATM   33  C1  UNL     1      -2.595   4.206  -0.088  1.00  0.00     0.165 C 
ATOM     34  H1  UNL     1      -0.438   4.305   0.046  1.00  0.00     0.177 HD
ENDBRANCH   1  32
TORSDOF 9
