REMARK  8 active torsions:
REMARK  status: ('A' for Active; 'I' for Inactive)
REMARK    1  A    between atoms: N1_1  and  C1_5 
REMARK    2  A    between atoms: C2_6  and  O1_7 
REMARK    3  A    between atoms: C3_11  and  O2_12 
REMARK    4  A    between atoms: O2_12  and  S2_13 
REMARK    5  A    between atoms: S2_13  and  N4_14 
REMARK    6  A    between atoms: C4_19  and  O5_20 
REMARK    7  A    between atoms: O5_20  and  S3_21 
REMARK    8  A    between atoms: S3_21  and  N5_22 
ROOT
HETATM    1  C1  UNL     1      -1.264  -0.449   0.816  1.00  0.00     0.264 C 
HETATM    2  C2  UNL     1      -1.477  -1.771   0.153  1.00  0.00     0.280 C 
HETATM    3  N2  UNL     1      -0.251  -2.537   0.298  1.00  0.00    -0.110 NA
HETATM    4  N3  UNL     1       0.719  -1.939  -0.500  1.00  0.00    -0.109 NA
HETATM    5  C3  UNL     1       1.029  -0.587  -0.112  1.00  0.00     0.285 C 
HETATM    6  C4  UNL     1      -0.196   0.286   0.006  1.00  0.00     0.226 C 
ENDROOT
BRANCH   5   7
HETATM    7  O2  UNL     1       1.918  -0.061  -1.013  1.00  0.00    -0.233 OA
BRANCH   7   8
HETATM    8  S2  UNL     1       3.385   0.366  -0.338  1.00  0.00     0.357 S 
HETATM    9  O3  UNL     1       4.455   0.457  -1.390  1.00  0.00    -0.176 OA
HETATM   10  O4  UNL     1       3.250   1.740   0.263  1.00  0.00    -0.176 OA
BRANCH   8  11
HETATM   11  N4  UNL     1       3.933  -0.757   0.836  1.00  0.00    -0.306 N 
ATOM     12  H42 UNL     1       3.406  -1.594   1.085  1.00  0.00     0.171 HD
ATOM     13  H41 UNL     1       4.829  -0.496   1.248  1.00  0.00     0.171 HD
ENDBRANCH   8  11
ENDBRANCH   7   8
ENDBRANCH   5   7
BRANCH   6  14
HETATM   14  O5  UNL     1      -0.688   0.719  -1.200  1.00  0.00    -0.248 OA
BRANCH  14  15
HETATM   15  S3  UNL     1      -0.725   2.370  -1.374  1.00  0.00     0.356 S 
HETATM   16  O6  UNL     1       0.395   2.752  -2.322  1.00  0.00    -0.176 OA
HETATM   17  O7  UNL     1      -2.021   2.857  -1.958  1.00  0.00    -0.176 OA
BRANCH  15  18
HETATM   18  N5  UNL     1      -0.442   3.211   0.098  1.00  0.00    -0.306 N 
ATOM     19  H52 UNL     1      -0.270   2.730   0.981  1.00  0.00     0.171 HD
ATOM     20  H51 UNL     1      -0.465   4.225  -0.009  1.00  0.00     0.171 HD
ENDBRANCH  15  18
ENDBRANCH  14  15
ENDBRANCH   6  14
BRANCH   1  21
HETATM   21  N1  UNL     1      -2.462   0.363   0.880  1.00  0.00    -0.069 N 
ATOM     22  H13 UNL     1      -2.866   0.485  -0.049  1.00  0.00     0.275 HD
ATOM     23  H12 UNL     1      -3.222  -0.148   1.329  1.00  0.00     0.275 HD
ATOM     24  H11 UNL     1      -2.317   1.265   1.333  1.00  0.00     0.275 HD
ENDBRANCH   1  21
BRANCH   2  25
HETATM   25  O1  UNL     1      -2.590  -2.450   0.618  1.00  0.00    -0.282 OA
HETATM   26  S1  UNL     1      -3.713  -2.786  -0.637  1.00  0.00     0.095 SA
ENDBRANCH   2  25
TORSDOF 8
