REMARK  8 active torsions:
REMARK  status: ('A' for Active; 'I' for Inactive)
REMARK    1  A    between atoms: N1_2  and  C2_3 
REMARK       I    between atoms: N1_2  and  C4_7 
REMARK    2  A    between atoms: C2_3  and  C3_4 
REMARK    3  A    between atoms: C4_7  and  C5_9 
REMARK    4  A    between atoms: N2_11  and  C7_12 
REMARK    5  A    between atoms: C7_12  and  C8_13 
REMARK       I    between atoms: C8_13  and  N3_15 
REMARK    6  A    between atoms: N3_15  and  N4_17 
REMARK    7  A    between atoms: N4_17  and  C9_19 
REMARK    8  A    between atoms: C10_22  and  N6_23 
ROOT
HETATM    1  C8  UNL     1      -1.953   1.242  -2.198  1.00  0.00     0.256 C 
HETATM    2  O4  UNL     1      -2.192   0.772  -3.337  1.00  0.00    -0.270 OA
HETATM    3  N3  UNL     1      -2.624   0.678  -1.061  1.00  0.00    -0.266 N 
ATOM      4  H3  UNL     1      -2.436   1.054  -0.132  1.00  0.00     0.190 HD
ENDROOT
BRANCH   1   5
HETATM    5  C7  UNL     1      -0.993   2.358  -2.049  1.00  0.00     0.254 C 
BRANCH   5   6
HETATM    6  N2  UNL     1       0.362   1.816  -1.840  1.00  0.00    -0.278 N 
HETATM    7  C6  UNL     1       0.914   1.529  -0.668  1.00  0.00     0.148 A 
HETATM    8  C5  UNL     1       2.189   1.047  -0.930  1.00  0.00     0.134 A 
HETATM    9  N10 UNL     1       2.323   1.076  -2.257  1.00  0.00    -0.280 N 
HETATM   10  N9  UNL     1       1.217   1.540  -2.782  1.00  0.00    -0.240 N 
ATOM     11  H10 UNL     1       3.151   0.785  -2.777  1.00  0.00     0.189 HD
ATOM     12  H9  UNL     1       1.050   1.666  -3.780  1.00  0.00     0.208 HD
BRANCH   8  13
HETATM   13  C4  UNL     1       3.099   0.629   0.121  1.00  0.00     0.273 C 
HETATM   14  N1  UNL     1       4.379   0.152  -0.200  1.00  0.00    -0.341 N 
HETATM   15  C1  UNL     1       4.831   0.060  -1.558  1.00  0.00     0.153 C 
HETATM   16  O3  UNL     1       2.732   0.697   1.331  1.00  0.00    -0.266 OA
BRANCH  14  17
HETATM   17  C2  UNL     1       5.266  -0.255   0.864  1.00  0.00     0.238 C 
BRANCH  17  18
HETATM   18  C3  UNL     1       5.151  -1.670   1.231  1.00  0.00     0.191 C 
HETATM   19  O1  UNL     1       4.330  -2.417   0.655  1.00  0.00    -0.647 OA
HETATM   20  O2  UNL     1       5.961  -2.194   2.230  1.00  0.00    -0.647 OA
ENDBRANCH  17  18
ENDBRANCH  14  17
ENDBRANCH   8  13
ENDBRANCH   5   6
ENDBRANCH   1   5
BRANCH   3  21
HETATM   21  N4  UNL     1      -3.518  -0.363  -1.202  1.00  0.00    -0.268 N 
ATOM     22  H4  UNL     1      -3.670  -0.784  -2.118  1.00  0.00     0.190 HD
BRANCH  21  23
HETATM   23  C9  UNL     1      -4.227  -0.848  -0.071  1.00  0.00     0.209 C 
HETATM   24  N5  UNL     1      -5.102  -1.789  -0.081  1.00  0.00    -0.318 N 
HETATM   25  C10 UNL     1      -5.570  -1.961   1.270  1.00  0.00     0.399 C 
ATOM     26  H5  UNL     1      -5.409  -2.318  -0.897  1.00  0.00     0.166 HD
HETATM   27  N7  UNL     1      -4.473  -1.469   2.073  1.00  0.00    -0.084 NA
HETATM   28  N8  UNL     1      -4.072  -0.362   1.276  1.00  0.00    -0.270 N 
ATOM     29  H8  UNL     1      -3.751   0.556   1.584  1.00  0.00     0.185 HD
BRANCH  25  30
HETATM   30  N6  UNL     1      -6.701  -1.066   1.444  1.00  0.00    -0.042 N 
ATOM     31  H63 UNL     1      -6.484  -0.096   1.215  1.00  0.00     0.278 HD
ATOM     32  H62 UNL     1      -7.432  -1.203   0.746  1.00  0.00     0.278 HD
ATOM     33  H61 UNL     1      -7.032  -1.188   2.401  1.00  0.00     0.278 HD
ENDBRANCH  25  30
ENDBRANCH  21  23
ENDBRANCH   3  21
TORSDOF 8
