REMARK  10 active torsions:
REMARK  status: ('A' for Active; 'I' for Inactive)
REMARK    1  A    between atoms: N1_1  and  C1_4 
REMARK    2  A    between atoms: N4_9  and  C2_10 
REMARK    3  A    between atoms: C2_10  and  C3_11 
REMARK    4  A    between atoms: C3_11  and  O1_12 
REMARK    5  A    between atoms: C3_11  and  C4_14 
REMARK    6  A    between atoms: N5_15  and  S1_17 
REMARK    7  A    between atoms: S1_17  and  N6_19 
REMARK    8  A    between atoms: S1_17  and  C5_23 
REMARK    9  A    between atoms: N6_19  and  O3_21 
REMARK   10  A    between atoms: C7_27  and  N8_28 
ROOT
HETATM    1  C4  UNL     1       0.927  -1.027  -0.356  1.00  0.00     0.105 C 
HETATM    2  N5  UNL     1      -0.178  -0.508  -0.627  1.00  0.00    -0.307 N 
ATOM      3  H5  UNL     1      -0.579  -0.708  -1.543  1.00  0.00     0.176 HD
ENDROOT
BRANCH   2   4
HETATM    4  S1  UNL     1      -1.054   0.493   0.399  1.00  0.00     0.168 S 
HETATM    5  O2  UNL     1      -0.955   0.165   1.850  1.00  0.00    -0.221 OA
BRANCH   4   6
HETATM    6  N6  UNL     1      -0.619   2.012   0.249  1.00  0.00    -0.207 N 
ATOM      7  H6  UNL     1      -0.067   2.339  -0.544  1.00  0.00     0.206 HD
BRANCH   6   8
HETATM    8  O3  UNL     1      -1.028   2.859   1.245  1.00  0.00    -0.281 OA
ATOM      9  H3  UNL     1      -0.768   3.768   1.155  1.00  0.00     0.245 HD
ENDBRANCH   6   8
ENDBRANCH   4   6
BRANCH   4  10
HETATM   10  C5  UNL     1      -2.774   0.452  -0.010  1.00  0.00     0.144 A 
HETATM   11  C6  UNL     1      -3.729   0.040   0.891  1.00  0.00     0.135 A 
HETATM   12  N7  UNL     1      -5.048   0.008   0.579  1.00  0.00    -0.200 N 
HETATM   13  C7  UNL     1      -5.434   0.390  -0.647  1.00  0.00     0.678 A 
ATOM     14  H7  UNL     1      -5.736  -0.302   1.266  1.00  0.00     0.183 HD
HETATM   15  N9  UNL     1      -4.527   0.795  -1.543  1.00  0.00    -0.155 N 
HETATM   16  C8  UNL     1      -3.205   0.840  -1.266  1.00  0.00     0.282 A 
ATOM     17  H9  UNL     1      -4.845   1.080  -2.469  1.00  0.00     0.187 HD
HETATM   18  O4  UNL     1      -2.351   1.216  -2.096  1.00  0.00    -0.266 OA
BRANCH  13  19
HETATM   19  N8  UNL     1      -6.680   0.373  -0.981  1.00  0.00    -0.234 N 
ATOM     20  H82 UNL     1      -7.372   0.064  -0.298  1.00  0.00     0.174 HD
ATOM     21  H81 UNL     1      -6.974   0.664  -1.914  1.00  0.00     0.174 HD
ENDBRANCH  13  19
ENDBRANCH   4  10
ENDBRANCH   2   4
BRANCH   1  22
HETATM   22  C3  UNL     1       1.644  -0.838   0.922  1.00  0.00     0.178 C 
BRANCH  22  23
HETATM   23  C2  UNL     1       2.954  -1.601   0.937  1.00  0.00     0.208 C 
BRANCH  23  24
HETATM   24  N4  UNL     1       3.862  -1.100  -0.090  1.00  0.00    -0.202 N 
HETATM   25  N3  UNL     1       3.975  -1.509  -1.348  1.00  0.00    -0.211 N 
HETATM   26  N2  UNL     1       4.896  -0.832  -1.981  1.00  0.00    -0.115 N 
ATOM     27  H3  UNL     1       3.417  -2.254  -1.765  1.00  0.00     0.210 HD
HETATM   28  C1  UNL     1       5.407   0.049  -1.127  1.00  0.00     0.707 A 
ATOM     29  H2  UNL     1       5.173  -0.957  -2.955  1.00  0.00     0.207 HD
HETATM   30  N10 UNL     1       4.757  -0.133   0.032  1.00  0.00    -0.113 N 
ATOM     31  H10 UNL     1       4.928   0.398   0.886  1.00  0.00     0.207 HD
BRANCH  28  32
HETATM   32  N1  UNL     1       6.348   0.926  -1.331  1.00  0.00    -0.232 N 
ATOM     33  H12 UNL     1       6.842   1.064  -2.212  1.00  0.00     0.174 HD
ATOM     34  H11 UNL     1       6.740   1.602  -0.676  1.00  0.00     0.174 HD
ENDBRANCH  28  32
ENDBRANCH  23  24
ENDBRANCH  22  23
BRANCH  22  35
HETATM   35  O1  UNL     1       1.823   0.509   1.156  1.00  0.00    -0.389 OA
ATOM     36  H1  UNL     1       1.002   0.987   1.147  1.00  0.00     0.210 HD
ENDBRANCH  22  35
ENDBRANCH   1  22
TORSDOF 10
