REMARK  10 active torsions:
REMARK  status: ('A' for Active; 'I' for Inactive)
REMARK    1  A    between atoms: N4_5  and  O1_6 
REMARK    2  A    between atoms: C2_8  and  C3_9 
REMARK    3  A    between atoms: C3_9  and  C4_10 
REMARK    4  A    between atoms: N5_12  and  N6_14 
REMARK       I    between atoms: N6_14  and  C5_15 
REMARK       I    between atoms: C5_15  and  N7_17 
REMARK    5  A    between atoms: N7_17  and  C6_19 
REMARK    6  A    between atoms: C6_19  and  O3_20 
REMARK    7  A    between atoms: N8_22  and  C7_24 
REMARK    8  A    between atoms: C7_24  and  C8_25 
REMARK    9  A    between atoms: C8_25  and  N9_26 
REMARK   10  A    between atoms: C8_25  and  O4_30 
ROOT
HETATM    1  N6  UNL     1      -0.530   0.259  -0.154  1.00  0.00    -0.265 NA
HETATM    2  C5  UNL     1       1.015   0.375  -0.374  1.00  0.00     0.419 C 
HETATM    3  O2  UNL     1       1.436   0.600   0.698  1.00  0.00    -0.228 OA
HETATM    4  N7  UNL     1       1.119   0.179  -1.657  1.00  0.00    -0.261 N 
ATOM      5  H7  UNL     1       0.424   0.204  -2.403  1.00  0.00     0.175 HD
ENDROOT
BRANCH   1   6
HETATM    6  N5  UNL     1      -1.699   0.171   0.013  1.00  0.00    -0.230 N 
HETATM    7  C3  UNL     1      -2.776   0.553   0.603  1.00  0.00     0.097 C 
ATOM      8  H5  UNL     1      -1.998  -0.570  -0.621  1.00  0.00     0.202 HD
BRANCH   7   9
HETATM    9  C2  UNL     1      -4.004  -0.079   0.279  1.00  0.00     0.190 A 
HETATM   10  N1  UNL     1      -4.279  -1.244  -0.315  1.00  0.00    -0.262 N 
HETATM   11  C1  UNL     1      -3.323  -2.318  -0.588  1.00  0.00     0.176 C 
HETATM   12  N2  UNL     1      -5.570  -1.394  -0.582  1.00  0.00    -0.003 NA
HETATM   13  N3  UNL     1      -6.173  -0.260  -0.124  1.00  0.00     0.022 NA
HETATM   14  N4  UNL     1      -5.223   0.522   0.392  1.00  0.00    -0.129 N 
BRANCH  14  15
HETATM   15  O1  UNL     1      -5.525   1.718   0.942  1.00  0.00    -0.268 OA
ATOM     16  H1  UNL     1      -4.849   2.275   1.309  1.00  0.00     0.246 HD
ENDBRANCH  14  15
ENDBRANCH   7   9
BRANCH   7  17
HETATM   17  C4  UNL     1      -2.663   1.650   1.630  1.00  0.00     0.149 C 
HETATM   18  S1  UNL     1      -2.889   0.957   3.253  1.00  0.00    -0.091 SA
ENDBRANCH   7  17
ENDBRANCH   1   6
BRANCH   4  19
HETATM   19  C6  UNL     1       2.789  -0.133  -1.684  1.00  0.00     0.221 C 
HETATM   20  N8  UNL     1       3.639  -0.094  -0.765  1.00  0.00    -0.352 N 
ATOM     21  H8  UNL     1       3.373   0.402   0.085  1.00  0.00     0.163 HD
BRANCH  19  22
HETATM   22  O3  UNL     1       2.915  -0.509  -3.015  1.00  0.00    -0.332 OA
ATOM     23  H3  UNL     1       3.849  -0.683  -3.030  1.00  0.00     0.220 HD
ENDBRANCH  19  22
BRANCH  20  24
HETATM   24  C7  UNL     1       4.984  -0.693  -0.789  1.00  0.00     0.184 C 
BRANCH  24  25
HETATM   25  C8  UNL     1       5.945  -0.201   0.160  1.00  0.00     0.334 C 
BRANCH  25  26
HETATM   26  N9  UNL     1       5.897   0.904   1.004  1.00  0.00    -0.051 N 
ATOM     27  H93 UNL     1       5.706   1.695   0.390  1.00  0.00     0.277 HD
ATOM     28  H92 UNL     1       5.036   0.789   1.538  1.00  0.00     0.277 HD
ATOM     29  H91 UNL     1       6.579   1.253   1.677  1.00  0.00     0.277 HD
ENDBRANCH  25  26
BRANCH  25  30
HETATM   30  O4  UNL     1       7.034  -0.908   0.230  1.00  0.00    -0.369 OA
ATOM     31  H4  UNL     1       7.669  -0.583   0.857  1.00  0.00     0.212 HD
ENDBRANCH  25  30
ENDBRANCH  24  25
ENDBRANCH  20  24
ENDBRANCH   4  19
TORSDOF 10
