REMARK  5 active torsions:
REMARK  status: ('A' for Active; 'I' for Inactive)
REMARK    1  A    between atoms: N1_1  and  N2_4 
REMARK       I    between atoms: N2_4  and  C1_6 
REMARK    2  A    between atoms: C1_6  and  C2_8 
REMARK    3  A    between atoms: C4_12  and  C5_13 
REMARK    4  A    between atoms: N4_14  and  N5_16 
REMARK    5  A    between atoms: N5_16  and  C6_18 
ROOT
HETATM    1  C2  UNL     1      -2.078  -0.120  -0.266  1.00  0.00     0.145 A 
HETATM    2  N3  UNL     1      -1.716   0.586   0.796  1.00  0.00    -0.354 N 
ATOM      3  H3  UNL     1      -2.406   0.829   1.506  1.00  0.00     0.166 HD
HETATM    4  C3  UNL     1      -0.490   0.966   0.931  1.00  0.00     0.109 A 
HETATM    5  C4  UNL     1       0.404   0.617  -0.050  1.00  0.00     0.039 A 
HETATM    6  S2  UNL     1      -0.605  -0.258  -1.128  1.00  0.00    -0.064 SA
ENDROOT
BRANCH   5   7
HETATM    7  C5  UNL     1       1.838   0.919  -0.139  1.00  0.00     0.127 C 
HETATM    8  N4  UNL     1       2.503   0.503  -1.137  1.00  0.00    -0.309 N 
ATOM      9  H4  UNL     1       2.053  -0.037  -1.876  1.00  0.00     0.186 HD
BRANCH   8  10
HETATM   10  N5  UNL     1       3.863   0.803  -1.198  1.00  0.00    -0.279 N 
ATOM     11  H5  UNL     1       4.182   1.645  -1.677  1.00  0.00     0.189 HD
BRANCH  10  12
HETATM   12  C6  UNL     1       4.795  -0.065  -0.594  1.00  0.00     0.199 C 
HETATM   13  N6  UNL     1       4.342  -1.229   0.067  1.00  0.00    -0.068 NA
HETATM   14  S1  UNL     1       6.400   0.266  -0.652  1.00  0.00    -0.043 SA
ENDBRANCH  10  12
ENDBRANCH   8  10
ENDBRANCH   5   7
BRANCH   1  15
HETATM   15  C1  UNL     1      -3.406  -0.644  -0.604  1.00  0.00     0.293 C 
HETATM   16  N2  UNL     1      -4.465  -0.390   0.283  1.00  0.00    -0.271 N 
ATOM     17  H2  UNL     1      -4.306   0.145   1.137  1.00  0.00     0.189 HD
HETATM   18  O1  UNL     1      -3.572  -1.290  -1.646  1.00  0.00    -0.264 OA
BRANCH  16  19
HETATM   19  N1  UNL     1      -5.732  -0.876  -0.017  1.00  0.00    -0.342 N 
ATOM     20  H12 UNL     1      -5.874  -1.409  -0.875  1.00  0.00     0.176 HD
ATOM     21  H11 UNL     1      -6.501  -0.692   0.627  1.00  0.00     0.176 HD
ENDBRANCH  16  19
ENDBRANCH   1  15
TORSDOF 5
