REMARK  4 active torsions:
REMARK  status: ('A' for Active; 'I' for Inactive)
REMARK    1  A    between atoms: C4_11  and  N4_12 
REMARK    2  A    between atoms: N4_12  and  C5_14 
REMARK    3  A    between atoms: C5_14  and  C6_15 
REMARK    4  A    between atoms: C8_21  and  C9_22 
ROOT
HETATM    1  N4  UNL     1       0.226   0.486   1.065  1.00  0.00    -0.356 N 
ATOM      2  H4  UNL     1       0.023   0.701   2.041  1.00  0.00     0.165 HD
ENDROOT
BRANCH   1   3
HETATM    3  C4  UNL     1       1.545   0.696   0.580  1.00  0.00     0.142 A 
HETATM    4  C1  UNL     1       2.232  -0.344  -0.014  1.00  0.00     0.152 A 
HETATM    5  N1  UNL     1       1.628  -1.620  -0.144  1.00  0.00    -0.080 NA
HETATM    6  N2  UNL     1       3.493  -0.123  -0.471  1.00  0.00    -0.295 N 
HETATM    7  C2  UNL     1       4.075   1.083  -0.353  1.00  0.00     0.328 A 
ATOM      8  H2  UNL     1       4.007  -0.886  -0.911  1.00  0.00     0.172 HD
HETATM    9  O1  UNL     1       5.254   1.301  -0.778  1.00  0.00    -0.247 OA
HETATM   10  N3  UNL     1       3.438   2.127   0.222  1.00  0.00    -0.273 N 
HETATM   11  C3  UNL     1       2.193   1.912   0.674  1.00  0.00     0.279 A 
ATOM     12  H3  UNL     1       3.885   3.040   0.309  1.00  0.00     0.173 HD
HETATM   13  O2  UNL     1       1.570   2.861   1.216  1.00  0.00    -0.265 OA
ENDBRANCH   1   3
BRANCH   1  14
HETATM   14  C5  UNL     1      -0.726   0.034   0.320  1.00  0.00     0.120 C 
BRANCH  14  15
HETATM   15  C6  UNL     1      -2.076  -0.176   0.833  1.00  0.00     0.078 A 
HETATM   16  N5  UNL     1      -2.481   0.071   2.117  1.00  0.00    -0.349 N 
HETATM   17  C7  UNL     1      -3.770  -0.225   2.255  1.00  0.00     0.181 A 
ATOM     18  H5  UNL     1      -1.881   0.430   2.860  1.00  0.00     0.166 HD
HETATM   19  N6  UNL     1      -4.227  -0.663   1.093  1.00  0.00    -0.348 N 
HETATM   20  C8  UNL     1      -3.205  -0.643   0.198  1.00  0.00     0.099 A 
ATOM     21  H6  UNL     1      -5.183  -0.964   0.902  1.00  0.00     0.167 HD
BRANCH  20  22
HETATM   22  C9  UNL     1      -3.303  -1.050  -1.190  1.00  0.00     0.290 C 
HETATM   23  O3  UNL     1      -2.346  -1.021  -1.993  1.00  0.00    -0.300 OA
ENDBRANCH  20  22
ENDBRANCH  14  15
ENDBRANCH   1  14
TORSDOF 4
