REMARK  4 active torsions:
REMARK  status: ('A' for Active; 'I' for Inactive)
REMARK    1  A    between atoms: N1_1  and  C1_4 
REMARK    2  A    between atoms: C2_7  and  N3_8 
REMARK    3  A    between atoms: C5_11  and  C6_12 
REMARK    4  A    between atoms: C8_17  and  N6_18 
ROOT
HETATM    1  C1  UNL     1      -0.995  -2.020   0.263  1.00  0.00     0.136 A 
HETATM    2  N2  UNL     1       0.260  -1.611   0.392  1.00  0.00    -0.326 N 
ATOM      3  H2  UNL     1       0.984  -2.287   0.637  1.00  0.00     0.169 HD
HETATM    4  C2  UNL     1       0.605  -0.292   0.202  1.00  0.00     0.122 A 
HETATM    5  C5  UNL     1      -0.374   0.593  -0.123  1.00  0.00     0.100 A 
HETATM    6  C7  UNL     1      -1.702   0.155  -0.258  1.00  0.00     0.102 A 
HETATM    7  N5  UNL     1      -2.740   1.069  -0.593  1.00  0.00    -0.098 NA
HETATM    8  C8  UNL     1      -2.019  -1.154  -0.065  1.00  0.00     0.171 A 
ENDROOT
BRANCH   1   9
HETATM    9  N1  UNL     1      -1.335  -3.273   0.438  1.00  0.00    -0.383 N 
ATOM     10  H12 UNL     1      -0.578  -3.913   0.680  1.00  0.00     0.157 HD
ATOM     11  H11 UNL     1      -2.300  -3.588   0.339  1.00  0.00     0.157 HD
ENDBRANCH   1   9
BRANCH   8  12
HETATM   12  N6  UNL     1      -3.369  -1.596  -0.207  1.00  0.00    -0.110 N 
HETATM   13  O2  UNL     1      -4.040  -1.880   0.785  1.00  0.00    -0.532 OA
HETATM   14  O3  UNL     1      -3.939  -1.712  -1.444  1.00  0.00    -0.532 OA
ENDBRANCH   8  12
BRANCH   4  15
HETATM   15  N3  UNL     1       1.981   0.053   0.361  1.00  0.00    -0.363 N 
HETATM   16  C3  UNL     1       3.154   0.458   1.088  1.00  0.00     0.144 A 
HETATM   17  C4  UNL     1       3.264   0.132  -0.374  1.00  0.00     0.144 A 
ENDBRANCH   4  15
BRANCH   5  18
HETATM   18  C6  UNL     1      -0.124   1.994  -0.350  1.00  0.00     0.270 C 
HETATM   19  N4  UNL     1       1.126   2.641  -0.272  1.00  0.00    -0.057 NA
HETATM   20  O1  UNL     1      -1.104   2.757  -0.654  1.00  0.00    -0.271 OA
ENDBRANCH   5  18
TORSDOF 4
