REMARK  5 active torsions:
REMARK  status: ('A' for Active; 'I' for Inactive)
REMARK    1  A    between atoms: N1_1  and  C1_4 
REMARK    2  A    between atoms: N3_9  and  C3_10 
REMARK    3  A    between atoms: C4_12  and  N4_13 
REMARK    4  A    between atoms: N4_13  and  N5_14 
REMARK    5  A    between atoms: N5_14  and  C5_16 
ROOT
HETATM    1  C1  UNL     1      -2.889   1.054   1.294  1.00  0.00     0.683 A 
HETATM    2  N2  UNL     1      -3.907   0.779   0.459  1.00  0.00    -0.141 N 
ATOM      3  H2  UNL     1      -4.834   1.149   0.670  1.00  0.00     0.189 HD
HETATM    4  C2  UNL     1      -3.740   0.033  -0.642  1.00  0.00     0.350 A 
HETATM    5  O1  UNL     1      -4.724  -0.208  -1.414  1.00  0.00    -0.245 OA
HETATM    6  N3  UNL     1      -2.535  -0.479  -0.964  1.00  0.00    -0.196 N 
HETATM    7  C4  UNL     1      -1.485  -0.223  -0.144  1.00  0.00     0.308 A 
HETATM    8  N6  UNL     1      -1.700   0.559   0.994  1.00  0.00    -0.147 N 
ATOM      9  H6  UNL     1      -0.914   0.754   1.614  1.00  0.00     0.188 HD
ENDROOT
BRANCH   7  10
HETATM   10  N4  UNL     1      -0.386  -0.662  -0.357  1.00  0.00    -0.286 NA
BRANCH  10  11
HETATM   11  N5  UNL     1       0.785  -1.139  -0.597  1.00  0.00    -0.233 N 
ATOM     12  H5  UNL     1       0.837  -2.036  -1.081  1.00  0.00     0.202 HD
BRANCH  11  13
HETATM   13  C5  UNL     1       2.044  -0.499  -0.232  1.00  0.00     0.060 A 
HETATM   14  C6  UNL     1       2.449   0.668  -0.797  1.00  0.00     0.032 A 
HETATM   15  C7  UNL     1       3.682   1.176  -0.406  1.00  0.00     0.002 A 
HETATM   16  C8  UNL     1       4.473   0.536   0.516  1.00  0.00     0.000 A 
HETATM   17  C9  UNL     1       4.060  -0.640   1.084  1.00  0.00     0.002 A 
HETATM   18  C10 UNL     1       2.832  -1.160   0.704  1.00  0.00     0.032 A 
ENDBRANCH  11  13
ENDBRANCH  10  11
ENDBRANCH   7  10
BRANCH   6  19
HETATM   19  C3  UNL     1      -2.389  -1.255  -2.138  1.00  0.00     0.367 C 
HETATM   20  O2  UNL     1      -1.371  -1.785  -2.580  1.00  0.00    -0.283 OA
ENDBRANCH   6  19
BRANCH   1  21
HETATM   21  N1  UNL     1      -3.101   1.778   2.350  1.00  0.00    -0.234 N 
ATOM     22  H12 UNL     1      -4.018   2.160   2.581  1.00  0.00     0.174 HD
ATOM     23  H11 UNL     1      -2.329   1.987   2.983  1.00  0.00     0.174 HD
ENDBRANCH   1  21
TORSDOF 5
