REMARK  7 active torsions:
REMARK  status: ('A' for Active; 'I' for Inactive)
REMARK    1  A    between atoms: O1_2  and  C2_3 
REMARK    2  A    between atoms: C2_3  and  C3_4 
REMARK    3  A    between atoms: C2_3  and  C10_11 
REMARK    4  A    between atoms: C3_4  and  C4_5 
REMARK    5  A    between atoms: C12_13  and  O2_14 
REMARK    6  A    between atoms: C13_16  and  N1_17 
REMARK       I    between atoms: N2_19  and  C14_21 
REMARK       I    between atoms: C14_21  and  N3_23 
REMARK    7  A    between atoms: N3_23  and  O4_25 
ROOT
HETATM    1  C10 UNL     1       0.942  -0.678  -0.471  1.00  0.00     0.016 A 
HETATM    2  C11 UNL     1       1.774  -1.755  -0.444  1.00  0.00     0.056 A 
HETATM    3  C12 UNL     1       3.097  -1.513  -0.434  1.00  0.00     0.101 A 
HETATM    4  C13 UNL     1       3.489  -0.201  -0.454  1.00  0.00     0.122 A 
HETATM    5  S1  UNL     1       2.011   0.648  -0.484  1.00  0.00    -0.070 SA
ENDROOT
BRANCH   1   6
HETATM    6  C2  UNL     1      -0.576  -0.651  -0.487  1.00  0.00     0.161 C 
BRANCH   6   7
HETATM    7  O1  UNL     1      -0.994  -1.564   0.434  1.00  0.00    -0.386 OA
HETATM    8  C1  UNL     1      -1.611  -2.676  -0.165  1.00  0.00     0.202 C 
ENDBRANCH   6   7
BRANCH   6   9
HETATM    9  C3  UNL     1      -0.966   0.743  -0.174  1.00  0.00     0.042 C 
BRANCH   9  10
HETATM   10  C4  UNL     1      -2.404   1.063  -0.056  1.00  0.00    -0.012 C 
HETATM   11  C5  UNL     1      -3.216   0.762  -1.296  1.00  0.00     0.005 C 
HETATM   12  C6  UNL     1      -4.519   1.558  -1.130  1.00  0.00     0.000 C 
HETATM   13  C7  UNL     1      -5.239   0.913   0.032  1.00  0.00     0.000 C 
HETATM   14  C8  UNL     1      -4.501   0.973   1.315  1.00  0.00     0.000 C 
HETATM   15  C9  UNL     1      -3.033   0.667   1.216  1.00  0.00     0.005 C 
ENDBRANCH   9  10
ENDBRANCH   6   9
ENDBRANCH   1   6
BRANCH   3  16
HETATM   16  O2  UNL     1       4.062  -2.552  -0.406  1.00  0.00    -0.358 OA
ATOM     17  H2  UNL     1       4.996  -2.381  -0.399  1.00  0.00     0.217 HD
ENDBRANCH   3  16
BRANCH   4  18
HETATM   18  N1  UNL     1       4.845   0.310  -0.449  1.00  0.00    -0.287 N 
HETATM   19  N2  UNL     1       5.446   0.189   0.673  1.00  0.00    -0.249 N 
HETATM   20  C14 UNL     1       6.792   0.664   0.781  1.00  0.00     0.358 C 
ATOM     21  H2  UNL     1       4.977  -0.236   1.473  1.00  0.00     0.192 HD
HETATM   22  O3  UNL     1       7.263   1.058   1.882  1.00  0.00    -0.243 OA
HETATM   23  N3  UNL     1       7.590   0.680  -0.392  1.00  0.00    -0.218 N 
ATOM     24  H3  UNL     1       7.211   0.361  -1.284  1.00  0.00     0.199 HD
ATOM     25  H1  UNL     1       5.282   0.730  -1.269  1.00  0.00     0.188 HD
BRANCH  23  26
HETATM   26  O4  UNL     1       8.874   1.130  -0.304  1.00  0.00    -0.286 OA
ATOM     27  H4  UNL     1       9.408   1.141  -1.089  1.00  0.00     0.244 HD
ENDBRANCH  23  26
ENDBRANCH   4  18
TORSDOF 7
