REMARK  4 active torsions:
REMARK  status: ('A' for Active; 'I' for Inactive)
REMARK    1  A    between atoms: C5_6  and  N2_7 
REMARK    2  A    between atoms: C8_15  and  N5_16 
REMARK    3  A    between atoms: N5_16  and  C9_18 
REMARK    4  A    between atoms: C14_23  and  S1_24 
ROOT
HETATM    1  C1  UNL     1      -3.699  -1.729  -0.144  1.00  0.00     0.051 C 
HETATM    2  C2  UNL     1      -2.782  -0.556  -0.108  1.00  0.00    -0.019 A 
HETATM    3  C3  UNL     1      -3.238   0.660   0.314  1.00  0.00     0.081 A 
HETATM    4  C4  UNL     1      -4.607   0.824   0.726  1.00  0.00     0.102 C 
HETATM    5  N1  UNL     1      -5.710   0.931   1.052  1.00  0.00    -0.191 NA
HETATM    6  C5  UNL     1      -2.346   1.707   0.328  1.00  0.00     0.091 A 
HETATM    7  C6  UNL     1      -1.039   1.545  -0.067  1.00  0.00     0.102 A 
HETATM    8  C7  UNL     1      -0.154   2.650  -0.050  1.00  0.00     0.104 C 
HETATM    9  N4  UNL     1       0.574   3.566  -0.059  1.00  0.00    -0.191 NA
HETATM   10  C8  UNL     1      -0.565   0.290  -0.503  1.00  0.00     0.070 A 
HETATM   11  C14 UNL     1      -1.446  -0.733  -0.515  1.00  0.00     0.051 A 
ENDROOT
BRANCH   6  12
HETATM   12  N2  UNL     1      -2.864   2.961   0.776  1.00  0.00    -0.304 N 
HETATM   13  N3  UNL     1      -2.515   4.045   0.218  1.00  0.00    -0.345 N 
ATOM     14  H32 UNL     1      -1.855   4.004  -0.559  1.00  0.00     0.176 HD
ATOM     15  H31 UNL     1      -2.885   4.940   0.538  1.00  0.00     0.176 HD
ATOM     16  H2  UNL     1      -3.523   2.985   1.554  1.00  0.00     0.186 HD
ENDBRANCH   6  12
BRANCH  11  17
HETATM   17  S1  UNL     1      -1.022  -2.341  -1.125  1.00  0.00    -0.008 SA
HETATM   18  C15 UNL     1      -0.634  -3.462   0.139  1.00  0.00     0.139 C 
HETATM   19  N6  UNL     1      -0.387  -4.226   0.975  1.00  0.00    -0.184 NA
ENDBRANCH  11  17
BRANCH  10  20
HETATM   20  N5  UNL     1       0.754   0.197  -0.956  1.00  0.00    -0.383 N 
ATOM     21  H5  UNL     1       0.864   0.179  -1.970  1.00  0.00     0.160 HD
BRANCH  20  22
HETATM   22  C9  UNL     1       1.963   0.124  -0.217  1.00  0.00     0.082 C 
HETATM   23  C10 UNL     1       2.241  -1.090   0.581  1.00  0.00     0.025 C 
HETATM   24  C11 UNL     1       3.741  -1.028   0.820  1.00  0.00     0.002 C 
HETATM   25  C12 UNL     1       4.281   0.058  -0.059  1.00  0.00     0.002 C 
HETATM   26  C13 UNL     1       3.192   0.196  -1.127  1.00  0.00     0.025 C 
ENDBRANCH  20  22
ENDBRANCH  10  20
TORSDOF 4
