REMARK  9 active torsions:
REMARK  status: ('A' for Active; 'I' for Inactive)
REMARK    1  A    between atoms: C2_2  and  O1_3 
REMARK    2  A    between atoms: O1_3  and  C3_4 
REMARK    3  A    between atoms: C3_4  and  C4_6 
REMARK    4  A    between atoms: C6_8  and  N1_9 
REMARK    5  A    between atoms: N1_9  and  O3_11 
REMARK    6  A    between atoms: C10_17  and  C11_18 
REMARK    7  A    between atoms: C12_19  and  C13_20 
REMARK    8  A    between atoms: C13_20  and  O4_21 
REMARK    9  A    between atoms: N3_23  and  O5_25 
ROOT
HETATM    1  C4  UNL     1      -1.682  -0.050  -0.106  1.00  0.00     0.076 A 
HETATM    2  C5  UNL     1      -2.182  -0.939  -1.017  1.00  0.00     0.054 A 
HETATM    3  C6  UNL     1      -1.422  -1.784  -1.797  1.00  0.00     0.080 A 
HETATM    4  C7  UNL     1      -0.055  -1.720  -1.639  1.00  0.00     0.088 A 
HETATM    5  N2  UNL     1       0.791  -2.562  -2.410  1.00  0.00    -0.099 NA
HETATM    6  C8  UNL     1       0.488  -0.839  -0.732  1.00  0.00     0.028 A 
HETATM    7  C9  UNL     1       1.800  -0.538  -0.344  1.00  0.00     0.053 A 
HETATM    8  C10 UNL     1       1.779   0.433   0.611  1.00  0.00     0.077 A 
HETATM    9  O6  UNL     1       0.459   0.704   0.786  1.00  0.00    -0.309 OA
HETATM   10  C14 UNL     1      -0.285  -0.015   0.026  1.00  0.00     0.104 A 
ENDROOT
BRANCH   8  11
HETATM   11  C11 UNL     1       2.797   1.129   1.368  1.00  0.00     0.041 C 
HETATM   12  C12 UNL     1       4.062   1.110   1.437  1.00  0.00     0.060 C 
BRANCH  12  13
HETATM   13  C13 UNL     1       5.162   0.422   0.836  1.00  0.00     0.159 C 
HETATM   14  N3  UNL     1       6.412   0.714   1.210  1.00  0.00    -0.248 N 
ATOM     15  H3  UNL     1       6.567   1.427   1.923  1.00  0.00     0.196 HD
BRANCH  13  16
HETATM   16  O4  UNL     1       5.037  -0.544  -0.126  1.00  0.00    -0.345 OA
ATOM     17  H4  UNL     1       5.768  -1.001  -0.525  1.00  0.00     0.219 HD
ENDBRANCH  13  16
BRANCH  14  18
HETATM   18  O5  UNL     1       7.482   0.079   0.659  1.00  0.00    -0.288 OA
ATOM     19  H5  UNL     1       8.370   0.286   0.925  1.00  0.00     0.244 HD
ENDBRANCH  14  18
ENDBRANCH  12  13
ENDBRANCH   8  11
BRANCH   1  20
HETATM   20  C3  UNL     1      -2.481   0.841   0.716  1.00  0.00     0.296 C 
HETATM   21  O2  UNL     1      -1.916   1.619   1.523  1.00  0.00    -0.259 OA
BRANCH  20  22
HETATM   22  O1  UNL     1      -3.855   0.879   0.658  1.00  0.00    -0.318 OA
BRANCH  22  23
HETATM   23  C2  UNL     1      -4.655   1.739   1.450  1.00  0.00     0.174 C 
HETATM   24  C1  UNL     1      -6.103   1.451   1.065  1.00  0.00     0.034 C 
ENDBRANCH  22  23
ENDBRANCH  20  22
ENDBRANCH   1  20
BRANCH   3  25
HETATM   25  N1  UNL     1      -2.032  -2.690  -2.732  1.00  0.00    -0.267 N 
ATOM     26  H1  UNL     1      -2.097  -2.492  -3.731  1.00  0.00     0.194 HD
BRANCH  25  27
HETATM   27  O3  UNL     1      -2.482  -3.753  -2.213  1.00  0.00    -0.289 OA
ATOM     28  H3  UNL     1      -2.885  -4.352  -2.831  1.00  0.00     0.244 HD
ENDBRANCH  25  27
ENDBRANCH   3  25
TORSDOF 9
