REMARK  7 active torsions:
REMARK  status: ('A' for Active; 'I' for Inactive)
REMARK    1  A    between atoms: C4_4  and  C5_5 
REMARK    2  A    between atoms: C5_5  and  S1_6 
REMARK    3  A    between atoms: S1_6  and  C6_7 
REMARK    4  A    between atoms: C8_11  and  O1_12 
REMARK    5  A    between atoms: N2_14  and  C9_15 
REMARK    6  A    between atoms: C9_15  and  O2_16 
REMARK    7  A    between atoms: N3_18  and  O3_20 
ROOT
HETATM    1  C6  UNL     1       0.128  -0.023   1.192  1.00  0.00     0.114 A 
HETATM    2  N1  UNL     1       1.266  -0.579   1.405  1.00  0.00    -0.340 N 
ATOM      3  H1  UNL     1       1.377  -1.222   2.189  1.00  0.00     0.167 HD
HETATM    4  C7  UNL     1       2.312  -0.319   0.601  1.00  0.00     0.111 A 
HETATM    5  C8  UNL     1       3.621  -0.800   0.641  1.00  0.00     0.185 A 
HETATM    6  N2  UNL     1       4.440  -0.366  -0.287  1.00  0.00    -0.221 N 
HETATM    7  S2  UNL     1       3.557   0.676  -1.243  1.00  0.00     0.008 SA
HETATM    8  C10 UNL     1       2.052   0.551  -0.412  1.00  0.00     0.096 A 
HETATM    9  S3  UNL     1       0.382   0.949  -0.182  1.00  0.00    -0.054 SA
ENDROOT
BRANCH   6  10
HETATM   10  C9  UNL     1       5.818  -0.668  -0.506  1.00  0.00     0.256 C 
HETATM   11  N3  UNL     1       6.705   0.271  -0.651  1.00  0.00    -0.232 N 
ATOM     12  H3  UNL     1       7.686   0.037  -0.806  1.00  0.00     0.198 HD
BRANCH  10  13
HETATM   13  O2  UNL     1       6.212  -1.996  -0.563  1.00  0.00    -0.330 OA
ATOM     14  H2  UNL     1       7.129  -2.197  -0.709  1.00  0.00     0.221 HD
ENDBRANCH  10  13
BRANCH  11  15
HETATM   15  O3  UNL     1       6.303   1.579  -0.592  1.00  0.00    -0.287 OA
ATOM     16  H3  UNL     1       6.951   2.265  -0.698  1.00  0.00     0.244 HD
ENDBRANCH  11  15
ENDBRANCH   6  10
BRANCH   5  17
HETATM   17  O1  UNL     1       4.098  -1.638   1.514  1.00  0.00    -0.344 OA
ATOM     18  H1  UNL     1       4.989  -1.966   1.541  1.00  0.00     0.219 HD
ENDBRANCH   5  17
BRANCH   1  19
HETATM   19  S1  UNL     1      -1.418  -0.203   2.127  1.00  0.00    -0.101 SA
BRANCH  19  20
HETATM   20  C5  UNL     1      -2.639   0.854   1.290  1.00  0.00     0.108 C 
BRANCH  20  21
HETATM   21  C4  UNL     1      -2.987   0.357  -0.065  1.00  0.00    -0.014 C 
HETATM   22  C2  UNL     1      -4.223   0.034  -0.358  1.00  0.00    -0.091 C 
HETATM   23  C1  UNL     1      -5.280   0.161   0.661  1.00  0.00     0.042 C 
HETATM   24  C3  UNL     1      -4.537  -0.461  -1.731  1.00  0.00     0.042 C 
ENDBRANCH  20  21
ENDBRANCH  19  20
ENDBRANCH   1  19
TORSDOF 7
