REMARK  6 active torsions:
REMARK  status: ('A' for Active; 'I' for Inactive)
REMARK    1  A    between atoms: C2_2  and  C3_3 
REMARK    2  A    between atoms: C3_3  and  C5_5 
REMARK    3  A    between atoms: C5_5  and  C7_8 
REMARK    4  A    between atoms: C7_8  and  C8_9 
REMARK    5  A    between atoms: C11_14  and  O1_15 
REMARK       I    between atoms: N2_17  and  C12_18 
REMARK    6  A    between atoms: C14_21  and  O3_22 
ROOT
HETATM    1  C5  UNL     1      -1.207   1.009   0.365  1.00  0.00     0.120 C 
HETATM    2  C6  UNL     1      -1.416   2.430   0.629  1.00  0.00     0.068 C 
HETATM    3  N1  UNL     1      -1.566   3.580   0.835  1.00  0.00    -0.197 NA
ENDROOT
BRANCH   1   4
HETATM    4  C3  UNL     1      -2.492   0.335   0.835  1.00  0.00     0.002 C 
HETATM    5  C4  UNL     1      -2.434  -1.150   0.741  1.00  0.00     0.011 C 
BRANCH   4   6
HETATM    6  C2  UNL     1      -3.691   0.838   0.098  1.00  0.00     0.001 C 
HETATM    7  C1  UNL     1      -4.919   0.224   0.738  1.00  0.00     0.005 C 
ENDBRANCH   4   6
ENDBRANCH   1   4
BRANCH   1   8
HETATM    8  C7  UNL     1      -0.969   0.805  -1.066  1.00  0.00     0.013 C 
BRANCH   8   9
HETATM    9  C8  UNL     1       0.073   0.329  -1.680  1.00  0.00     0.025 C 
HETATM   10  S1  UNL     1       0.020   0.205  -3.524  1.00  0.00    -0.052 SA
HETATM   11  S2  UNL     1       0.908  -1.802  -3.332  1.00  0.00    -0.047 SA
HETATM   12  C9  UNL     1       1.903  -1.221  -1.932  1.00  0.00     0.079 A 
HETATM   13  C10 UNL     1       1.372  -0.173  -1.288  1.00  0.00     0.055 A 
HETATM   14  C14 UNL     1       3.112  -1.531  -1.375  1.00  0.00     0.170 A 
HETATM   15  C11 UNL     1       2.325   0.152  -0.302  1.00  0.00     0.164 A 
HETATM   16  N2  UNL     1       3.379  -0.669  -0.352  1.00  0.00    -0.240 N 
HETATM   17  C12 UNL     1       4.557  -0.681   0.463  1.00  0.00     0.228 C 
HETATM   18  C13 UNL     1       4.698   0.330   1.525  1.00  0.00     0.118 C 
HETATM   19  O2  UNL     1       5.469  -1.517   0.305  1.00  0.00    -0.273 OA
BRANCH  15  20
HETATM   20  O1  UNL     1       2.262   1.179   0.640  1.00  0.00    -0.345 OA
ATOM     21  H1  UNL     1       2.904   1.398   1.305  1.00  0.00     0.219 HD
ENDBRANCH  15  20
BRANCH  14  22
HETATM   22  O3  UNL     1       3.995  -2.548  -1.735  1.00  0.00    -0.345 OA
ATOM     23  H3  UNL     1       4.835  -2.763  -1.348  1.00  0.00     0.219 HD
ENDBRANCH  14  22
ENDBRANCH   8   9
ENDBRANCH   1   8
TORSDOF 6
