REMARK  5 active torsions:
REMARK  status: ('A' for Active; 'I' for Inactive)
REMARK    1  A    between atoms: C2_2  and  C3_3 
REMARK    2  A    between atoms: C3_3  and  N1_4 
REMARK    3  A    between atoms: C4_5  and  S1_6 
REMARK    4  A    between atoms: S1_6  and  C5_7 
REMARK    5  A    between atoms: C8_14  and  O1_15 
ROOT
HETATM    1  N1  UNL     1      -2.328   0.253   0.383  1.00  0.00    -0.313 N 
HETATM    2  C4  UNL     1      -0.971   0.396   0.243  1.00  0.00     0.154 A 
HETATM    3  N4  UNL     1      -0.464   1.632   0.082  1.00  0.00    -0.345 N 
ATOM      4  H4  UNL     1       0.547   1.722  -0.021  1.00  0.00     0.167 HD
HETATM    5  C9  UNL     1      -1.194   2.747   0.048  1.00  0.00     0.116 A 
HETATM    6  C10 UNL     1      -2.553   2.631   0.186  1.00  0.00     0.098 A 
HETATM    7  C11 UNL     1      -3.373   3.801   0.156  1.00  0.00     0.104 C 
HETATM    8  N5  UNL     1      -4.047   4.759   0.123  1.00  0.00    -0.191 NA
HETATM    9  C12 UNL     1      -3.076   1.350   0.353  1.00  0.00     0.127 A 
HETATM   10  S3  UNL     1      -4.699   1.253   0.514  1.00  0.00    -0.059 SA
ENDROOT
BRANCH   1  11
HETATM   11  C3  UNL     1      -2.901  -1.040   0.548  1.00  0.00     0.158 C 
BRANCH  11  12
HETATM   12  C2  UNL     1      -3.300  -1.705  -0.708  1.00  0.00    -0.017 C 
HETATM   13  C1  UNL     1      -2.783  -2.871  -1.033  1.00  0.00     0.008 C 
ENDBRANCH  11  12
ENDBRANCH   1  11
BRANCH   2  14
HETATM   14  S1  UNL     1      -0.034  -1.074   0.300  1.00  0.00    -0.032 SA
BRANCH  14  15
HETATM   15  C5  UNL     1       1.694  -0.996   0.130  1.00  0.00     0.131 A 
HETATM   16  N2  UNL     1       2.499  -2.116   0.168  1.00  0.00    -0.324 N 
HETATM   17  C6  UNL     1       3.751  -1.730   0.011  1.00  0.00     0.180 A 
ATOM     18  H2  UNL     1       2.181  -3.077   0.295  1.00  0.00     0.169 HD
HETATM   19  S2  UNL     1       5.084  -2.695  -0.017  1.00  0.00    -0.040 SA
HETATM   20  N3  UNL     1       3.838  -0.400  -0.133  1.00  0.00    -0.307 N 
HETATM   21  C7  UNL     1       5.020   0.416  -0.328  1.00  0.00     0.161 C 
HETATM   22  C8  UNL     1       2.537   0.044  -0.056  1.00  0.00     0.179 A 
BRANCH  22  23
HETATM   23  O1  UNL     1       2.288   1.409  -0.171  1.00  0.00    -0.344 OA
ATOM     24  H1  UNL     1       2.881   2.140  -0.302  1.00  0.00     0.219 HD
ENDBRANCH  22  23
ENDBRANCH  14  15
ENDBRANCH   2  14
TORSDOF 5
