REMARK  6 active torsions:
REMARK  status: ('A' for Active; 'I' for Inactive)
REMARK    1  A    between atoms: S1_2  and  C2_3 
REMARK    2  A    between atoms: C4_5  and  C5_6 
REMARK    3  A    between atoms: C5_6  and  N1_7 
REMARK    4  A    between atoms: N1_7  and  O1_9 
REMARK    5  A    between atoms: O1_9  and  C6_10 
REMARK    6  A    between atoms: C6_10  and  C9_14 
ROOT
HETATM    1  C6  UNL     1      -1.504  -0.891   0.590  1.00  0.00     0.090 C 
HETATM    2  C7  UNL     1      -1.476  -1.347   1.799  1.00  0.00     0.128 C 
HETATM    3  C8  UNL     1      -2.516  -1.213   2.768  1.00  0.00     0.090 C 
HETATM    4  N2  UNL     1      -3.355  -1.122   3.594  1.00  0.00    -0.192 NA
ENDROOT
BRANCH   1   5
HETATM    5  O1  UNL     1      -0.318  -1.169  -0.178  1.00  0.00    -0.242 OA
BRANCH   5   6
HETATM    6  N1  UNL     1       0.771  -0.378  -0.071  1.00  0.00    -0.271 N 
ATOM      7  H1  UNL     1       0.693   0.577  -0.422  1.00  0.00     0.194 HD
BRANCH   6   8
HETATM    8  C5  UNL     1       1.887  -0.726   0.432  1.00  0.00     0.128 C 
BRANCH   8   9
HETATM    9  C4  UNL     1       3.037   0.221   0.507  1.00  0.00     0.014 A 
HETATM   10  C3  UNL     1       4.229  -0.114   1.031  1.00  0.00     0.041 A 
HETATM   11  C2  UNL     1       5.202   0.839   1.043  1.00  0.00     0.043 A 
HETATM   12  S2  UNL     1       4.445   2.186   0.325  1.00  0.00    -0.068 SA
HETATM   13  C15 UNL     1       2.913   1.503   0.028  1.00  0.00     0.100 A 
HETATM   14  N3  UNL     1       1.754   2.105  -0.576  1.00  0.00    -0.093 NA
BRANCH  11  15
HETATM   15  S1  UNL     1       6.894   0.682   1.680  1.00  0.00    -0.127 SA
HETATM   16  C1  UNL     1       7.967   0.110   0.346  1.00  0.00     0.096 C 
ENDBRANCH  11  15
ENDBRANCH   8   9
ENDBRANCH   6   8
ENDBRANCH   5   6
ENDBRANCH   1   5
BRANCH   1  17
HETATM   17  C9  UNL     1      -2.504  -0.144  -0.157  1.00  0.00     0.046 C 
HETATM   18  C10 UNL     1      -3.689   0.374   0.564  1.00  0.00     0.011 C 
HETATM   19  C11 UNL     1      -4.472   1.328  -0.342  1.00  0.00     0.001 C 
HETATM   20  C12 UNL     1      -4.168   1.081  -1.797  1.00  0.00     0.000 C 
HETATM   21  C13 UNL     1      -4.027  -0.386  -2.120  1.00  0.00     0.001 C 
HETATM   22  C14 UNL     1      -2.888  -1.007  -1.358  1.00  0.00     0.011 C 
ENDBRANCH   1  17
TORSDOF 6
