REMARK  4 active torsions:
REMARK  status: ('A' for Active; 'I' for Inactive)
REMARK    1  A    between atoms: C2_2  and  C3_3 
REMARK    2  A    between atoms: C3_3  and  C4_4 
REMARK    3  A    between atoms: C4_4  and  C5_5 
REMARK    4  A    between atoms: N2_14  and  C12_15 
ROOT
HETATM    1  C5  UNL     1       0.857  -0.751  -0.437  1.00  0.00     0.086 A 
HETATM    2  N1  UNL     1       0.071  -1.838  -0.328  1.00  0.00    -0.344 N 
ATOM      3  H1  UNL     1       0.400  -2.802  -0.385  1.00  0.00     0.167 HD
HETATM    4  C6  UNL     1      -1.206  -1.477  -0.134  1.00  0.00     0.061 A 
HETATM    5  C7  UNL     1      -2.360  -2.211   0.031  1.00  0.00     0.042 A 
HETATM    6  C8  UNL     1      -3.612  -1.592   0.220  1.00  0.00    -0.019 A 
HETATM    7  C9  UNL     1      -3.631  -0.232   0.233  1.00  0.00     0.044 A 
HETATM    8  C10 UNL     1      -2.428   0.482   0.060  1.00  0.00     0.062 A 
HETATM    9  C11 UNL     1      -1.213  -0.109  -0.123  1.00  0.00     0.067 A 
HETATM   10  N2  UNL     1       0.070   0.320  -0.311  1.00  0.00    -0.307 N 
HETATM   11  N3  UNL     1      -4.829   0.551   0.435  1.00  0.00    -0.317 N 
ATOM     12  H3  UNL     1      -4.745   1.568   0.428  1.00  0.00     0.169 HD
HETATM   13  C16 UNL     1      -6.102  -0.007   0.640  1.00  0.00     0.284 C 
HETATM   14  O2  UNL     1      -7.150   0.612   0.450  1.00  0.00    -0.260 OA
HETATM   15  S1  UNL     1      -6.123  -1.708   1.208  1.00  0.00    -0.064 SA
HETATM   16  C17 UNL     1      -4.787  -2.524   0.366  1.00  0.00     0.125 C 
ENDROOT
BRANCH  10  17
HETATM   17  C12 UNL     1       0.398   1.688  -0.366  1.00  0.00     0.229 C 
HETATM   18  C13 UNL     1       1.746   2.163  -0.052  1.00  0.00     0.056 C 
HETATM   19  C14 UNL     1       1.461   3.678   0.144  1.00  0.00     0.031 C 
HETATM   20  C15 UNL     1       0.060   3.632   0.689  1.00  0.00     0.170 C 
HETATM   21  O1  UNL     1      -0.297   2.313   0.711  1.00  0.00    -0.366 OA
ENDBRANCH  10  17
BRANCH   1  22
HETATM   22  C4  UNL     1       2.308  -0.877  -0.677  1.00  0.00     0.076 C 
BRANCH  22  23
HETATM   23  C3  UNL     1       3.122  -1.051   0.587  1.00  0.00     0.007 C 
BRANCH  23  24
HETATM   24  C2  UNL     1       4.605  -1.164   0.268  1.00  0.00    -0.004 C 
HETATM   25  C1  UNL     1       4.808  -2.365  -0.628  1.00  0.00     0.005 C 
ENDBRANCH  23  24
ENDBRANCH  22  23
ENDBRANCH   1  22
TORSDOF 4
