REMARK  4 active torsions:
REMARK  status: ('A' for Active; 'I' for Inactive)
REMARK    1  A    between atoms: C2_2  and  C3_3 
REMARK    2  A    between atoms: C5_5  and  C6_6 
REMARK    3  A    between atoms: C7_11  and  C8_12 
REMARK    4  A    between atoms: C14_19  and  N3_20 
ROOT
HETATM    1  C3  UNL     1      -3.003  -0.012   0.051  1.00  0.00    -0.022 A 
HETATM    2  C4  UNL     1      -1.649   0.340  -0.054  1.00  0.00     0.026 A 
HETATM    3  C5  UNL     1      -0.614  -0.515   0.226  1.00  0.00     0.020 A 
HETATM    4  C13 UNL     1      -0.884  -1.796   0.634  1.00  0.00     0.054 A 
HETATM    5  C14 UNL     1      -2.196  -2.166   0.744  1.00  0.00     0.128 A 
HETATM    6  C15 UNL     1      -3.255  -1.293   0.459  1.00  0.00     0.086 A 
HETATM    7  N4  UNL     1      -4.586  -1.750   0.593  1.00  0.00    -0.099 NA
ENDROOT
BRANCH   3   8
HETATM    8  C6  UNL     1       0.781  -0.107   0.103  1.00  0.00     0.174 A 
HETATM    9  N1  UNL     1       1.184   1.114  -0.284  1.00  0.00    -0.277 N 
HETATM   10  N2  UNL     1       2.521   1.163  -0.292  1.00  0.00    -0.281 N 
ATOM     11  H1  UNL     1       0.566   1.886  -0.534  1.00  0.00     0.189 HD
HETATM   12  C7  UNL     1       2.924  -0.059   0.100  1.00  0.00     0.144 A 
ATOM     13  H2  UNL     1       3.109   1.958  -0.542  1.00  0.00     0.189 HD
HETATM   14  O1  UNL     1       1.864  -0.796   0.329  1.00  0.00    -0.277 OA
BRANCH  12  15
HETATM   15  C8  UNL     1       4.356  -0.433   0.227  1.00  0.00     0.062 C 
HETATM   16  C9  UNL     1       5.016   0.514   1.181  1.00  0.00     0.013 C 
HETATM   17  C10 UNL     1       6.226   1.045   0.478  1.00  0.00     0.001 C 
HETATM   18  C11 UNL     1       5.989   0.885  -0.991  1.00  0.00     0.001 C 
HETATM   19  C12 UNL     1       5.083  -0.305  -1.102  1.00  0.00     0.013 C 
ENDBRANCH  12  15
ENDBRANCH   3   8
BRANCH   1  20
HETATM   20  C2  UNL     1      -4.012   0.999  -0.276  1.00  0.00    -0.015 A 
HETATM   21  C1  UNL     1      -3.379   2.347  -0.708  1.00  0.00     0.020 C 
HETATM   22  C16 UNL     1      -5.261   1.199   0.500  1.00  0.00     0.015 A 
HETATM   23  C17 UNL     1      -5.288   0.772  -0.951  1.00  0.00     0.015 A 
ENDBRANCH   1  20
BRANCH   5  24
HETATM   24  N3  UNL     1      -2.568  -3.473   1.162  1.00  0.00    -0.114 N 
HETATM   25  O2  UNL     1      -3.606  -3.970   0.719  1.00  0.00    -0.532 OA
HETATM   26  O3  UNL     1      -1.759  -4.131   2.040  1.00  0.00    -0.532 OA
ENDBRANCH   5  24
TORSDOF 4
