REMARK  6 active torsions:
REMARK  status: ('A' for Active; 'I' for Inactive)
REMARK    1  A    between atoms: O1_2  and  C2_3 
REMARK    2  A    between atoms: C4_5  and  O2_6 
REMARK    3  A    between atoms: C7_9  and  O3_10 
REMARK    4  A    between atoms: C8_12  and  C9_13 
REMARK    5  A    between atoms: C9_13  and  O5_15 
REMARK    6  A    between atoms: O5_15  and  C10_16 
ROOT
HETATM    1  C2  UNL     1      -4.776  -0.131   1.232  1.00  0.00     0.073 A 
HETATM    2  C3  UNL     1      -4.160  -1.222   1.795  1.00  0.00     0.074 A 
HETATM    3  C4  UNL     1      -2.812  -1.405   1.577  1.00  0.00     0.086 A 
HETATM    4  C6  UNL     1      -2.095  -0.499   0.801  1.00  0.00     0.067 A 
HETATM    5  C7  UNL     1      -0.758  -0.418   0.413  1.00  0.00     0.121 A 
HETATM    6  C8  UNL     1      -0.632   0.719  -0.366  1.00  0.00     0.185 A 
HETATM    7  O6  UNL     1      -1.826   1.291  -0.443  1.00  0.00    -0.301 OA
HETATM    8  C16 UNL     1      -2.708   0.595   0.236  1.00  0.00     0.095 A 
HETATM    9  C17 UNL     1      -4.060   0.774   0.458  1.00  0.00     0.075 A 
ENDROOT
BRANCH   6  10
HETATM   10  C9  UNL     1       0.578   1.221  -0.999  1.00  0.00     0.320 C 
HETATM   11  O4  UNL     1       0.503   2.293  -1.684  1.00  0.00    -0.257 OA
BRANCH  10  12
HETATM   12  O5  UNL     1       1.820   0.620  -0.916  1.00  0.00    -0.310 OA
BRANCH  12  13
HETATM   13  C10 UNL     1       2.968   1.185  -1.572  1.00  0.00     0.132 C 
HETATM   14  C11 UNL     1       3.460   0.263  -2.626  1.00  0.00     0.032 C 
HETATM   15  C12 UNL     1       4.597  -0.638  -2.229  1.00  0.00     0.002 C 
HETATM   16  C13 UNL     1       5.788   0.141  -1.714  1.00  0.00     0.000 C 
HETATM   17  C14 UNL     1       5.355   1.486  -1.152  1.00  0.00     0.002 C 
HETATM   18  C15 UNL     1       3.993   1.399  -0.517  1.00  0.00     0.032 C 
ENDBRANCH  12  13
ENDBRANCH  10  12
ENDBRANCH   6  10
BRANCH   5  19
HETATM   19  O3  UNL     1       0.201  -1.347   0.782  1.00  0.00    -0.357 OA
ATOM     20  H3  UNL     1       1.112  -1.292   0.518  1.00  0.00     0.218 HD
ENDBRANCH   5  19
BRANCH   3  21
HETATM   21  O2  UNL     1      -2.134  -2.482   2.114  1.00  0.00    -0.355 OA
HETATM   22  C5  UNL     1      -2.705  -3.478   2.914  1.00  0.00     0.210 C 
ENDBRANCH   3  21
BRANCH   1  23
HETATM   23  O1  UNL     1      -6.137   0.078   1.436  1.00  0.00    -0.356 OA
HETATM   24  C1  UNL     1      -6.810   1.196   0.869  1.00  0.00     0.210 C 
ENDBRANCH   1  23
TORSDOF 6
