REMARK  20 active torsions:
REMARK  status: ('A' for Active; 'I' for Inactive)
REMARK    1  A    between atoms: C2_2  and  C3_3 
REMARK    2  A    between atoms: C3_3  and  C4_4 
REMARK    3  A    between atoms: C3_3  and  C15_16 
REMARK    4  A    between atoms: C4_4  and  C5_5 
REMARK    5  A    between atoms: C7_7  and  C8_8 
REMARK    6  A    between atoms: C8_8  and  N1_9 
REMARK    7  A    between atoms: N1_9  and  C9_10 
REMARK    8  A    between atoms: N1_9  and  C12_13 
REMARK    9  A    between atoms: C15_16  and  C16_17 
REMARK   10  A    between atoms: C16_17  and  O1_18 
REMARK   11  A    between atoms: C16_17  and  C17_20 
REMARK   12  A    between atoms: C18_21  and  C19_22 
REMARK   13  A    between atoms: C19_22  and  C20_24 
REMARK   14  A    between atoms: C23_28  and  O4_29 
REMARK   15  A    between atoms: O4_29  and  C24_30 
REMARK   16  A    between atoms: C26_33  and  O6_34 
REMARK   17  A    between atoms: C26_33  and  C27_36 
REMARK   18  A    between atoms: C27_36  and  O7_37 
REMARK   19  A    between atoms: C28_39  and  O8_40 
REMARK   20  A    between atoms: C29_42  and  O9_43 
ROOT
HETATM    1  C20 UNL     1      -2.974   0.607  -0.428  1.00  0.00     0.199 C 
HETATM    2  O3  UNL     1      -3.198  -0.383   0.505  1.00  0.00    -0.370 OA
HETATM    3  C21 UNL     1      -4.534  -0.498   0.868  1.00  0.00     0.147 C 
HETATM    4  C22 UNL     1      -4.847   0.737   1.717  1.00  0.00     0.042 C 
HETATM    5  C23 UNL     1      -5.483  -0.634  -0.263  1.00  0.00     0.153 C 
HETATM    6  C30 UNL     1      -4.738  -0.740  -1.577  1.00  0.00     0.042 C 
HETATM    7  C31 UNL     1      -3.784   0.402  -1.689  1.00  0.00     0.021 C 
HETATM    8  C32 UNL     1      -4.558   1.661  -1.995  1.00  0.00     0.013 C 
ENDROOT
BRANCH   1   9
HETATM    9  C19 UNL     1      -1.544   0.592  -0.795  1.00  0.00     0.178 C 
HETATM   10  O2  UNL     1      -1.113   1.440  -1.646  1.00  0.00    -0.290 OA
BRANCH   9  11
HETATM   11  C18 UNL     1      -0.653  -0.375  -0.191  1.00  0.00     0.051 C 
HETATM   12  C17 UNL     1       0.602  -0.385  -0.517  1.00  0.00     0.008 C 
BRANCH  12  13
HETATM   13  C16 UNL     1       1.618  -1.360   0.059  1.00  0.00     0.141 C 
BRANCH  13  14
HETATM   14  C15 UNL     1       2.766  -0.522   0.473  1.00  0.00     0.040 C 
BRANCH  14  15
HETATM   15  C3  UNL     1       3.984  -1.172   0.985  1.00  0.00    -0.008 C 
BRANCH  15  16
HETATM   16  C2  UNL     1       3.691  -2.076   2.178  1.00  0.00     0.000 C 
HETATM   17  C1  UNL     1       3.226  -3.437   1.855  1.00  0.00     0.005 C 
ENDBRANCH  15  16
BRANCH  15  18
HETATM   18  C4  UNL     1       5.012  -1.724   0.081  1.00  0.00     0.038 C 
BRANCH  18  19
HETATM   19  C5  UNL     1       5.474  -0.933  -1.042  1.00  0.00    -0.086 C 
HETATM   20  C6  UNL     1       4.637  -0.447  -2.201  1.00  0.00     0.043 C 
HETATM   21  C7  UNL     1       6.771  -0.549  -1.182  1.00  0.00    -0.005 C 
BRANCH  21  22
HETATM   22  C8  UNL     1       7.830  -0.891  -0.222  1.00  0.00     0.145 C 
BRANCH  22  23
HETATM   23  N1  UNL     1       8.475   0.180   0.441  1.00  0.00    -0.402 N 
BRANCH  23  24
HETATM   24  C9  UNL     1       9.476  -0.254   1.320  1.00  0.00     0.071 C 
HETATM   25  C10 UNL     1      10.209   0.806   2.069  1.00  0.00     0.031 C 
HETATM   26  C11 UNL     1      10.524  -1.035   0.515  1.00  0.00     0.031 C 
ENDBRANCH  23  24
BRANCH  23  27
HETATM   27  C12 UNL     1       8.373   1.500   0.036  1.00  0.00     0.071 C 
HETATM   28  C13 UNL     1       8.933   1.717  -1.374  1.00  0.00     0.031 C 
HETATM   29  C14 UNL     1       6.946   1.981   0.033  1.00  0.00     0.031 C 
ENDBRANCH  23  27
ENDBRANCH  22  23
ENDBRANCH  21  22
ENDBRANCH  18  19
ENDBRANCH  15  18
ENDBRANCH  14  15
ENDBRANCH  13  14
BRANCH  13  30
HETATM   30  O1  UNL     1       1.791  -2.291  -0.922  1.00  0.00    -0.392 OA
ATOM     31  H1  UNL     1       1.054  -2.829  -1.188  1.00  0.00     0.210 HD
ENDBRANCH  13  30
ENDBRANCH  12  13
ENDBRANCH   9  11
ENDBRANCH   1   9
BRANCH   5  32
HETATM   32  O4  UNL     1      -6.493   0.313  -0.316  1.00  0.00    -0.351 OA
BRANCH  32  33
HETATM   33  C24 UNL     1      -7.766  -0.233  -0.254  1.00  0.00     0.291 C 
HETATM   34  O5  UNL     1      -8.376   0.003  -1.488  1.00  0.00    -0.355 OA
HETATM   35  C25 UNL     1      -9.054   1.221  -1.493  1.00  0.00     0.213 C 
HETATM   36  C26 UNL     1     -10.297   1.015  -0.658  1.00  0.00     0.128 C 
HETATM   37  C28 UNL     1     -10.027   0.208   0.566  1.00  0.00     0.190 C 
HETATM   38  C29 UNL     1      -8.545   0.304   0.900  1.00  0.00     0.205 C 
BRANCH  36  39
HETATM   39  O6  UNL     1     -11.188   0.278  -1.458  1.00  0.00    -0.383 OA
ATOM     40  H6  UNL     1     -11.969   0.149  -0.933  1.00  0.00     0.210 HD
ENDBRANCH  36  39
BRANCH  36  41
HETATM   41  C27 UNL     1     -10.943   2.344  -0.341  1.00  0.00     0.206 C 
BRANCH  41  42
HETATM   42  O7  UNL     1     -12.139   2.136   0.342  1.00  0.00    -0.398 OA
ATOM     43  H7  UNL     1     -12.545   2.971   0.541  1.00  0.00     0.209 HD
ENDBRANCH  41  42
ENDBRANCH  36  41
BRANCH  37  44
HETATM   44  O8  UNL     1     -10.726   0.741   1.653  1.00  0.00    -0.390 OA
ATOM     45  H8  UNL     1     -10.554   0.227   2.433  1.00  0.00     0.210 HD
ENDBRANCH  37  44
BRANCH  38  46
HETATM   46  O9  UNL     1      -8.253  -0.498   2.016  1.00  0.00    -0.388 OA
ATOM     47  H9  UNL     1      -8.749  -0.156   2.751  1.00  0.00     0.210 HD
ENDBRANCH  38  46
ENDBRANCH  32  33
ENDBRANCH   5  32
TORSDOF 20
