REMARK  17 active torsions:
REMARK  status: ('A' for Active; 'I' for Inactive)
REMARK    1  A    between atoms: N1_1  and  C1_4 
REMARK    2  A    between atoms: C2_7  and  C3_8 
REMARK    3  A    between atoms: C3_8  and  C4_9 
REMARK    4  A    between atoms: N3_11  and  C6_12 
REMARK    5  A    between atoms: C6_12  and  C7_13 
REMARK    6  A    between atoms: C7_13  and  C8_14 
REMARK    7  A    between atoms: C8_14  and  C9_15 
REMARK    8  A    between atoms: C9_15  and  N4_16 
REMARK    9  A    between atoms: N4_16  and  C10_19 
REMARK   10  A    between atoms: C10_19  and  C11_20 
REMARK   11  A    between atoms: C11_20  and  C12_21 
REMARK   12  A    between atoms: C12_21  and  N5_22 
REMARK   13  A    between atoms: N5_22  and  C13_25 
REMARK   14  A    between atoms: C13_25  and  C14_26 
REMARK   15  A    between atoms: C14_26  and  C15_27 
REMARK       I    between atoms: C15_27  and  N6_29 
REMARK   16  A    between atoms: N6_29  and  C16_31 
REMARK   17  A    between atoms: C17_34  and  N8_35 
ROOT
HETATM    1  N4  UNL     1      -0.322   1.306   1.113  1.00  0.00    -0.075 N 
ATOM      2  H41 UNL     1      -0.046   1.488   2.078  1.00  0.00     0.277 HD
ATOM      3  H42 UNL     1      -0.254   2.254   0.742  1.00  0.00     0.277 HD
ENDROOT
BRANCH   1   4
HETATM    4  C9  UNL     1      -1.683   0.815   1.043  1.00  0.00     0.232 C 
BRANCH   4   5
HETATM    5  C8  UNL     1      -2.158   0.882  -0.373  1.00  0.00     0.029 C 
BRANCH   5   6
HETATM    6  C7  UNL     1      -3.551   0.400  -0.594  1.00  0.00     0.022 C 
BRANCH   6   7
HETATM    7  C6  UNL     1      -4.617   1.150   0.145  1.00  0.00     0.128 C 
BRANCH   7   8
HETATM    8  N3  UNL     1      -5.880   0.481  -0.213  1.00  0.00    -0.359 N 
HETATM    9  C5  UNL     1      -6.610   0.789  -1.291  1.00  0.00     0.099 A 
HETATM   10  C4  UNL     1      -7.732  -0.059  -1.365  1.00  0.00    -0.029 A 
HETATM   11  C23 UNL     1      -7.617  -0.882  -0.268  1.00  0.00    -0.027 A 
HETATM   12  C22 UNL     1      -6.460  -0.535   0.442  1.00  0.00     0.018 A 
HETATM   13  C24 UNL     1      -8.436  -2.008   0.222  1.00  0.00     0.041 C 
HETATM   14  C27 UNL     1      -6.012  -1.194   1.682  1.00  0.00     0.058 C 
HETATM   15  C26 UNL     1      -6.933  -2.244   2.188  1.00  0.00     0.006 C 
HETATM   16  C25 UNL     1      -8.363  -2.062   1.740  1.00  0.00     0.005 C 
BRANCH  10  17
HETATM   17  C3  UNL     1      -8.745   0.017  -2.428  1.00  0.00     0.098 C 
BRANCH  17  18
HETATM   18  C2  UNL     1      -9.988   0.788  -2.027  1.00  0.00     0.022 A 
HETATM   19  N2  UNL     1     -10.078   2.087  -2.134  1.00  0.00    -0.340 N 
HETATM   20  C1  UNL     1     -11.220   2.682  -1.782  1.00  0.00     0.142 A 
ATOM     21  H2  UNL     1      -9.291   2.636  -2.480  1.00  0.00     0.168 HD
HETATM   22  S2  UNL     1     -12.198   1.381  -1.285  1.00  0.00    -0.064 SA
HETATM   23  C28 UNL     1     -11.089   0.119  -1.553  1.00  0.00     0.078 A 
BRANCH  20  24
HETATM   24  N1  UNL     1     -11.489   3.973  -1.826  1.00  0.00    -0.380 N 
ATOM     25  H12 UNL     1     -10.903   4.753  -2.124  1.00  0.00     0.158 HD
ATOM     26  H11 UNL     1     -12.362   4.428  -1.557  1.00  0.00     0.158 HD
ENDBRANCH  20  24
ENDBRANCH  17  18
ENDBRANCH  10  17
ENDBRANCH   7   8
ENDBRANCH   6   7
ENDBRANCH   5   6
ENDBRANCH   4   5
ENDBRANCH   1   4
BRANCH   1  27
HETATM   27  C10 UNL     1       0.616   0.424   0.462  1.00  0.00     0.233 C 
BRANCH  27  28
HETATM   28  C11 UNL     1       2.052   0.948   0.533  1.00  0.00     0.055 C 
BRANCH  28  29
HETATM   29  C12 UNL     1       2.954  -0.056  -0.200  1.00  0.00     0.233 C 
BRANCH  29  30
HETATM   30  N5  UNL     1       2.936  -1.354   0.399  1.00  0.00    -0.075 N 
ATOM     31  H52 UNL     1       3.257  -1.323   1.367  1.00  0.00     0.277 HD
ATOM     32  H51 UNL     1       1.982  -1.678   0.559  1.00  0.00     0.277 HD
BRANCH  30  33
HETATM   33  C13 UNL     1       3.683  -2.294  -0.368  1.00  0.00     0.241 C 
BRANCH  33  34
HETATM   34  C14 UNL     1       5.145  -1.940  -0.338  1.00  0.00     0.130 C 
BRANCH  34  35
HETATM   35  C15 UNL     1       5.741  -1.956   1.002  1.00  0.00     0.225 C 
HETATM   36  O1  UNL     1       5.139  -2.589   1.933  1.00  0.00    -0.273 OA
HETATM   37  N6  UNL     1       6.930  -1.325   1.338  1.00  0.00    -0.306 N 
ATOM     38  H6  UNL     1       7.120  -1.115   2.318  1.00  0.00     0.171 HD
BRANCH  37  39
HETATM   39  C16 UNL     1       7.811  -0.993   0.436  1.00  0.00     0.183 A 
HETATM   40  N7  UNL     1       8.980  -0.384   0.663  1.00  0.00    -0.168 N 
HETATM   41  C17 UNL     1       9.763  -0.107  -0.326  1.00  0.00     0.688 A 
ATOM     42  H7  UNL     1       9.252  -0.139   1.615  1.00  0.00     0.186 HD
HETATM   43  N9  UNL     1       9.357  -0.452  -1.560  1.00  0.00    -0.157 N 
HETATM   44  S1  UNL     1       7.863  -1.165  -1.260  1.00  0.00     0.039 SA
ATOM     45  H9  UNL     1       9.833  -0.316  -2.452  1.00  0.00     0.193 HD
BRANCH  41  46
HETATM   46  N8  UNL     1      11.039   0.556  -0.134  1.00  0.00    -0.213 N 
HETATM   47  C18 UNL     1      11.197   1.979  -0.043  1.00  0.00     0.167 C 
HETATM   48  C19 UNL     1      12.040   2.236   1.209  1.00  0.00     0.188 C 
HETATM   49  O2  UNL     1      12.198   1.077   1.962  1.00  0.00    -0.388 OA
HETATM   50  C20 UNL     1      12.893   0.080   1.285  1.00  0.00     0.188 C 
HETATM   51  C21 UNL     1      12.214  -0.260  -0.036  1.00  0.00     0.167 C 
ENDBRANCH  41  46
ENDBRANCH  37  39
ENDBRANCH  34  35
ENDBRANCH  33  34
ENDBRANCH  30  33
ENDBRANCH  29  30
ENDBRANCH  28  29
ENDBRANCH  27  28
ENDBRANCH   1  27
TORSDOF 17
