REMARK  20 active torsions:
REMARK  status: ('A' for Active; 'I' for Inactive)
REMARK    1  A    between atoms: C2_2  and  O1_3 
REMARK    2  A    between atoms: O1_3  and  C3_4 
REMARK    3  A    between atoms: C3_4  and  O2_5 
REMARK    4  A    between atoms: O2_5  and  C4_6 
REMARK    5  A    between atoms: C5_8  and  O4_9 
REMARK    6  A    between atoms: C11_17  and  C12_18 
REMARK    7  A    between atoms: C13_19  and  C15_21 
REMARK    8  A    between atoms: C15_21  and  C17_23 
REMARK    9  A    between atoms: C17_23  and  C18_24 
REMARK   10  A    between atoms: C18_24  and  C19_25 
REMARK   11  A    between atoms: C19_25  and  C20_26 
REMARK   12  A    between atoms: C20_26  and  C21_27 
REMARK   13  A    between atoms: C21_27  and  C22_28 
REMARK   14  A    between atoms: C22_28  and  N1_29 
REMARK   15  A    between atoms: C23_33  and  O6_34 
REMARK   16  A    between atoms: C25_37  and  C26_38 
REMARK   17  A    between atoms: C25_37  and  C27_41 
REMARK   18  A    between atoms: C26_38  and  O7_39 
REMARK   19  A    between atoms: C27_41  and  C28_42 
REMARK   20  A    between atoms: C33_48  and  O9_49 
ROOT
HETATM    1  C4  UNL     1      -4.701  -0.307  -0.767  1.00  0.00     0.304 C 
HETATM    2  O3  UNL     1      -5.258  -1.238   0.039  1.00  0.00    -0.327 OA
HETATM    3  C5  UNL     1      -4.391  -1.640   1.053  1.00  0.00     0.275 C 
HETATM    4  C6  UNL     1      -3.048  -0.948   0.808  1.00  0.00     0.091 C 
HETATM    5  C7  UNL     1      -2.403  -1.928  -0.079  1.00  0.00     0.174 A 
HETATM    6  O5  UNL     1      -2.348  -3.194  -0.297  1.00  0.00    -0.368 OA
HETATM    7  C8  UNL     1      -1.161  -2.529   0.034  1.00  0.00     0.086 A 
HETATM    8  C9  UNL     1      -0.476  -3.839   0.427  1.00  0.00     0.049 C 
HETATM    9  C10 UNL     1      -0.212  -1.868  -0.910  1.00  0.00     0.052 C 
HETATM   10  C11 UNL     1       0.531  -0.656  -0.241  1.00  0.00     0.046 C 
HETATM   11  C23 UNL     1      -0.573   0.335   0.030  1.00  0.00     0.072 C 
HETATM   12  C24 UNL     1      -1.000   0.120   1.319  1.00  0.00     0.056 C 
HETATM   13  C25 UNL     1      -2.248  -0.512   1.947  1.00  0.00     0.022 C 
HETATM   14  C29 UNL     1      -0.472   1.829  -0.104  1.00  0.00     0.039 C 
HETATM   15  C30 UNL     1       0.377   2.452  -1.112  1.00  0.00     0.017 C 
HETATM   16  C31 UNL     1      -1.939   2.275  -0.120  1.00  0.00    -0.020 C 
HETATM   17  C32 UNL     1      -3.040   1.382  -0.478  1.00  0.00     0.013 C 
HETATM   18  C33 UNL     1      -3.654   0.293   0.190  1.00  0.00     0.141 C 
ENDROOT
BRANCH  10  19
HETATM   19  C12 UNL     1       1.640  -0.261  -1.061  1.00  0.00    -0.016 C 
HETATM   20  C13 UNL     1       2.926  -0.235  -0.616  1.00  0.00    -0.083 C 
HETATM   21  C14 UNL     1       3.106  -0.643   0.792  1.00  0.00     0.043 C 
BRANCH  20  22
HETATM   22  C15 UNL     1       4.028   0.175  -1.485  1.00  0.00     0.010 C 
HETATM   23  C16 UNL     1       3.516   0.625  -2.866  1.00  0.00     0.015 C 
BRANCH  22  24
HETATM   24  C17 UNL     1       5.039  -0.858  -1.730  1.00  0.00     0.009 C 
BRANCH  24  25
HETATM   25  C18 UNL     1       5.856  -1.423  -0.657  1.00  0.00     0.001 C 
BRANCH  25  26
HETATM   26  C19 UNL     1       6.794  -0.474   0.054  1.00  0.00     0.000 C 
BRANCH  26  27
HETATM   27  C20 UNL     1       7.754   0.092  -0.937  1.00  0.00     0.002 C 
BRANCH  27  28
HETATM   28  C21 UNL     1       8.721   1.047  -0.281  1.00  0.00     0.027 C 
BRANCH  28  29
HETATM   29  C22 UNL     1       8.030   2.223   0.374  1.00  0.00     0.229 C 
BRANCH  29  30
HETATM   30  N1  UNL     1       9.074   3.059   0.959  1.00  0.00    -0.079 N 
ATOM     31  H13 UNL     1       9.687   2.549   1.595  1.00  0.00     0.274 HD
ATOM     32  H12 UNL     1       9.788   3.338   0.286  1.00  0.00     0.274 HD
ATOM     33  H11 UNL     1       8.608   3.852   1.401  1.00  0.00     0.274 HD
ENDBRANCH  29  30
ENDBRANCH  28  29
ENDBRANCH  27  28
ENDBRANCH  26  27
ENDBRANCH  25  26
ENDBRANCH  24  25
ENDBRANCH  22  24
ENDBRANCH  20  22
ENDBRANCH  10  19
BRANCH  11  34
HETATM   34  O6  UNL     1      -0.959   0.329  -1.255  1.00  0.00    -0.388 OA
ATOM     35  H6  UNL     1      -1.654   0.953  -1.084  1.00  0.00     0.210 HD
ENDBRANCH  11  34
BRANCH  13  36
HETATM   36  C26 UNL     1      -2.839   0.422   2.971  1.00  0.00     0.178 C 
BRANCH  36  37
HETATM   37  O7  UNL     1      -3.926  -0.019   3.662  1.00  0.00    -0.400 OA
ATOM     38  H7  UNL     1      -4.299   0.570   4.308  1.00  0.00     0.209 HD
ENDBRANCH  36  37
ENDBRANCH  13  36
BRANCH  13  39
HETATM   39  C27 UNL     1      -1.698  -1.592   2.906  1.00  0.00     0.027 C 
BRANCH  39  40
HETATM   40  C28 UNL     1      -2.516  -2.511   3.596  1.00  0.00     0.255 C 
HETATM   41  O8  UNL     1      -3.109  -2.472   4.658  1.00  0.00    -0.303 OA
ENDBRANCH  39  40
ENDBRANCH  13  39
BRANCH   3  42
HETATM   42  O4  UNL     1      -4.379  -3.018   0.875  1.00  0.00    -0.370 OA
ATOM     43  H4  UNL     1      -3.788  -3.292   1.566  1.00  0.00     0.212 HD
ENDBRANCH   3  42
BRANCH  18  44
HETATM   44  O9  UNL     1      -4.578   0.816   1.142  1.00  0.00    -0.380 OA
ATOM     45  H9  UNL     1      -3.932   1.186   1.732  1.00  0.00     0.211 HD
ENDBRANCH  18  44
BRANCH   1  46
HETATM   46  O2  UNL     1      -5.724   0.658  -0.974  1.00  0.00    -0.334 OA
BRANCH  46  47
HETATM   47  C3  UNL     1      -5.957   0.853  -2.304  1.00  0.00     0.341 C 
BRANCH  47  48
HETATM   48  O1  UNL     1      -6.942   1.779  -2.558  1.00  0.00    -0.367 OA
BRANCH  48  49
HETATM   49  C2  UNL     1      -8.178   1.499  -2.062  1.00  0.00     0.166 C 
HETATM   50  C1  UNL     1      -8.219   1.395  -0.573  1.00  0.00     0.033 C 
ENDBRANCH  48  49
ENDBRANCH  47  48
ENDBRANCH  46  47
ENDBRANCH   1  46
TORSDOF 20
