REMARK  16 active torsions:
REMARK  status: ('A' for Active; 'I' for Inactive)
REMARK    1  A    between atoms: C3_5  and  S1_6 
REMARK    2  A    between atoms: S1_6  and  C4_7 
REMARK    3  A    between atoms: C4_7  and  C5_8 
REMARK    4  A    between atoms: C5_8  and  O1_9 
REMARK    5  A    between atoms: C5_8  and  C6_11 
REMARK    6  A    between atoms: C6_11  and  O2_12 
REMARK    7  A    between atoms: C6_11  and  N2_14 
REMARK    8  A    between atoms: C8_17  and  N3_18 
REMARK       I    between atoms: N3_18  and  C9_20 
REMARK    9  A    between atoms: C9_20  and  C10_22 
REMARK   10  A    between atoms: C10_22  and  S2_23 
REMARK   11  A    between atoms: S2_23  and  C11_24 
REMARK   12  A    between atoms: C15_36  and  C16_37 
REMARK   13  A    between atoms: C16_37  and  O4_38 
REMARK   14  A    between atoms: C17_40  and  C18_41 
REMARK   15  A    between atoms: C19_45  and  O7_46 
REMARK   16  A    between atoms: C20_48  and  C21_49 
ROOT
HETATM    1  N2  UNL     1       0.651  -0.215   0.864  1.00  0.00    -0.363 N 
ATOM      2  H2  UNL     1       0.481   0.666   0.379  1.00  0.00     0.162 HD
HETATM    3  C7  UNL     1       1.739  -0.800   0.630  1.00  0.00     0.059 C 
HETATM    4  C8  UNL     1       2.796  -0.330  -0.281  1.00  0.00     0.167 C 
HETATM    5  C13 UNL     1       3.557  -1.569  -0.642  1.00  0.00     0.178 C 
HETATM    6  S3  UNL     1       3.450  -1.916  -2.424  1.00  0.00    -0.137 SA
HETATM    7  C14 UNL     1       2.183  -3.205  -2.568  1.00  0.00     0.115 C 
HETATM    8  C15 UNL     1       2.643  -4.349  -1.659  1.00  0.00    -0.014 C 
HETATM    9  C17 UNL     1       2.950  -4.024  -0.409  1.00  0.00     0.116 C 
HETATM   10  N8  UNL     1       2.880  -2.651   0.055  1.00  0.00    -0.328 N 
HETATM   11  C19 UNL     1       2.200  -2.078   1.212  1.00  0.00     0.270 C 
ENDROOT
BRANCH   1  12
HETATM   12  C6  UNL     1      -0.355  -0.674   1.740  1.00  0.00     0.247 C 
BRANCH  12  13
HETATM   13  C5  UNL     1      -1.603  -1.062   0.976  1.00  0.00     0.176 C 
BRANCH  13  14
HETATM   14  C4  UNL     1      -2.655  -1.641   1.931  1.00  0.00     0.117 C 
BRANCH  14  15
HETATM   15  S1  UNL     1      -4.097  -2.060   0.884  1.00  0.00    -0.107 SA
BRANCH  15  16
HETATM   16  C3  UNL     1      -4.738  -0.509   0.276  1.00  0.00     0.095 A 
HETATM   17  N1  UNL     1      -4.313   0.054  -0.879  1.00  0.00    -0.351 N 
HETATM   18  C2  UNL     1      -4.812   1.225  -1.312  1.00  0.00     0.028 A 
ATOM     19  H1  UNL     1      -3.599  -0.420  -1.433  1.00  0.00     0.166 HD
HETATM   20  C1  UNL     1      -4.356   1.869  -2.590  1.00  0.00     0.070 C 
HETATM   21  C23 UNL     1      -5.777   1.842  -0.546  1.00  0.00     0.028 A 
HETATM   22  N9  UNL     1      -6.227   1.299   0.623  1.00  0.00    -0.357 N 
HETATM   23  C24 UNL     1      -6.334   3.137  -1.019  1.00  0.00     0.070 C 
HETATM   24  C20 UNL     1      -5.703   0.123   1.027  1.00  0.00     0.074 A 
ATOM     25  H9  UNL     1      -6.942   1.771   1.177  1.00  0.00     0.166 HD
BRANCH  24  26
HETATM   26  C21 UNL     1      -6.161  -0.499   2.285  1.00  0.00     0.197 A 
HETATM   27  C22 UNL     1      -7.198   0.198   3.061  1.00  0.00     0.207 A 
HETATM   28  O8  UNL     1      -5.826   0.093   3.498  1.00  0.00    -0.375 OA
ENDBRANCH  24  26
ENDBRANCH  15  16
ENDBRANCH  14  15
ENDBRANCH  13  14
BRANCH  13  29
HETATM   29  O1  UNL     1      -1.334  -2.077   0.061  1.00  0.00    -0.390 OA
ATOM     30  H1  UNL     1      -0.683  -1.718  -0.530  1.00  0.00     0.210 HD
ENDBRANCH  13  29
ENDBRANCH  12  13
BRANCH  12  31
HETATM   31  O2  UNL     1      -0.732   0.456   2.512  1.00  0.00    -0.374 OA
ATOM     32  H2  UNL     1       0.051   0.699   2.991  1.00  0.00     0.212 HD
ENDBRANCH  12  31
ENDBRANCH   1  12
BRANCH   4  33
HETATM   33  N3  UNL     1       3.653   0.584   0.452  1.00  0.00    -0.348 N 
HETATM   34  C9  UNL     1       3.908   1.905   0.033  1.00  0.00     0.228 C 
HETATM   35  O3  UNL     1       3.399   2.388  -1.027  1.00  0.00    -0.273 OA
ATOM     36  H3  UNL     1       4.092   0.254   1.312  1.00  0.00     0.163 HD
BRANCH  34  37
HETATM   37  C10 UNL     1       4.781   2.787   0.814  1.00  0.00     0.185 C 
BRANCH  37  38
HETATM   38  S2  UNL     1       4.979   4.417   0.096  1.00  0.00    -0.082 SA
BRANCH  38  39
HETATM   39  C11 UNL     1       3.472   5.354   0.094  1.00  0.00     0.178 A 
HETATM   40  N4  UNL     1       2.290   4.952   0.558  1.00  0.00    -0.263 N 
HETATM   41  N5  UNL     1       1.435   5.933   0.372  1.00  0.00    -0.226 N 
ATOM     42  H4  UNL     1       2.085   4.047   0.981  1.00  0.00     0.190 HD
HETATM   43  N6  UNL     1       2.073   6.924  -0.195  1.00  0.00    -0.224 N 
ATOM     44  H5  UNL     1       0.447   5.923   0.625  1.00  0.00     0.210 HD
HETATM   45  N7  UNL     1       3.344   6.597  -0.383  1.00  0.00    -0.259 N 
ATOM     46  H6  UNL     1       1.654   7.817  -0.454  1.00  0.00     0.210 HD
HETATM   47  C12 UNL     1       4.361   7.456  -0.992  1.00  0.00     0.181 C 
ENDBRANCH  38  39
ENDBRANCH  37  38
ENDBRANCH  34  37
ENDBRANCH   4  33
BRANCH  11  48
HETATM   48  O7  UNL     1       3.172  -1.870   2.198  1.00  0.00    -0.371 OA
ATOM     49  H7  UNL     1       3.468  -2.691   2.572  1.00  0.00     0.212 HD
ENDBRANCH  11  48
BRANCH   9  50
HETATM   50  C18 UNL     1       3.393  -4.998   0.580  1.00  0.00     0.227 C 
HETATM   51  O5  UNL     1       3.673  -4.648   1.749  1.00  0.00    -0.643 OA
HETATM   52  O6  UNL     1       3.530  -6.332   0.317  1.00  0.00    -0.643 OA
ENDBRANCH   9  50
BRANCH   8  53
HETATM   53  C16 UNL     1       2.751  -5.673  -2.243  1.00  0.00     0.201 C 
BRANCH  53  54
HETATM   54  O4  UNL     1       1.501  -6.151  -2.696  1.00  0.00    -0.397 OA
ATOM     55  H4  UNL     1       1.572  -7.018  -3.078  1.00  0.00     0.209 HD
ENDBRANCH  53  54
ENDBRANCH   8  53
TORSDOF 16
