REMARK  15 active torsions:
REMARK  status: ('A' for Active; 'I' for Inactive)
REMARK    1  A    between atoms: C2_2  and  C3_3 
REMARK    2  A    between atoms: C3_3  and  C4_4 
REMARK    3  A    between atoms: C4_4  and  C7_7 
REMARK    4  A    between atoms: C7_7  and  C8_8 
REMARK    5  A    between atoms: C8_8  and  C9_9 
REMARK    6  A    between atoms: C8_8  and  C15_20 
REMARK    7  A    between atoms: C10_10  and  O1_11 
REMARK    8  A    between atoms: C13_16  and  C14_17 
REMARK    9  A    between atoms: C14_17  and  O3_18 
REMARK   10  A    between atoms: C15_20  and  N1_21 
REMARK   11  A    between atoms: C15_20  and  N5_37 
REMARK   12  A    between atoms: N1_21  and  C16_23 
REMARK   13  A    between atoms: C18_25  and  O4_26 
REMARK   14  A    between atoms: N7_44  and  O9_45 
REMARK   15  A    between atoms: O9_45  and  S1_46 
ROOT
HETATM    1  C15 UNL     1      -0.553   0.260  -0.425  1.00  0.00     0.204 C 
ENDROOT
BRANCH   1   2
HETATM    2  C8  UNL     1       0.970   0.045  -0.242  1.00  0.00     0.068 C 
BRANCH   2   3
HETATM    3  C7  UNL     1       1.168  -1.372   0.192  1.00  0.00     0.022 C 
BRANCH   3   4
HETATM    4  C4  UNL     1       2.541  -1.951   0.140  1.00  0.00    -0.047 C 
HETATM    5  C5  UNL     1       2.330  -3.438   0.513  1.00  0.00     0.015 C 
HETATM    6  C6  UNL     1       2.937  -2.145  -1.380  1.00  0.00     0.015 C 
BRANCH   4   7
HETATM    7  C3  UNL     1       3.669  -1.400   0.843  1.00  0.00     0.008 C 
BRANCH   7   8
HETATM    8  C2  UNL     1       5.048  -1.958   0.637  1.00  0.00    -0.004 C 
HETATM    9  C1  UNL     1       5.307  -3.369   1.026  1.00  0.00     0.005 C 
ENDBRANCH   7   8
ENDBRANCH   4   7
ENDBRANCH   3   4
ENDBRANCH   2   3
BRANCH   2  10
HETATM   10  C9  UNL     1       1.552   1.088   0.573  1.00  0.00     0.019 A 
HETATM   11  C10 UNL     1       2.132   2.266   0.129  1.00  0.00     0.191 A 
HETATM   12  O2  UNL     1       2.425   3.026   1.152  1.00  0.00    -0.292 OA
HETATM   13  C11 UNL     1       2.081   2.435   2.262  1.00  0.00     0.061 A 
HETATM   14  C12 UNL     1       2.258   2.992   3.652  1.00  0.00     0.077 C 
HETATM   15  C13 UNL     1       1.523   1.210   1.957  1.00  0.00     0.006 A 
BRANCH  11  16
HETATM   16  O1  UNL     1       2.412   2.668  -1.204  1.00  0.00    -0.340 OA
ATOM     17  H1  UNL     1       2.810   3.475  -1.508  1.00  0.00     0.220 HD
ENDBRANCH  11  16
BRANCH  15  18
HETATM   18  C14 UNL     1       0.952   0.273   2.905  1.00  0.00     0.206 C 
BRANCH  18  19
HETATM   19  O3  UNL     1       1.097   0.714   4.248  1.00  0.00    -0.396 OA
ATOM     20  H3  UNL     1       0.723   0.100   4.869  1.00  0.00     0.209 HD
ENDBRANCH  18  19
ENDBRANCH  15  18
ENDBRANCH   2  10
ENDBRANCH   1   2
BRANCH   1  21
HETATM   21  N1  UNL     1      -1.049  -0.701  -1.396  1.00  0.00    -0.377 N 
ATOM     22  H1  UNL     1      -0.417  -1.388  -1.807  1.00  0.00     0.157 HD
BRANCH  21  23
HETATM   23  C16 UNL     1      -2.388  -0.677  -1.760  1.00  0.00     0.225 C 
HETATM   24  C17 UNL     1      -2.491  -1.584  -3.022  1.00  0.00     0.083 C 
HETATM   25  C18 UNL     1      -1.966  -2.969  -2.734  1.00  0.00     0.142 C 
HETATM   26  C19 UNL     1      -2.195  -3.406  -1.309  1.00  0.00     0.186 C 
HETATM   27  N2  UNL     1      -3.218  -2.594  -0.667  1.00  0.00    -0.232 N 
HETATM   28  C20 UNL     1      -4.183  -2.984   0.176  1.00  0.00     0.333 A 
HETATM   29  N4  UNL     1      -3.347  -1.315  -0.859  1.00  0.00    -0.200 N 
HETATM   30  O5  UNL     1      -4.429  -4.142   0.635  1.00  0.00    -0.260 OA
HETATM   31  C21 UNL     1      -4.918  -1.868   0.492  1.00  0.00     0.332 A 
HETATM   32  O6  UNL     1      -5.930  -1.800   1.265  1.00  0.00    -0.260 OA
HETATM   33  N3  UNL     1      -4.365  -0.848  -0.175  1.00  0.00    -0.238 N 
HETATM   34  C22 UNL     1      -4.884   0.528  -0.114  1.00  0.00     0.183 C 
BRANCH  25  35
HETATM   35  O4  UNL     1      -0.636  -3.082  -3.111  1.00  0.00    -0.394 OA
ATOM     36  H4  UNL     1      -0.305  -3.954  -2.930  1.00  0.00     0.210 HD
ENDBRANCH  25  35
ENDBRANCH  21  23
ENDBRANCH   1  21
BRANCH   1  37
HETATM   37  N5  UNL     1      -0.969   1.583  -0.766  1.00  0.00    -0.227 N 
HETATM   38  C23 UNL     1      -0.817   2.091  -2.014  1.00  0.00     0.336 A 
HETATM   39  O7  UNL     1      -0.269   1.435  -2.938  1.00  0.00    -0.246 OA
HETATM   40  N6  UNL     1      -1.231   3.322  -2.358  1.00  0.00    -0.258 N 
HETATM   41  C24 UNL     1      -1.823   4.118  -1.472  1.00  0.00     0.360 A 
ATOM     42  H6  UNL     1      -1.089   3.651  -3.313  1.00  0.00     0.175 HD
HETATM   43  O8  UNL     1      -2.226   5.295  -1.779  1.00  0.00    -0.244 OA
HETATM   44  N7  UNL     1      -1.995   3.657  -0.227  1.00  0.00    -0.096 N 
HETATM   45  C25 UNL     1      -1.571   2.413   0.104  1.00  0.00     0.364 A 
HETATM   46  O13 UNL     1      -1.801   2.107   1.304  1.00  0.00    -0.244 OA
BRANCH  44  47
HETATM   47  O9  UNL     1      -2.612   4.497   0.672  1.00  0.00    -0.116 OA
BRANCH  47  48
HETATM   48  S1  UNL     1      -2.087   6.071   1.016  1.00  0.00     0.274 S 
HETATM   49  O10 UNL     1      -0.698   6.229   0.483  1.00  0.00    -0.571 OA
HETATM   50  O11 UNL     1      -2.130   6.274   2.514  1.00  0.00    -0.571 OA
HETATM   51  O12 UNL     1      -3.168   7.168   0.344  1.00  0.00    -0.571 OA
ENDBRANCH  47  48
ENDBRANCH  44  47
ENDBRANCH   1  37
TORSDOF 15
