REMARK  19 active torsions:
REMARK  status: ('A' for Active; 'I' for Inactive)
REMARK    1  A    between atoms: O1_2  and  C2_3 
REMARK    2  A    between atoms: C2_3  and  C3_5 
REMARK    3  A    between atoms: C5_7  and  O3_8 
REMARK    4  A    between atoms: C6_10  and  N1_11 
REMARK    5  A    between atoms: N1_11  and  C7_12 
REMARK    6  A    between atoms: N1_11  and  C8_15 
REMARK    7  A    between atoms: C7_12  and  O4_13 
REMARK    8  A    between atoms: C8_15  and  C9_16 
REMARK    9  A    between atoms: C9_16  and  O5_17 
REMARK   10  A    between atoms: C10_19  and  N2_20 
REMARK   11  A    between atoms: N2_20  and  C11_22 
REMARK   12  A    between atoms: C11_22  and  C12_23 
REMARK   13  A    between atoms: C12_23  and  O6_24 
REMARK   14  A    between atoms: C13_26  and  O7_27 
REMARK   15  A    between atoms: C17_32  and  C18_33 
REMARK   16  A    between atoms: C24_41  and  O10_43 
REMARK   17  A    between atoms: O10_43  and  C26_44 
REMARK   18  A    between atoms: C29_48  and  O12_49 
REMARK   19  A    between atoms: O12_49  and  C30_50 
ROOT
HETATM    1  C3  UNL     1       0.471  -0.494   1.460  1.00  0.00     0.122 A 
HETATM    2  C4  UNL     1       1.465  -0.266   0.617  1.00  0.00     0.045 A 
HETATM    3  C5  UNL     1       2.684  -0.328   1.220  1.00  0.00     0.108 A 
HETATM    4  C6  UNL     1       3.845  -0.105   0.483  1.00  0.00     0.096 A 
HETATM    5  C10 UNL     1       3.791   0.176  -0.837  1.00  0.00     0.092 A 
HETATM    6  C13 UNL     1       2.571   0.254  -1.516  1.00  0.00     0.105 A 
HETATM    7  C14 UNL     1       1.423   0.029  -0.763  1.00  0.00     0.011 A 
HETATM    8  C15 UNL     1       0.346   0.148  -1.506  1.00  0.00    -0.006 A 
HETATM    9  C16 UNL     1      -1.100   0.063  -1.358  1.00  0.00     0.081 A 
HETATM   10  C17 UNL     1      -1.586  -0.313  -0.037  1.00  0.00     0.006 A 
HETATM   11  N3  UNL     1      -0.905  -0.506   0.994  1.00  0.00    -0.356 N 
ATOM     12  H3  UNL     1      -1.523  -0.755   1.767  1.00  0.00     0.166 HD
ENDROOT
BRANCH  10  13
HETATM   13  C18 UNL     1      -3.058  -0.505   0.141  1.00  0.00     0.136 C 
HETATM   14  C19 UNL     1      -3.455  -1.588  -0.768  1.00  0.00     0.156 C 
HETATM   15  O8  UNL     1      -2.757  -2.614  -0.854  1.00  0.00    -0.296 OA
HETATM   16  C20 UNL     1      -4.657  -1.594  -1.639  1.00  0.00     0.078 C 
HETATM   17  C21 UNL     1      -5.738  -2.502  -1.109  1.00  0.00     0.031 C 
HETATM   18  C22 UNL     1      -4.173  -2.062  -3.008  1.00  0.00     0.031 C 
HETATM   19  C23 UNL     1      -5.191  -0.221  -1.721  1.00  0.00     0.181 C 
HETATM   20  O9  UNL     1      -5.563   0.187  -2.785  1.00  0.00    -0.293 OA
HETATM   21  C24 UNL     1      -5.241   0.603  -0.439  1.00  0.00     0.154 C 
HETATM   22  C25 UNL     1      -5.904   1.899  -0.849  1.00  0.00     0.060 C 
HETATM   23  C28 UNL     1      -3.839   0.740  -0.028  1.00  0.00     0.001 C 
HETATM   24  C29 UNL     1      -3.236   1.894   0.198  1.00  0.00     0.156 C 
BRANCH  21  25
HETATM   25  O10 UNL     1      -6.085  -0.095   0.398  1.00  0.00    -0.298 OA
BRANCH  25  26
HETATM   26  C26 UNL     1      -6.407   0.297   1.675  1.00  0.00     0.256 C 
HETATM   27  C27 UNL     1      -7.322  -0.470   2.555  1.00  0.00     0.126 C 
HETATM   28  O11 UNL     1      -5.893   1.352   2.087  1.00  0.00    -0.266 OA
ENDBRANCH  25  26
ENDBRANCH  21  25
BRANCH  24  29
HETATM   29  O12 UNL     1      -3.837   3.135   0.080  1.00  0.00    -0.265 OA
BRANCH  29  30
HETATM   30  C30 UNL     1      -3.183   4.304   0.326  1.00  0.00     0.337 C 
HETATM   31  O13 UNL     1      -1.982   4.327   0.675  1.00  0.00    -0.623 OA
HETATM   32  O14 UNL     1      -3.847   5.513   0.191  1.00  0.00    -0.623 OA
ENDBRANCH  29  30
ENDBRANCH  24  29
ENDBRANCH  10  13
BRANCH   1  33
HETATM   33  C2  UNL     1       0.633  -0.766   2.833  1.00  0.00     0.310 C 
HETATM   34  O2  UNL     1       1.445  -0.885   3.657  1.00  0.00    -0.258 OA
BRANCH  33  35
HETATM   35  O1  UNL     1      -0.656  -0.984   3.494  1.00  0.00    -0.321 OA
HETATM   36  C1  UNL     1      -0.659  -1.267   4.872  1.00  0.00     0.213 C 
ENDBRANCH  33  35
ENDBRANCH   1  33
BRANCH   6  37
HETATM   37  O7  UNL     1       2.543   0.530  -2.815  1.00  0.00    -0.357 OA
ATOM     38  H7  UNL     1       1.714   0.583  -3.276  1.00  0.00     0.217 HD
ENDBRANCH   6  37
BRANCH   3  39
HETATM   39  O3  UNL     1       2.822  -0.611   2.543  1.00  0.00    -0.357 OA
ATOM     40  H3  UNL     1       3.673  -0.654   2.964  1.00  0.00     0.217 HD
ENDBRANCH   3  39
BRANCH   5  41
HETATM   41  N2  UNL     1       4.970   0.429  -1.539  1.00  0.00    -0.384 N 
ATOM     42  H2  UNL     1       5.846   0.421  -1.017  1.00  0.00     0.159 HD
BRANCH  41  43
HETATM   43  C11 UNL     1       5.030   0.698  -2.941  1.00  0.00     0.146 C 
BRANCH  43  44
HETATM   44  C12 UNL     1       6.518   0.896  -3.362  1.00  0.00     0.183 C 
BRANCH  44  45
HETATM   45  O6  UNL     1       6.992   1.957  -2.640  1.00  0.00    -0.399 OA
ATOM     46  H6  UNL     1       7.899   2.078  -2.897  1.00  0.00     0.209 HD
ENDBRANCH  44  45
ENDBRANCH  43  44
ENDBRANCH  41  43
ENDBRANCH   5  41
BRANCH   4  47
HETATM   47  N1  UNL     1       5.094  -0.160   1.207  1.00  0.00    -0.353 N 
BRANCH  47  48
HETATM   48  C7  UNL     1       5.639   1.088   1.695  1.00  0.00     0.290 C 
BRANCH  48  49
HETATM   49  O4  UNL     1       4.764   1.839   2.472  1.00  0.00    -0.382 OA
ATOM     50  H4  UNL     1       5.122   2.659   2.792  1.00  0.00     0.211 HD
ENDBRANCH  48  49
ENDBRANCH  47  48
BRANCH  47  51
HETATM   51  C8  UNL     1       5.753  -1.415   1.465  1.00  0.00     0.151 C 
BRANCH  51  52
HETATM   52  C9  UNL     1       7.065  -1.634   0.799  1.00  0.00     0.183 C 
BRANCH  52  53
HETATM   53  O5  UNL     1       8.040  -0.720   1.118  1.00  0.00    -0.399 OA
ATOM     54  H5  UNL     1       8.878  -0.860   0.693  1.00  0.00     0.209 HD
ENDBRANCH  52  53
ENDBRANCH  51  52
ENDBRANCH  47  51
ENDBRANCH   4  47
TORSDOF 19
