REMARK  19 active torsions:
REMARK  status: ('A' for Active; 'I' for Inactive)
REMARK    1  A    between atoms: C3_3  and  C5_5 
REMARK    2  A    between atoms: C5_5  and  O2_7 
REMARK    3  A    between atoms: O2_7  and  C6_8 
REMARK    4  A    between atoms: C6_8  and  C7_9 
REMARK    5  A    between atoms: C6_8  and  S1_26 
REMARK    6  A    between atoms: C7_9  and  C8_10 
REMARK    7  A    between atoms: C7_9  and  O5_22 
REMARK    8  A    between atoms: N1_11  and  N2_13 
REMARK       I    between atoms: N2_13  and  C9_15 
REMARK    9  A    between atoms: C9_15  and  O4_17 
REMARK   10  A    between atoms: O4_17  and  C10_18 
REMARK   11  A    between atoms: O5_22  and  C14_23 
REMARK   12  A    between atoms: S1_26  and  N3_29 
REMARK   13  A    between atoms: N3_29  and  C16_31 
REMARK   14  A    between atoms: C16_31  and  C17_32 
REMARK   15  A    between atoms: C17_32  and  O9_33 
REMARK   16  A    between atoms: N4_36  and  O10_38 
REMARK   17  A    between atoms: O10_38  and  C19_39 
REMARK   18  A    between atoms: C20_45  and  S2_46 
REMARK   19  A    between atoms: C22_50  and  O14_51 
ROOT
HETATM    1  S1  UNL     1       0.870   0.701   1.312  1.00  0.00     0.258 S 
HETATM    2  O7  UNL     1       1.783   1.770   1.954  1.00  0.00    -0.203 OA
HETATM    3  O8  UNL     1      -0.097   0.415   2.484  1.00  0.00    -0.203 OA
ENDROOT
BRANCH   1   4
HETATM    4  C6  UNL     1      -0.027   1.460  -0.008  1.00  0.00     0.308 C 
BRANCH   4   5
HETATM    5  O2  UNL     1       0.782   2.212  -0.894  1.00  0.00    -0.292 OA
BRANCH   5   6
HETATM    6  C5  UNL     1       0.748   3.568  -1.015  1.00  0.00     0.290 C 
HETATM    7  O1  UNL     1      -0.081   4.178  -0.270  1.00  0.00    -0.260 OA
BRANCH   6   8
HETATM    8  C3  UNL     1       1.545   4.397  -1.894  1.00  0.00     0.009 C 
HETATM    9  C2  UNL     1       1.367   5.707  -1.882  1.00  0.00    -0.018 C 
HETATM   10  C1  UNL     1       2.128   6.658  -2.721  1.00  0.00     0.036 C 
HETATM   11  C4  UNL     1       2.568   3.784  -2.793  1.00  0.00     0.054 C 
ENDBRANCH   6   8
ENDBRANCH   5   6
ENDBRANCH   4   5
BRANCH   4  12
HETATM   12  C7  UNL     1      -1.054   0.593  -0.647  1.00  0.00     0.218 C 
BRANCH  12  13
HETATM   13  C8  UNL     1      -2.027   0.087   0.412  1.00  0.00     0.116 C 
HETATM   14  N1  UNL     1      -3.143   0.646   0.477  1.00  0.00    -0.309 N 
ATOM     15  H1  UNL     1      -3.225   1.382  -0.225  1.00  0.00     0.185 HD
BRANCH  14  16
HETATM   16  N2  UNL     1      -4.266   0.552   1.210  1.00  0.00    -0.246 N 
HETATM   17  C9  UNL     1      -5.065  -0.613   1.282  1.00  0.00     0.380 C 
HETATM   18  O3  UNL     1      -4.747  -1.641   0.646  1.00  0.00    -0.237 OA
ATOM     19  H2  UNL     1      -4.559   1.369   1.746  1.00  0.00     0.192 HD
BRANCH  17  20
HETATM   20  O4  UNL     1      -6.193  -0.641   2.041  1.00  0.00    -0.293 OA
BRANCH  20  21
HETATM   21  C10 UNL     1      -7.085  -1.692   2.223  1.00  0.00     0.061 C 
HETATM   22  C11 UNL     1      -8.177  -1.174   3.175  1.00  0.00     0.046 C 
HETATM   23  C12 UNL     1      -6.491  -2.895   2.904  1.00  0.00     0.046 C 
HETATM   24  C13 UNL     1      -7.747  -2.149   0.948  1.00  0.00     0.046 C 
ENDBRANCH  20  21
ENDBRANCH  17  20
ENDBRANCH  14  16
ENDBRANCH  12  13
BRANCH  12  25
HETATM   25  O5  UNL     1      -1.877   1.421  -1.493  1.00  0.00    -0.307 OA
BRANCH  25  26
HETATM   26  C14 UNL     1      -2.132   1.022  -2.809  1.00  0.00     0.255 C 
HETATM   27  C15 UNL     1      -2.979   1.920  -3.607  1.00  0.00     0.126 C 
HETATM   28  O6  UNL     1      -1.621  -0.051  -3.187  1.00  0.00    -0.266 OA
ENDBRANCH  25  26
ENDBRANCH  12  25
ENDBRANCH   4  12
ENDBRANCH   1   4
BRANCH   1  29
HETATM   29  N3  UNL     1       1.657  -0.696   0.970  1.00  0.00    -0.295 N 
ATOM     30  H3  UNL     1       1.339  -1.507   1.500  1.00  0.00     0.173 HD
BRANCH  29  31
HETATM   31  C16 UNL     1       2.672  -0.949   0.088  1.00  0.00     0.157 C 
HETATM   32  C18 UNL     1       3.149  -2.382   0.341  1.00  0.00     0.174 C 
HETATM   33  N4  UNL     1       2.709  -3.414  -0.279  1.00  0.00    -0.237 N 
HETATM   34  O11 UNL     1       4.096  -2.339   1.319  1.00  0.00    -0.312 OA
ATOM     35  H4  UNL     1       1.992  -3.301  -0.996  1.00  0.00     0.197 HD
HETATM   36  C20 UNL     1       4.828  -1.123   1.192  1.00  0.00     0.283 C 
HETATM   37  C22 UNL     1       3.966  -0.202   0.376  1.00  0.00     0.201 C 
BRANCH  31  38
HETATM   38  C17 UNL     1       2.336  -0.940  -1.365  1.00  0.00     0.207 C 
BRANCH  38  39
HETATM   39  O9  UNL     1       3.454  -1.248  -2.161  1.00  0.00    -0.398 OA
ATOM     40  H9  UNL     1       3.240  -1.242  -3.087  1.00  0.00     0.209 HD
ENDBRANCH  38  39
ENDBRANCH  31  38
BRANCH  33  41
HETATM   41  O10 UNL     1       3.186  -4.667   0.005  1.00  0.00    -0.203 OA
BRANCH  41  42
HETATM   42  C19 UNL     1       3.504  -5.571  -1.020  1.00  0.00     0.249 C 
HETATM   43  N5  UNL     1       3.182  -5.165  -2.225  1.00  0.00    -0.366 N 
ATOM     44  H52 UNL     1       2.737  -4.256  -2.354  1.00  0.00     0.159 HD
ATOM     45  H51 UNL     1       3.413  -5.822  -2.970  1.00  0.00     0.159 HD
HETATM   46  N6  UNL     1       4.114  -6.817  -0.843  1.00  0.00    -0.055 NA
ENDBRANCH  41  42
ENDBRANCH  33  41
BRANCH  36  47
HETATM   47  S2  UNL     1       5.158  -0.551   2.826  1.00  0.00     0.171 S 
HETATM   48  C21 UNL     1       6.145   0.909   2.868  1.00  0.00     0.164 C 
HETATM   49  O12 UNL     1       5.895  -1.671   3.545  1.00  0.00    -0.226 OA
HETATM   50  O13 UNL     1       3.882  -0.334   3.588  1.00  0.00    -0.226 OA
ENDBRANCH  36  47
BRANCH  37  51
HETATM   51  O14 UNL     1       4.647   0.185  -0.745  1.00  0.00    -0.389 OA
ATOM     52  H14 UNL     1       5.455   0.651  -0.565  1.00  0.00     0.210 HD
ENDBRANCH  37  51
ENDBRANCH  29  31
ENDBRANCH   1  29
TORSDOF 19
