REMARK  7 active torsions:
REMARK  status: ('A' for Active; 'I' for Inactive)
REMARK    1  A    between atoms: C2_2  and  C3_3 
REMARK    2  A    between atoms: C3_3  and  N1_4 
REMARK    3  A    between atoms: C4_9  and  C5_10 
REMARK    4  A    between atoms: C6_11  and  N4_12 
REMARK    5  A    between atoms: N4_12  and  C7_14 
REMARK    6  A    between atoms: C8_19  and  N7_20 
REMARK    7  A    between atoms: C9_27  and  C10_28 
ROOT
HETATM    1  C5  UNL     1       0.306   1.464  -0.070  1.00  0.00     0.123 A 
HETATM    2  C6  UNL     1       1.499   0.997   0.467  1.00  0.00     0.142 A 
HETATM    3  N9  UNL     1       2.535   1.821   0.745  1.00  0.00    -0.325 N 
ATOM      4  H9  UNL     1       3.400   1.451   1.140  1.00  0.00     0.169 HD
HETATM    5  C9  UNL     1       2.407   3.136   0.493  1.00  0.00     0.148 A 
HETATM    6  N10 UNL     1       1.259   3.607  -0.028  1.00  0.00    -0.306 N 
ATOM      7  H10 UNL     1       1.178   4.607  -0.213  1.00  0.00     0.170 HD
HETATM    8  C11 UNL     1       0.213   2.809  -0.314  1.00  0.00     0.265 A 
HETATM    9  O2  UNL     1      -0.863   3.278  -0.806  1.00  0.00    -0.267 OA
ENDROOT
BRANCH   2  10
HETATM   10  N4  UNL     1       1.599  -0.380   0.719  1.00  0.00    -0.173 N 
ATOM     11  H4  UNL     1       0.916  -0.823   1.333  1.00  0.00     0.186 HD
BRANCH  10  12
HETATM   12  C7  UNL     1       2.540  -1.107   0.190  1.00  0.00     0.713 A 
HETATM   13  N5  UNL     1       3.516  -0.688  -0.636  1.00  0.00    -0.117 N 
HETATM   14  N6  UNL     1       4.298  -1.727  -0.972  1.00  0.00    -0.118 N 
ATOM     15  H5  UNL     1       3.643   0.272  -0.958  1.00  0.00     0.206 HD
HETATM   16  C8  UNL     1       3.818  -2.821  -0.356  1.00  0.00     0.705 A 
ATOM     17  H6  UNL     1       5.112  -1.692  -1.586  1.00  0.00     0.206 HD
HETATM   18  N8  UNL     1       2.744  -2.426   0.351  1.00  0.00    -0.020 N 
ATOM     19  H8  UNL     1       2.167  -3.039   0.927  1.00  0.00     0.203 HD
BRANCH  16  20
HETATM   20  N7  UNL     1       4.329  -4.003  -0.455  1.00  0.00    -0.233 N 
ATOM     21  H72 UNL     1       5.143  -4.303  -0.991  1.00  0.00     0.174 HD
ATOM     22  H71 UNL     1       3.965  -4.833   0.012  1.00  0.00     0.174 HD
ENDBRANCH  16  20
ENDBRANCH  10  12
ENDBRANCH   2  10
BRANCH   1  23
HETATM   23  C4  UNL     1      -0.808   0.575  -0.369  1.00  0.00     0.157 A 
HETATM   24  N3  UNL     1      -1.007  -0.064  -1.559  1.00  0.00    -0.268 N 
HETATM   25  N2  UNL     1      -2.101  -0.772  -1.461  1.00  0.00    -0.224 N 
ATOM     26  H3  UNL     1      -0.407   0.000  -2.381  1.00  0.00     0.190 HD
HETATM   27  N1  UNL     1      -2.627  -0.624  -0.256  1.00  0.00    -0.218 N 
ATOM     28  H2  UNL     1      -2.491  -1.353  -2.203  1.00  0.00     0.210 HD
HETATM   29  N11 UNL     1      -1.828   0.198   0.395  1.00  0.00    -0.266 N 
ATOM     30  H11 UNL     1      -1.973   0.504   1.357  1.00  0.00     0.190 HD
BRANCH  27  31
HETATM   31  C3  UNL     1      -3.827  -1.219   0.281  1.00  0.00     0.171 C 
BRANCH  31  32
HETATM   32  C2  UNL     1      -5.027  -0.339   0.017  1.00  0.00     0.019 C 
HETATM   33  C1  UNL     1      -6.272  -0.984   0.589  1.00  0.00     0.007 C 
ENDBRANCH  31  32
ENDBRANCH  27  31
ENDBRANCH   1  23
BRANCH   5  34
HETATM   34  C10 UNL     1       3.534   4.030   0.796  1.00  0.00     0.307 C 
HETATM   35  O1  UNL     1       3.471   5.265   0.581  1.00  0.00    -0.298 OA
ENDBRANCH   5  34
TORSDOF 7
