REMARK  6 active torsions:
REMARK  status: ('A' for Active; 'I' for Inactive)
REMARK       I    between atoms: N1_2  and  C2_4 
REMARK    1  A    between atoms: C2_4  and  C3_6 
REMARK    2  A    between atoms: C4_7  and  C5_8 
REMARK    3  A    between atoms: N6_20  and  C8_21 
REMARK    4  A    between atoms: C8_21  and  C9_22 
REMARK    5  A    between atoms: C9_22  and  O3_24 
REMARK    6  A    between atoms: C9_22  and  C11_26 
ROOT
HETATM    1  C3  UNL     1       0.117   0.090  -0.630  1.00  0.00     0.149 A 
HETATM    2  C4  UNL     1       0.859  -0.931  -1.141  1.00  0.00     0.104 A 
HETATM    3  N4  UNL     1      -0.026  -1.653  -1.928  1.00  0.00    -0.282 N 
ATOM      4  H4  UNL     1       0.213  -2.488  -2.463  1.00  0.00     0.188 HD
HETATM    5  N5  UNL     1      -1.198  -1.111  -1.882  1.00  0.00    -0.239 N 
ATOM      6  H5  UNL     1      -2.029  -1.446  -2.370  1.00  0.00     0.208 HD
HETATM    7  N6  UNL     1      -1.139  -0.052  -1.098  1.00  0.00    -0.267 N 
ENDROOT
BRANCH   2   8
HETATM    8  C5  UNL     1       2.217  -1.415  -0.869  1.00  0.00     0.082 A 
HETATM    9  S1  UNL     1       3.209  -2.248  -2.030  1.00  0.00    -0.023 SA
HETATM   10  C6  UNL     1       4.527  -2.605  -1.012  1.00  0.00     0.290 A 
HETATM   11  O2  UNL     1       5.613  -3.224  -1.291  1.00  0.00    -0.260 OA
HETATM   12  N2  UNL     1       4.157  -2.081   0.155  1.00  0.00    -0.305 N 
HETATM   13  C7  UNL     1       2.994  -1.482   0.234  1.00  0.00     0.139 A 
ATOM     14  H2  UNL     1       4.766  -2.145   0.971  1.00  0.00     0.171 HD
HETATM   15  N3  UNL     1       2.534  -0.981   1.533  1.00  0.00    -0.081 NA
ENDBRANCH   2   8
BRANCH   1  16
HETATM   16  C2  UNL     1       0.630   1.275   0.095  1.00  0.00     0.271 C 
HETATM   17  N1  UNL     1       1.918   1.782  -0.293  1.00  0.00    -0.360 N 
HETATM   18  C1  UNL     1       2.519   2.939   0.335  1.00  0.00     0.149 C 
ATOM     19  H1  UNL     1       2.427   1.308  -1.039  1.00  0.00     0.162 HD
HETATM   20  O1  UNL     1       0.054   1.879   0.994  1.00  0.00    -0.266 OA
ENDBRANCH   1  16
BRANCH   7  21
HETATM   21  C8  UNL     1      -2.273   0.786  -0.745  1.00  0.00     0.200 C 
BRANCH  21  22
HETATM   22  C9  UNL     1      -3.140   0.179   0.324  1.00  0.00     0.159 C 
HETATM   23  C10 UNL     1      -3.710  -1.165  -0.142  1.00  0.00     0.059 C 
BRANCH  22  24
HETATM   24  O3  UNL     1      -2.563   0.067   1.565  1.00  0.00    -0.377 OA
ATOM     25  H3  UNL     1      -3.111  -0.316   2.240  1.00  0.00     0.211 HD
ENDBRANCH  22  24
BRANCH  22  26
HETATM   26  C11 UNL     1      -4.342   1.084   0.424  1.00  0.00     0.210 C 
HETATM   27  O4  UNL     1      -5.041   1.341  -0.595  1.00  0.00    -0.646 OA
HETATM   28  O5  UNL     1      -4.682   1.636   1.633  1.00  0.00    -0.646 OA
ENDBRANCH  22  26
ENDBRANCH  21  22
ENDBRANCH   7  21
TORSDOF 6
