REMARK  6 active torsions:
REMARK  status: ('A' for Active; 'I' for Inactive)
REMARK    1  A    between atoms: C3_7  and  N3_8 
REMARK    2  A    between atoms: N3_8  and  N4_10 
REMARK       I    between atoms: N4_10  and  C4_12 
REMARK    3  A    between atoms: C4_12  and  C5_14 
REMARK    4  A    between atoms: C5_14  and  N5_16 
REMARK    5  A    between atoms: C7_20  and  N6_21 
REMARK    6  A    between atoms: N6_21  and  N7_23 
ROOT
HETATM    1  C1  UNL     1      -2.594  -3.291  -0.150  1.00  0.00     0.072 C 
HETATM    2  C2  UNL     1      -1.291  -2.668   0.193  1.00  0.00     0.054 A 
HETATM    3  N1  UNL     1      -0.280  -3.278   0.846  1.00  0.00    -0.301 N 
ATOM      4  H1  UNL     1      -0.276  -4.239   1.188  1.00  0.00     0.186 HD
HETATM    5  N2  UNL     1       0.703  -2.404   0.961  1.00  0.00    -0.282 N 
ATOM      6  H2  UNL     1       1.598  -2.589   1.413  1.00  0.00     0.188 HD
HETATM    7  C3  UNL     1       0.356  -1.242   0.400  1.00  0.00     0.165 A 
HETATM    8  C7  UNL     1      -0.943  -1.359  -0.120  1.00  0.00     0.119 A 
ENDROOT
BRANCH   7   9
HETATM    9  N3  UNL     1       1.169  -0.111   0.344  1.00  0.00    -0.280 N 
ATOM     10  H3  UNL     1       0.782   0.782   0.650  1.00  0.00     0.188 HD
BRANCH   9  11
HETATM   11  N4  UNL     1       2.472  -0.143  -0.106  1.00  0.00    -0.267 N 
HETATM   12  C4  UNL     1       3.498   0.346   0.742  1.00  0.00     0.266 C 
HETATM   13  O1  UNL     1       3.286   0.798   1.881  1.00  0.00    -0.269 OA
ATOM     14  H4  UNL     1       2.694  -0.511  -1.031  1.00  0.00     0.190 HD
BRANCH  12  15
HETATM   15  C5  UNL     1       4.895   0.312   0.228  1.00  0.00     0.272 C 
HETATM   16  C6  UNL     1       4.899   1.136  -1.044  1.00  0.00     0.050 C 
BRANCH  15  17
HETATM   17  N5  UNL     1       5.803   0.840   1.218  1.00  0.00    -0.067 N 
ATOM     18  H53 UNL     1       5.532   1.775   1.524  1.00  0.00     0.275 HD
ATOM     19  H52 UNL     1       5.714   0.358   2.112  1.00  0.00     0.275 HD
ATOM     20  H51 UNL     1       6.760   0.817   0.866  1.00  0.00     0.275 HD
ENDBRANCH  15  17
ENDBRANCH  12  15
ENDBRANCH   9  11
ENDBRANCH   7   9
BRANCH   8  21
HETATM   21  N6  UNL     1      -1.681  -0.371  -0.800  1.00  0.00    -0.278 N 
ATOM     22  H6  UNL     1      -1.593  -0.377  -1.816  1.00  0.00     0.188 HD
BRANCH  21  23
HETATM   23  N7  UNL     1      -2.502   0.598  -0.282  1.00  0.00    -0.169 N 
HETATM   24  C8  UNL     1      -3.735   0.247   0.350  1.00  0.00     0.129 C 
HETATM   25  C9  UNL     1      -4.799   1.046   0.229  1.00  0.00     0.021 C 
HETATM   26  C10 UNL     1      -4.682   2.291  -0.563  1.00  0.00     0.220 C 
HETATM   27  O2  UNL     1      -3.691   3.077  -0.034  1.00  0.00    -0.254 OA
HETATM   28  S1  UNL     1      -2.190   2.311  -0.329  1.00  0.00     0.381 S 
HETATM   29  O3  UNL     1      -1.312   2.768   0.781  1.00  0.00    -0.174 OA
HETATM   30  O4  UNL     1      -1.663   2.717  -1.671  1.00  0.00    -0.174 OA
ENDBRANCH  21  23
ENDBRANCH   8  21
TORSDOF 6
