REMARK  7 active torsions:
REMARK  status: ('A' for Active; 'I' for Inactive)
REMARK    1  A    between atoms: O1_2  and  C2_3 
REMARK    2  A    between atoms: C4_10  and  C5_11 
REMARK    3  A    between atoms: C6_12  and  N3_13 
REMARK    4  A    between atoms: N3_13  and  C8_16 
REMARK    5  A    between atoms: C8_16  and  O3_18 
REMARK    6  A    between atoms: C11_25  and  N7_26 
REMARK    7  A    between atoms: C12_29  and  O4_30 
ROOT
HETATM    1  N3  UNL     1       1.964   0.535  -0.820  1.00  0.00    -0.241 N 
HETATM    2  C7  UNL     1       1.451   0.920  -2.049  1.00  0.00     0.188 C 
HETATM    3  N4  UNL     1       1.025   1.238  -3.097  1.00  0.00    -0.172 NA
ENDROOT
BRANCH   1   4
HETATM    4  C6  UNL     1       1.703  -0.754  -0.315  1.00  0.00     0.136 A 
HETATM    5  C5  UNL     1       0.615  -1.108   0.435  1.00  0.00     0.082 A 
HETATM    6  C11 UNL     1       0.544  -2.432   0.865  1.00  0.00     0.116 A 
HETATM    7  N6  UNL     1       1.489  -3.342   0.569  1.00  0.00    -0.338 N 
HETATM    8  C10 UNL     1       2.533  -2.983  -0.157  1.00  0.00     0.183 A 
ATOM      9  H6  UNL     1       1.400  -4.302   0.902  1.00  0.00     0.168 HD
HETATM   10  N5  UNL     1       2.623  -1.720  -0.580  1.00  0.00    -0.337 N 
ATOM     11  H5  UNL     1       3.436  -1.462  -1.139  1.00  0.00     0.168 HD
BRANCH   5  12
HETATM   12  C4  UNL     1      -0.418  -0.139   0.751  1.00  0.00     0.092 A 
HETATM   13  N2  UNL     1      -0.352   0.592   1.876  1.00  0.00    -0.305 N 
HETATM   14  C3  UNL     1      -1.275   1.505   2.225  1.00  0.00     0.326 A 
ATOM     15  H2  UNL     1       0.442   0.446   2.500  1.00  0.00     0.171 HD
HETATM   16  N1  UNL     1      -2.321   1.694   1.401  1.00  0.00    -0.287 N 
HETATM   17  O2  UNL     1      -1.182   2.183   3.301  1.00  0.00    -0.247 OA
HETATM   18  C2  UNL     1      -2.493   1.023   0.253  1.00  0.00     0.182 A 
ATOM     19  H1  UNL     1      -3.022   2.386   1.664  1.00  0.00     0.172 HD
HETATM   20  C12 UNL     1      -1.508   0.081  -0.074  1.00  0.00     0.147 A 
BRANCH  18  21
HETATM   21  O1  UNL     1      -3.581   1.235  -0.581  1.00  0.00    -0.339 OA
HETATM   22  C1  UNL     1      -3.543   2.287  -1.527  1.00  0.00     0.211 C 
ENDBRANCH  18  21
BRANCH  20  23
HETATM   23  O4  UNL     1      -1.706  -0.597  -1.259  1.00  0.00    -0.350 OA
HETATM   24  C13 UNL     1      -2.412  -1.785  -1.440  1.00  0.00     0.210 C 
ENDBRANCH  20  23
ENDBRANCH   5  12
BRANCH   6  25
HETATM   25  N7  UNL     1      -0.452  -2.804   1.584  1.00  0.00    -0.385 N 
ATOM     26  H72 UNL     1      -1.169  -2.114   1.808  1.00  0.00     0.157 HD
ATOM     27  H71 UNL     1      -0.504  -3.773   1.899  1.00  0.00     0.157 HD
ENDBRANCH   6  25
ENDBRANCH   1   4
BRANCH   1  28
HETATM   28  C8  UNL     1       2.773   1.457  -0.073  1.00  0.00     0.232 C 
HETATM   29  C9  UNL     1       3.353   0.923   1.192  1.00  0.00     0.064 C 
BRANCH  28  30
HETATM   30  O3  UNL     1       2.118   2.677   0.135  1.00  0.00    -0.376 OA
ATOM     31  H3  UNL     1       2.653   3.287   0.629  1.00  0.00     0.212 HD
ENDBRANCH  28  30
ENDBRANCH   1  28
TORSDOF 7
