REMARK  8 active torsions:
REMARK  status: ('A' for Active; 'I' for Inactive)
REMARK    1  A    between atoms: C3_4  and  C4_5 
REMARK    2  A    between atoms: C4_5  and  N2_6 
REMARK    3  A    between atoms: N2_6  and  N3_8 
REMARK       I    between atoms: N3_8  and  C5_9 
REMARK    4  A    between atoms: C5_9  and  C6_11 
REMARK    5  A    between atoms: C6_11  and  S1_12 
REMARK    6  A    between atoms: S1_12  and  C7_13 
REMARK    7  A    between atoms: C8_18  and  N6_19 
REMARK    8  A    between atoms: C9_24  and  N8_25 
ROOT
HETATM    1  N3  UNL     1       0.899   0.970   0.728  1.00  0.00    -0.287 NA
HETATM    2  C5  UNL     1       2.231   1.168   0.719  1.00  0.00     0.322 C 
HETATM    3  O1  UNL     1       3.055   1.103   1.638  1.00  0.00    -0.254 OA
ENDROOT
BRANCH   1   4
HETATM    4  N2  UNL     1      -0.347   0.784   0.738  1.00  0.00    -0.243 N 
ATOM      5  H2  UNL     1      -0.605   0.652  -0.240  1.00  0.00     0.201 HD
BRANCH   4   6
HETATM    6  C4  UNL     1      -1.410   0.685   1.370  1.00  0.00     0.137 C 
BRANCH   6   7
HETATM    7  C3  UNL     1      -2.691   0.424   0.679  1.00  0.00     0.041 A 
HETATM    8  C2  UNL     1      -3.851   0.322   1.399  1.00  0.00     0.112 A 
HETATM    9  N1  UNL     1      -4.990   0.082   0.708  1.00  0.00    -0.313 N 
HETATM   10  C1  UNL     1      -6.277  -0.042   1.404  1.00  0.00     0.160 C 
HETATM   11  C11 UNL     1      -5.012  -0.056  -0.631  1.00  0.00     0.329 A 
HETATM   12  N9  UNL     1      -3.861   0.044  -1.366  1.00  0.00    -0.289 N 
HETATM   13  O2  UNL     1      -6.068  -0.280  -1.273  1.00  0.00    -0.246 OA
HETATM   14  C9  UNL     1      -2.726   0.281  -0.700  1.00  0.00     0.117 A 
HETATM   15  C10 UNL     1      -3.890  -0.102  -2.813  1.00  0.00     0.163 C 
BRANCH  14  16
HETATM   16  N8  UNL     1      -1.622   0.377  -1.353  1.00  0.00    -0.384 N 
ATOM     17  H82 UNL     1      -0.756   0.558  -0.845  1.00  0.00     0.157 HD
ATOM     18  H81 UNL     1      -1.648   0.272  -2.367  1.00  0.00     0.157 HD
ENDBRANCH  14  16
ENDBRANCH   6   7
ENDBRANCH   4   6
ENDBRANCH   1   4
BRANCH   2  19
HETATM   19  C6  UNL     1       2.842   1.530  -0.628  1.00  0.00     0.203 C 
BRANCH  19  20
HETATM   20  S1  UNL     1       4.583   1.850  -0.550  1.00  0.00    -0.082 SA
BRANCH  20  21
HETATM   21  C7  UNL     1       5.545   0.388  -0.132  1.00  0.00     0.174 A 
HETATM   22  N4  UNL     1       5.082  -0.865   0.094  1.00  0.00    -0.265 N 
HETATM   23  N5  UNL     1       6.120  -1.650   0.370  1.00  0.00    -0.130 N 
ATOM     24  H4  UNL     1       4.105  -1.156   0.059  1.00  0.00     0.189 HD
HETATM   25  C8  UNL     1       7.253  -0.929   0.327  1.00  0.00     0.692 A 
ATOM     26  H5  UNL     1       6.064  -2.646   0.582  1.00  0.00     0.205 HD
HETATM   27  N7  UNL     1       6.876   0.314   0.018  1.00  0.00    -0.168 N 
ATOM     28  H7  UNL     1       7.515   1.102  -0.090  1.00  0.00     0.186 HD
BRANCH  25  29
HETATM   29  N6  UNL     1       8.477  -1.357   0.552  1.00  0.00    -0.233 N 
ATOM     30  H62 UNL     1       8.765  -2.307   0.788  1.00  0.00     0.174 HD
ATOM     31  H61 UNL     1       9.337  -0.810   0.519  1.00  0.00     0.174 HD
ENDBRANCH  25  29
ENDBRANCH  20  21
ENDBRANCH  19  20
ENDBRANCH   2  19
TORSDOF 8
