REMARK  7 active torsions:
REMARK  status: ('A' for Active; 'I' for Inactive)
REMARK    1  A    between atoms: C2_2  and  N1_3 
REMARK    2  A    between atoms: C2_2  and  C3_7 
REMARK    3  A    between atoms: C2_2  and  C9_30 
REMARK    4  A    between atoms: C3_7  and  S1_8 
REMARK    5  A    between atoms: S1_8  and  C4_9 
REMARK    6  A    between atoms: C5_14  and  C6_15 
REMARK    7  A    between atoms: C7_21  and  N6_22 
REMARK       I    between atoms: N6_22  and  C8_24 
ROOT
HETATM    1  C4  UNL     1      -0.285   0.729  -0.525  1.00  0.00     0.203 A 
HETATM    2  N2  UNL     1      -0.621   0.191  -1.702  1.00  0.00    -0.272 N 
ATOM      3  H2  UNL     1      -1.554   0.220  -2.112  1.00  0.00     0.189 HD
HETATM    4  N3  UNL     1       0.414  -0.374  -2.247  1.00  0.00    -0.275 N 
ATOM      5  H3  UNL     1       0.437  -0.858  -3.144  1.00  0.00     0.189 HD
HETATM    6  C5  UNL     1       1.452  -0.200  -1.403  1.00  0.00     0.197 A 
HETATM    7  O2  UNL     1       1.011   0.467  -0.372  1.00  0.00    -0.266 OA
ENDROOT
BRANCH   6   8
HETATM    8  C6  UNL     1       2.788  -0.702  -1.679  1.00  0.00     0.155 A 
HETATM    9  N4  UNL     1       3.238  -1.387  -2.740  1.00  0.00    -0.234 N 
HETATM   10  O1  UNL     1       4.521  -1.642  -2.568  1.00  0.00    -0.155 OA
ATOM     11  H4  UNL     1       2.680  -1.665  -3.547  1.00  0.00     0.197 HD
HETATM   12  N5  UNL     1       4.933  -1.150  -1.432  1.00  0.00    -0.223 N 
HETATM   13  C7  UNL     1       3.875  -0.550  -0.840  1.00  0.00     0.163 A 
ATOM     14  H5  UNL     1       5.880  -1.207  -1.058  1.00  0.00     0.198 HD
BRANCH  13  15
HETATM   15  N6  UNL     1       3.832   0.064   0.292  1.00  0.00    -0.314 N 
HETATM   16  C8  UNL     1       4.944   0.217   1.145  1.00  0.00     0.187 C 
HETATM   17  N7  UNL     1       4.865  -0.080   2.419  1.00  0.00    -0.373 N 
HETATM   18  N8  UNL     1       6.188   0.692   0.674  1.00  0.00    -0.064 NA
ATOM     19  H72 UNL     1       3.967  -0.423   2.759  1.00  0.00     0.158 HD
ATOM     20  H71 UNL     1       5.670   0.031   3.036  1.00  0.00     0.158 HD
ATOM     21  H6  UNL     1       2.941   0.463   0.588  1.00  0.00     0.170 HD
ENDBRANCH  13  15
ENDBRANCH   6   8
BRANCH   1  22
HETATM   22  S1  UNL     1      -1.333   1.596   0.584  1.00  0.00    -0.082 SA
BRANCH  22  23
HETATM   23  C3  UNL     1      -3.045   1.720   0.109  1.00  0.00     0.131 C 
BRANCH  23  24
HETATM   24  C2  UNL     1      -3.767   0.424   0.259  1.00  0.00     0.206 C 
HETATM   25  C1  UNL     1      -5.237   0.557  -0.145  1.00  0.00     0.057 C 
BRANCH  24  26
HETATM   26  N1  UNL     1      -3.239  -0.638  -0.540  1.00  0.00    -0.061 N 
ATOM     27  H13 UNL     1      -3.765  -1.509  -0.461  1.00  0.00     0.275 HD
ATOM     28  H12 UNL     1      -3.377  -0.503  -1.542  1.00  0.00     0.275 HD
ATOM     29  H11 UNL     1      -2.259  -0.727  -0.271  1.00  0.00     0.275 HD
ENDBRANCH  24  26
BRANCH  24  30
HETATM   30  C9  UNL     1      -3.793   0.006   1.687  1.00  0.00     0.267 C 
HETATM   31  N9  UNL     1      -3.300  -1.270   2.032  1.00  0.00    -0.060 NA
HETATM   32  O3  UNL     1      -4.235   0.738   2.605  1.00  0.00    -0.274 OA
ENDBRANCH  24  30
ENDBRANCH  23  24
ENDBRANCH  22  23
ENDBRANCH   1  22
TORSDOF 7
