REMARK  7 active torsions:
REMARK  status: ('A' for Active; 'I' for Inactive)
REMARK    1  A    between atoms: C2_2  and  C3_3 
REMARK    2  A    between atoms: C3_3  and  C4_4 
REMARK    3  A    between atoms: C4_4  and  C5_5 
REMARK    4  A    between atoms: C5_5  and  C6_6 
REMARK    5  A    between atoms: C6_6  and  N1_7 
REMARK    6  A    between atoms: N2_9  and  C7_11 
REMARK    7  A    between atoms: N4_25  and  O2_27 
ROOT
HETATM    1  C7  UNL     1      -1.223  -0.374   0.627  1.00  0.00     0.124 C 
HETATM    2  C8  UNL     1      -1.029  -1.702   1.268  1.00  0.00     0.055 C 
HETATM    3  C9  UNL     1      -2.227  -2.261   1.958  1.00  0.00     0.234 C 
HETATM    4  N3  UNL     1      -3.146  -1.221   2.351  1.00  0.00    -0.073 N 
ATOM      5  H31 UNL     1      -2.726  -0.621   3.061  1.00  0.00     0.277 HD
ATOM      6  H32 UNL     1      -3.919  -1.610   2.890  1.00  0.00     0.277 HD
HETATM    7  C10 UNL     1      -3.635  -0.444   1.265  1.00  0.00     0.257 C 
HETATM    8  C11 UNL     1      -2.639  -0.192   0.160  1.00  0.00     0.106 C 
HETATM    9  C12 UNL     1      -2.969  -1.174  -0.939  1.00  0.00     0.145 C 
HETATM   10  O1  UNL     1      -2.124  -1.978  -1.282  1.00  0.00    -0.297 OA
HETATM   11  C13 UNL     1      -4.327  -1.090  -1.539  1.00  0.00     0.080 C 
HETATM   12  C14 UNL     1      -4.842   0.302  -1.681  1.00  0.00     0.013 C 
HETATM   13  C15 UNL     1      -3.782   1.369  -1.591  1.00  0.00     0.056 C 
HETATM   14  C16 UNL     1      -2.851   1.142  -0.459  1.00  0.00     0.029 C 
HETATM   15  N4  UNL     1      -2.206   2.147  -0.002  1.00  0.00    -0.276 N 
ATOM     16  H4  UNL     1      -1.572   1.967   0.777  1.00  0.00     0.193 HD
ENDROOT
BRANCH   1  17
HETATM   17  N2  UNL     1      -0.350  -0.306  -0.520  1.00  0.00    -0.334 N 
HETATM   18  N1  UNL     1       0.788   0.136  -0.512  1.00  0.00    -0.340 N 
ATOM     19  H1  UNL     1       1.283   0.117  -1.404  1.00  0.00     0.179 HD
ATOM     20  H2  UNL     1      -0.712  -0.655  -1.407  1.00  0.00     0.180 HD
BRANCH  18  21
HETATM   21  C6  UNL     1       1.502   0.671   0.586  1.00  0.00     0.139 C 
BRANCH  21  22
HETATM   22  C5  UNL     1       2.929   0.158   0.510  1.00  0.00     0.021 C 
BRANCH  22  23
HETATM   23  C4  UNL     1       3.549   0.612  -0.795  1.00  0.00     0.002 C 
BRANCH  23  24
HETATM   24  C3  UNL     1       4.969   0.135  -0.934  1.00  0.00    -0.000 C 
BRANCH  24  25
HETATM   25  C2  UNL     1       5.868   0.636   0.157  1.00  0.00    -0.005 C 
HETATM   26  C1  UNL     1       7.262   0.068  -0.126  1.00  0.00     0.005 C 
ENDBRANCH  24  25
ENDBRANCH  23  24
ENDBRANCH  22  23
ENDBRANCH  21  22
ENDBRANCH  18  21
ENDBRANCH   1  17
BRANCH  15  27
HETATM   27  O2  UNL     1      -2.275   3.418  -0.440  1.00  0.00    -0.290 OA
ATOM     28  H2  UNL     1      -1.796   4.165  -0.100  1.00  0.00     0.244 HD
ENDBRANCH  15  27
TORSDOF 7
