REMARK  7 active torsions:
REMARK  status: ('A' for Active; 'I' for Inactive)
REMARK    1  A    between atoms: C2_2  and  C3_3 
REMARK    2  A    between atoms: C2_2  and  C12_19 
REMARK    3  A    between atoms: C3_3  and  C4_4 
REMARK    4  A    between atoms: C4_4  and  C5_5 
REMARK    5  A    between atoms: C5_5  and  N1_6 
REMARK    6  A    between atoms: C6_7  and  O1_8 
REMARK    7  A    between atoms: C9_12  and  O2_13 
ROOT
HETATM    1  N1  UNL     1       0.745   0.326   0.099  1.00  0.00    -0.306 N 
HETATM    2  C6  UNL     1       1.633   0.968   0.882  1.00  0.00     0.163 A 
HETATM    3  C7  UNL     1       2.862   0.340   0.731  1.00  0.00     0.072 A 
HETATM    4  C8  UNL     1       2.695  -0.709  -0.172  1.00  0.00     0.072 A 
HETATM    5  C9  UNL     1       1.382  -0.681  -0.533  1.00  0.00     0.163 A 
HETATM    6  S1  UNL     1       4.142  -1.681  -0.539  1.00  0.00    -0.123 SA
HETATM    7  C10 UNL     1       5.506  -0.562  -0.912  1.00  0.00     0.090 C 
HETATM    8  C11 UNL     1       5.781   0.431   0.160  1.00  0.00     0.090 C 
HETATM    9  S2  UNL     1       4.495   0.570   1.397  1.00  0.00    -0.123 SA
ENDROOT
BRANCH   1  10
HETATM   10  C5  UNL     1      -0.670   0.704  -0.007  1.00  0.00     0.133 C 
BRANCH  10  11
HETATM   11  C4  UNL     1      -1.405  -0.079   1.060  1.00  0.00     0.021 C 
BRANCH  11  12
HETATM   12  C3  UNL     1      -2.872   0.213   1.067  1.00  0.00     0.016 C 
BRANCH  12  13
HETATM   13  C2  UNL     1      -3.541  -0.128  -0.246  1.00  0.00     0.083 C 
HETATM   14  C1  UNL     1      -3.406  -1.571  -0.600  1.00  0.00     0.021 C 
BRANCH  13  15
HETATM   15  C12 UNL     1      -4.974   0.250  -0.221  1.00  0.00     0.176 C 
HETATM   16  O3  UNL     1      -5.847  -0.590  -0.473  1.00  0.00    -0.648 OA
HETATM   17  O4  UNL     1      -5.346   1.540   0.083  1.00  0.00    -0.648 OA
ENDBRANCH  13  15
ENDBRANCH  12  13
ENDBRANCH  11  12
ENDBRANCH  10  11
ENDBRANCH   1  10
BRANCH   2  18
HETATM   18  O1  UNL     1       1.402   2.069   1.711  1.00  0.00    -0.345 OA
ATOM     19  H1  UNL     1       2.028   2.522   2.263  1.00  0.00     0.219 HD
ENDBRANCH   2  18
BRANCH   5  20
HETATM   20  O2  UNL     1       0.808  -1.576  -1.430  1.00  0.00    -0.345 OA
ATOM     21  H2  UNL     1       1.257  -2.285  -1.875  1.00  0.00     0.219 HD
ENDBRANCH   5  20
TORSDOF 7
