REMARK  8 active torsions:
REMARK  status: ('A' for Active; 'I' for Inactive)
REMARK    1  A    between atoms: C2_2  and  C3_3 
REMARK    2  A    between atoms: C3_3  and  N1_4 
REMARK    3  A    between atoms: C6_8  and  C7_9 
REMARK    4  A    between atoms: C7_9  and  O1_10 
REMARK    5  A    between atoms: C7_9  and  C8_12 
REMARK    6  A    between atoms: C8_12  and  C9_13 
REMARK    7  A    between atoms: C9_13  and  C10_15 
REMARK    8  A    between atoms: C14_20  and  O4_21 
ROOT
HETATM    1  N1  UNL     1       2.578  -0.533  -0.038  1.00  0.00    -0.321 N 
HETATM    2  C4  UNL     1       1.854  -1.000  -1.061  1.00  0.00     0.085 A 
HETATM    3  S1  UNL     1       2.303  -2.301  -2.196  1.00  0.00    -0.033 SA
HETATM    4  C5  UNL     1       0.688  -0.269  -1.065  1.00  0.00     0.052 A 
HETATM    5  C6  UNL     1       0.697   0.652  -0.040  1.00  0.00     0.024 A 
HETATM    6  C14 UNL     1       1.918   0.456   0.596  1.00  0.00     0.152 A 
ENDROOT
BRANCH   5   7
HETATM    7  C7  UNL     1      -0.350   1.653   0.304  1.00  0.00     0.162 C 
BRANCH   7   8
HETATM    8  O1  UNL     1       0.160   2.939   0.139  1.00  0.00    -0.390 OA
ATOM      9  H1  UNL     1      -0.508   3.578   0.359  1.00  0.00     0.210 HD
ENDBRANCH   7   8
BRANCH   7  10
HETATM   10  C8  UNL     1      -1.650   1.461  -0.383  1.00  0.00     0.117 C 
BRANCH  10  11
HETATM   11  C9  UNL     1      -2.296   0.167  -0.083  1.00  0.00     0.158 C 
HETATM   12  O2  UNL     1      -1.777  -0.606   0.690  1.00  0.00    -0.295 OA
BRANCH  11  13
HETATM   13  C10 UNL     1      -3.592  -0.241  -0.705  1.00  0.00     0.190 C 
HETATM   14  C11 UNL     1      -4.662   0.756  -0.345  1.00  0.00     0.042 C 
HETATM   15  C12 UNL     1      -5.786  -0.100   0.123  1.00  0.00     0.029 C 
HETATM   16  C13 UNL     1      -5.169  -1.428   0.377  1.00  0.00     0.168 C 
HETATM   17  O3  UNL     1      -3.994  -1.481  -0.306  1.00  0.00    -0.378 OA
ENDBRANCH  11  13
ENDBRANCH  10  11
ENDBRANCH   7  10
ENDBRANCH   5   7
BRANCH   6  18
HETATM   18  O4  UNL     1       2.308   1.205   1.698  1.00  0.00    -0.345 OA
ATOM     19  H4  UNL     1       1.843   1.902   2.145  1.00  0.00     0.219 HD
ENDBRANCH   6  18
BRANCH   1  20
HETATM   20  C3  UNL     1       3.894  -0.966   0.397  1.00  0.00     0.131 C 
BRANCH  20  21
HETATM   21  C2  UNL     1       5.019  -0.224  -0.233  1.00  0.00     0.016 C 
HETATM   22  C1  UNL     1       6.308  -0.796   0.329  1.00  0.00     0.006 C 
ENDBRANCH  20  21
ENDBRANCH   1  20
TORSDOF 8
