REMARK  5 active torsions:
REMARK  status: ('A' for Active; 'I' for Inactive)
REMARK    1  A    between atoms: C2_2  and  C3_3 
REMARK    2  A    between atoms: C3_3  and  N1_4 
REMARK    3  A    between atoms: C3_3  and  C4_9 
REMARK    4  A    between atoms: N1_4  and  N2_6 
REMARK       I    between atoms: C4_9  and  N3_11 
REMARK    5  A    between atoms: N3_11  and  C5_13 
ROOT
HETATM    1  C4  UNL     1      -0.490  -0.109   0.775  1.00  0.00     0.242 C 
HETATM    2  O1  UNL     1      -0.293   0.192   1.996  1.00  0.00    -0.271 OA
HETATM    3  N3  UNL     1       0.669  -0.245  -0.032  1.00  0.00    -0.354 N 
ATOM      4  H3  UNL     1       0.543  -0.486  -1.015  1.00  0.00     0.162 HD
ENDROOT
BRANCH   1   5
HETATM    5  C3  UNL     1      -1.845  -0.308   0.217  1.00  0.00     0.190 C 
BRANCH   5   6
HETATM    6  C2  UNL     1      -2.123   0.564  -0.981  1.00  0.00     0.032 C 
HETATM    7  C1  UNL     1      -3.453   0.139  -1.568  1.00  0.00     0.007 C 
ENDBRANCH   5   6
BRANCH   5   8
HETATM    8  N1  UNL     1      -2.889  -0.132   1.170  1.00  0.00    -0.329 N 
ATOM      9  H1  UNL     1      -3.480  -0.902   1.483  1.00  0.00     0.180 HD
BRANCH   8  10
HETATM   10  N2  UNL     1      -3.041   1.151   1.636  1.00  0.00    -0.349 N 
ATOM     11  H22 UNL     1      -2.442   1.911   1.313  1.00  0.00     0.176 HD
ATOM     12  H21 UNL     1      -3.789   1.277   2.318  1.00  0.00     0.176 HD
ENDBRANCH   8  10
ENDBRANCH   5   8
ENDBRANCH   1   5
BRANCH   3  13
HETATM   13  C5  UNL     1       1.999  -0.065   0.450  1.00  0.00     0.089 C 
HETATM   14  C6  UNL     1       2.883   0.831  -0.383  1.00  0.00     0.030 C 
HETATM   15  C7  UNL     1       3.993  -0.158  -0.412  1.00  0.00    -0.006 A 
HETATM   16  C8  UNL     1       4.287  -1.086   0.692  1.00  0.00     0.012 A 
HETATM   17  C9  UNL     1       2.957  -1.205   0.086  1.00  0.00     0.013 A 
ENDBRANCH   3  13
TORSDOF 5
