REMARK  6 active torsions:
REMARK  status: ('A' for Active; 'I' for Inactive)
REMARK    1  A    between atoms: C2_2  and  C3_3 
REMARK    2  A    between atoms: C2_2  and  C5_9 
REMARK    3  A    between atoms: C3_3  and  N1_4 
REMARK    4  A    between atoms: C5_9  and  O1_10 
REMARK    5  A    between atoms: C5_9  and  C6_13 
REMARK    6  A    between atoms: O1_10  and  O2_11 
ROOT
HETATM    1  C1  UNL     1      -0.566   1.279  -1.681  1.00  0.00     0.014 C 
HETATM    2  C2  UNL     1      -0.177   0.715  -0.307  1.00  0.00     0.032 C 
ENDROOT
BRANCH   2   3
HETATM    3  C3  UNL     1       1.296   0.413  -0.383  1.00  0.00     0.128 C 
BRANCH   3   4
HETATM    4  N1  UNL     1       1.854  -0.120   0.834  1.00  0.00    -0.366 N 
HETATM    5  C4  UNL     1       3.036  -0.604   0.855  1.00  0.00     0.196 C 
HETATM    6  N2  UNL     1       3.811  -0.623  -0.317  1.00  0.00    -0.067 NA
HETATM    7  N3  UNL     1       3.573  -1.125   2.053  1.00  0.00    -0.067 NA
ATOM      8  H1  UNL     1       1.298  -0.111   1.689  1.00  0.00     0.161 HD
ENDBRANCH   3   4
ENDBRANCH   2   3
BRANCH   2   9
HETATM    9  C5  UNL     1      -1.037  -0.425   0.083  1.00  0.00     0.169 C 
BRANCH   9  10
HETATM   10  O1  UNL     1      -0.546  -0.872   1.334  1.00  0.00    -0.237 OA
BRANCH  10  11
HETATM   11  O2  UNL     1      -0.238  -2.148   1.307  1.00  0.00    -0.250 OA
ATOM     12  H2  UNL     1       0.091  -2.448   2.146  1.00  0.00     0.253 HD
ENDBRANCH  10  11
ENDBRANCH   9  10
BRANCH   9  13
HETATM   13  C6  UNL     1      -2.505  -0.170   0.188  1.00  0.00     0.018 A 
HETATM   14  C7  UNL     1      -3.401   0.301  -0.842  1.00  0.00     0.008 A 
HETATM   15  C8  UNL     1      -3.105   1.180   0.394  1.00  0.00     0.008 A 
ENDBRANCH   9  13
ENDBRANCH   2   9
TORSDOF 6
