REMARK  2 active torsions:
REMARK  status: ('A' for Active; 'I' for Inactive)
REMARK    1  A    between atoms: C2_2  and  N1_5 
REMARK       I    between atoms: C5_7  and  N2_8 
REMARK       I    between atoms: C5_7  and  N4_18 
REMARK       I    between atoms: N2_8  and  C6_10 
REMARK       I    between atoms: C6_10  and  N3_12 
REMARK    2  A    between atoms: N4_18  and  C11_20 
ROOT
HETATM    1  N1  UNL     1      -1.851   0.700   0.374  1.00  0.00    -0.218 N 
ATOM      2  H1  UNL     1      -2.578   0.468   1.051  1.00  0.00     0.178 HD
HETATM    3  C5  UNL     1      -0.719   0.217   0.671  1.00  0.00     0.679 C 
HETATM    4  N2  UNL     1       0.389   0.428  -0.132  1.00  0.00    -0.142 N 
ATOM      5  H2  UNL     1       0.279   0.987  -0.978  1.00  0.00     0.189 HD
HETATM    6  C6  UNL     1       1.672  -0.099   0.171  1.00  0.00     0.336 C 
HETATM    7  O1  UNL     1       1.897  -0.798   1.194  1.00  0.00    -0.246 OA
HETATM    8  N3  UNL     1       2.797   0.140  -0.687  1.00  0.00    -0.330 N 
HETATM    9  C7  UNL     1       2.595   0.915  -1.867  1.00  0.00     0.153 C 
HETATM   10  C8  UNL     1       3.781   1.040  -2.756  1.00  0.00     0.187 C 
HETATM   11  O2  UNL     1       5.009   0.859  -2.130  1.00  0.00    -0.388 OA
HETATM   12  C9  UNL     1       5.044  -0.381  -1.479  1.00  0.00     0.187 C 
HETATM   13  C10 UNL     1       4.066  -0.397  -0.334  1.00  0.00     0.153 C 
HETATM   14  N4  UNL     1      -0.618  -0.544   1.849  1.00  0.00    -0.218 N 
ATOM     15  H4  UNL     1       0.019  -0.210   2.572  1.00  0.00     0.178 HD
ENDROOT
BRANCH   1  16
HETATM   16  C2  UNL     1      -2.317   1.487  -0.689  1.00  0.00     0.036 C 
HETATM   17  C1  UNL     1      -2.227   0.847  -2.053  1.00  0.00     0.038 C 
HETATM   18  C3  UNL     1      -1.578   2.805  -0.723  1.00  0.00     0.038 C 
HETATM   19  C4  UNL     1      -3.795   1.810  -0.375  1.00  0.00     0.038 C 
ENDBRANCH   1  16
BRANCH  14  20
HETATM   20  C11 UNL     1      -1.343  -1.755   2.111  1.00  0.00     0.036 C 
HETATM   21  C12 UNL     1      -2.833  -1.406   2.055  1.00  0.00     0.038 C 
HETATM   22  C13 UNL     1      -1.112  -2.207   3.560  1.00  0.00     0.038 C 
HETATM   23  C14 UNL     1      -1.054  -2.898   1.213  1.00  0.00     0.038 C 
ENDBRANCH  14  20
TORSDOF 2
