REMARK  4 active torsions:
REMARK  status: ('A' for Active; 'I' for Inactive)
REMARK    1  A    between atoms: N1_2  and  O1_3 
REMARK       I    between atoms: N1_2  and  C2_5 
REMARK       I    between atoms: C2_5  and  N2_7 
REMARK    2  A    between atoms: C5_10  and  C6_11 
REMARK    3  A    between atoms: N3_12  and  N4_14 
REMARK       I    between atoms: C7_16  and  N6_18 
REMARK    4  A    between atoms: N6_18  and  N7_20 
REMARK       I    between atoms: N7_20  and  C8_22 
ROOT
HETATM    1  C6  UNL     1       0.342  -0.446   1.127  1.00  0.00     0.085 C 
HETATM    2  N3  UNL     1       1.488  -0.954   1.435  1.00  0.00    -0.313 N 
ATOM      3  H3  UNL     1       1.614  -1.490   2.293  1.00  0.00     0.185 HD
ENDROOT
BRANCH   1   4
HETATM    4  C5  UNL     1       0.118   0.328  -0.092  1.00  0.00     0.029 C 
HETATM    5  C4  UNL     1      -0.797   1.483   0.132  1.00  0.00     0.030 C 
HETATM    6  C3  UNL     1      -2.235   1.137   0.325  1.00  0.00     0.128 C 
HETATM    7  N2  UNL     1      -2.662  -0.100  -0.253  1.00  0.00    -0.332 N 
HETATM    8  C2  UNL     1      -4.013  -0.502  -0.133  1.00  0.00     0.343 C 
HETATM    9  C10 UNL     1      -1.792  -1.016  -0.981  1.00  0.00     0.128 C 
HETATM   10  N1  UNL     1      -5.019   0.211   0.524  1.00  0.00    -0.215 N 
HETATM   11  O2  UNL     1      -4.379  -1.616  -0.663  1.00  0.00    -0.245 OA
HETATM   12  C1  UNL     1      -6.392  -0.315   0.577  1.00  0.00     0.190 C 
HETATM   13  C9  UNL     1      -0.428  -0.485  -1.250  1.00  0.00     0.030 C 
BRANCH  10  14
HETATM   14  O1  UNL     1      -4.784   1.384   1.127  1.00  0.00    -0.284 OA
ATOM     15  H1  UNL     1      -3.897   1.724   1.093  1.00  0.00     0.245 HD
ENDBRANCH  10  14
ENDBRANCH   1   4
BRANCH   2  16
HETATM   16  N4  UNL     1       2.545  -0.744   0.554  1.00  0.00    -0.273 N 
HETATM   17  C7  UNL     1       3.608  -1.456   0.470  1.00  0.00     0.222 C 
HETATM   18  N5  UNL     1       3.894  -2.590   1.267  1.00  0.00    -0.061 NA
HETATM   19  N6  UNL     1       4.573  -1.079  -0.499  1.00  0.00    -0.269 N 
ATOM     20  H6  UNL     1       4.664  -1.653  -1.337  1.00  0.00     0.190 HD
ATOM     21  H4  UNL     1       2.467   0.049  -0.083  1.00  0.00     0.189 HD
BRANCH  19  22
HETATM   22  N7  UNL     1       5.400   0.028  -0.370  1.00  0.00    -0.252 N 
HETATM   23  C8  UNL     1       5.020   1.276  -0.879  1.00  0.00     0.347 C 
HETATM   24  N8  UNL     1       5.868   2.396  -0.742  1.00  0.00    -0.038 NA
HETATM   25  O3  UNL     1       3.923   1.412  -1.461  1.00  0.00    -0.249 OA
ATOM     26  H7  UNL     1       6.299  -0.069   0.103  1.00  0.00     0.191 HD
ENDBRANCH  19  22
ENDBRANCH   2  16
TORSDOF 4
