REMARK  6 active torsions:
REMARK  status: ('A' for Active; 'I' for Inactive)
REMARK    1  A    between atoms: C4_5  and  N2_6 
REMARK       I    between atoms: N2_6  and  C5_8 
REMARK       I    between atoms: C5_8  and  N3_10 
REMARK    2  A    between atoms: N3_10  and  N4_12 
REMARK       I    between atoms: N4_12  and  C6_14 
REMARK    3  A    between atoms: C6_14  and  C7_16 
REMARK    4  A    between atoms: C8_17  and  C9_18 
REMARK    5  A    between atoms: C9_18  and  N5_20 
REMARK    6  A    between atoms: N5_20  and  N6_22 
ROOT
HETATM    1  N2  UNL     1      -1.256   0.497  -1.144  1.00  0.00    -0.337 N 
ATOM      2  H2  UNL     1      -1.182   1.148  -1.926  1.00  0.00     0.164 HD
HETATM    3  C5  UNL     1      -0.073  -0.169  -0.644  1.00  0.00     0.335 C 
HETATM    4  O1  UNL     1      -0.157  -0.965   0.308  1.00  0.00    -0.246 OA
HETATM    5  N3  UNL     1       1.183   0.087  -1.241  1.00  0.00    -0.249 N 
ATOM      6  H3  UNL     1       1.267   0.740  -2.020  1.00  0.00     0.192 HD
ENDROOT
BRANCH   5   7
HETATM    7  N4  UNL     1       2.305  -0.574  -0.740  1.00  0.00    -0.263 N 
HETATM    8  C6  UNL     1       3.393   0.032  -0.089  1.00  0.00     0.259 C 
HETATM    9  O2  UNL     1       3.458   1.274   0.114  1.00  0.00    -0.267 OA
ATOM     10  H4  UNL     1       2.338  -1.587  -0.857  1.00  0.00     0.190 HD
BRANCH   8  11
HETATM   11  C7  UNL     1       4.496  -0.791   0.374  1.00  0.00     0.079 C 
HETATM   12  C8  UNL     1       5.513  -0.238   0.984  1.00  0.00     0.048 C 
BRANCH  12  13
HETATM   13  C9  UNL     1       6.613  -1.061   1.443  1.00  0.00     0.114 C 
HETATM   14  S1  UNL     1       6.547  -2.669   1.187  1.00  0.00    -0.059 SA
BRANCH  13  15
HETATM   15  N5  UNL     1       7.740  -0.517   2.097  1.00  0.00    -0.297 N 
ATOM     16  H5  UNL     1       8.493  -1.131   2.407  1.00  0.00     0.187 HD
BRANCH  15  17
HETATM   17  N6  UNL     1       7.827   0.849   2.319  1.00  0.00    -0.344 N 
ATOM     18  H62 UNL     1       7.065   1.449   2.002  1.00  0.00     0.176 HD
ATOM     19  H61 UNL     1       8.641   1.242   2.791  1.00  0.00     0.176 HD
ENDBRANCH  15  17
ENDBRANCH  13  15
ENDBRANCH  12  13
ENDBRANCH   8  11
ENDBRANCH   5   7
BRANCH   1  20
HETATM   20  C4  UNL     1      -2.526   0.244  -0.544  1.00  0.00     0.089 C 
HETATM   21  C3  UNL     1      -3.346   1.473  -0.247  1.00  0.00     0.055 C 
HETATM   22  C2  UNL     1      -4.373   1.086   0.806  1.00  0.00     0.274 C 
HETATM   23  N1  UNL     1      -4.919  -0.205   0.467  1.00  0.00     0.084 N 
HETATM   24  C1  UNL     1      -6.311  -0.234   0.851  1.00  0.00     0.309 C 
HETATM   25  C11 UNL     1      -4.822  -0.527  -0.937  1.00  0.00     0.274 C 
HETATM   26  C10 UNL     1      -3.405  -0.670  -1.405  1.00  0.00     0.055 C 
ENDBRANCH   1  20
TORSDOF 6
