REMARK  7 active torsions:
REMARK  status: ('A' for Active; 'I' for Inactive)
REMARK    1  A    between atoms: N2_7  and  C6_8 
REMARK    2  A    between atoms: C6_8  and  C7_9 
REMARK    3  A    between atoms: C7_9  and  N3_10 
REMARK       I    between atoms: N3_10  and  C8_12 
REMARK       I    between atoms: C8_12  and  N4_14 
REMARK    4  A    between atoms: N4_14  and  N5_16 
REMARK    5  A    between atoms: N5_16  and  C9_18 
REMARK    6  A    between atoms: C9_18  and  N6_20 
REMARK    7  A    between atoms: N6_20  and  N7_22 
ROOT
HETATM    1  N3  UNL     1       1.935  -1.323  -0.255  1.00  0.00    -0.337 N 
ATOM      2  H3  UNL     1       2.246  -2.278  -0.435  1.00  0.00     0.164 HD
HETATM    3  C8  UNL     1       2.890  -0.275  -0.214  1.00  0.00     0.335 C 
HETATM    4  O1  UNL     1       2.482   0.890   0.025  1.00  0.00    -0.246 OA
HETATM    5  N4  UNL     1       4.257  -0.513  -0.432  1.00  0.00    -0.249 N 
ATOM      6  H4  UNL     1       4.585  -1.459  -0.626  1.00  0.00     0.192 HD
ENDROOT
BRANCH   1   7
HETATM    7  C7  UNL     1       0.543  -1.065  -0.048  1.00  0.00     0.169 C 
BRANCH   7   8
HETATM    8  C6  UNL     1      -0.092  -0.175  -1.116  1.00  0.00     0.092 C 
BRANCH   8   9
HETATM    9  N2  UNL     1      -1.409   0.053  -0.772  1.00  0.00    -0.325 N 
HETATM   10  C5  UNL     1      -1.896   0.756   0.231  1.00  0.00    -0.068 C 
HETATM   11  C4  UNL     1      -1.988   1.573   1.386  1.00  0.00     0.109 C 
HETATM   12  C3  UNL     1      -3.500   1.490   1.771  1.00  0.00     0.057 C 
HETATM   13  C2  UNL     1      -4.162   0.200   1.479  1.00  0.00     0.063 C 
HETATM   14  N1  UNL     1      -4.465  -0.230   0.160  1.00  0.00    -0.377 N 
HETATM   15  C1  UNL     1      -5.618   0.243  -0.454  1.00  0.00     0.154 C 
HETATM   16  C11 UNL     1      -3.604  -1.134  -0.466  1.00  0.00     0.083 C 
HETATM   17  C10 UNL     1      -2.455  -0.778  -1.326  1.00  0.00     0.181 C 
ENDBRANCH   8   9
ENDBRANCH   7   8
ENDBRANCH   1   7
BRANCH   5  18
HETATM   18  N5  UNL     1       5.162   0.540  -0.384  1.00  0.00    -0.271 N 
ATOM     19  H5  UNL     1       4.797   1.491  -0.432  1.00  0.00     0.189 HD
BRANCH  18  20
HETATM   20  C9  UNL     1       6.545   0.369  -0.273  1.00  0.00     0.205 C 
HETATM   21  S1  UNL     1       7.472   1.740  -0.242  1.00  0.00    -0.038 SA
BRANCH  20  22
HETATM   22  N6  UNL     1       7.141  -0.912  -0.195  1.00  0.00    -0.282 N 
ATOM     23  H6  UNL     1       6.552  -1.744  -0.222  1.00  0.00     0.189 HD
BRANCH  22  24
HETATM   24  N7  UNL     1       8.540  -1.053  -0.080  1.00  0.00    -0.343 N 
ATOM     25  H72 UNL     1       9.115  -0.211  -0.054  1.00  0.00     0.176 HD
ATOM     26  H71 UNL     1       8.970  -1.976  -0.024  1.00  0.00     0.176 HD
ENDBRANCH  22  24
ENDBRANCH  20  22
ENDBRANCH  18  20
ENDBRANCH   5  18
TORSDOF 7
