REMARK  3 active torsions:
REMARK  status: ('A' for Active; 'I' for Inactive)
REMARK    1  A    between atoms: C6_6  and  O1_8 
REMARK    2  A    between atoms: C11_14  and  O3_15 
REMARK    3  A    between atoms: C13_18  and  O4_19 
ROOT
HETATM    1  C1  UNL     1      -2.925  -3.115   0.090  1.00  0.00     0.043 C 
HETATM    2  C2  UNL     1      -1.759  -2.189  -0.029  1.00  0.00    -0.087 C 
HETATM    3  C3  UNL     1      -0.615  -2.642  -0.462  1.00  0.00    -0.024 C 
HETATM    4  C4  UNL     1       0.627  -1.877  -0.640  1.00  0.00     0.030 C 
HETATM    5  C5  UNL     1       1.518  -1.916   0.591  1.00  0.00     0.041 C 
HETATM    6  C6  UNL     1       2.627  -0.905   0.509  1.00  0.00     0.054 C 
HETATM    7  C7  UNL     1       3.164  -0.760  -0.902  1.00  0.00     0.045 C 
HETATM    8  C8  UNL     1       2.230   0.396   1.126  1.00  0.00     0.039 C 
HETATM    9  C9  UNL     1       2.712   1.606   0.405  1.00  0.00     0.029 C 
HETATM   10  C10 UNL     1       1.610   2.401  -0.260  1.00  0.00     0.171 C 
HETATM   11  O2  UNL     1       0.395   1.883   0.116  1.00  0.00    -0.361 OA
HETATM   12  C11 UNL     1      -0.695   2.666  -0.164  1.00  0.00     0.259 C 
HETATM   13  C12 UNL     1      -1.884   2.134   0.588  1.00  0.00     0.092 C 
HETATM   14  C13 UNL     1      -2.877   1.423  -0.283  1.00  0.00     0.123 C 
HETATM   15  C14 UNL     1      -2.364   0.108  -0.784  1.00  0.00     0.036 C 
HETATM   16  C15 UNL     1      -2.004  -0.764   0.374  1.00  0.00     0.036 C 
ENDROOT
BRANCH   6  17
HETATM   17  O1  UNL     1       3.699  -1.431   1.269  1.00  0.00    -0.390 OA
ATOM     18  H1  UNL     1       4.400  -0.792   1.217  1.00  0.00     0.210 HD
ENDBRANCH   6  17
BRANCH  12  19
HETATM   19  O3  UNL     1      -0.886   2.691  -1.540  1.00  0.00    -0.371 OA
ATOM     20  H3  UNL     1      -1.641   3.234  -1.734  1.00  0.00     0.212 HD
ENDBRANCH  12  19
BRANCH  14  21
HETATM   21  O4  UNL     1      -4.093   1.310   0.383  1.00  0.00    -0.395 OA
ATOM     22  H4  UNL     1      -4.722   0.860  -0.169  1.00  0.00     0.210 HD
ENDBRANCH  14  21
TORSDOF 3
