REMARK  3 active torsions:
REMARK  status: ('A' for Active; 'I' for Inactive)
REMARK    1  A    between atoms: C11_11  and  O1_12 
REMARK    2  A    between atoms: C15_17  and  O2_18 
REMARK    3  A    between atoms: C16_20  and  O3_21 
ROOT
HETATM    1  C1  UNL     1      -3.120  -2.084   1.098  1.00  0.00     0.014 C 
HETATM    2  C2  UNL     1      -2.477  -1.361   0.194  1.00  0.00    -0.083 C 
HETATM    3  C3  UNL     1      -1.730  -2.079  -0.826  1.00  0.00     0.067 C 
HETATM    4  C4  UNL     1      -0.332  -2.536  -0.455  1.00  0.00    -0.080 C 
HETATM    5  C5  UNL     1      -0.184  -2.980   0.932  1.00  0.00     0.043 C 
HETATM    6  C6  UNL     1       0.652  -1.680  -1.097  1.00  0.00    -0.001 C 
HETATM    7  C7  UNL     1       1.578  -0.850  -0.854  1.00  0.00    -0.015 C 
HETATM    8  C8  UNL     1       2.284  -0.193   0.236  1.00  0.00    -0.004 C 
HETATM    9  C9  UNL     1       1.941  -0.518   1.648  1.00  0.00     0.021 C 
HETATM   10  C10 UNL     1       3.731  -0.762   0.163  1.00  0.00     0.021 C 
HETATM   11  C11 UNL     1       2.463   1.298   0.035  1.00  0.00     0.129 C 
HETATM   12  C12 UNL     1       1.537   1.932  -0.931  1.00  0.00     0.033 C 
HETATM   13  C13 UNL     1       0.628   2.996  -0.332  1.00  0.00     0.005 C 
HETATM   14  C14 UNL     1      -0.578   2.406   0.333  1.00  0.00     0.034 C 
HETATM   15  C15 UNL     1      -1.822   2.361  -0.472  1.00  0.00     0.147 C 
HETATM   16  C16 UNL     1      -2.220   0.925  -0.865  1.00  0.00     0.150 C 
HETATM   17  C17 UNL     1      -2.580   0.102   0.305  1.00  0.00     0.068 C 
ENDROOT
BRANCH  11  18
HETATM   18  O1  UNL     1       3.781   1.569  -0.304  1.00  0.00    -0.395 OA
ATOM     19  H1  UNL     1       3.893   2.504  -0.430  1.00  0.00     0.210 HD
ENDBRANCH  11  18
BRANCH  15  20
HETATM   20  O2  UNL     1      -2.873   2.820   0.337  1.00  0.00    -0.393 OA
ATOM     21  H2  UNL     1      -3.670   2.791  -0.179  1.00  0.00     0.210 HD
ENDBRANCH  15  20
BRANCH  16  22
HETATM   22  O3  UNL     1      -3.411   1.122  -1.619  1.00  0.00    -0.393 OA
ATOM     23  H3  UNL     1      -3.656   0.237  -1.861  1.00  0.00     0.210 HD
ENDBRANCH  16  22
TORSDOF 3
