REMARK  3 active torsions:
REMARK  status: ('A' for Active; 'I' for Inactive)
REMARK    1  A    between atoms: C2_2  and  C3_3 
REMARK    2  A    between atoms: C11_15  and  O1_16 
REMARK    3  A    between atoms: C13_19  and  O2_20 
ROOT
HETATM    1  C3  UNL     1       2.263  -0.335  -0.686  1.00  0.00     0.067 A 
HETATM    2  C4  UNL     1       2.226  -1.513  -1.586  1.00  0.00     0.045 C 
HETATM    3  N1  UNL     1       2.589   0.815  -1.528  1.00  0.00    -0.322 N 
ATOM      4  H1  UNL     1       3.420   0.896  -2.114  1.00  0.00     0.181 HD
HETATM    5  N2  UNL     1       1.708   1.673  -1.424  1.00  0.00    -0.307 N 
ATOM      6  H2  UNL     1       1.701   2.570  -1.910  1.00  0.00     0.186 HD
HETATM    7  C5  UNL     1       0.693   1.216  -0.513  1.00  0.00     0.041 A 
HETATM    8  C6  UNL     1       0.973   0.017  -0.038  1.00  0.00    -0.021 A 
HETATM    9  C7  UNL     1      -0.108  -0.353   0.890  1.00  0.00     0.030 C 
HETATM   10  C8  UNL     1      -0.742   0.973   1.289  1.00  0.00     0.028 C 
HETATM   11  C9  UNL     1      -0.589   1.735   0.032  1.00  0.00     0.027 C 
HETATM   12  C10 UNL     1      -0.464   3.219   0.337  1.00  0.00     0.025 C 
HETATM   13  C11 UNL     1      -1.640   1.471  -1.015  1.00  0.00     0.134 C 
HETATM   14  C12 UNL     1      -2.639   0.427  -0.600  1.00  0.00     0.065 C 
HETATM   15  C13 UNL     1      -2.054  -0.952  -0.633  1.00  0.00     0.129 C 
HETATM   16  C14 UNL     1      -1.129  -1.307   0.468  1.00  0.00    -0.014 C 
HETATM   17  C15 UNL     1      -2.041  -1.492   1.706  1.00  0.00     0.018 C 
HETATM   18  C16 UNL     1      -0.583  -2.688   0.177  1.00  0.00     0.018 C 
ENDROOT
BRANCH   1  19
HETATM   19  C2  UNL     1       3.392  -0.447   0.312  1.00  0.00     0.032 C 
HETATM   20  C1  UNL     1       3.478   0.710   1.244  1.00  0.00     0.008 C 
ENDBRANCH   1  19
BRANCH  13  21
HETATM   21  O1  UNL     1      -2.335   2.663  -1.319  1.00  0.00    -0.394 OA
ATOM     22  H1  UNL     1      -2.998   2.497  -1.979  1.00  0.00     0.210 HD
ENDBRANCH  13  21
BRANCH  15  23
HETATM   23  O2  UNL     1      -1.577  -1.195  -1.914  1.00  0.00    -0.395 OA
ATOM     24  H2  UNL     1      -1.206  -2.069  -1.935  1.00  0.00     0.210 HD
ENDBRANCH  15  23
TORSDOF 3
