REMARK  2 active torsions:
REMARK  status: ('A' for Active; 'I' for Inactive)
REMARK    1  A    between atoms: C11_13  and  O1_15 
REMARK    2  A    between atoms: C15_20  and  O3_21 
ROOT
HETATM    1  C1  UNL     1       2.169  -1.833   2.083  1.00  0.00     0.043 C 
HETATM    2  C2  UNL     1       1.661  -1.287   0.763  1.00  0.00    -0.085 C 
HETATM    3  C3  UNL     1       2.204  -0.091   0.566  1.00  0.00     0.005 C 
HETATM    4  C4  UNL     1       2.176   0.990  -0.459  1.00  0.00     0.155 C 
HETATM    5  N1  UNL     1       1.098   1.884  -0.304  1.00  0.00    -0.406 N 
ATOM      6  H1  UNL     1       0.847   2.538  -1.045  1.00  0.00     0.154 HD
HETATM    7  C5  UNL     1       0.371   1.845   0.919  1.00  0.00     0.073 C 
HETATM    8  C6  UNL     1       0.770   3.104   1.703  1.00  0.00     0.032 C 
HETATM    9  C7  UNL     1      -1.150   1.790   0.706  1.00  0.00     0.025 C 
HETATM   10  C8  UNL     1      -1.533   1.325  -0.637  1.00  0.00     0.009 C 
HETATM   11  C9  UNL     1      -2.045  -0.015  -0.858  1.00  0.00     0.016 C 
HETATM   12  C10 UNL     1      -3.522   0.038  -0.393  1.00  0.00     0.013 C 
HETATM   13  C11 UNL     1      -1.483  -1.267  -0.366  1.00  0.00     0.063 C 
HETATM   14  C12 UNL     1      -1.626  -1.384   1.164  1.00  0.00     0.046 C 
HETATM   15  C13 UNL     1      -0.221  -1.837  -0.872  1.00  0.00     0.048 C 
HETATM   16  C14 UNL     1       0.433  -1.162  -2.043  1.00  0.00     0.179 C 
HETATM   17  O2  UNL     1       1.770  -0.950  -1.742  1.00  0.00    -0.359 OA
HETATM   18  C15 UNL     1       2.235   0.322  -1.842  1.00  0.00     0.282 C 
HETATM   19  C16 UNL     1       0.766  -2.270   0.195  1.00  0.00     0.043 C 
ENDROOT
BRANCH  13  20
HETATM   20  O1  UNL     1      -2.524  -2.191  -0.749  1.00  0.00    -0.389 OA
ATOM     21  H1  UNL     1      -2.158  -3.007  -0.428  1.00  0.00     0.210 HD
ENDBRANCH  13  20
BRANCH  18  22
HETATM   22  O3  UNL     1       1.671   1.098  -2.830  1.00  0.00    -0.369 OA
ATOM     23  H3  UNL     1       1.707   0.685  -3.685  1.00  0.00     0.212 HD
ENDBRANCH  18  22
TORSDOF 2
