REMARK  10 active torsions:
REMARK  status: ('A' for Active; 'I' for Inactive)
REMARK    1  A    between atoms: N1_1  and  C1_4 
REMARK    2  A    between atoms: C3_8  and  N3_9 
REMARK    3  A    between atoms: N3_9  and  N4_10 
REMARK       I    between atoms: N3_9  and  C4_14 
REMARK    4  A    between atoms: N4_10  and  O1_12 
REMARK       I    between atoms: C4_14  and  N5_16 
REMARK    5  A    between atoms: N5_16  and  C5_18 
REMARK    6  A    between atoms: C5_18  and  C6_19 
REMARK    7  A    between atoms: C10_23  and  C11_24 
REMARK    8  A    between atoms: C11_24  and  N6_25 
REMARK    9  A    between atoms: C11_24  and  C12_29 
REMARK   10  A    between atoms: C13_33  and  N8_34 
ROOT
HETATM    1  N3  UNL     1       2.493   0.157   1.658  1.00  0.00    -0.181 N 
HETATM    2  C4  UNL     1       1.191  -0.364   1.431  1.00  0.00     0.343 C 
HETATM    3  O2  UNL     1       0.283  -0.188   2.283  1.00  0.00    -0.245 OA
HETATM    4  N5  UNL     1       0.877  -1.089   0.254  1.00  0.00    -0.336 N 
ATOM      5  H5  UNL     1       1.590  -1.246  -0.458  1.00  0.00     0.164 HD
ENDROOT
BRANCH   1   6
HETATM    6  C3  UNL     1       3.565  -0.011   0.748  1.00  0.00     0.123 A 
HETATM    7  C2  UNL     1       4.115  -1.266   0.489  1.00  0.00     0.141 A 
HETATM    8  N2  UNL     1       5.138  -1.369  -0.375  1.00  0.00    -0.200 N 
HETATM    9  C1  UNL     1       5.645  -0.293  -0.997  1.00  0.00     0.677 A 
ATOM     10  H2  UNL     1       5.540  -2.288  -0.563  1.00  0.00     0.183 HD
HETATM   11  N9  UNL     1       5.146   0.937  -0.777  1.00  0.00    -0.175 N 
HETATM   12  C13 UNL     1       4.106   1.068   0.096  1.00  0.00     0.145 A 
ATOM     13  H9  UNL     1       5.536   1.752  -1.251  1.00  0.00     0.186 HD
BRANCH   9  14
HETATM   14  N1  UNL     1       6.624  -0.457  -1.811  1.00  0.00    -0.234 N 
ATOM     15  H12 UNL     1       7.002  -1.389  -1.978  1.00  0.00     0.174 HD
ATOM     16  H11 UNL     1       7.009   0.361  -2.284  1.00  0.00     0.174 HD
ENDBRANCH   9  14
BRANCH  12  17
HETATM   17  N8  UNL     1       3.656   2.264   0.271  1.00  0.00    -0.383 N 
ATOM     18  H82 UNL     1       2.878   2.362   0.924  1.00  0.00     0.157 HD
ATOM     19  H81 UNL     1       4.058   3.066  -0.214  1.00  0.00     0.157 HD
ENDBRANCH  12  17
ENDBRANCH   1   6
BRANCH   1  20
HETATM   20  N4  UNL     1       2.729   0.862   2.835  1.00  0.00    -0.199 N 
ATOM     21  H4  UNL     1       3.660   0.877   3.251  1.00  0.00     0.216 HD
BRANCH  20  22
HETATM   22  O1  UNL     1       1.789   1.473   3.371  1.00  0.00    -0.274 OA
ATOM     23  H1  UNL     1       1.950   1.954   4.174  1.00  0.00     0.246 HD
ENDBRANCH  20  22
ENDBRANCH   1  20
BRANCH   4  24
HETATM   24  C5  UNL     1      -0.449  -1.600   0.071  1.00  0.00     0.181 C 
BRANCH  24  25
HETATM   25  C6  UNL     1      -1.428  -0.548  -0.302  1.00  0.00     0.027 A 
HETATM   26  C7  UNL     1      -1.091   0.641  -0.899  1.00  0.00     0.027 A 
HETATM   27  C8  UNL     1      -2.039   1.590  -1.215  1.00  0.00     0.004 A 
HETATM   28  C9  UNL     1      -3.370   1.303  -0.905  1.00  0.00     0.027 A 
HETATM   29  C10 UNL     1      -3.711   0.103  -0.302  1.00  0.00     0.042 A 
HETATM   30  N7  UNL     1      -2.732  -0.755  -0.034  1.00  0.00    -0.360 N 
ATOM     31  H7  UNL     1      -2.987  -1.638   0.408  1.00  0.00     0.165 HD
BRANCH  29  32
HETATM   32  C11 UNL     1      -5.142  -0.213   0.047  1.00  0.00     0.261 C 
BRANCH  32  33
HETATM   33  N6  UNL     1      -5.760   0.900   0.705  1.00  0.00    -0.067 N 
ATOM     34  H63 UNL     1      -5.228   1.199   1.523  1.00  0.00     0.275 HD
ATOM     35  H62 UNL     1      -5.685   1.755   0.153  1.00  0.00     0.275 HD
ATOM     36  H61 UNL     1      -6.729   0.686   0.941  1.00  0.00     0.275 HD
ENDBRANCH  32  33
BRANCH  32  37
HETATM   37  C12 UNL     1      -5.851  -0.633  -1.213  1.00  0.00     0.261 C 
HETATM   38  F1  UNL     1      -7.170  -0.933  -0.937  1.00  0.00    -0.253 F 
ENDBRANCH  32  37
ENDBRANCH  29  32
ENDBRANCH  24  25
ENDBRANCH   4  24
TORSDOF 10
