REMARK  8 active torsions:
REMARK  status: ('A' for Active; 'I' for Inactive)
REMARK       I    between atoms: C1_2  and  N2_4 
REMARK    1  A    between atoms: N2_4  and  N3_6 
REMARK    2  A    between atoms: N3_6  and  C2_7 
REMARK    3  A    between atoms: C2_7  and  C3_8 
REMARK    4  A    between atoms: C5_10  and  N4_11 
REMARK    5  A    between atoms: C5_10  and  N5_15 
REMARK    6  A    between atoms: C7_20  and  N6_21 
REMARK    7  A    between atoms: N6_21  and  C8_23 
REMARK    8  A    between atoms: C13_29  and  N7_30 
ROOT
HETATM    1  C3  UNL     1       0.698   0.289   1.197  1.00  0.00     0.144 C 
HETATM    2  C4  UNL     1       1.273   1.676   1.171  1.00  0.00     0.102 C 
HETATM    3  C5  UNL     1       0.668   2.559   0.116  1.00  0.00     0.288 C 
HETATM    4  C6  UNL     1      -0.796   2.328   0.009  1.00  0.00     0.122 C 
HETATM    5  C7  UNL     1      -1.029   0.852  -0.283  1.00  0.00     0.225 C 
HETATM    6  O4  UNL     1      -0.602   0.164   0.826  1.00  0.00    -0.360 OA
ENDROOT
BRANCH   5   7
HETATM    7  N6  UNL     1      -2.480   0.675  -0.353  1.00  0.00    -0.362 N 
ATOM      8  H6  UNL     1      -3.110   1.450  -0.146  1.00  0.00     0.162 HD
BRANCH   7   9
HETATM    9  C8  UNL     1      -2.994  -0.603  -0.717  1.00  0.00     0.063 A 
HETATM   10  C9  UNL     1      -2.103  -1.650  -0.986  1.00  0.00     0.035 A 
HETATM   11  C10 UNL     1      -2.566  -2.898  -1.317  1.00  0.00     0.044 A 
HETATM   12  C11 UNL     1      -3.915  -3.112  -1.381  1.00  0.00     0.118 A 
HETATM   13  F1  UNL     1      -4.379  -4.362  -1.711  1.00  0.00    -0.206 F 
HETATM   14  C12 UNL     1      -4.792  -2.091  -1.119  1.00  0.00     0.080 A 
HETATM   15  C13 UNL     1      -4.351  -0.805  -0.780  1.00  0.00     0.132 A 
BRANCH  15  16
HETATM   16  N7  UNL     1      -5.336   0.174  -0.525  1.00  0.00    -0.113 N 
HETATM   17  O2  UNL     1      -5.258   1.380  -0.806  1.00  0.00    -0.532 OA
HETATM   18  O3  UNL     1      -6.515  -0.313   0.072  1.00  0.00    -0.532 OA
ENDBRANCH  15  16
ENDBRANCH   7   9
ENDBRANCH   5   7
BRANCH   3  19
HETATM   19  N4  UNL     1       0.868   3.943   0.585  1.00  0.00    -0.045 N 
ATOM     20  H43 UNL     1       0.499   4.114   1.520  1.00  0.00     0.277 HD
ATOM     21  H42 UNL     1       1.841   4.166   0.794  1.00  0.00     0.277 HD
ATOM     22  H41 UNL     1       0.457   4.542  -0.131  1.00  0.00     0.277 HD
ENDBRANCH   3  19
BRANCH   3  23
HETATM   23  N5  UNL     1       1.315   2.498  -1.161  1.00  0.00    -0.045 N 
ATOM     24  H53 UNL     1       2.311   2.696  -1.063  1.00  0.00     0.277 HD
ATOM     25  H52 UNL     1       1.358   1.533  -1.490  1.00  0.00     0.277 HD
ATOM     26  H51 UNL     1       0.904   3.097  -1.877  1.00  0.00     0.277 HD
ENDBRANCH   3  23
BRANCH   1  27
HETATM   27  C2  UNL     1       1.620  -0.716   0.518  1.00  0.00     0.167 C 
BRANCH  27  28
HETATM   28  N3  UNL     1       2.984  -0.523   0.960  1.00  0.00    -0.135 NA
BRANCH  28  29
HETATM   29  N2  UNL     1       3.861  -1.425   0.362  1.00  0.00    -0.258 N 
HETATM   30  C1  UNL     1       5.245  -1.419   0.664  1.00  0.00     0.344 C 
HETATM   31  N1  UNL     1       6.173  -2.308   0.088  1.00  0.00    -0.039 NA
HETATM   32  O1  UNL     1       5.673  -0.574   1.490  1.00  0.00    -0.250 OA
ATOM     33  H2  UNL     1       3.499  -2.104  -0.307  1.00  0.00     0.186 HD
ENDBRANCH  28  29
ENDBRANCH  27  28
ENDBRANCH   1  27
TORSDOF 8
