REMARK  5 active torsions:
REMARK  status: ('A' for Active; 'I' for Inactive)
REMARK    1  A    between atoms: C2_2  and  C3_3 
REMARK    2  A    between atoms: C3_3  and  N1_4 
REMARK    3  A    between atoms: C4_5  and  C5_6 
REMARK    4  A    between atoms: C5_6  and  S1_7 
REMARK    5  A    between atoms: S1_7  and  C6_8 
ROOT
HETATM    1  C5  UNL     1       0.673   1.136   0.756  1.00  0.00     0.159 C 
ENDROOT
BRANCH   1   2
HETATM    2  C4  UNL     1       1.286  -0.227   1.059  1.00  0.00     0.110 A 
HETATM    3  N1  UNL     1       2.595  -0.540   1.124  1.00  0.00    -0.311 N 
HETATM    4  C12 UNL     1       2.695  -1.888   1.378  1.00  0.00     0.194 A 
HETATM    5  N5  UNL     1       1.455  -2.378   1.462  1.00  0.00    -0.275 N 
HETATM    6  S2  UNL     1       4.064  -2.772   1.545  1.00  0.00    -0.039 SA
HETATM    7  N4  UNL     1       0.629  -1.381   1.272  1.00  0.00    -0.286 N 
ATOM      8  H5  UNL     1       1.199  -3.349   1.641  1.00  0.00     0.189 HD
ATOM      9  H4  UNL     1      -0.387  -1.468   1.284  1.00  0.00     0.188 HD
BRANCH   3  10
HETATM   10  C3  UNL     1       3.745   0.286   0.977  1.00  0.00     0.132 C 
BRANCH  10  11
HETATM   11  C2  UNL     1       4.429   0.345  -0.326  1.00  0.00     0.016 C 
HETATM   12  C1  UNL     1       3.676   0.833  -1.512  1.00  0.00     0.006 C 
ENDBRANCH  10  11
ENDBRANCH   3  10
ENDBRANCH   1   2
BRANCH   1  13
HETATM   13  S1  UNL     1      -0.082   1.220  -0.826  1.00  0.00    -0.103 SA
BRANCH  13  14
HETATM   14  C6  UNL     1      -1.665   0.560  -1.108  1.00  0.00     0.091 A 
HETATM   15  N2  UNL     1      -1.976   0.303  -2.426  1.00  0.00    -0.291 N 
HETATM   16  N3  UNL     1      -3.121  -0.130  -2.846  1.00  0.00    -0.265 N 
ATOM     17  H2  UNL     1      -1.249   0.466  -3.123  1.00  0.00     0.187 HD
HETATM   18  C7  UNL     1      -4.092  -0.353  -1.951  1.00  0.00     0.266 A 
ATOM     19  H3  UNL     1      -3.281  -0.298  -3.839  1.00  0.00     0.190 HD
HETATM   20  O1  UNL     1      -5.231  -0.778  -2.295  1.00  0.00    -0.266 OA
HETATM   21  C8  UNL     1      -3.892  -0.128  -0.611  1.00  0.00     0.016 A 
HETATM   22  C9  UNL     1      -4.987  -0.368   0.378  1.00  0.00     0.055 C 
HETATM   23  C10 UNL     1      -2.650   0.341  -0.178  1.00  0.00    -0.016 A 
HETATM   24  C11 UNL     1      -2.491   0.671   1.262  1.00  0.00     0.052 C 
ENDBRANCH  13  14
ENDBRANCH   1  13
TORSDOF 5
