REMARK  6 active torsions:
REMARK  status: ('A' for Active; 'I' for Inactive)
REMARK    1  A    between atoms: C4_4  and  N1_5 
REMARK    2  A    between atoms: C5_12  and  S1_13 
REMARK    3  A    between atoms: S1_13  and  C6_14 
REMARK    4  A    between atoms: C6_14  and  C7_15 
REMARK    5  A    between atoms: C7_15  and  N5_16 
REMARK    6  A    between atoms: N5_16  and  C8_19 
ROOT
HETATM    1  N1  UNL     1       2.521   0.278   1.679  1.00  0.00    -0.215 N 
HETATM    2  N2  UNL     1       2.823   0.133   2.967  1.00  0.00    -0.219 N 
ATOM      3  H2  UNL     1       3.740  -0.143   3.319  1.00  0.00     0.210 HD
HETATM    4  N3  UNL     1       1.789   0.392   3.718  1.00  0.00    -0.226 N 
ATOM      5  H3  UNL     1       1.757   0.354   4.737  1.00  0.00     0.210 HD
HETATM    6  N4  UNL     1       0.801   0.709   2.924  1.00  0.00    -0.263 N 
ATOM      7  H4  UNL     1      -0.142   0.963   3.219  1.00  0.00     0.190 HD
HETATM    8  C5  UNL     1       1.238   0.644   1.642  1.00  0.00     0.183 A 
ENDROOT
BRANCH   8   9
HETATM    9  S1  UNL     1       0.245   0.989   0.216  1.00  0.00    -0.089 SA
BRANCH   9  10
HETATM   10  C6  UNL     1      -0.561  -0.530  -0.364  1.00  0.00     0.110 C 
BRANCH  10  11
HETATM   11  C7  UNL     1      -1.542  -0.958   0.686  1.00  0.00     0.243 C 
BRANCH  11  12
HETATM   12  N5  UNL     1      -2.562   0.031   0.941  1.00  0.00    -0.070 N 
ATOM     13  H52 UNL     1      -3.083  -0.155   1.798  1.00  0.00     0.277 HD
ATOM     14  H51 UNL     1      -2.173   0.935   1.209  1.00  0.00     0.277 HD
BRANCH  12  15
HETATM   15  C8  UNL     1      -3.413   0.116  -0.216  1.00  0.00     0.186 C 
HETATM   16  C9  UNL     1      -4.467   1.201  -0.065  1.00  0.00     0.033 C 
HETATM   17  C10 UNL     1      -5.602   0.709  -0.921  1.00  0.00     0.002 C 
HETATM   18  C11 UNL     1      -5.295  -0.687  -1.337  1.00  0.00     0.002 C 
HETATM   19  C12 UNL     1      -4.282  -1.123  -0.277  1.00  0.00     0.033 C 
ENDBRANCH  12  15
ENDBRANCH  11  12
ENDBRANCH  10  11
ENDBRANCH   9  10
ENDBRANCH   8   9
BRANCH   1  20
HETATM   20  C4  UNL     1       3.409   0.077   0.586  1.00  0.00     0.084 A 
HETATM   21  C3  UNL     1       3.791  -1.096  -0.021  1.00  0.00     0.058 A 
HETATM   22  C2  UNL     1       4.676  -0.852  -1.053  1.00  0.00     0.007 A 
HETATM   23  C1  UNL     1       5.325  -1.849  -1.959  1.00  0.00     0.068 C 
HETATM   24  N6  UNL     1       4.834   0.493  -1.072  1.00  0.00    -0.362 N 
HETATM   25  C13 UNL     1       4.093   1.069  -0.109  1.00  0.00     0.034 A 
ATOM     26  H6  UNL     1       5.432   0.999  -1.726  1.00  0.00     0.165 HD
HETATM   27  C14 UNL     1       4.003   2.539   0.189  1.00  0.00     0.070 C 
ENDBRANCH   1  20
TORSDOF 6
