REMARK  5 active torsions:
REMARK  status: ('A' for Active; 'I' for Inactive)
REMARK    1  A    between atoms: C2_2  and  C3_3 
REMARK    2  A    between atoms: N1_4  and  C5_6 
REMARK    3  A    between atoms: C5_6  and  C6_7 
REMARK    4  A    between atoms: C7_8  and  C8_9 
REMARK    5  A    between atoms: C8_9  and  O1_10 
ROOT
HETATM    1  C5  UNL     1      -0.191   0.082   0.384  1.00  0.00     0.143 C 
HETATM    2  C11 UNL     1      -0.140   0.751   1.702  1.00  0.00     0.133 C 
HETATM    3  S1  UNL     1       0.510   2.462   1.722  1.00  0.00    -0.161 SA
HETATM    4  C12 UNL     1      -0.414   3.271   0.382  1.00  0.00     0.114 C 
HETATM    5  C13 UNL     1      -0.552   2.328  -0.778  1.00  0.00     0.196 C 
HETATM    6  C14 UNL     1      -1.836   2.746  -1.429  1.00  0.00     0.085 C 
HETATM    7  N3  UNL     1      -2.835   3.076  -1.961  1.00  0.00    -0.195 NA
HETATM    8  N4  UNL     1      -0.440   1.008  -0.715  1.00  0.00    -0.375 N 
ATOM      9  H4  UNL     1      -0.550   0.547  -1.618  1.00  0.00     0.157 HD
ENDROOT
BRANCH   1  10
HETATM   10  N1  UNL     1       0.839  -0.818   0.030  1.00  0.00    -0.367 N 
HETATM   11  C3  UNL     1       2.159  -0.627  -0.214  1.00  0.00     0.060 C 
HETATM   12  C4  UNL     1       0.636  -2.227   0.278  1.00  0.00     0.151 C 
BRANCH  11  13
HETATM   13  C2  UNL     1       2.867   0.672  -0.274  1.00  0.00     0.040 C 
HETATM   14  C1  UNL     1       4.361   0.440  -0.671  1.00  0.00     0.010 C 
ENDBRANCH  11  13
ENDBRANCH   1  10
BRANCH   1  15
HETATM   15  C6  UNL     1      -1.440  -0.788   0.358  1.00  0.00     0.049 A 
HETATM   16  C7  UNL     1      -1.925  -1.386  -0.806  1.00  0.00     0.069 A 
HETATM   17  N2  UNL     1      -2.983  -2.135  -0.418  1.00  0.00    -0.262 N 
HETATM   18  O2  UNL     1      -3.189  -2.059   0.821  1.00  0.00    -0.242 OA
ATOM     19  H2  UNL     1      -3.548  -2.696  -1.056  1.00  0.00     0.194 HD
HETATM   20  C9  UNL     1      -2.257  -1.235   1.352  1.00  0.00     0.085 A 
HETATM   21  C10 UNL     1      -2.302  -1.006   2.792  1.00  0.00     0.079 C 
BRANCH  16  22
HETATM   22  C8  UNL     1      -1.445  -1.199  -2.155  1.00  0.00     0.224 C 
BRANCH  22  23
HETATM   23  O1  UNL     1      -2.242  -2.029  -3.005  1.00  0.00    -0.395 OA
ATOM     24  H1  UNL     1      -1.926  -1.906  -3.892  1.00  0.00     0.209 HD
ENDBRANCH  22  23
ENDBRANCH  16  22
ENDBRANCH   1  15
TORSDOF 5
