REMARK  7 active torsions:
REMARK  status: ('A' for Active; 'I' for Inactive)
REMARK    1  A    between atoms: C2_2  and  O1_3 
REMARK    2  A    between atoms: C2_2  and  C3_5 
REMARK    3  A    between atoms: C3_5  and  N1_6 
REMARK    4  A    between atoms: C3_5  and  C12_20 
REMARK       I    between atoms: N1_6  and  C4_7 
REMARK    5  A    between atoms: C4_7  and  O3_9 
REMARK    6  A    between atoms: O3_9  and  C5_10 
REMARK    7  A    between atoms: C9_14  and  C10_15 
ROOT
HETATM    1  N1  UNL     1       0.598   1.131   1.318  1.00  0.00    -0.371 NA
HETATM    2  C4  UNL     1      -0.381   0.361   1.281  1.00  0.00     0.436 C 
HETATM    3  O2  UNL     1      -1.456   0.344   1.975  1.00  0.00    -0.221 OA
ENDROOT
BRANCH   2   4
HETATM    4  O3  UNL     1      -0.553  -0.762   0.393  1.00  0.00    -0.283 OA
BRANCH   4   5
HETATM    5  C5  UNL     1      -1.188  -1.738  -0.002  1.00  0.00     0.186 C 
HETATM    6  C6  UNL     1      -0.445  -2.667  -0.964  1.00  0.00     0.043 C 
HETATM    7  C7  UNL     1      -1.486  -3.676  -1.301  1.00  0.00     0.013 C 
HETATM    8  C11 UNL     1      -0.340  -1.762  -2.183  1.00  0.00     0.177 C 
HETATM    9  C8  UNL     1      -2.723  -2.804  -1.385  1.00  0.00     0.053 C 
HETATM   10  C9  UNL     1      -2.265  -1.399  -1.156  1.00  0.00     0.175 C 
HETATM   11  O6  UNL     1      -1.489  -0.989  -2.180  1.00  0.00    -0.366 OA
BRANCH  10  12
HETATM   12  C10 UNL     1      -3.326  -0.576  -0.653  1.00  0.00     0.212 C 
HETATM   13  O4  UNL     1      -3.470   0.580  -1.191  1.00  0.00    -0.646 OA
HETATM   14  O5  UNL     1      -4.210  -0.901   0.355  1.00  0.00    -0.646 OA
ENDBRANCH  10  12
ENDBRANCH   4   5
ENDBRANCH   2   4
BRANCH   1  15
HETATM   15  C3  UNL     1       1.735   2.076   1.402  1.00  0.00     0.297 C 
BRANCH  15  16
HETATM   16  C2  UNL     1       2.848   1.635   0.501  1.00  0.00     0.160 C 
HETATM   17  C1  UNL     1       4.134   2.380   0.605  1.00  0.00     0.043 C 
BRANCH  16  18
HETATM   18  O1  UNL     1       2.394   1.679  -0.847  1.00  0.00    -0.392 OA
ATOM     19  H1  UNL     1       1.574   1.204  -0.913  1.00  0.00     0.210 HD
ENDBRANCH  16  18
ENDBRANCH  15  16
BRANCH  15  20
HETATM   20  C12 UNL     1       1.129   3.337   0.664  1.00  0.00     0.213 C 
HETATM   21  O7  UNL     1      -0.030   3.214   0.255  1.00  0.00    -0.646 OA
HETATM   22  O8  UNL     1       1.929   4.422   0.536  1.00  0.00    -0.646 OA
ENDBRANCH  15  20
ENDBRANCH   1  15
TORSDOF 7
