REMARK  6 active torsions:
REMARK  status: ('A' for Active; 'I' for Inactive)
REMARK    1  A    between atoms: C1_4  and  C2_5 
REMARK    2  A    between atoms: C2_5  and  C3_6 
REMARK       I    between atoms: C3_6  and  N2_8 
REMARK    3  A    between atoms: N2_8  and  C4_10 
REMARK    4  A    between atoms: C5_11  and  O2_12 
REMARK    5  A    between atoms: C6_14  and  C7_15 
REMARK    6  A    between atoms: C7_15  and  C8_16 
ROOT
HETATM    1  C4  UNL     1       0.434   0.048  -0.226  1.00  0.00     0.137 C 
HETATM    2  C5  UNL     1       0.039   1.371   0.409  1.00  0.00     0.152 C 
HETATM    3  C6  UNL     1      -1.409   1.685   0.245  1.00  0.00     0.065 C 
HETATM    4  C9  UNL     1      -1.972   0.851  -0.891  1.00  0.00     0.071 C 
HETATM    5  N3  UNL     1      -1.867  -0.513  -0.556  1.00  0.00    -0.367 N 
HETATM    6  C10 UNL     1      -3.006  -1.319  -0.523  1.00  0.00     0.063 C 
HETATM    7  C11 UNL     1      -2.766  -2.800  -0.607  1.00  0.00     0.045 C 
HETATM    8  C12 UNL     1      -1.471  -3.219   0.045  1.00  0.00     0.007 C 
HETATM    9  C13 UNL     1      -0.344  -2.325  -0.442  1.00  0.00     0.028 C 
HETATM   10  C14 UNL     1      -0.676  -0.938   0.064  1.00  0.00     0.113 C 
ENDROOT
BRANCH   1  11
HETATM   11  N2  UNL     1       1.620  -0.413   0.481  1.00  0.00    -0.352 N 
HETATM   12  C3  UNL     1       2.846  -0.675  -0.168  1.00  0.00     0.222 C 
HETATM   13  O1  UNL     1       2.991  -0.526  -1.407  1.00  0.00    -0.273 OA
ATOM     14  H2  UNL     1       1.563  -0.553   1.490  1.00  0.00     0.163 HD
BRANCH  12  15
HETATM   15  C2  UNL     1       4.029  -1.143   0.594  1.00  0.00     0.146 C 
BRANCH  15  16
HETATM   16  C1  UNL     1       5.195  -1.356  -0.286  1.00  0.00     0.062 C 
HETATM   17  N1  UNL     1       5.853  -0.310  -0.675  1.00  0.00    -0.411 N 
ATOM     18  H12 UNL     1       5.563   0.621  -0.375  1.00  0.00     0.155 HD
ATOM     19  H11 UNL     1       6.659  -0.457  -1.283  1.00  0.00     0.155 HD
ENDBRANCH  15  16
ENDBRANCH  12  15
ENDBRANCH   1  11
BRANCH   2  20
HETATM   20  O2  UNL     1       0.869   2.402  -0.028  1.00  0.00    -0.393 OA
ATOM     21  H2  UNL     1       0.622   3.229   0.369  1.00  0.00     0.210 HD
ENDBRANCH   2  20
BRANCH   3  22
HETATM   22  C7  UNL     1      -1.706   3.155   0.055  1.00  0.00     0.125 C 
BRANCH  22  23
HETATM   23  C8  UNL     1      -1.232   3.915   1.235  1.00  0.00     0.173 C 
HETATM   24  O3  UNL     1      -0.669   3.409   2.234  1.00  0.00    -0.648 OA
HETATM   25  O4  UNL     1      -1.417   5.290   1.246  1.00  0.00    -0.648 OA
ENDBRANCH  22  23
ENDBRANCH   3  22
TORSDOF 6
