REMARK  3 active torsions:
REMARK  status: ('A' for Active; 'I' for Inactive)
REMARK    1  A    between atoms: N2_7  and  C6_8 
REMARK    2  A    between atoms: C6_8  and  C7_9 
REMARK    3  A    between atoms: C7_9  and  N3_10 
ROOT
HETATM    1  C1  UNL     1       5.663   2.352   0.230  1.00  0.00     0.155 C 
HETATM    2  N1  UNL     1       4.700   1.278   0.233  1.00  0.00    -0.329 N 
HETATM    3  C2  UNL     1       3.530   1.113  -0.586  1.00  0.00     0.166 C 
HETATM    4  C3  UNL     1       2.726   0.001   0.082  1.00  0.00     0.095 C 
HETATM    5  C4  UNL     1       1.620   0.565   0.883  1.00  0.00     0.061 C 
HETATM    6  C5  UNL     1       0.324   0.787   0.156  1.00  0.00     0.127 C 
HETATM    7  N2  UNL     1      -0.448  -0.465   0.245  1.00  0.00    -0.364 N 
HETATM    8  C11 UNL     1       0.157  -1.730  -0.046  1.00  0.00     0.127 A 
HETATM    9  N4  UNL     1      -0.462  -2.894   0.174  1.00  0.00    -0.337 N 
ATOM     10  H4  UNL     1      -1.399  -3.015   0.558  1.00  0.00     0.168 HD
HETATM   11  C12 UNL     1       0.381  -3.882  -0.205  1.00  0.00     0.182 A 
HETATM   12  N5  UNL     1       1.538  -3.357  -0.666  1.00  0.00    -0.353 N 
ATOM     13  H5  UNL     1       2.347  -3.870  -1.015  1.00  0.00     0.166 HD
HETATM   14  C13 UNL     1       1.407  -2.018  -0.571  1.00  0.00     0.057 A 
HETATM   15  C14 UNL     1       2.410  -0.995  -0.963  1.00  0.00     0.101 C 
HETATM   16  O1  UNL     1       3.651  -0.605   0.994  1.00  0.00    -0.290 OA
HETATM   17  C15 UNL     1       4.794   0.159   1.118  1.00  0.00     0.363 C 
HETATM   18  O2  UNL     1       5.751  -0.100   1.887  1.00  0.00    -0.238 OA
ENDROOT
BRANCH   7  19
HETATM   19  C6  UNL     1      -1.825  -0.402   0.632  1.00  0.00     0.152 C 
BRANCH  19  20
HETATM   20  C7  UNL     1      -2.657   0.255  -0.414  1.00  0.00     0.255 C 
BRANCH  20  21
HETATM   21  N3  UNL     1      -4.043   0.377  -0.137  1.00  0.00    -0.077 N 
HETATM   22  C8  UNL     1      -4.632   1.131  -1.254  1.00  0.00     0.271 C 
HETATM   23  C9  UNL     1      -4.346   1.131   1.054  1.00  0.00     0.271 C 
HETATM   24  C10 UNL     1      -4.774  -0.863  -0.064  1.00  0.00     0.271 C 
ENDBRANCH  20  21
ENDBRANCH  19  20
ENDBRANCH   7  19
TORSDOF 3
