REMARK  3 active torsions:
REMARK  status: ('A' for Active; 'I' for Inactive)
REMARK    1  A    between atoms: S1_2  and  N1_4 
REMARK    2  A    between atoms: S1_2  and  N5_20 
REMARK    3  A    between atoms: C3_8  and  N2_9 
ROOT
HETATM    1  N1  UNL     1      -1.393   0.918   1.337  1.00  0.00    -0.257 N 
ATOM      2  H1  UNL     1      -1.073   1.886   1.296  1.00  0.00     0.181 HD
HETATM    3  C1  UNL     1      -0.568  -0.025   1.024  1.00  0.00     0.119 A 
HETATM    4  C2  UNL     1       0.708   0.323   0.648  1.00  0.00     0.097 A 
HETATM    5  C3  UNL     1       1.643  -0.612   0.301  1.00  0.00     0.107 A 
HETATM    6  N3  UNL     1       1.249  -1.906   0.345  1.00  0.00    -0.339 N 
ATOM      7  H3  UNL     1       1.911  -2.641   0.095  1.00  0.00     0.168 HD
HETATM    8  C9  UNL     1      -0.002  -2.240   0.713  1.00  0.00     0.183 A 
HETATM    9  N4  UNL     1      -0.925  -1.329   1.055  1.00  0.00    -0.338 N 
ATOM     10  H4  UNL     1      -1.866  -1.611   1.330  1.00  0.00     0.168 HD
ENDROOT
BRANCH   1  11
HETATM   11  S1  UNL     1      -3.018   0.597   1.822  1.00  0.00     0.304 S 
HETATM   12  O1  UNL     1      -3.025  -0.465   2.883  1.00  0.00    -0.188 OA
HETATM   13  O2  UNL     1      -3.598   1.866   2.336  1.00  0.00    -0.188 OA
BRANCH  11  14
HETATM   14  N5  UNL     1      -3.869  -0.022   0.458  1.00  0.00    -0.193 NA
HETATM   15  C10 UNL     1      -3.877   0.979  -0.592  1.00  0.00     0.109 C 
HETATM   16  C11 UNL     1      -4.919   0.380  -1.544  1.00  0.00     0.017 C 
HETATM   17  C12 UNL     1      -6.023   0.039  -0.540  1.00  0.00     0.017 C 
HETATM   18  C13 UNL     1      -5.251  -0.264   0.720  1.00  0.00     0.109 C 
ENDBRANCH  11  14
ENDBRANCH   1  11
BRANCH   5  19
HETATM   19  N2  UNL     1       2.950  -0.207  -0.079  1.00  0.00    -0.367 N 
HETATM   20  C4  UNL     1       3.262   1.183  -0.088  1.00  0.00     0.124 C 
HETATM   21  C5  UNL     1       4.688   1.526  -0.311  1.00  0.00     0.020 C 
HETATM   22  C6  UNL     1       5.621   0.385  -0.077  1.00  0.00     0.003 C 
HETATM   23  C7  UNL     1       5.155  -0.755  -0.992  1.00  0.00     0.020 C 
HETATM   24  C8  UNL     1       3.870  -1.264  -0.433  1.00  0.00     0.124 C 
ENDBRANCH   5  19
TORSDOF 3
