REMARK  5 active torsions:
REMARK  status: ('A' for Active; 'I' for Inactive)
REMARK    1  A    between atoms: C4_4  and  C5_5 
REMARK    2  A    between atoms: C5_5  and  C6_6 
REMARK    3  A    between atoms: N1_16  and  C15_17 
REMARK    4  A    between atoms: C15_17  and  C16_18 
REMARK    5  A    between atoms: C16_18  and  C18_20 
ROOT
HETATM    1  C6  UNL     1       1.326   0.233  -0.129  1.00  0.00     0.020 C 
HETATM    2  C7  UNL     1       0.921  -1.141  -0.495  1.00  0.00     0.040 C 
HETATM    3  C8  UNL     1      -0.577  -1.052  -0.813  1.00  0.00     0.156 C 
HETATM    4  O1  UNL     1      -1.053  -2.193  -1.379  1.00  0.00    -0.373 OA
HETATM    5  C9  UNL     1      -1.747  -3.078  -0.638  1.00  0.00     0.054 C 
HETATM    6  C10 UNL     1      -0.855  -4.110   0.039  1.00  0.00     0.045 C 
HETATM    7  C11 UNL     1      -2.616  -3.898  -1.611  1.00  0.00     0.045 C 
HETATM    8  C12 UNL     1      -2.718  -2.484   0.353  1.00  0.00     0.039 C 
HETATM    9  C13 UNL     1      -2.669  -0.969   0.352  1.00  0.00     0.041 C 
HETATM   10  C14 UNL     1      -1.215  -0.604   0.433  1.00  0.00     0.252 C 
HETATM   11  N1  UNL     1      -0.965   0.804   0.735  1.00  0.00     0.096 N 
HETATM   12  C19 UNL     1       0.266   1.241   0.127  1.00  0.00     0.278 C 
ENDROOT
BRANCH  11  13
HETATM   13  C15 UNL     1      -2.034   1.629   0.276  1.00  0.00     0.286 C 
BRANCH  13  14
HETATM   14  C16 UNL     1      -2.115   2.967   0.916  1.00  0.00     0.099 C 
HETATM   15  C17 UNL     1      -0.977   3.913   0.779  1.00  0.00     0.021 C 
BRANCH  14  16
HETATM   16  C18 UNL     1      -3.331   3.709   0.420  1.00  0.00     0.236 C 
HETATM   17  N2  UNL     1      -3.488   4.047  -0.920  1.00  0.00    -0.062 NA
HETATM   18  O2  UNL     1      -4.220   4.028   1.257  1.00  0.00    -0.276 OA
ENDBRANCH  14  16
ENDBRANCH  13  14
ENDBRANCH  11  13
BRANCH   1  19
HETATM   19  C5  UNL     1       2.437   0.235   0.924  1.00  0.00     0.033 C 
BRANCH  19  20
HETATM   20  C4  UNL     1       3.636  -0.468   0.390  1.00  0.00    -0.024 C 
HETATM   21  C2  UNL     1       4.804   0.072   0.218  1.00  0.00    -0.091 C 
HETATM   22  C1  UNL     1       5.047   1.493   0.556  1.00  0.00     0.042 C 
HETATM   23  C3  UNL     1       5.927  -0.729  -0.331  1.00  0.00     0.042 C 
ENDBRANCH  19  20
ENDBRANCH   1  19
TORSDOF 5
