REMARK  5 active torsions:
REMARK  status: ('A' for Active; 'I' for Inactive)
REMARK    1  A    between atoms: C2_2  and  C3_3 
REMARK    2  A    between atoms: C3_3  and  C5_5 
REMARK    3  A    between atoms: C5_5  and  N1_6 
REMARK    4  A    between atoms: C5_5  and  C14_16 
REMARK    5  A    between atoms: N1_6  and  C6_8 
REMARK       I    between atoms: C14_16  and  N2_18 
ROOT
HETATM    1  C14 UNL     1       2.131  -0.001   0.810  1.00  0.00     0.271 C 
HETATM    2  O1  UNL     1       2.555  -0.013   2.028  1.00  0.00    -0.266 OA
HETATM    3  N2  UNL     1       2.859  -0.810  -0.071  1.00  0.00    -0.330 N 
HETATM    4  C15 UNL     1       2.563  -1.298  -1.406  1.00  0.00     0.128 C 
HETATM    5  C16 UNL     1       2.686  -2.808  -1.113  1.00  0.00     0.023 C 
HETATM    6  C17 UNL     1       3.863  -2.839  -0.126  1.00  0.00     0.042 C 
HETATM    7  C18 UNL     1       4.199  -1.351   0.084  1.00  0.00     0.195 C 
HETATM    8  C19 UNL     1       4.870  -1.066   1.319  1.00  0.00     0.084 C 
HETATM    9  N3  UNL     1       5.418  -0.823   2.283  1.00  0.00    -0.195 NA
ENDROOT
BRANCH   1  10
HETATM   10  C5  UNL     1       0.969   0.823   0.449  1.00  0.00     0.099 C 
BRANCH  10  11
HETATM   11  C3  UNL     1       1.289   2.157  -0.170  1.00  0.00    -0.052 C 
HETATM   12  C4  UNL     1       2.279   2.914   0.663  1.00  0.00     0.046 C 
BRANCH  11  13
HETATM   13  C2  UNL     1       1.474   2.204  -1.629  1.00  0.00     0.031 C 
HETATM   14  C1  UNL     1       1.379   3.632  -2.186  1.00  0.00     0.010 C 
ENDBRANCH  11  13
ENDBRANCH  10  11
BRANCH  10  15
HETATM   15  N1  UNL     1      -0.195   0.274  -0.017  1.00  0.00    -0.381 N 
ATOM     16  H1  UNL     1      -0.468   0.586  -0.949  1.00  0.00     0.160 HD
BRANCH  15  17
HETATM   17  C6  UNL     1      -1.059  -0.629   0.561  1.00  0.00     0.082 C 
HETATM   18  C7  UNL     1      -1.754  -0.206   1.827  1.00  0.00     0.025 C 
HETATM   19  C8  UNL     1      -2.936  -1.142   2.033  1.00  0.00     0.006 C 
HETATM   20  C9  UNL     1      -3.986  -0.943   0.971  1.00  0.00    -0.015 C 
HETATM   21  C10 UNL     1      -5.138  -0.165   1.543  1.00  0.00     0.010 C 
HETATM   22  C11 UNL     1      -3.368  -0.272  -0.245  1.00  0.00    -0.013 C 
HETATM   23  C12 UNL     1      -4.331  -0.354  -1.415  1.00  0.00     0.010 C 
HETATM   24  C13 UNL     1      -2.083  -1.021  -0.511  1.00  0.00     0.029 C 
ENDBRANCH  15  17
ENDBRANCH  10  15
ENDBRANCH   1  10
TORSDOF 5
