REMARK  4 active torsions:
REMARK  status: ('A' for Active; 'I' for Inactive)
REMARK    1  A    between atoms: C2_2  and  C3_3 
REMARK    2  A    between atoms: C4_6  and  N2_7 
REMARK       I    between atoms: N2_7  and  C5_9 
REMARK    3  A    between atoms: C5_9  and  C6_11 
REMARK    4  A    between atoms: C11_18  and  C12_19 
ROOT
HETATM    1  C3  UNL     1       2.424   0.446  -0.253  1.00  0.00     0.079 A 
HETATM    2  N1  UNL     1       1.134   0.404   0.179  1.00  0.00    -0.189 N 
ATOM      3  H1  UNL     1       0.492   1.196   0.173  1.00  0.00     0.184 HD
HETATM    4  C4  UNL     1       0.827  -0.830   0.614  1.00  0.00     0.686 A 
HETATM    5  N3  UNL     1       1.920  -1.556   0.453  1.00  0.00    -0.186 N 
ATOM      6  H3  UNL     1       1.993  -2.544   0.697  1.00  0.00     0.184 HD
HETATM    7  C11 UNL     1       2.942  -0.818  -0.081  1.00  0.00     0.121 A 
ENDROOT
BRANCH   4   8
HETATM    8  N2  UNL     1      -0.332  -1.160   1.083  1.00  0.00    -0.159 N 
HETATM    9  C5  UNL     1      -1.392  -0.253   1.185  1.00  0.00     0.240 C 
HETATM   10  O1  UNL     1      -1.769   0.120   2.319  1.00  0.00    -0.272 OA
ATOM     11  H2  UNL     1      -0.479  -2.121   1.391  1.00  0.00     0.187 HD
BRANCH   9  12
HETATM   12  C6  UNL     1      -2.063   0.265  -0.009  1.00  0.00     0.087 A 
HETATM   13  C7  UNL     1      -2.664   1.619  -0.046  1.00  0.00     0.024 A 
HETATM   14  C8  UNL     1      -3.552   0.417   0.092  1.00  0.00    -0.035 A 
HETATM   15  C9  UNL     1      -4.310  -0.070  -1.129  1.00  0.00     0.015 C 
HETATM   16  C10 UNL     1      -4.263   0.182   1.402  1.00  0.00     0.015 C 
ENDBRANCH   9  12
ENDBRANCH   4   8
BRANCH   1  17
HETATM   17  C2  UNL     1       3.109   1.607  -0.792  1.00  0.00     0.022 C 
HETATM   18  C1  UNL     1       2.456   2.747  -0.885  1.00  0.00     0.013 C 
ENDBRANCH   1  17
BRANCH   7  19
HETATM   19  C12 UNL     1       4.272  -1.329  -0.376  1.00  0.00     0.174 C 
HETATM   20  C13 UNL     1       4.670  -2.731  -0.124  1.00  0.00     0.098 C 
HETATM   21  O2  UNL     1       5.137  -0.577  -0.863  1.00  0.00    -0.291 OA
ENDBRANCH   7  19
TORSDOF 4
