REMARK  8 active torsions:
REMARK  status: ('A' for Active; 'I' for Inactive)
REMARK    1  A    between atoms: C2_2  and  C3_3 
REMARK    2  A    between atoms: C3_3  and  C4_4 
REMARK    3  A    between atoms: C5_5  and  C6_6 
REMARK    4  A    between atoms: C6_6  and  C7_7 
REMARK    5  A    between atoms: C8_8  and  C9_9 
REMARK    6  A    between atoms: C13_15  and  N2_16 
REMARK    7  A    between atoms: N2_16  and  C14_18 
REMARK    8  A    between atoms: C14_18  and  C15_19 
ROOT
HETATM    1  C9  UNL     1      -1.477  -0.538  -0.100  1.00  0.00     0.163 A 
HETATM    2  N1  UNL     1      -1.258  -1.550  -0.937  1.00  0.00    -0.339 N 
ATOM      3  H1  UNL     1      -0.301  -1.881  -1.058  1.00  0.00     0.168 HD
HETATM    4  C10 UNL     1      -2.252  -2.167  -1.641  1.00  0.00     0.011 A 
HETATM    5  C11 UNL     1      -1.982  -3.288  -2.563  1.00  0.00     0.068 C 
HETATM    6  C12 UNL     1      -3.524  -1.700  -1.456  1.00  0.00     0.072 A 
HETATM    7  C13 UNL     1      -3.780  -0.655  -0.596  1.00  0.00     0.104 A 
HETATM    8  N4  UNL     1      -2.750  -0.093   0.066  1.00  0.00    -0.322 N 
ATOM      9  H4  UNL     1      -2.929   0.682   0.705  1.00  0.00     0.169 HD
ENDROOT
BRANCH   1  10
HETATM   10  C8  UNL     1      -0.424   0.102   0.633  1.00  0.00    -0.029 C 
HETATM   11  C7  UNL     1       0.488   0.644   1.243  1.00  0.00    -0.086 C 
BRANCH  11  12
HETATM   12  C6  UNL     1       1.593   1.294   1.952  1.00  0.00     0.188 C 
BRANCH  12  13
HETATM   13  C5  UNL     1       2.882   0.660   1.593  1.00  0.00    -0.095 C 
HETATM   14  C4  UNL     1       3.924   0.130   1.296  1.00  0.00    -0.106 C 
BRANCH  14  15
HETATM   15  C3  UNL     1       5.180  -0.526   0.934  1.00  0.00     0.093 C 
BRANCH  15  16
HETATM   16  C2  UNL     1       6.331   0.470   1.011  1.00  0.00     0.007 C 
HETATM   17  C1  UNL     1       7.609  -0.220   0.637  1.00  0.00     0.006 C 
ENDBRANCH  15  16
ENDBRANCH  14  15
ENDBRANCH  12  13
ENDBRANCH  11  12
ENDBRANCH   1  10
BRANCH   7  18
HETATM   18  N2  UNL     1      -4.961  -0.199  -0.405  1.00  0.00    -0.374 N 
ATOM     19  H2  UNL     1      -5.714  -0.650  -0.924  1.00  0.00     0.161 HD
BRANCH  18  20
HETATM   20  C14 UNL     1      -5.334   0.874   0.458  1.00  0.00     0.155 C 
BRANCH  20  21
HETATM   21  C15 UNL     1      -5.011   2.240  -0.113  1.00  0.00     0.229 A 
HETATM   22  C16 UNL     1      -5.377   3.396   0.740  1.00  0.00     0.267 A 
HETATM   23  N3  UNL     1      -6.015   3.103  -0.513  1.00  0.00    -0.066 N 
ATOM     24  H32 UNL     1      -6.167   3.649  -1.361  1.00  0.00     0.277 HD
ATOM     25  H31 UNL     1      -6.989   2.962  -0.783  1.00  0.00     0.277 HD
ENDBRANCH  20  21
ENDBRANCH  18  20
ENDBRANCH   7  18
TORSDOF 8
