REMARK  4 active torsions:
REMARK  status: ('A' for Active; 'I' for Inactive)
REMARK       I    between atoms: C2_2  and  N1_4 
REMARK    1  A    between atoms: N1_4  and  C3_6 
REMARK    2  A    between atoms: C5_10  and  C6_11 
REMARK    3  A    between atoms: C7_12  and  C8_13 
REMARK    4  A    between atoms: C8_13  and  C9_14 
ROOT
HETATM    1  C3  UNL     1       1.800   0.979  -0.240  1.00  0.00     0.114 A 
HETATM    2  N2  UNL     1       0.707   1.745   0.087  1.00  0.00    -0.351 N 
ATOM      3  H2  UNL     1       0.829   2.750   0.209  1.00  0.00     0.166 HD
HETATM    4  C4  UNL     1      -0.517   1.215   0.251  1.00  0.00     0.101 A 
HETATM    5  C5  UNL     1      -0.773  -0.126   0.106  1.00  0.00    -0.015 A 
HETATM    6  C10 UNL     1       0.300  -0.928  -0.224  1.00  0.00    -0.041 A 
HETATM    7  C11 UNL     1       0.099  -2.386  -0.436  1.00  0.00     0.050 C 
HETATM    8  C12 UNL     1       1.568  -0.349  -0.388  1.00  0.00    -0.011 A 
HETATM    9  C13 UNL     1       2.672  -1.261  -0.702  1.00  0.00     0.052 C 
ENDROOT
BRANCH   5  10
HETATM   10  C6  UNL     1      -2.126  -0.611   0.316  1.00  0.00     0.010 C 
HETATM   11  C7  UNL     1      -3.160   0.146   0.612  1.00  0.00    -0.015 C 
BRANCH  11  12
HETATM   12  C8  UNL     1      -4.495  -0.512   0.798  1.00  0.00     0.140 C 
BRANCH  12  13
HETATM   13  C9  UNL     1      -5.441   0.037  -0.192  1.00  0.00     0.176 C 
HETATM   14  O2  UNL     1      -5.404  -0.371  -1.371  1.00  0.00    -0.648 OA
HETATM   15  O3  UNL     1      -6.355   0.994   0.192  1.00  0.00    -0.648 OA
ENDBRANCH  12  13
ENDBRANCH  11  12
ENDBRANCH   5  10
BRANCH   1  16
HETATM   16  N1  UNL     1       2.866   1.568  -0.376  1.00  0.00    -0.313 N 
HETATM   17  C2  UNL     1       4.174   1.381  -0.667  1.00  0.00     0.219 C 
HETATM   18  C1  UNL     1       5.238   1.576   0.362  1.00  0.00     0.117 C 
HETATM   19  O1  UNL     1       4.558   1.036  -1.813  1.00  0.00    -0.274 OA
ATOM     20  H1  UNL     1       2.710   2.562  -0.209  1.00  0.00     0.170 HD
ENDBRANCH   1  16
TORSDOF 4
