REMARK  6 active torsions:
REMARK  status: ('A' for Active; 'I' for Inactive)
REMARK    1  A    between atoms: C2_2  and  N1_3 
REMARK       I    between atoms: N1_3  and  C3_5 
REMARK       I    between atoms: C3_5  and  N2_6 
REMARK    2  A    between atoms: N2_6  and  O1_8 
REMARK    3  A    between atoms: N3_10  and  C4_12 
REMARK    4  A    between atoms: C4_12  and  N4_14 
REMARK       I    between atoms: N4_14  and  C5_16 
REMARK    5  A    between atoms: C5_16  and  C6_18 
REMARK    6  A    between atoms: C6_18  and  C9_21 
ROOT
HETATM    1  N1  UNL     1       3.783   0.353  -0.418  1.00  0.00    -0.225 N 
ATOM      2  H1  UNL     1       4.036   0.508  -1.394  1.00  0.00     0.177 HD
HETATM    3  C3  UNL     1       3.024   1.328   0.242  1.00  0.00     0.700 C 
HETATM    4  N2  UNL     1       3.696   2.285   1.085  1.00  0.00    -0.099 N 
ATOM      5  H2  UNL     1       3.849   2.073   2.071  1.00  0.00     0.213 HD
HETATM    6  N3  UNL     1       1.746   1.462   0.172  1.00  0.00    -0.165 N 
ATOM      7  H3  UNL     1       1.326   2.221   0.709  1.00  0.00     0.186 HD
ENDROOT
BRANCH   6   8
HETATM    8  C4  UNL     1       0.878   0.651  -0.582  1.00  0.00     0.193 C 
HETATM    9  S1  UNL     1       1.494  -0.363  -1.688  1.00  0.00    -0.040 SA
BRANCH   8  10
HETATM   10  N4  UNL     1      -0.518   0.703  -0.395  1.00  0.00    -0.303 N 
HETATM   11  C5  UNL     1      -1.431  -0.094  -1.131  1.00  0.00     0.231 C 
HETATM   12  O2  UNL     1      -1.011  -0.898  -2.001  1.00  0.00    -0.272 OA
ATOM     13  H4  UNL     1      -0.890   1.346   0.304  1.00  0.00     0.171 HD
BRANCH  11  14
HETATM   14  C6  UNL     1      -2.887  -0.016  -0.910  1.00  0.00     0.034 C 
HETATM   15  C7  UNL     1      -3.295   1.431  -1.225  1.00  0.00     0.025 C 
HETATM   16  C8  UNL     1      -3.601  -0.912  -1.859  1.00  0.00     0.025 C 
BRANCH  14  17
HETATM   17  C9  UNL     1      -3.270  -0.241   0.530  1.00  0.00     0.014 C 
HETATM   18  C10 UNL     1      -2.867  -1.567   1.078  1.00  0.00     0.006 C 
ENDBRANCH  14  17
ENDBRANCH  11  14
ENDBRANCH   8  10
ENDBRANCH   6   8
BRANCH   1  19
HETATM   19  C2  UNL     1       4.223  -0.864   0.228  1.00  0.00     0.134 C 
HETATM   20  C1  UNL     1       5.255  -0.536   1.280  1.00  0.00     0.027 C 
ENDBRANCH   1  19
BRANCH   4  21
HETATM   21  O1  UNL     1       4.087   3.360   0.621  1.00  0.00    -0.276 OA
ATOM     22  H1  UNL     1       4.530   3.991   1.177  1.00  0.00     0.245 HD
ENDBRANCH   4  21
TORSDOF 6
