REMARK  3 active torsions:
REMARK  status: ('A' for Active; 'I' for Inactive)
REMARK       I    between atoms: C2_4  and  N2_5 
REMARK       I    between atoms: C2_4  and  N3_12 
REMARK    1  A    between atoms: N2_5  and  C3_7 
REMARK    2  A    between atoms: C10_15  and  C11_16 
REMARK    3  A    between atoms: C11_16  and  N4_18 
ROOT
HETATM    1  C1  UNL     1      -1.487   0.063   2.794  1.00  0.00     0.165 C 
HETATM    2  N1  UNL     1      -2.274   0.393   1.635  1.00  0.00    -0.231 N 
ATOM      3  H1  UNL     1      -3.221   0.750   1.760  1.00  0.00     0.177 HD
HETATM    4  C2  UNL     1      -1.805   0.247   0.435  1.00  0.00     0.671 C 
HETATM    5  N2  UNL     1      -2.650   0.597  -0.642  1.00  0.00    -0.222 N 
ATOM      6  H2  UNL     1      -2.273   0.657  -1.588  1.00  0.00     0.178 HD
HETATM    7  N3  UNL     1      -0.493  -0.244   0.209  1.00  0.00    -0.217 N 
HETATM    8  C8  UNL     1      -0.122  -1.639   0.284  1.00  0.00     0.142 C 
HETATM    9  C9  UNL     1       1.418  -1.629   0.116  1.00  0.00     0.034 C 
HETATM   10  C10 UNL     1       1.526  -0.441  -0.823  1.00  0.00     0.067 C 
HETATM   11  C16 UNL     1       0.660   0.579  -0.129  1.00  0.00     0.152 C 
ENDROOT
BRANCH   5  12
HETATM   12  C3  UNL     1      -4.042   0.868  -0.404  1.00  0.00     0.099 C 
HETATM   13  C4  UNL     1      -4.682  -0.347   0.186  1.00  0.00     0.026 C 
HETATM   14  C5  UNL     1      -5.720  -0.790  -0.800  1.00  0.00     0.002 C 
HETATM   15  C6  UNL     1      -6.081   0.454  -1.562  1.00  0.00     0.002 C 
HETATM   16  C7  UNL     1      -4.771   1.171  -1.694  1.00  0.00     0.026 C 
ENDBRANCH   5  12
BRANCH  10  17
HETATM   17  C11 UNL     1       2.858  -0.032  -1.192  1.00  0.00     0.081 C 
HETATM   18  S1  UNL     1       3.094   0.241  -2.827  1.00  0.00    -0.065 SA
BRANCH  17  19
HETATM   19  N4  UNL     1       3.983   0.175  -0.395  1.00  0.00    -0.371 N 
HETATM   20  C12 UNL     1       4.019  -0.003   1.029  1.00  0.00     0.149 C 
HETATM   21  C13 UNL     1       5.260   0.714   1.556  1.00  0.00     0.187 C 
HETATM   22  O1  UNL     1       6.437   0.157   1.080  1.00  0.00    -0.388 OA
HETATM   23  C14 UNL     1       6.394  -0.121  -0.272  1.00  0.00     0.187 C 
HETATM   24  C15 UNL     1       5.272   0.607  -0.977  1.00  0.00     0.149 C 
ENDBRANCH  17  19
ENDBRANCH  10  17
TORSDOF 3
