REMARK  2 active torsions:
REMARK  status: ('A' for Active; 'I' for Inactive)
REMARK    1  A    between atoms: C5_5  and  C6_6 
REMARK       I    between atoms: C6_6  and  N1_8 
REMARK    2  A    between atoms: N1_8  and  C7_10 
REMARK       I    between atoms: N2_13  and  C10_14 
REMARK       I    between atoms: C10_14  and  N3_16 
ROOT
HETATM    1  C1  UNL     1       7.750   1.103  -1.589  1.00  0.00     0.012 C 
HETATM    2  C2  UNL     1       6.740   1.483  -1.042  1.00  0.00    -0.113 C 
HETATM    3  C3  UNL     1       5.543   1.938  -0.365  1.00  0.00     0.066 C 
HETATM    4  C4  UNL     1       5.319   1.165   0.935  1.00  0.00     0.031 C 
HETATM    5  C5  UNL     1       3.844   1.155   0.601  1.00  0.00     0.080 C 
HETATM    6  C17 UNL     1       4.251   1.308  -0.869  1.00  0.00     0.031 C 
ENDROOT
BRANCH   5   7
HETATM    7  C6  UNL     1       3.147  -0.113   0.905  1.00  0.00     0.222 C 
HETATM    8  O1  UNL     1       3.849  -1.042   1.405  1.00  0.00    -0.273 OA
HETATM    9  N1  UNL     1       1.769  -0.258   0.642  1.00  0.00    -0.356 N 
ATOM     10  H1  UNL     1       1.265   0.531   0.238  1.00  0.00     0.162 HD
BRANCH   9  11
HETATM   11  C7  UNL     1       1.037  -1.474   0.919  1.00  0.00     0.087 C 
HETATM   12  C8  UNL     1       0.456  -2.022  -0.371  1.00  0.00     0.045 C 
HETATM   13  C9  UNL     1      -0.940  -2.526  -0.178  1.00  0.00     0.129 C 
HETATM   14  N2  UNL     1      -1.794  -1.386   0.174  1.00  0.00    -0.334 N 
HETATM   15  C10 UNL     1      -3.021  -1.264  -0.485  1.00  0.00     0.320 C 
HETATM   16  C15 UNL     1      -1.252  -0.503   1.186  1.00  0.00     0.129 C 
HETATM   17  O2  UNL     1      -3.273  -2.195  -1.350  1.00  0.00    -0.247 OA
HETATM   18  N3  UNL     1      -4.006  -0.302  -0.356  1.00  0.00    -0.330 N 
HETATM   19  C11 UNL     1      -5.227  -0.376  -1.161  1.00  0.00     0.153 C 
HETATM   20  C14 UNL     1      -3.925   0.812   0.543  1.00  0.00     0.153 C 
HETATM   21  C12 UNL     1      -5.418   0.895  -1.962  1.00  0.00     0.187 C 
HETATM   22  O3  UNL     1      -5.085   2.022  -1.211  1.00  0.00    -0.388 OA
HETATM   23  C13 UNL     1      -5.092   1.742   0.155  1.00  0.00     0.187 C 
HETATM   24  C16 UNL     1      -0.103  -1.259   1.868  1.00  0.00     0.045 C 
ENDBRANCH   9  11
ENDBRANCH   5   7
TORSDOF 2
