REMARK  4 active torsions:
REMARK  status: ('A' for Active; 'I' for Inactive)
REMARK       I    between atoms: N1_2  and  C2_4 
REMARK    1  A    between atoms: C2_4  and  C3_6 
REMARK    2  A    between atoms: N2_13  and  C10_15 
REMARK    3  A    between atoms: C10_15  and  C11_16 
REMARK    4  A    between atoms: C12_17  and  C13_18 
ROOT
HETATM    1  C3  UNL     1       3.999  -0.653  -0.083  1.00  0.00     0.214 C 
HETATM    2  C4  UNL     1       3.366  -0.054  -1.321  1.00  0.00     0.044 C 
HETATM    3  C5  UNL     1       1.934   0.335  -1.062  1.00  0.00     0.042 C 
HETATM    4  C6  UNL     1       1.381  -0.225   0.212  1.00  0.00     0.255 C 
HETATM    5  C7  UNL     1       1.952  -1.590   0.538  1.00  0.00     0.182 C 
HETATM    6  C8  UNL     1       1.173  -2.430  -0.486  1.00  0.00     0.242 C 
HETATM    7  O2  UNL     1       0.188  -1.599  -0.986  1.00  0.00    -0.199 OA
HETATM    8  N2  UNL     1      -0.016  -0.624  -0.053  1.00  0.00     0.060 N 
HETATM    9  C9  UNL     1      -0.571  -1.216   1.125  1.00  0.00     0.313 C 
HETATM   10  O3  UNL     1       3.293  -1.708   0.421  1.00  0.00    -0.367 OA
ENDROOT
BRANCH   8  11
HETATM   11  C10 UNL     1      -0.713   0.507  -0.545  1.00  0.00     0.366 C 
BRANCH  11  12
HETATM   12  C11 UNL     1      -2.178   0.428  -0.328  1.00  0.00    -0.075 C 
HETATM   13  C12 UNL     1      -3.373   0.366  -0.172  1.00  0.00    -0.096 C 
BRANCH  13  14
HETATM   14  C13 UNL     1      -4.825   0.264   0.018  1.00  0.00     0.013 C 
HETATM   15  C14 UNL     1      -5.577   1.027  -1.059  1.00  0.00     0.028 C 
HETATM   16  C15 UNL     1      -5.157   0.886   1.348  1.00  0.00     0.028 C 
HETATM   17  C16 UNL     1      -5.270  -1.182  -0.012  1.00  0.00     0.028 C 
ENDBRANCH  13  14
ENDBRANCH  11  12
ENDBRANCH   8  11
BRANCH   1  18
HETATM   18  C2  UNL     1       4.372   0.355   0.930  1.00  0.00     0.246 C 
HETATM   19  N1  UNL     1       5.109   1.502   0.530  1.00  0.00    -0.363 N 
HETATM   20  C1  UNL     1       5.492   2.514   1.502  1.00  0.00     0.149 C 
ATOM     21  H1  UNL     1       5.372   1.617  -0.449  1.00  0.00     0.162 HD
HETATM   22  O1  UNL     1       4.035   0.198   2.152  1.00  0.00    -0.271 OA
ENDBRANCH   1  18
TORSDOF 4
