REMARK  6 active torsions:
REMARK  status: ('A' for Active; 'I' for Inactive)
REMARK    1  A    between atoms: C3_3  and  C4_4 
REMARK    2  A    between atoms: C4_4  and  N1_5 
REMARK    3  A    between atoms: C5_6  and  C6_7 
REMARK    4  A    between atoms: C5_6  and  C11_12 
REMARK    5  A    between atoms: C7_8  and  C8_9 
REMARK    6  A    between atoms: C11_12  and  O1_13 
ROOT
HETATM    1  C1  UNL     1      -4.291   1.671   2.646  1.00  0.00     0.112 C 
HETATM    2  C2  UNL     1      -3.151   0.933   2.057  1.00  0.00    -0.110 C 
HETATM    3  C3  UNL     1      -2.209   0.343   1.587  1.00  0.00    -0.091 C 
ENDROOT
BRANCH   3   4
HETATM    4  C4  UNL     1      -1.056  -0.357   0.999  1.00  0.00     0.204 C 
BRANCH   4   5
HETATM    5  N1  UNL     1      -1.163  -0.474  -0.378  1.00  0.00    -0.162 NA
HETATM    6  C5  UNL     1      -0.068  -0.298  -1.231  1.00  0.00     0.127 C 
HETATM    7  C12 UNL     1       0.422  -1.675  -1.637  1.00  0.00     0.150 C 
HETATM    8  N2  UNL     1      -0.734  -2.405  -2.121  1.00  0.00    -0.199 NA
HETATM    9  C13 UNL     1      -0.490  -3.810  -1.850  1.00  0.00     0.130 C 
HETATM   10  S1  UNL     1      -1.944  -1.872  -0.974  1.00  0.00     0.285 S 
HETATM   11  O2  UNL     1      -2.056  -2.860   0.152  1.00  0.00    -0.194 OA
HETATM   12  O3  UNL     1      -3.246  -1.623  -1.614  1.00  0.00    -0.194 OA
BRANCH   6  13
HETATM   13  C6  UNL     1       1.044   0.382  -0.573  1.00  0.00    -0.075 C 
HETATM   14  C7  UNL     1       1.990   0.956  -0.041  1.00  0.00    -0.100 C 
BRANCH  14  15
HETATM   15  C8  UNL     1       3.118   1.643   0.577  1.00  0.00     0.057 C 
HETATM   16  C9  UNL     1       3.826   0.731   1.561  1.00  0.00     0.023 C 
HETATM   17  C10 UNL     1       2.557   2.844   1.315  1.00  0.00     0.023 C 
ENDBRANCH  14  15
ENDBRANCH   6  13
BRANCH   6  18
HETATM   18  C11 UNL     1      -0.343   0.455  -2.507  1.00  0.00     0.205 C 
BRANCH  18  19
HETATM   19  O1  UNL     1      -0.809   1.741  -2.289  1.00  0.00    -0.398 OA
ATOM     20  H1  UNL     1      -0.982   2.216  -3.093  1.00  0.00     0.209 HD
ENDBRANCH  18  19
ENDBRANCH   6  18
ENDBRANCH   4   5
ENDBRANCH   3   4
TORSDOF 6
