REMARK  5 active torsions:
REMARK  status: ('A' for Active; 'I' for Inactive)
REMARK    1  A    between atoms: N3_10  and  C5_11 
REMARK    2  A    between atoms: C6_14  and  N5_15 
REMARK    3  A    between atoms: N5_15  and  C7_17 
REMARK    4  A    between atoms: C10_20  and  N6_21 
REMARK    5  A    between atoms: C14_32  and  N9_33 
ROOT
HETATM    1  C5  UNL     1       0.064   1.457  -0.630  1.00  0.00     0.750 A 
HETATM    2  N4  UNL     1      -1.272   1.277  -0.603  1.00  0.00    -0.019 N 
ATOM      3  H4  UNL     1      -1.884   2.072  -0.789  1.00  0.00     0.203 HD
HETATM    4  C6  UNL     1      -1.828   0.059  -0.333  1.00  0.00     0.707 A 
HETATM    5  N7  UNL     1      -0.956  -0.934  -0.101  1.00  0.00    -0.019 N 
ATOM      6  H7  UNL     1      -1.324  -1.863   0.104  1.00  0.00     0.203 HD
HETATM    7  C13 UNL     1       0.382  -0.768  -0.125  1.00  0.00     0.748 A 
HETATM    8  N8  UNL     1       1.439  -1.581   0.071  1.00  0.00    -0.018 N 
ATOM      9  H8  UNL     1       1.363  -2.573   0.295  1.00  0.00     0.203 HD
HETATM   10  C14 UNL     1       2.604  -0.926  -0.064  1.00  0.00     0.710 A 
HETATM   11  N10 UNL     1       2.237   0.335  -0.353  1.00  0.00    -0.095 N 
ATOM     12  H10 UNL     1       2.890   1.101  -0.518  1.00  0.00     0.207 HD
HETATM   13  N11 UNL     1       0.921   0.453  -0.395  1.00  0.00     0.107 N 
ENDROOT
BRANCH   4  14
HETATM   14  N5  UNL     1      -3.112  -0.069  -0.317  1.00  0.00    -0.220 N 
ATOM     15  H5  UNL     1      -3.707   0.738  -0.505  1.00  0.00     0.178 HD
BRANCH  14  16
HETATM   16  C7  UNL     1      -3.700  -1.342  -0.036  1.00  0.00     0.099 C 
HETATM   17  C8  UNL     1      -5.125  -1.268  -0.614  1.00  0.00     0.027 C 
HETATM   18  C9  UNL     1      -6.053  -0.559   0.326  1.00  0.00     0.035 C 
HETATM   19  C10 UNL     1      -6.117  -1.235   1.678  1.00  0.00     0.183 C 
HETATM   20  C11 UNL     1      -5.087  -2.339   1.711  1.00  0.00     0.035 C 
HETATM   21  C12 UNL     1      -3.731  -1.692   1.420  1.00  0.00     0.027 C 
BRANCH  19  22
HETATM   22  N6  UNL     1      -7.453  -1.737   1.916  1.00  0.00    -0.075 N 
ATOM     23  H63 UNL     1      -8.159  -1.007   1.819  1.00  0.00     0.274 HD
ATOM     24  H62 UNL     1      -7.770  -2.351   1.166  1.00  0.00     0.274 HD
ATOM     25  H61 UNL     1      -7.496  -2.193   2.827  1.00  0.00     0.274 HD
ENDBRANCH  19  22
ENDBRANCH  14  16
ENDBRANCH   4  14
BRANCH   1  26
HETATM   26  N3  UNL     1       0.592   2.765  -0.917  1.00  0.00    -0.012 N 
HETATM   27  C1  UNL     1      -0.340   3.834  -1.115  1.00  0.00     0.688 C 
HETATM   28  N1  UNL     1      -1.527   3.604  -1.587  1.00  0.00    -0.234 N 
HETATM   29  N2  UNL     1       0.073   5.149  -0.780  1.00  0.00    -0.226 N 
ATOM     30  H12 UNL     1      -2.191   4.365  -1.728  1.00  0.00     0.174 HD
ATOM     31  H11 UNL     1      -1.824   2.658  -1.828  1.00  0.00     0.174 HD
HETATM   32  C2  UNL     1       1.461   5.487  -0.804  1.00  0.00     0.139 C 
ATOM     33  H2  UNL     1      -0.620   5.852  -0.522  1.00  0.00     0.177 HD
HETATM   34  C3  UNL     1       2.298   4.449  -1.513  1.00  0.00     0.042 C 
HETATM   35  C4  UNL     1       1.988   3.049  -1.026  1.00  0.00     0.168 C 
ENDBRANCH   1  26
BRANCH  10  36
HETATM   36  N9  UNL     1       3.932  -1.423   0.063  1.00  0.00    -0.216 N 
HETATM   37  C15 UNL     1       5.066  -0.562  -0.090  1.00  0.00     0.141 C 
HETATM   38  C16 UNL     1       6.233  -1.240   0.608  1.00  0.00     0.020 C 
HETATM   39  C17 UNL     1       6.557  -2.484  -0.160  1.00  0.00     0.003 C 
HETATM   40  C18 UNL     1       5.374  -3.378  -0.330  1.00  0.00     0.020 C 
HETATM   41  C19 UNL     1       4.150  -2.826   0.352  1.00  0.00     0.141 C 
ENDBRANCH  10  36
TORSDOF 5
