REMARK  6 active torsions:
REMARK  status: ('A' for Active; 'I' for Inactive)
REMARK    1  A    between atoms: O1_2  and  C2_3 
REMARK    2  A    between atoms: C4_5  and  O2_6 
REMARK    3  A    between atoms: C6_8  and  N1_9 
REMARK    4  A    between atoms: C15_21  and  N3_22 
REMARK    5  A    between atoms: C16_27  and  N5_28 
REMARK    6  A    between atoms: N5_28  and  N6_30 
ROOT
HETATM    1  C2  UNL     1      -0.147  -2.311  -0.365  1.00  0.00     0.085 A 
HETATM    2  C3  UNL     1      -1.487  -2.640  -0.400  1.00  0.00     0.076 A 
HETATM    3  C4  UNL     1      -2.467  -1.668  -0.236  1.00  0.00     0.098 A 
HETATM    4  C6  UNL     1      -2.113  -0.353  -0.035  1.00  0.00     0.071 A 
HETATM    5  C11 UNL     1      -0.759   0.026   0.006  1.00  0.00    -0.010 A 
HETATM    6  C12 UNL     1       0.149  -0.980  -0.160  1.00  0.00     0.050 A 
HETATM    7  C13 UNL     1       1.559  -0.635  -0.035  1.00  0.00     0.123 A 
HETATM    8  N2  UNL     1       2.679  -1.398  -0.217  1.00  0.00    -0.335 N 
ATOM      9  H2  UNL     1       2.682  -2.394  -0.439  1.00  0.00     0.168 HD
HETATM   10  C14 UNL     1       3.767  -0.642  -0.060  1.00  0.00     0.123 A 
HETATM   11  C15 UNL     1       5.137  -0.868  -0.125  1.00  0.00     0.145 A 
HETATM   12  N4  UNL     1       5.948   0.193   0.103  1.00  0.00    -0.173 N 
ATOM     13  H4  UNL     1       6.957   0.050   0.059  1.00  0.00     0.186 HD
HETATM   14  C16 UNL     1       5.489   1.426   0.384  1.00  0.00     0.699 A 
HETATM   15  N7  UNL     1       4.152   1.645   0.448  1.00  0.00    -0.172 N 
ATOM     16  H7  UNL     1       3.787   2.573   0.660  1.00  0.00     0.186 HD
HETATM   17  C17 UNL     1       3.323   0.620   0.228  1.00  0.00     0.155 A 
HETATM   18  N8  UNL     1       1.953   0.608   0.241  1.00  0.00    -0.316 N 
HETATM   19  C18 UNL     1       1.036   1.644   0.542  1.00  0.00     0.137 C 
HETATM   20  C19 UNL     1      -0.357   1.406   0.138  1.00  0.00     0.062 C 
ENDROOT
BRANCH   4  21
HETATM   21  N1  UNL     1      -3.072   0.666   0.132  1.00  0.00    -0.374 N 
HETATM   22  C7  UNL     1      -3.554   0.980   1.445  1.00  0.00     0.149 C 
HETATM   23  C8  UNL     1      -4.039   2.382   1.652  1.00  0.00     0.187 C 
HETATM   24  O3  UNL     1      -3.780   3.207   0.558  1.00  0.00    -0.388 OA
HETATM   25  C9  UNL     1      -4.427   2.594  -0.513  1.00  0.00     0.187 C 
HETATM   26  C10 UNL     1      -3.608   1.413  -0.972  1.00  0.00     0.149 C 
ENDBRANCH   4  21
BRANCH   3  27
HETATM   27  O2  UNL     1      -3.815  -1.987  -0.268  1.00  0.00    -0.354 OA
HETATM   28  C5  UNL     1      -4.252  -3.313  -0.469  1.00  0.00     0.210 C 
ENDBRANCH   3  27
BRANCH   1  29
HETATM   29  O1  UNL     1       0.823  -3.281  -0.529  1.00  0.00    -0.355 OA
HETATM   30  C1  UNL     1       0.550  -4.632  -0.737  1.00  0.00     0.210 C 
ENDBRANCH   1  29
BRANCH  11  31
HETATM   31  N3  UNL     1       5.593  -2.025  -0.389  1.00  0.00    -0.383 N 
ATOM     32  H32 UNL     1       4.982  -2.824  -0.561  1.00  0.00     0.157 HD
ATOM     33  H31 UNL     1       6.598  -2.191  -0.437  1.00  0.00     0.157 HD
ENDBRANCH  11  31
BRANCH  14  34
HETATM   34  N5  UNL     1       6.335   2.376   0.587  1.00  0.00    -0.138 N 
ATOM     35  H5  UNL     1       7.330   2.158   0.527  1.00  0.00     0.205 HD
BRANCH  34  36
HETATM   36  N6  UNL     1       5.965   3.681   0.883  1.00  0.00    -0.331 N 
ATOM     37  H62 UNL     1       4.966   3.881   0.939  1.00  0.00     0.177 HD
ATOM     38  H61 UNL     1       6.635   4.433   1.044  1.00  0.00     0.177 HD
ENDBRANCH  34  36
ENDBRANCH  14  34
TORSDOF 6
