REMARK  3 active torsions:
REMARK  status: ('A' for Active; 'I' for Inactive)
REMARK    1  A    between atoms: C1_2  and  C2_3 
REMARK       I    between atoms: C1_2  and  N5_18 
REMARK    2  A    between atoms: C2_3  and  S1_4 
REMARK    3  A    between atoms: S1_4  and  C3_5 
ROOT
HETATM    1  O1  UNL     1       2.187  -0.221   1.578  1.00  0.00    -0.273 OA
HETATM    2  C1  UNL     1       1.562  -0.813   0.666  1.00  0.00     0.229 C 
HETATM    3  N5  UNL     1       0.224  -0.402   0.418  1.00  0.00    -0.351 N 
HETATM    4  C8  UNL     1      -0.596  -1.029  -0.623  1.00  0.00     0.127 C 
HETATM    5  C9  UNL     1      -1.322  -2.202  -0.001  1.00  0.00     0.047 C 
HETATM    6  C10 UNL     1      -2.727  -2.363  -0.514  1.00  0.00     0.234 C 
HETATM    7  N6  UNL     1      -3.590  -1.274  -0.114  1.00  0.00    -0.073 N 
ATOM      8  H61 UNL     1      -3.088  -0.386  -0.128  1.00  0.00     0.277 HD
ATOM      9  H62 UNL     1      -3.806  -1.326   0.881  1.00  0.00     0.277 HD
HETATM   10  C11 UNL     1      -4.794  -1.199  -0.900  1.00  0.00     0.259 C 
HETATM   11  C12 UNL     1      -4.937   0.218  -1.426  1.00  0.00     0.259 C 
HETATM   12  N7  UNL     1      -5.566   1.053  -0.394  1.00  0.00    -0.072 N 
ATOM     13  H71 UNL     1      -5.659   0.555   0.491  1.00  0.00     0.277 HD
ATOM     14  H72 UNL     1      -6.556   1.210  -0.585  1.00  0.00     0.277 HD
HETATM   15  C13 UNL     1      -4.841   2.306  -0.236  1.00  0.00     0.249 C 
HETATM   16  C14 UNL     1      -4.415   2.488   1.195  1.00  0.00     0.150 C 
HETATM   17  N8  UNL     1      -3.049   2.113   1.409  1.00  0.00    -0.177 NA
HETATM   18  S2  UNL     1      -1.972   2.698   0.145  1.00  0.00    -0.064 SA
HETATM   19  C15 UNL     1      -0.335   1.985   0.442  1.00  0.00     0.112 C 
HETATM   20  C16 UNL     1      -0.413   0.660   1.176  1.00  0.00     0.137 C 
ENDROOT
BRANCH   2  21
HETATM   21  C2  UNL     1       2.169  -1.890  -0.127  1.00  0.00     0.183 C 
BRANCH  21  22
HETATM   22  S1  UNL     1       3.856  -2.266   0.342  1.00  0.00    -0.102 SA
BRANCH  22  23
HETATM   23  C3  UNL     1       4.996  -0.948   0.009  1.00  0.00     0.086 A 
HETATM   24  C4  UNL     1       6.319  -1.168   0.340  1.00  0.00     0.055 A 
HETATM   25  C5  UNL     1       7.294  -0.230   0.133  1.00  0.00     0.030 A 
HETATM   26  C6  UNL     1       8.665  -0.160   0.354  1.00  0.00     0.122 A 
HETATM   27  C7  UNL     1       6.898   0.967  -0.429  1.00  0.00     0.146 A 
HETATM   28  N1  UNL     1       9.054   1.051  -0.071  1.00  0.00    -0.309 N 
HETATM   29  N2  UNL     1       8.022   1.709  -0.528  1.00  0.00    -0.284 N 
ATOM     30  H1  UNL     1      10.010   1.405  -0.042  1.00  0.00     0.186 HD
ATOM     31  H2  UNL     1       8.060   2.655  -0.908  1.00  0.00     0.188 HD
HETATM   32  N3  UNL     1       5.600   1.127  -0.731  1.00  0.00    -0.283 N 
HETATM   33  N4  UNL     1       4.660   0.225  -0.533  1.00  0.00    -0.293 N 
ATOM     34  H3  UNL     1       5.320   2.016  -1.146  1.00  0.00     0.188 HD
ATOM     35  H4  UNL     1       3.692   0.420  -0.789  1.00  0.00     0.187 HD
ENDBRANCH  22  23
ENDBRANCH  21  22
ENDBRANCH   2  21
TORSDOF 3
