REMARK  5 active torsions:
REMARK  status: ('A' for Active; 'I' for Inactive)
REMARK    1  A    between atoms: N2_6  and  C3_7 
REMARK    2  A    between atoms: C6_10  and  N3_11 
REMARK    3  A    between atoms: C9_19  and  N5_20 
REMARK    4  A    between atoms: C14_28  and  N7_29 
REMARK    5  A    between atoms: C17_32  and  N8_33 
ROOT
HETATM    1  N1  UNL     1      -0.038  -4.566   0.070  1.00  0.00    -0.388 N 
ATOM      2  H11 UNL     1       0.731  -4.825  -0.549  1.00  0.00     0.157 HD
ATOM      3  H12 UNL     1      -0.763  -5.269   0.214  1.00  0.00     0.157 HD
HETATM    4  C1  UNL     1      -0.101  -3.430   0.633  1.00  0.00     0.093 C 
HETATM    5  C2  UNL     1      -1.214  -3.055   1.529  1.00  0.00     0.201 C 
HETATM    6  N2  UNL     1      -1.730  -1.793   1.010  1.00  0.00    -0.353 N 
HETATM    7  C8  UNL     1      -0.790  -0.733   0.832  1.00  0.00     0.150 A 
HETATM    8  N4  UNL     1      -1.157   0.555   0.954  1.00  0.00    -0.174 N 
ATOM      9  H4  UNL     1      -2.127   0.788   1.167  1.00  0.00     0.186 HD
HETATM   10  C9  UNL     1      -0.260   1.528   0.798  1.00  0.00     0.683 A 
HETATM   11  N6  UNL     1       1.003   1.198   0.518  1.00  0.00    -0.174 N 
ATOM     12  H6  UNL     1       1.674   1.957   0.401  1.00  0.00     0.186 HD
HETATM   13  C14 UNL     1       1.459  -0.064   0.378  1.00  0.00     0.150 A 
HETATM   14  C20 UNL     1       0.536  -1.072   0.540  1.00  0.00     0.123 A 
HETATM   15  N9  UNL     1       0.908  -2.451   0.433  1.00  0.00    -0.339 N 
ATOM     16  H9  UNL     1       1.868  -2.722   0.220  1.00  0.00     0.167 HD
ENDROOT
BRANCH  13  17
HETATM   17  N7  UNL     1       2.815  -0.335   0.057  1.00  0.00    -0.365 N 
HETATM   18  C15 UNL     1       3.123  -0.864  -1.249  1.00  0.00     0.126 C 
HETATM   19  C16 UNL     1       4.453  -1.587  -1.229  1.00  0.00     0.052 C 
HETATM   20  C17 UNL     1       5.497  -0.497  -0.949  1.00  0.00     0.186 C 
HETATM   21  C18 UNL     1       5.205   0.245   0.314  1.00  0.00     0.052 C 
HETATM   22  C19 UNL     1       3.910  -0.112   0.972  1.00  0.00     0.126 C 
BRANCH  20  23
HETATM   23  N8  UNL     1       6.787  -1.152  -0.960  1.00  0.00    -0.075 N 
ATOM     24  H83 UNL     1       6.845  -1.941  -0.317  1.00  0.00     0.274 HD
ATOM     25  H82 UNL     1       6.968  -1.674  -1.818  1.00  0.00     0.274 HD
ATOM     26  H81 UNL     1       7.481  -0.428  -0.774  1.00  0.00     0.274 HD
ENDBRANCH  20  23
ENDBRANCH  13  17
BRANCH  10  27
HETATM   27  N5  UNL     1      -0.610   2.898   0.919  1.00  0.00    -0.213 N 
HETATM   28  C10 UNL     1      -1.962   3.322   1.205  1.00  0.00     0.167 C 
HETATM   29  C11 UNL     1      -2.125   4.701   0.587  1.00  0.00     0.188 C 
HETATM   30  O1  UNL     1      -1.277   5.641   1.115  1.00  0.00    -0.388 OA
HETATM   31  C12 UNL     1      -0.061   5.160   1.533  1.00  0.00     0.188 C 
HETATM   32  C13 UNL     1       0.392   3.927   0.758  1.00  0.00     0.167 C 
ENDBRANCH  10  27
BRANCH   6  33
HETATM   33  C3  UNL     1      -3.106  -1.604   0.698  1.00  0.00     0.088 C 
HETATM   34  C4  UNL     1      -3.545  -2.705  -0.264  1.00  0.00     0.027 C 
HETATM   35  C5  UNL     1      -4.763  -2.140  -0.977  1.00  0.00     0.035 C 
HETATM   36  C6  UNL     1      -4.858  -0.709  -0.570  1.00  0.00     0.185 C 
HETATM   37  C7  UNL     1      -3.474  -0.327   0.018  1.00  0.00     0.058 C 
BRANCH  36  38
HETATM   38  N3  UNL     1      -5.070   0.203  -1.672  1.00  0.00    -0.075 N 
ATOM     39  H33 UNL     1      -4.349   0.080  -2.383  1.00  0.00     0.274 HD
ATOM     40  H32 UNL     1      -5.891  -0.071  -2.211  1.00  0.00     0.274 HD
ATOM     41  H31 UNL     1      -5.135   1.182  -1.394  1.00  0.00     0.274 HD
ENDBRANCH  36  38
ENDBRANCH   6  33
TORSDOF 5
