REMARK  9 active torsions:
REMARK  status: ('A' for Active; 'I' for Inactive)
REMARK    1  A    between atoms: O1_2  and  C2_3 
REMARK    2  A    between atoms: C2_3  and  C5_6 
REMARK       I    between atoms: C5_6  and  N1_8 
REMARK    3  A    between atoms: N1_8  and  C6_10 
REMARK    4  A    between atoms: C6_10  and  C7_11 
REMARK    5  A    between atoms: C6_10  and  C9_24 
REMARK       I    between atoms: C7_11  and  N2_13 
REMARK       I    between atoms: N2_13  and  C8_15 
REMARK       I    between atoms: C8_15  and  N3_16 
REMARK       I    between atoms: C8_15  and  N4_20 
REMARK    6  A    between atoms: C9_24  and  N5_25 
REMARK    7  A    between atoms: C9_24  and  C10_29 
REMARK    8  A    between atoms: C10_29  and  O5_31 
REMARK    9  A    between atoms: O5_31  and  C11_32 
ROOT
HETATM    1  C6  UNL     1      -0.759  -1.066  -0.426  1.00  0.00     0.217 C 
ENDROOT
BRANCH   1   2
HETATM    2  N1  UNL     1      -1.067   0.209   0.122  1.00  0.00    -0.343 N 
HETATM    3  C5  UNL     1      -2.408   0.690   0.078  1.00  0.00     0.252 C 
HETATM    4  O2  UNL     1      -3.299  -0.033  -0.449  1.00  0.00    -0.270 OA
ATOM      5  H1  UNL     1      -0.332   0.777   0.544  1.00  0.00     0.163 HD
BRANCH   3   6
HETATM    6  C2  UNL     1      -2.778   2.020   0.639  1.00  0.00     0.133 C 
HETATM    7  C3  UNL     1      -2.416   1.969   2.125  1.00  0.00     0.056 C 
HETATM    8  C4  UNL     1      -1.919   3.054  -0.039  1.00  0.00     0.056 C 
BRANCH   6   9
HETATM    9  O1  UNL     1      -4.130   2.212   0.453  1.00  0.00    -0.376 OA
HETATM   10  C1  UNL     1      -4.585   3.397   1.014  1.00  0.00     0.203 C 
ENDBRANCH   6   9
ENDBRANCH   3   6
ENDBRANCH   1   2
BRANCH   1  11
HETATM   11  C7  UNL     1      -0.268  -2.012   0.624  1.00  0.00     0.245 C 
HETATM   12  O3  UNL     1      -0.182  -1.605   1.797  1.00  0.00    -0.271 OA
HETATM   13  N2  UNL     1       0.098  -3.344   0.315  1.00  0.00    -0.310 N 
HETATM   14  C8  UNL     1       0.572  -4.249   1.339  1.00  0.00     0.482 C 
ATOM     15  H2  UNL     1       0.026  -3.672  -0.648  1.00  0.00     0.166 HD
HETATM   16  N3  UNL     1       1.954  -4.660   1.071  1.00  0.00    -0.033 N 
HETATM   17  N4  UNL     1      -0.299  -5.403   1.445  1.00  0.00    -0.033 N 
ATOM     18  H33 UNL     1       2.055  -5.060   0.138  1.00  0.00     0.278 HD
ATOM     19  H32 UNL     1       2.572  -3.856   0.962  1.00  0.00     0.278 HD
ATOM     20  H31 UNL     1       2.288  -5.298   1.793  1.00  0.00     0.278 HD
ATOM     21  H43 UNL     1      -1.270  -5.131   1.600  1.00  0.00     0.278 HD
ATOM     22  H42 UNL     1      -0.414  -5.874   0.548  1.00  0.00     0.278 HD
ATOM     23  H41 UNL     1       0.035  -6.041   2.167  1.00  0.00     0.278 HD
ENDBRANCH   1  11
BRANCH   1  24
HETATM   24  C9  UNL     1       0.261  -1.012  -1.537  1.00  0.00     0.314 C 
BRANCH  24  25
HETATM   25  N5  UNL     1      -0.262  -0.185  -2.602  1.00  0.00    -0.063 N 
ATOM     26  H53 UNL     1      -1.177  -0.497  -2.926  1.00  0.00     0.275 HD
ATOM     27  H52 UNL     1      -0.537   0.742  -2.278  1.00  0.00     0.275 HD
ATOM     28  H51 UNL     1       0.427  -0.149  -3.353  1.00  0.00     0.275 HD
ENDBRANCH  24  25
BRANCH  24  29
HETATM   29  C10 UNL     1       1.581  -0.530  -1.060  1.00  0.00     0.298 C 
HETATM   30  O4  UNL     1       2.138  -1.170  -0.132  1.00  0.00    -0.262 OA
BRANCH  29  31
HETATM   31  O5  UNL     1       2.222   0.564  -1.571  1.00  0.00    -0.270 OA
BRANCH  31  32
HETATM   32  C11 UNL     1       3.497   0.962  -1.053  1.00  0.00     0.123 C 
HETATM   33  C12 UNL     1       4.111   1.996  -1.529  1.00  0.00     0.030 C 
HETATM   34  C13 UNL     1       5.413   2.408  -1.002  1.00  0.00     0.117 C 
HETATM   35  S1  UNL     1       6.259   0.954  -0.307  1.00  0.00    -0.087 SA
HETATM   36  S2  UNL     1       4.345   0.092   0.268  1.00  0.00    -0.032 SA
ENDBRANCH  31  32
ENDBRANCH  29  31
ENDBRANCH  24  29
ENDBRANCH   1  24
TORSDOF 9
