REMARK  10 active torsions:
REMARK  status: ('A' for Active; 'I' for Inactive)
REMARK    1  A    between atoms: C2_2  and  C3_3 
REMARK    2  A    between atoms: C3_3  and  O2_5 
REMARK    3  A    between atoms: O2_5  and  N1_6 
REMARK    4  A    between atoms: C4_8  and  N2_9 
REMARK    5  A    between atoms: C4_8  and  C9_20 
REMARK       I    between atoms: N2_9  and  C5_11 
REMARK    6  A    between atoms: C5_11  and  C6_13 
REMARK    7  A    between atoms: C9_20  and  C14_34 
REMARK    8  A    between atoms: N5_21  and  O4_23 
REMARK    9  A    between atoms: O4_23  and  C10_24 
REMARK   10  A    between atoms: C12_28  and  O5_29 
ROOT
HETATM    1  N1  UNL     1      -0.901  -2.347   0.739  1.00  0.00    -0.239 N 
ATOM      2  H1  UNL     1      -0.177  -2.940   1.146  1.00  0.00     0.196 HD
HETATM    3  C4  UNL     1      -0.709  -1.048   0.598  1.00  0.00     0.163 C 
ENDROOT
BRANCH   3   4
HETATM    4  N2  UNL     1      -1.746  -0.314   0.034  1.00  0.00    -0.304 N 
HETATM    5  C5  UNL     1      -1.946   1.029  -0.280  1.00  0.00     0.275 C 
HETATM    6  O3  UNL     1      -1.138   1.960  -0.099  1.00  0.00    -0.266 OA
ATOM      7  H2  UNL     1      -2.549  -0.895  -0.207  1.00  0.00     0.171 HD
BRANCH   5   8
HETATM    8  C6  UNL     1      -3.249   1.414  -0.896  1.00  0.00     0.117 A 
HETATM    9  C7  UNL     1      -4.253   0.544  -1.167  1.00  0.00     0.124 A 
HETATM   10  N3  UNL     1      -5.256   1.276  -1.717  1.00  0.00    -0.360 N 
HETATM   11  C8  UNL     1      -4.854   2.548  -1.770  1.00  0.00     0.180 A 
ATOM     12  H3  UNL     1      -6.157   0.917  -2.034  1.00  0.00     0.166 HD
HETATM   13  N4  UNL     1      -3.616   2.661  -1.269  1.00  0.00    -0.347 N 
ATOM     14  H4  UNL     1      -3.063   3.514  -1.186  1.00  0.00     0.167 HD
ENDBRANCH   5   8
ENDBRANCH   3   4
BRANCH   3  15
HETATM   15  C9  UNL     1       0.557  -0.569   1.051  1.00  0.00     0.165 C 
HETATM   16  N5  UNL     1       0.895   0.652   0.985  1.00  0.00    -0.249 N 
ATOM     17  H5  UNL     1       0.242   1.330   0.592  1.00  0.00     0.195 HD
BRANCH  16  18
HETATM   18  O4  UNL     1       2.110   1.075   1.427  1.00  0.00    -0.201 OA
BRANCH  18  19
HETATM   19  C10 UNL     1       3.021   1.585   0.507  1.00  0.00     0.239 C 
HETATM   20  N6  UNL     1       2.628   1.775  -0.704  1.00  0.00    -0.352 N 
HETATM   21  C11 UNL     1       3.588   2.307  -1.650  1.00  0.00     0.156 C 
ATOM     22  H6  UNL     1       1.673   1.558  -0.988  1.00  0.00     0.163 HD
HETATM   23  C12 UNL     1       4.893   1.560  -1.507  1.00  0.00     0.153 C 
HETATM   24  C13 UNL     1       5.449   1.882  -0.116  1.00  0.00     0.156 C 
HETATM   25  N7  UNL     1       4.356   1.904   0.838  1.00  0.00    -0.352 N 
ATOM     26  H7  UNL     1       4.564   2.165   1.802  1.00  0.00     0.163 HD
BRANCH  23  27
HETATM   27  O5  UNL     1       5.825   1.987  -2.434  1.00  0.00    -0.392 OA
ATOM     28  H5  UNL     1       6.646   1.517  -2.344  1.00  0.00     0.210 HD
ENDBRANCH  23  27
ENDBRANCH  18  19
ENDBRANCH  16  18
BRANCH  15  29
HETATM   29  C14 UNL     1       1.520  -1.543   1.624  1.00  0.00     0.287 C 
HETATM   30  N8  UNL     1       1.280  -2.916   1.758  1.00  0.00    -0.056 NA
HETATM   31  O6  UNL     1       2.639  -1.095   2.020  1.00  0.00    -0.269 OA
ENDBRANCH  15  29
ENDBRANCH   3  15
BRANCH   1  32
HETATM   32  O2  UNL     1      -2.090  -2.880   0.328  1.00  0.00    -0.194 OA
BRANCH  32  33
HETATM   33  C3  UNL     1      -3.038  -3.172   1.320  1.00  0.00     0.303 C 
HETATM   34  O1  UNL     1      -2.792  -2.949   2.531  1.00  0.00    -0.258 OA
BRANCH  33  35
HETATM   35  C2  UNL     1      -4.329  -3.740   0.970  1.00  0.00     0.074 C 
HETATM   36  C1  UNL     1      -5.204  -4.007   1.915  1.00  0.00     0.017 C 
ENDBRANCH  33  35
ENDBRANCH  32  33
ENDBRANCH   1  32
TORSDOF 10
