REMARK  11 active torsions:
REMARK  status: ('A' for Active; 'I' for Inactive)
REMARK    1  A    between atoms: O1_2  and  C2_3 
REMARK    2  A    between atoms: C5_6  and  O2_7 
REMARK    3  A    between atoms: C8_11  and  O3_12 
REMARK    4  A    between atoms: C9_14  and  C10_15 
REMARK    5  A    between atoms: C9_14  and  C11_18 
REMARK    6  A    between atoms: C10_15  and  O4_16 
REMARK    7  A    between atoms: C11_18  and  O5_19 
REMARK    8  A    between atoms: O5_19  and  N1_20 
REMARK    9  A    between atoms: N1_20  and  S1_22 
REMARK   10  A    between atoms: S1_22  and  C12_25 
REMARK   11  A    between atoms: C12_25  and  N2_26 
ROOT
HETATM    1  C2  UNL     1      -2.798   0.434   1.111  1.00  0.00     0.110 A 
HETATM    2  C3  UNL     1      -3.164   1.556   0.408  1.00  0.00     0.008 A 
HETATM    3  C4  UNL     1      -4.372   2.328   0.812  1.00  0.00     0.054 C 
HETATM    4  C5  UNL     1      -2.411   1.976  -0.681  1.00  0.00     0.089 A 
HETATM    5  C6  UNL     1      -1.277   1.299  -1.104  1.00  0.00     0.062 A 
HETATM    6  C7  UNL     1      -0.911   0.176  -0.397  1.00  0.00     0.016 A 
HETATM    7  C8  UNL     1      -1.671  -0.247   0.699  1.00  0.00     0.108 A 
HETATM    8  C9  UNL     1       0.326  -0.377  -0.988  1.00  0.00     0.104 A 
HETATM    9  C13 UNL     1       0.626   0.452  -2.171  1.00  0.00     0.217 A 
HETATM   10  O8  UNL     1       1.563   0.251  -2.974  1.00  0.00    -0.287 OA
HETATM   11  C14 UNL     1      -0.351   1.513  -2.214  1.00  0.00     0.232 A 
HETATM   12  O9  UNL     1      -0.356   2.436  -3.081  1.00  0.00    -0.283 OA
ENDROOT
BRANCH   8  13
HETATM   13  C10 UNL     1       0.106  -1.785  -1.491  1.00  0.00     0.189 C 
BRANCH  13  14
HETATM   14  O4  UNL     1       1.297  -2.239  -2.028  1.00  0.00    -0.399 OA
ATOM     15  H4  UNL     1       1.159  -3.124  -2.344  1.00  0.00     0.209 HD
ENDBRANCH  13  14
ENDBRANCH   8  13
BRANCH   8  16
HETATM   16  C11 UNL     1       1.534  -0.268  -0.097  1.00  0.00     0.227 C 
BRANCH  16  17
HETATM   17  O5  UNL     1       1.460  -0.898   1.102  1.00  0.00    -0.269 OA
BRANCH  17  18
HETATM   18  N1  UNL     1       2.518  -0.799   1.886  1.00  0.00    -0.191 N 
ATOM     19  H1  UNL     1       2.433  -0.482   2.852  1.00  0.00     0.207 HD
BRANCH  18  20
HETATM   20  S1  UNL     1       4.020  -1.217   1.230  1.00  0.00     0.273 S 
HETATM   21  O6  UNL     1       3.907  -2.340   0.236  1.00  0.00    -0.202 OA
HETATM   22  O7  UNL     1       4.886  -1.764   2.358  1.00  0.00    -0.202 OA
BRANCH  20  23
HETATM   23  C12 UNL     1       4.881   0.150   0.502  1.00  0.00     0.393 C 
BRANCH  23  24
HETATM   24  N2  UNL     1       6.152  -0.301  -0.033  1.00  0.00    -0.065 N 
ATOM     25  H23 UNL     1       6.716  -0.780   0.669  1.00  0.00     0.275 HD
ATOM     26  H22 UNL     1       6.040  -1.076  -0.686  1.00  0.00     0.275 HD
ATOM     27  H21 UNL     1       6.648   0.486  -0.452  1.00  0.00     0.275 HD
ENDBRANCH  23  24
ENDBRANCH  20  23
ENDBRANCH  18  20
ENDBRANCH  17  18
ENDBRANCH  16  17
ENDBRANCH   8  16
BRANCH   7  28
HETATM   28  O3  UNL     1      -1.318  -1.376   1.417  1.00  0.00    -0.357 OA
ATOM     29  H3  UNL     1      -0.542  -1.845   1.133  1.00  0.00     0.217 HD
ENDBRANCH   7  28
BRANCH   4  30
HETATM   30  O2  UNL     1      -2.802   3.112  -1.373  1.00  0.00    -0.359 OA
ATOM     31  H2  UNL     1      -2.287   3.399  -2.118  1.00  0.00     0.217 HD
ENDBRANCH   4  30
BRANCH   1  32
HETATM   32  O1  UNL     1      -3.549  -0.004   2.214  1.00  0.00    -0.352 OA
HETATM   33  C1  UNL     1      -4.597  -0.912   1.946  1.00  0.00     0.210 C 
ENDBRANCH   1  32
TORSDOF 11
