REMARK  13 active torsions:
REMARK  status: ('A' for Active; 'I' for Inactive)
REMARK    1  A    between atoms: C2_2  and  O2_4 
REMARK    2  A    between atoms: O2_4  and  C3_5 
REMARK    3  A    between atoms: C4_6  and  O3_7 
REMARK    4  A    between atoms: C5_9  and  O4_10 
REMARK    5  A    between atoms: O4_10  and  C6_11 
REMARK    6  A    between atoms: C7_12  and  C8_13 
REMARK    7  A    between atoms: C8_13  and  C9_14 
REMARK    8  A    between atoms: C9_14  and  C10_15 
REMARK    9  A    between atoms: C10_15  and  C11_16 
REMARK   10  A    between atoms: C11_16  and  C12_17 
REMARK   11  A    between atoms: C15_20  and  O5_21 
REMARK   12  A    between atoms: C16_23  and  O6_24 
REMARK   13  A    between atoms: C27_39  and  O8_40 
ROOT
HETATM    1  C3  UNL     1      -4.067   1.509   0.672  1.00  0.00     0.202 C 
HETATM    2  C4  UNL     1      -2.652   1.511   1.115  1.00  0.00     0.207 C 
HETATM    3  C5  UNL     1      -2.058   0.226   1.458  1.00  0.00     0.081 C 
HETATM    4  C18 UNL     1      -2.698  -0.911   1.355  1.00  0.00     0.021 C 
HETATM    5  C19 UNL     1      -4.066  -0.981   0.887  1.00  0.00     0.079 C 
HETATM    6  C20 UNL     1      -4.397  -2.165   0.052  1.00  0.00    -0.038 C 
HETATM    7  C21 UNL     1      -3.697  -3.093  -0.542  1.00  0.00     0.083 C 
HETATM    8 CL1  UNL     1      -1.959  -3.295  -0.571  1.00  0.00    -0.080 Cl
HETATM    9  C22 UNL     1      -4.589  -4.034  -1.245  1.00  0.00     0.172 C 
HETATM   10  O7  UNL     1      -4.287  -5.117  -1.803  1.00  0.00    -0.291 OA
HETATM   11  C23 UNL     1      -5.945  -3.476  -1.184  1.00  0.00     0.095 C 
HETATM   12  C24 UNL     1      -5.873  -2.362  -0.188  1.00  0.00     0.043 C 
HETATM   13  C25 UNL     1      -6.494  -1.091  -0.722  1.00  0.00     0.094 C 
HETATM   14 CL2  UNL     1      -8.254  -1.207  -0.369  1.00  0.00    -0.124 Cl
HETATM   15  C26 UNL     1      -5.993   0.148  -0.068  1.00  0.00     0.062 C 
HETATM   16  C27 UNL     1      -4.497   0.218   0.031  1.00  0.00     0.099 C 
ENDROOT
BRANCH   3  17
HETATM   17  O4  UNL     1      -0.716   0.261   1.921  1.00  0.00    -0.325 OA
BRANCH  17  18
HETATM   18  C6  UNL     1       0.253   0.183   0.911  1.00  0.00     0.138 C 
HETATM   19  C7  UNL     1       0.878  -0.926   0.718  1.00  0.00    -0.002 C 
BRANCH  19  20
HETATM   20  C8  UNL     1       1.911  -1.125  -0.302  1.00  0.00     0.029 C 
BRANCH  20  21
HETATM   21  C9  UNL     1       2.431   0.143  -0.867  1.00  0.00     0.004 C 
BRANCH  21  22
HETATM   22  C10 UNL     1       3.169   1.045   0.034  1.00  0.00     0.001 C 
BRANCH  22  23
HETATM   23  C11 UNL     1       4.441   0.607   0.648  1.00  0.00     0.005 C 
BRANCH  23  24
HETATM   24  C12 UNL     1       5.628   0.373  -0.193  1.00  0.00    -0.012 C 
HETATM   25  C13 UNL     1       5.532  -0.665  -1.226  1.00  0.00     0.007 C 
HETATM   26  C14 UNL     1       6.917  -1.280  -1.527  1.00  0.00     0.034 C 
HETATM   27  C15 UNL     1       7.936  -0.173  -1.507  1.00  0.00     0.147 C 
HETATM   28  C16 UNL     1       8.092   0.332  -0.089  1.00  0.00     0.147 C 
HETATM   29  C17 UNL     1       6.844   0.102   0.720  1.00  0.00     0.039 C 
BRANCH  27  30
HETATM   30  O5  UNL     1       9.158  -0.647  -1.955  1.00  0.00    -0.393 OA
ATOM     31  H5  UNL     1       9.801   0.052  -1.942  1.00  0.00     0.210 HD
ENDBRANCH  27  30
BRANCH  28  32
HETATM   32  O6  UNL     1       8.422   1.686  -0.172  1.00  0.00    -0.393 OA
ATOM     33  H6  UNL     1       8.520   2.003   0.718  1.00  0.00     0.210 HD
ENDBRANCH  28  32
ENDBRANCH  23  24
ENDBRANCH  22  23
ENDBRANCH  21  22
ENDBRANCH  20  21
ENDBRANCH  19  20
ENDBRANCH  17  18
ENDBRANCH   3  17
BRANCH   2  34
HETATM   34  O3  UNL     1      -1.798   2.131   0.185  1.00  0.00    -0.386 OA
ATOM     35  H3  UNL     1      -0.891   2.132   0.469  1.00  0.00     0.210 HD
ENDBRANCH   2  34
BRANCH   1  36
HETATM   36  O2  UNL     1      -4.221   2.528  -0.314  1.00  0.00    -0.310 OA
BRANCH  36  37
HETATM   37  C2  UNL     1      -5.104   3.551  -0.097  1.00  0.00     0.255 C 
HETATM   38  C1  UNL     1      -5.311   4.638  -1.077  1.00  0.00     0.126 C 
HETATM   39  O1  UNL     1      -5.757   3.555   0.979  1.00  0.00    -0.266 OA
ENDBRANCH  36  37
ENDBRANCH   1  36
BRANCH  16  40
HETATM   40  O8  UNL     1      -3.902   0.145  -1.227  1.00  0.00    -0.386 OA
ATOM     41  H8  UNL     1      -4.174  -0.670  -1.632  1.00  0.00     0.210 HD
ENDBRANCH  16  40
TORSDOF 13
