REMARK  11 active torsions:
REMARK  status: ('A' for Active; 'I' for Inactive)
REMARK    1  A    between atoms: C2_2  and  N1_4 
REMARK       I    between atoms: N1_4  and  C4_6 
REMARK       I    between atoms: C4_6  and  N2_7 
REMARK       I    between atoms: C4_6  and  N4_12 
REMARK    2  A    between atoms: N2_7  and  N3_9 
REMARK    3  A    between atoms: N4_12  and  C5_14 
REMARK    4  A    between atoms: C6_19  and  C7_20 
REMARK    5  A    between atoms: C7_20  and  C8_21 
REMARK    6  A    between atoms: C8_21  and  S1_22 
REMARK    7  A    between atoms: S1_22  and  C9_23 
REMARK    8  A    between atoms: C9_23  and  C10_24 
REMARK    9  A    between atoms: C10_24  and  C11_25 
REMARK       I    between atoms: N9_31  and  C13_33 
REMARK   10  A    between atoms: C13_33  and  C14_35 
REMARK   11  A    between atoms: C14_35  and  C15_36 
ROOT
HETATM    1  S1  UNL     1       0.700   2.665  -1.655  1.00  0.00    -0.168 SA
ENDROOT
BRANCH   1   2
HETATM    2  C8  UNL     1      -0.945   1.991  -1.697  1.00  0.00     0.080 C 
BRANCH   2   3
HETATM    3  C7  UNL     1      -1.697   2.136  -0.405  1.00  0.00     0.076 C 
BRANCH   3   4
HETATM    4  C6  UNL     1      -3.067   1.516  -0.545  1.00  0.00     0.070 A 
HETATM    5  N6  UNL     1      -3.595   0.905  -1.593  1.00  0.00    -0.296 N 
HETATM    6  N5  UNL     1      -4.775   0.437  -1.539  1.00  0.00    -0.279 N 
ATOM      7  H6  UNL     1      -3.051   0.809  -2.450  1.00  0.00     0.187 HD
HETATM    8  C5  UNL     1      -5.473   0.572  -0.408  1.00  0.00     0.180 A 
ATOM      9  H5  UNL     1      -5.183  -0.034  -2.346  1.00  0.00     0.189 HD
HETATM   10  S3  UNL     1      -4.344   1.410   0.584  1.00  0.00    -0.037 SA
BRANCH   8  11
HETATM   11  N4  UNL     1      -6.672   0.176  -0.147  1.00  0.00    -0.168 N 
HETATM   12  C4  UNL     1      -7.543  -0.503  -1.003  1.00  0.00     0.694 C 
HETATM   13  N1  UNL     1      -8.217  -1.689  -0.515  1.00  0.00    -0.221 N 
HETATM   14  N2  UNL     1      -7.768  -0.108  -2.207  1.00  0.00    -0.139 N 
ATOM     15  H1  UNL     1      -8.222  -2.540  -1.077  1.00  0.00     0.178 HD
ATOM     16  H2  UNL     1      -7.307   0.723  -2.578  1.00  0.00     0.205 HD
ATOM     17  H4  UNL     1      -7.024   0.381   0.788  1.00  0.00     0.186 HD
BRANCH  13  18
HETATM   18  C2  UNL     1      -8.874  -1.666   0.753  1.00  0.00     0.091 C 
HETATM   19  C1  UNL     1      -9.947  -0.597   0.745  1.00  0.00     0.032 C 
HETATM   20  C3  UNL     1      -7.891  -1.443   1.875  1.00  0.00     0.032 C 
ENDBRANCH  13  18
BRANCH  14  21
HETATM   21  N3  UNL     1      -8.655  -0.840  -2.993  1.00  0.00    -0.331 N 
ATOM     22  H32 UNL     1      -9.108  -1.669  -2.608  1.00  0.00     0.177 HD
ATOM     23  H31 UNL     1      -8.833  -0.527  -3.947  1.00  0.00     0.177 HD
ENDBRANCH  14  21
ENDBRANCH   8  11
ENDBRANCH   3   4
ENDBRANCH   2   3
ENDBRANCH   1   2
BRANCH   1  24
HETATM   24  C9  UNL     1       1.857   1.685  -0.750  1.00  0.00     0.080 C 
BRANCH  24  25
HETATM   25  C10 UNL     1       1.598   1.536   0.720  1.00  0.00     0.076 C 
BRANCH  25  26
HETATM   26  C11 UNL     1       2.768   0.719   1.249  1.00  0.00     0.070 A 
HETATM   27  N7  UNL     1       2.965   0.305   2.489  1.00  0.00    -0.296 N 
HETATM   28  N8  UNL     1       3.999  -0.370   2.779  1.00  0.00    -0.279 N 
ATOM     29  H7  UNL     1       2.284   0.529   3.214  1.00  0.00     0.187 HD
HETATM   30  C12 UNL     1       4.876  -0.649   1.803  1.00  0.00     0.167 A 
ATOM     31  H8  UNL     1       4.160  -0.693   3.733  1.00  0.00     0.189 HD
HETATM   32  N9  UNL     1       5.992  -1.335   1.926  1.00  0.00    -0.306 N 
HETATM   33  S2  UNL     1       4.146   0.103   0.455  1.00  0.00    -0.038 SA
HETATM   34  C13 UNL     1       6.772  -1.508   0.754  1.00  0.00     0.227 C 
ATOM     35  H9  UNL     1       6.283  -1.724   2.823  1.00  0.00     0.171 HD
HETATM   36  O1  UNL     1       7.075  -2.653   0.334  1.00  0.00    -0.273 OA
BRANCH  34  37
HETATM   37  C14 UNL     1       7.223  -0.270   0.036  1.00  0.00     0.141 C 
BRANCH  37  38
HETATM   38  C15 UNL     1       8.712  -0.245  -0.009  1.00  0.00    -0.048 A 
HETATM   39  C16 UNL     1       9.404  -0.831  -1.040  1.00  0.00     0.009 A 
HETATM   40  C17 UNL     1      10.804  -0.788  -1.041  1.00  0.00     0.026 A 
HETATM   41  C18 UNL     1      11.474  -0.154  -0.002  1.00  0.00     0.055 A 
HETATM   42 CL1  UNL     1      13.224  -0.119  -0.031  1.00  0.00    -0.083 Cl
HETATM   43  C19 UNL     1      10.764   0.436   1.035  1.00  0.00     0.056 A 
HETATM   44 CL2  UNL     1      11.600   1.237   2.348  1.00  0.00    -0.083 Cl
HETATM   45  C20 UNL     1       9.386   0.383   1.020  1.00  0.00     0.033 A 
ENDBRANCH  37  38
ENDBRANCH  34  37
ENDBRANCH  25  26
ENDBRANCH  24  25
ENDBRANCH   1  24
TORSDOF 11
