REMARK  10 active torsions:
REMARK  status: ('A' for Active; 'I' for Inactive)
REMARK    1  A    between atoms: O1_2  and  C2_3 
REMARK    2  A    between atoms: C2_3  and  C3_5 
REMARK    3  A    between atoms: C7_10  and  N1_11 
REMARK    4  A    between atoms: N1_11  and  N2_13 
REMARK       I    between atoms: N2_13  and  C8_15 
REMARK    5  A    between atoms: C8_15  and  C9_17 
REMARK    6  A    between atoms: C9_17  and  C10_18 
REMARK    7  A    between atoms: C9_17  and  N3_22 
REMARK    8  A    between atoms: C10_18  and  C11_19 
REMARK    9  A    between atoms: C11_19  and  S2_20 
REMARK       I    between atoms: N3_22  and  C13_24 
REMARK   10  A    between atoms: C13_24  and  C14_26 
ROOT
HETATM    1  N1  UNL     1       0.250  -0.967   0.086  1.00  0.00    -0.282 N 
ATOM      2  H1  UNL     1       0.121  -1.933  -0.215  1.00  0.00     0.188 HD
ENDROOT
BRANCH   1   3
HETATM    3  C7  UNL     1       1.406  -0.412   0.005  1.00  0.00     0.123 A 
HETATM    4  C6  UNL     1       2.471  -1.138  -0.496  1.00  0.00     0.080 A 
HETATM    5  C5  UNL     1       3.708  -0.545  -0.582  1.00  0.00     0.052 A 
HETATM    6  C4  UNL     1       3.841   0.760  -0.165  1.00  0.00     0.066 A 
HETATM    7  N5  UNL     1       4.851  -1.242  -1.079  1.00  0.00    -0.383 N 
HETATM    8  S1  UNL     1       5.456   1.503  -0.303  1.00  0.00    -0.107 SA
HETATM    9  C20 UNL     1       2.754   1.439   0.325  1.00  0.00     0.124 A 
HETATM   10  C3  UNL     1       6.674   0.173  -0.150  1.00  0.00     0.174 C 
HETATM   11  C21 UNL     1       6.176  -1.147  -0.587  1.00  0.00     0.101 C 
HETATM   12  C22 UNL     1       6.264  -2.092   0.623  1.00  0.00     0.034 C 
HETATM   13  N4  UNL     1       1.545   0.858   0.409  1.00  0.00    -0.331 N 
HETATM   14 CL2  UNL     1       2.994   3.094   0.838  1.00  0.00    -0.063 Cl
ATOM     15  H4  UNL     1       0.746   1.376   0.775  1.00  0.00     0.168 HD
ATOM     16  H5  UNL     1       4.698  -1.871  -1.867  1.00  0.00     0.160 HD
BRANCH  10  17
HETATM   17  C2  UNL     1       7.939   0.558  -0.876  1.00  0.00     0.274 C 
HETATM   18  O2  UNL     1       8.051   1.667  -1.468  1.00  0.00    -0.264 OA
BRANCH  17  19
HETATM   19  O1  UNL     1       9.031  -0.293  -0.924  1.00  0.00    -0.326 OA
HETATM   20  C1  UNL     1      10.224   0.056  -1.603  1.00  0.00     0.213 C 
ENDBRANCH  17  19
ENDBRANCH  10  17
ENDBRANCH   1   3
BRANCH   1  21
HETATM   21  N2  UNL     1      -0.841  -0.228   0.596  1.00  0.00    -0.263 N 
HETATM   22  C8  UNL     1      -2.044  -0.235  -0.107  1.00  0.00     0.282 C 
HETATM   23  O3  UNL     1      -2.083  -0.936  -1.187  1.00  0.00    -0.265 OA
ATOM     24  H2  UNL     1      -0.750   0.301   1.463  1.00  0.00     0.190 HD
BRANCH  22  25
HETATM   25  C9  UNL     1      -3.306   0.448   0.207  1.00  0.00     0.082 C 
BRANCH  25  26
HETATM   26  C10 UNL     1      -3.346   1.351   1.375  1.00  0.00     0.073 C 
BRANCH  26  27
HETATM   27  C11 UNL     1      -2.450   2.559   1.302  1.00  0.00     0.080 C 
BRANCH  27  28
HETATM   28  S2  UNL     1      -2.631   3.506   2.843  1.00  0.00    -0.173 SA
HETATM   29  C12 UNL     1      -4.296   4.203   2.989  1.00  0.00     0.089 C 
ENDBRANCH  27  28
ENDBRANCH  26  27
ENDBRANCH  25  26
BRANCH  25  30
HETATM   30  N3  UNL     1      -4.451  -0.396   0.018  1.00  0.00    -0.322 N 
HETATM   31  C13 UNL     1      -5.377  -0.303  -1.043  1.00  0.00     0.257 C 
HETATM   32  O4  UNL     1      -5.236   0.588  -1.941  1.00  0.00    -0.267 OA
ATOM     33  H3  UNL     1      -4.610  -1.127   0.711  1.00  0.00     0.169 HD
BRANCH  31  34
HETATM   34  C14 UNL     1      -6.514  -1.201  -1.160  1.00  0.00     0.054 A 
HETATM   35  C15 UNL     1      -6.322  -2.381  -1.882  1.00  0.00     0.019 A 
HETATM   36  C16 UNL     1      -7.389  -3.240  -2.000  1.00  0.00     0.001 A 
HETATM   37  C17 UNL     1      -8.608  -2.945  -1.424  1.00  0.00     0.002 A 
HETATM   38  C18 UNL     1      -8.794  -1.781  -0.713  1.00  0.00     0.025 A 
HETATM   39  C19 UNL     1      -7.732  -0.915  -0.590  1.00  0.00     0.049 A 
HETATM   40 CL1  UNL     1      -7.974   0.566   0.316  1.00  0.00    -0.083 Cl
ENDBRANCH  31  34
ENDBRANCH  25  30
ENDBRANCH  22  25
ENDBRANCH   1  21
TORSDOF 10
