REMARK  11 active torsions:
REMARK  status: ('A' for Active; 'I' for Inactive)
REMARK    1  A    between atoms: C2_2  and  C3_3 
REMARK    2  A    between atoms: C3_3  and  C4_4 
REMARK    3  A    between atoms: C13_16  and  N2_17 
REMARK    4  A    between atoms: N2_17  and  C14_19 
REMARK    5  A    between atoms: C14_19  and  C15_20 
REMARK    6  A    between atoms: C15_20  and  O1_21 
REMARK    7  A    between atoms: C16_25  and  N4_26 
REMARK    8  A    between atoms: N4_26  and  C17_28 
REMARK    9  A    between atoms: C21_32  and  C22_33 
REMARK       I    between atoms: C22_33  and  N5_35 
REMARK   10  A    between atoms: N5_35  and  S2_37 
REMARK   11  A    between atoms: S2_37  and  C23_40 
ROOT
HETATM    1  C1  UNL     1      -3.572   0.607   1.881  1.00  0.00     0.023 C 
HETATM    2  C2  UNL     1      -2.785  -0.041   0.768  1.00  0.00     0.008 C 
HETATM    3  C10 UNL     1      -1.870  -1.122   1.316  1.00  0.00     0.134 C 
HETATM    4  N1  UNL     1      -0.600  -0.934   0.651  1.00  0.00    -0.385 N 
ATOM      5  H1  UNL     1       0.111  -1.649   0.496  1.00  0.00     0.159 HD
HETATM    6  C11 UNL     1      -0.521   0.450   0.247  1.00  0.00     0.086 A 
HETATM    7  C12 UNL     1      -1.780   0.980   0.304  1.00  0.00     0.026 A 
HETATM    8  S1  UNL     1      -1.880   2.642  -0.152  1.00  0.00    -0.056 SA
HETATM    9  C13 UNL     1      -0.369   3.287  -0.586  1.00  0.00     0.146 A 
HETATM   10  N3  UNL     1       0.658   2.426  -0.510  1.00  0.00    -0.321 N 
ATOM     11  H3  UNL     1       1.574   2.794  -0.765  1.00  0.00     0.169 HD
HETATM   12  C16 UNL     1       0.620   1.147  -0.140  1.00  0.00     0.131 A 
ENDROOT
BRANCH  12  13
HETATM   13  N4  UNL     1       1.731   0.498  -0.127  1.00  0.00    -0.370 N 
ATOM     14  H4  UNL     1       1.669  -0.477   0.167  1.00  0.00     0.161 HD
BRANCH  13  15
HETATM   15  C17 UNL     1       3.040   0.958  -0.469  1.00  0.00     0.084 C 
HETATM   16  C18 UNL     1       3.614   1.829   0.609  1.00  0.00     0.025 C 
HETATM   17  C19 UNL     1       4.439   1.125   1.620  1.00  0.00     0.003 C 
HETATM   18  C20 UNL     1       5.383   0.113   1.086  1.00  0.00     0.014 C 
HETATM   19  C21 UNL     1       4.532  -0.918   0.321  1.00  0.00     0.081 C 
HETATM   20  C24 UNL     1       3.964  -0.183  -0.850  1.00  0.00     0.039 C 
BRANCH  19  21
HETATM   21  C22 UNL     1       5.382  -2.036  -0.131  1.00  0.00     0.235 C 
HETATM   22  O2  UNL     1       5.071  -3.206   0.249  1.00  0.00    -0.272 OA
HETATM   23  N5  UNL     1       6.503  -1.876  -0.952  1.00  0.00    -0.249 N 
ATOM     24  H5  UNL     1       6.720  -0.922  -1.240  1.00  0.00     0.181 HD
BRANCH  23  25
HETATM   25  S2  UNL     1       7.545  -3.091  -1.525  1.00  0.00     0.294 S 
HETATM   26  O3  UNL     1       9.002  -2.700  -1.337  1.00  0.00    -0.200 OA
HETATM   27  O4  UNL     1       7.317  -3.350  -2.984  1.00  0.00    -0.200 OA
BRANCH  25  28
HETATM   28  C23 UNL     1       7.342  -4.631  -0.670  1.00  0.00     0.494 C 
HETATM   29  F1  UNL     1       8.241  -5.557  -1.179  1.00  0.00    -0.195 F 
HETATM   30  F2  UNL     1       7.662  -4.493   0.680  1.00  0.00    -0.195 F 
ENDBRANCH  25  28
ENDBRANCH  23  25
ENDBRANCH  19  21
ENDBRANCH  13  15
ENDBRANCH  12  13
BRANCH   9  31
HETATM   31  N2  UNL     1      -0.140   4.497  -0.963  1.00  0.00    -0.368 N 
ATOM     32  H2  UNL     1       0.821   4.748  -1.195  1.00  0.00     0.161 HD
BRANCH  31  33
HETATM   33  C14 UNL     1      -1.138   5.511  -1.079  1.00  0.00     0.147 C 
BRANCH  33  34
HETATM   34  C15 UNL     1      -0.974   6.614  -0.052  1.00  0.00     0.183 C 
BRANCH  34  35
HETATM   35  O1  UNL     1       0.237   7.262  -0.147  1.00  0.00    -0.399 OA
ATOM     36  H1  UNL     1       0.340   7.953   0.497  1.00  0.00     0.209 HD
ENDBRANCH  34  35
ENDBRANCH  33  34
ENDBRANCH  31  33
ENDBRANCH   9  31
BRANCH   2  37
HETATM   37  C3  UNL     1      -3.622  -0.495  -0.346  1.00  0.00     0.021 C 
BRANCH  37  38
HETATM   38  C4  UNL     1      -4.653  -1.521  -0.171  1.00  0.00    -0.013 C 
HETATM   39  C5  UNL     1      -5.777  -1.337   0.752  1.00  0.00     0.005 C 
HETATM   40  C6  UNL     1      -6.461  -2.722   0.899  1.00  0.00     0.000 C 
HETATM   41  C7  UNL     1      -6.735  -3.369  -0.411  1.00  0.00     0.000 C 
HETATM   42  C8  UNL     1      -6.633  -2.346  -1.501  1.00  0.00     0.000 C 
HETATM   43  C9  UNL     1      -5.294  -1.697  -1.579  1.00  0.00     0.005 C 
ENDBRANCH  37  38
ENDBRANCH   2  37
TORSDOF 11
