REMARK  8 active torsions:
REMARK  status: ('A' for Active; 'I' for Inactive)
REMARK    1  A    between atoms: C1_2  and  C2_3 
REMARK       I    between atoms: C1_2  and  N1_17 
REMARK    2  A    between atoms: C3_4  and  C4_5 
REMARK    3  A    between atoms: C5_6  and  C6_7 
REMARK    4  A    between atoms: C7_10  and  C8_12 
REMARK    5  A    between atoms: C8_12  and  C9_13 
REMARK    6  A    between atoms: C10_14  and  C11_15 
REMARK    7  A    between atoms: N1_17  and  C12_19 
REMARK    8  A    between atoms: C12_19  and  C13_20 
ROOT
HETATM    1  C2  UNL     1       0.687  -0.251   1.331  1.00  0.00     0.070 C 
HETATM    2  C3  UNL     1       1.686  -1.079   1.420  1.00  0.00    -0.014 C 
ENDROOT
BRANCH   1   3
HETATM    3  C1  UNL     1      -0.315  -0.178   0.303  1.00  0.00     0.240 C 
HETATM    4  O1  UNL     1      -0.297  -0.968  -0.670  1.00  0.00    -0.269 OA
HETATM    5  N1  UNL     1      -1.351   0.807   0.384  1.00  0.00    -0.357 N 
ATOM      6  H1  UNL     1      -1.376   1.455   1.171  1.00  0.00     0.162 HD
BRANCH   5   7
HETATM    7  C12 UNL     1      -2.356   0.886  -0.640  1.00  0.00     0.137 C 
BRANCH   7   8
HETATM    8  C13 UNL     1      -3.306   2.002  -0.299  1.00  0.00     0.097 C 
HETATM    9  C14 UNL     1      -3.983   1.774   1.025  1.00  0.00     0.035 C 
HETATM   10  C15 UNL     1      -5.386   2.296   0.867  1.00  0.00     0.123 C 
HETATM   11  N2  UNL     1      -5.583   2.389  -0.564  1.00  0.00    -0.361 N 
HETATM   12  C16 UNL     1      -4.426   1.955  -1.266  1.00  0.00     0.223 C 
ATOM     13  H2  UNL     1      -6.438   2.722  -1.009  1.00  0.00     0.162 HD
HETATM   14  O4  UNL     1      -4.388   1.600  -2.488  1.00  0.00    -0.273 OA
ENDBRANCH   7   8
ENDBRANCH   5   7
ENDBRANCH   1   3
BRANCH   2  15
HETATM   15  C4  UNL     1       1.991  -2.143   0.445  1.00  0.00     0.050 A 
HETATM   16  C5  UNL     1       3.051  -3.166   0.860  1.00  0.00     0.121 A 
HETATM   17  C7  UNL     1       3.243  -2.212  -0.309  1.00  0.00     0.069 A 
HETATM   18 CL1  UNL     1       3.161  -2.955  -1.949  1.00  0.00    -0.117 Cl
BRANCH  16  19
HETATM   19  C6  UNL     1       2.899  -4.576   0.501  1.00  0.00     0.179 C 
HETATM   20  O2  UNL     1       3.342  -5.459   1.290  1.00  0.00    -0.648 OA
HETATM   21  O3  UNL     1       2.296  -5.020  -0.655  1.00  0.00    -0.648 OA
ENDBRANCH  16  19
BRANCH  17  22
HETATM   22  C8  UNL     1       4.375  -1.256  -0.172  1.00  0.00     0.121 C 
BRANCH  22  23
HETATM   23  C9  UNL     1       3.902   0.080  -0.524  1.00  0.00    -0.104 C 
HETATM   24  C10 UNL     1       3.529   1.202  -0.833  1.00  0.00    -0.096 C 
BRANCH  24  25
HETATM   25  C11 UNL     1       3.105   2.555  -1.201  1.00  0.00     0.178 C 
HETATM   26 BR1  UNL     1       4.459   3.860  -0.674  1.00  0.00    -0.083 Br
ENDBRANCH  24  25
ENDBRANCH  22  23
ENDBRANCH  17  22
ENDBRANCH   2  15
TORSDOF 8
