REMARK  7 active torsions:
REMARK  status: ('A' for Active; 'I' for Inactive)
REMARK    1  A    between atoms: N1_1  and  C1_5 
REMARK    2  A    between atoms: C1_5  and  C2_6 
REMARK    3  A    between atoms: C2_6  and  N2_7 
REMARK       I    between atoms: N2_7  and  C3_9 
REMARK    4  A    between atoms: C3_9  and  C4_11 
REMARK       I    between atoms: N3_15  and  C8_16 
REMARK    5  A    between atoms: C8_16  and  C9_18 
REMARK    6  A    between atoms: C9_18  and  C10_19 
REMARK    7  A    between atoms: C13_23  and  C14_24 
ROOT
HETATM    1  C4  UNL     1      -1.382  -0.532  -0.459  1.00  0.00     0.179 C 
HETATM    2  C5  UNL     1      -1.895  -1.801  -1.121  1.00  0.00     0.037 C 
HETATM    3  C6  UNL     1      -1.657  -2.916  -0.156  1.00  0.00     0.022 C 
HETATM    4  C7  UNL     1      -1.038  -2.233   1.037  1.00  0.00     0.127 C 
HETATM    5  N3  UNL     1      -0.417  -1.072   0.457  1.00  0.00    -0.339 N 
HETATM    6  C8  UNL     1       0.860  -0.598   0.745  1.00  0.00     0.222 C 
HETATM    7  O2  UNL     1       1.580  -1.256   1.572  1.00  0.00    -0.273 OA
ENDROOT
BRANCH   1   8
HETATM    8  C3  UNL     1      -2.460   0.221   0.211  1.00  0.00     0.240 C 
HETATM    9  N2  UNL     1      -3.541   0.740  -0.536  1.00  0.00    -0.358 N 
ATOM     10  H2  UNL     1      -3.535   0.570  -1.542  1.00  0.00     0.162 HD
HETATM   11  O1  UNL     1      -2.429   0.410   1.444  1.00  0.00    -0.271 OA
BRANCH   9  12
HETATM   12  C2  UNL     1      -4.644   1.483  -0.007  1.00  0.00     0.150 C 
BRANCH  12  13
HETATM   13  C1  UNL     1      -5.461   0.732   1.001  1.00  0.00     0.249 C 
BRANCH  13  14
HETATM   14  N1  UNL     1      -5.985  -0.465   0.350  1.00  0.00    -0.078 N 
ATOM     15  H13 UNL     1      -6.504  -0.256  -0.503  1.00  0.00     0.274 HD
ATOM     16  H12 UNL     1      -5.254  -1.038  -0.072  1.00  0.00     0.274 HD
ATOM     17  H11 UNL     1      -6.541  -0.976   1.036  1.00  0.00     0.274 HD
ENDBRANCH  13  14
ENDBRANCH  12  13
ENDBRANCH   9  12
ENDBRANCH   1   8
BRANCH   6  18
HETATM   18  C9  UNL     1       1.425   0.620   0.146  1.00  0.00     0.136 C 
BRANCH  18  19
HETATM   19  C10 UNL     1       2.830   0.336  -0.373  1.00  0.00     0.196 C 
HETATM   20  C11 UNL     1       3.363   1.621  -0.959  1.00  0.00     0.055 C 
HETATM   21  C12 UNL     1       4.202   2.164   0.202  1.00  0.00     0.115 C 
HETATM   22 CL1  UNL     1       5.485   3.223  -0.357  1.00  0.00    -0.123 Cl
HETATM   23  C13 UNL     1       4.786   0.869   0.746  1.00  0.00     0.214 C 
HETATM   24  N4  UNL     1       3.663  -0.052   0.722  1.00  0.00    -0.064 N 
ATOM     25  H42 UNL     1       3.163  -0.098   1.610  1.00  0.00     0.278 HD
ATOM     26  H41 UNL     1       3.948  -1.031   0.682  1.00  0.00     0.278 HD
BRANCH  23  27
HETATM   27  C14 UNL     1       5.896   0.436  -0.182  1.00  0.00     0.119 C 
HETATM   28 BR1  UNL     1       6.695  -1.228   0.441  1.00  0.00    -0.094 Br
ENDBRANCH  23  27
ENDBRANCH  18  19
ENDBRANCH   6  18
TORSDOF 7
