REMARK  6 active torsions:
REMARK  status: ('A' for Active; 'I' for Inactive)
REMARK    1  A    between atoms: C3_3  and  N1_4 
REMARK       I    between atoms: N1_4  and  C4_6 
REMARK    2  A    between atoms: C4_6  and  C5_8 
REMARK    3  A    between atoms: C5_8  and  N2_9 
REMARK    4  A    between atoms: C5_8  and  C13_24 
REMARK       I    between atoms: N2_9  and  C6_11 
REMARK    5  A    between atoms: C6_11  and  C7_13 
REMARK    6  A    between atoms: C9_15  and  C10_16 
ROOT
HETATM    1  C1  UNL     1       4.343   3.150  -2.846  1.00  0.00     0.014 C 
HETATM    2  C2  UNL     1       4.630   2.612  -1.801  1.00  0.00    -0.098 C 
HETATM    3  C3  UNL     1       4.983   1.933  -0.542  1.00  0.00     0.216 C 
ENDROOT
BRANCH   3   4
HETATM    4  N1  UNL     1       4.106   0.814  -0.297  1.00  0.00    -0.349 N 
HETATM    5  C4  UNL     1       2.708   0.932  -0.180  1.00  0.00     0.241 C 
HETATM    6  O1  UNL     1       2.156   2.035  -0.285  1.00  0.00    -0.271 OA
ATOM      7  H1  UNL     1       4.521  -0.113  -0.203  1.00  0.00     0.163 HD
BRANCH   5   8
HETATM    8  C5  UNL     1       1.903  -0.273   0.065  1.00  0.00     0.180 C 
BRANCH   8   9
HETATM    9  N2  UNL     1       0.477  -0.030   0.137  1.00  0.00    -0.346 N 
HETATM   10  C6  UNL     1      -0.434  -0.853  -0.505  1.00  0.00     0.241 C 
HETATM   11  O2  UNL     1       0.013  -1.853  -1.171  1.00  0.00    -0.271 OA
ATOM     12  H2  UNL     1       0.135   0.767   0.674  1.00  0.00     0.163 HD
BRANCH  10  13
HETATM   13  C7  UNL     1      -1.912  -0.739  -0.532  1.00  0.00     0.174 C 
HETATM   14  C8  UNL     1      -2.523  -0.077   0.640  1.00  0.00     0.051 C 
HETATM   15  C9  UNL     1      -4.001   0.124   0.361  1.00  0.00     0.108 C 
HETATM   16  C11 UNL     1      -4.529  -0.651  -0.795  1.00  0.00     0.110 C 
HETATM   17 BR1  UNL     1      -4.651   0.402  -2.424  1.00  0.00    -0.085 Br
HETATM   18  C12 UNL     1      -3.907  -1.973  -1.052  1.00  0.00     0.073 C 
HETATM   19  N3  UNL     1      -2.525  -1.994  -0.810  1.00  0.00    -0.388 N 
ATOM     20  H3  UNL     1      -1.988  -2.861  -0.832  1.00  0.00     0.159 HD
BRANCH  15  21
HETATM   21  C10 UNL     1      -4.306   1.557   0.103  1.00  0.00     0.178 C 
HETATM   22  O3  UNL     1      -5.186   2.112   0.794  1.00  0.00    -0.648 OA
HETATM   23  O4  UNL     1      -3.665   2.310  -0.865  1.00  0.00    -0.648 OA
ENDBRANCH  15  21
ENDBRANCH  10  13
ENDBRANCH   8   9
BRANCH   8  24
HETATM   24  C13 UNL     1       2.416  -0.918   1.342  1.00  0.00     0.009 C 
HETATM   25  C14 UNL     1       2.303  -0.036   2.551  1.00  0.00     0.012 C 
HETATM   26  C15 UNL     1       1.782  -2.287   1.550  1.00  0.00     0.012 C 
ENDBRANCH   8  24
ENDBRANCH   5   8
ENDBRANCH   3   4
TORSDOF 6
