REMARK  6 active torsions:
REMARK  status: ('A' for Active; 'I' for Inactive)
REMARK    1  A    between atoms: N1_2  and  C2_5 
REMARK    2  A    between atoms: N2_10  and  C7_11 
REMARK    3  A    between atoms: C7_11  and  C8_12 
REMARK    4  A    between atoms: C8_12  and  C9_13 
REMARK    5  A    between atoms: C9_13  and  C10_14 
REMARK    6  A    between atoms: C12_19  and  C13_20 
ROOT
HETATM    1  C7  UNL     1      -0.626   0.133   0.717  1.00  0.00     0.011 C 
HETATM    2  C17 UNL     1      -1.449   1.046   0.234  1.00  0.00    -0.053 C 
HETATM    3  C18 UNL     1      -0.794   2.225  -0.395  1.00  0.00     0.041 C 
HETATM    4  C19 UNL     1      -1.700   3.075  -1.229  1.00  0.00    -0.010 C 
HETATM    5  C20 UNL     1      -2.382   2.357  -2.342  1.00  0.00     0.009 C 
HETATM    6  C21 UNL     1      -3.682   1.715  -1.942  1.00  0.00    -0.013 C 
HETATM    7  C22 UNL     1      -4.574   2.755  -1.330  1.00  0.00     0.009 C 
HETATM    8  C23 UNL     1      -3.886   3.251  -0.092  1.00  0.00    -0.013 C 
HETATM    9  C24 UNL     1      -2.604   3.975  -0.428  1.00  0.00     0.009 C 
HETATM   10  C25 UNL     1      -3.560   2.193   0.900  1.00  0.00     0.013 C 
HETATM   11  C26 UNL     1      -2.915   0.947   0.346  1.00  0.00     0.017 C 
HETATM   12  C27 UNL     1      -3.504   0.591  -0.970  1.00  0.00     0.013 C 
ENDROOT
BRANCH   1  13
HETATM   13  N2  UNL     1      -1.028  -1.093   1.364  1.00  0.00    -0.369 N 
HETATM   14  C5  UNL     1      -1.302  -1.003   2.813  1.00  0.00     0.081 C 
HETATM   15  C4  UNL     1      -2.342  -1.884   3.356  1.00  0.00     0.027 C 
HETATM   16  C6  UNL     1      -0.034  -1.026   3.641  1.00  0.00     0.032 C 
HETATM   17  C3  UNL     1      -2.989  -2.863   2.472  1.00  0.00     0.037 C 
HETATM   18  C2  UNL     1      -2.625  -2.813   1.040  1.00  0.00     0.212 C 
HETATM   19  C28 UNL     1      -1.180  -2.373   0.788  1.00  0.00     0.054 C 
HETATM   20  C29 UNL     1      -0.971  -2.534  -0.684  1.00  0.00     0.040 C 
HETATM   21  C30 UNL     1      -0.322  -3.475   1.436  1.00  0.00     0.040 C 
BRANCH  18  22
HETATM   22  N1  UNL     1      -2.763  -4.149   0.466  1.00  0.00    -0.072 N 
HETATM   23  C1  UNL     1      -4.158  -4.586   0.529  1.00  0.00     0.267 C 
ATOM     24  H12 UNL     1      -2.134  -4.820   0.907  1.00  0.00     0.277 HD
ATOM     25  H11 UNL     1      -2.392  -4.196  -0.483  1.00  0.00     0.277 HD
ENDBRANCH  18  22
ENDBRANCH   1  13
BRANCH   1  26
HETATM   26  C8  UNL     1       0.821   0.440   0.683  1.00  0.00     0.059 C 
BRANCH  26  27
HETATM   27  C9  UNL     1       1.689  -0.406  -0.163  1.00  0.00     0.041 C 
BRANCH  27  28
HETATM   28  C10 UNL     1       3.122   0.057  -0.150  1.00  0.00     0.177 C 
HETATM   29  N3  UNL     1       3.249   1.394  -0.663  1.00  0.00    -0.346 N 
HETATM   30  C11 UNL     1       4.485   1.806  -1.281  1.00  0.00     0.241 C 
ATOM     31  H3  UNL     1       2.469   2.047  -0.590  1.00  0.00     0.163 HD
HETATM   32  O1  UNL     1       4.624   2.940  -1.774  1.00  0.00    -0.271 OA
HETATM   33  C12 UNL     1       5.604   0.850  -1.324  1.00  0.00     0.180 C 
HETATM   34  N4  UNL     1       5.088  -0.460  -1.672  1.00  0.00    -0.346 N 
HETATM   35  C16 UNL     1       3.884  -0.884  -1.046  1.00  0.00     0.241 C 
ATOM     36  H4  UNL     1       5.572  -1.057  -2.343  1.00  0.00     0.163 HD
HETATM   37  O2  UNL     1       3.492  -2.057  -1.270  1.00  0.00    -0.271 OA
BRANCH  33  38
HETATM   38  C13 UNL     1       6.696   1.245  -2.268  1.00  0.00     0.009 C 
HETATM   39  C14 UNL     1       7.295   2.577  -1.894  1.00  0.00     0.012 C 
HETATM   40  C15 UNL     1       7.796   0.183  -2.136  1.00  0.00     0.012 C 
ENDBRANCH  33  38
ENDBRANCH  27  28
ENDBRANCH  26  27
ENDBRANCH   1  26
TORSDOF 6
