REMARK  5 active torsions:
REMARK  status: ('A' for Active; 'I' for Inactive)
REMARK    1  A    between atoms: C2_2  and  C3_3 
REMARK    2  A    between atoms: C2_2  and  C30_36 
REMARK    3  A    between atoms: C3_3  and  C4_4 
REMARK    4  A    between atoms: C4_4  and  N1_5 
REMARK    5  A    between atoms: C18_22  and  C19_23 
ROOT
HETATM    1  N1  UNL     1       4.107  -0.813  -0.790  1.00  0.00     0.093 N 
HETATM    2  C5  UNL     1       3.321  -1.956  -1.260  1.00  0.00     0.273 C 
HETATM    3  C6  UNL     1       2.325  -2.135  -0.137  1.00  0.00     0.042 C 
HETATM    4  C7  UNL     1       2.197  -0.786   0.499  1.00  0.00    -0.004 C 
HETATM    5  C8  UNL     1       2.851  -0.845   1.877  1.00  0.00     0.018 C 
HETATM    6  C9  UNL     1       3.034   0.089  -0.366  1.00  0.00     0.231 C 
HETATM    7  C10 UNL     1       2.340   0.750  -1.504  1.00  0.00     0.037 C 
HETATM    8  C11 UNL     1       0.950   1.231  -1.140  1.00  0.00     0.008 C 
HETATM    9  C12 UNL     1       0.137   0.031  -0.638  1.00  0.00    -0.001 C 
HETATM   10  C13 UNL     1      -1.312   0.361  -0.524  1.00  0.00    -0.005 C 
HETATM   11  C14 UNL     1      -1.934   0.279  -1.925  1.00  0.00     0.006 C 
HETATM   12  C15 UNL     1      -3.408   0.504  -1.929  1.00  0.00     0.008 C 
HETATM   13  C16 UNL     1      -4.065  -0.475  -0.951  1.00  0.00     0.028 C 
HETATM   14  C17 UNL     1      -5.528  -0.563  -1.040  1.00  0.00     0.237 A 
HETATM   15  N2  UNL     1      -6.168   0.445  -1.900  1.00  0.00    -0.048 N 
ATOM     16  H21 UNL     1      -6.732   0.456  -2.750  1.00  0.00     0.279 HD
ATOM     17  H22 UNL     1      -5.872   1.164  -2.560  1.00  0.00     0.279 HD
HETATM   18  C18 UNL     1      -6.405   0.333  -0.409  1.00  0.00     0.231 A 
HETATM   19  C20 UNL     1      -5.954   1.528   0.306  1.00  0.00     0.051 C 
HETATM   20  C21 UNL     1      -5.049   1.294   1.488  1.00  0.00     0.004 C 
HETATM   21  C22 UNL     1      -3.638   1.142   0.921  1.00  0.00     0.010 C 
HETATM   22  C23 UNL     1      -3.500  -0.259   0.442  1.00  0.00    -0.034 C 
HETATM   23  C24 UNL     1      -4.136  -1.260   1.371  1.00  0.00     0.016 C 
HETATM   24  C25 UNL     1      -2.039  -0.621   0.343  1.00  0.00    -0.002 C 
HETATM   25  C26 UNL     1      -1.393  -0.822   1.686  1.00  0.00     0.006 C 
HETATM   26  C27 UNL     1      -0.004  -1.412   1.383  1.00  0.00     0.011 C 
HETATM   27  C28 UNL     1       0.771  -0.348   0.687  1.00  0.00    -0.031 C 
HETATM   28  C29 UNL     1       0.790   0.887   1.566  1.00  0.00     0.016 C 
ENDROOT
BRANCH   1  29
HETATM   29  C4  UNL     1       4.855  -0.244  -1.889  1.00  0.00     0.273 C 
BRANCH  29  30
HETATM   30  C3  UNL     1       5.791   0.814  -1.406  1.00  0.00     0.043 C 
BRANCH  30  31
HETATM   31  C2  UNL     1       6.874   0.386  -0.494  1.00  0.00     0.072 C 
HETATM   32  C1  UNL     1       6.494  -0.229   0.800  1.00  0.00     0.019 C 
BRANCH  31  33
HETATM   33  C30 UNL     1       7.761   1.564  -0.168  1.00  0.00     0.234 C 
HETATM   34  N4  UNL     1       9.000   1.362   0.512  1.00  0.00    -0.062 NA
HETATM   35  O2  UNL     1       7.356   2.696  -0.521  1.00  0.00    -0.277 OA
ENDBRANCH  31  33
ENDBRANCH  30  31
ENDBRANCH  29  30
ENDBRANCH   1  29
BRANCH  18  36
HETATM   36  C19 UNL     1      -7.784  -0.149  -0.039  1.00  0.00     0.269 C 
HETATM   37  N3  UNL     1      -8.070  -0.287   1.324  1.00  0.00    -0.060 NA
HETATM   38  O1  UNL     1      -8.621  -0.410  -0.910  1.00  0.00    -0.274 OA
ENDBRANCH  18  36
TORSDOF 5
