REMARK  6 active torsions:
REMARK  status: ('A' for Active; 'I' for Inactive)
REMARK    1  A    between atoms: C9_9  and  O1_10 
REMARK    2  A    between atoms: C9_9  and  C10_12 
REMARK    3  A    between atoms: C10_12  and  N1_13 
REMARK       I    between atoms: N1_13  and  C11_15 
REMARK    4  A    between atoms: C11_15  and  C12_17 
REMARK    5  A    between atoms: C19_25  and  C20_26 
REMARK       I    between atoms: C20_26  and  N2_28 
REMARK    6  A    between atoms: N2_28  and  C21_30 
ROOT
HETATM    1  C1  UNL     1       0.188  -3.297  -2.204  1.00  0.00     0.016 C 
HETATM    2  C2  UNL     1      -0.062  -3.289  -0.750  1.00  0.00    -0.032 C 
HETATM    3  C3  UNL     1      -0.576  -4.659  -0.344  1.00  0.00     0.016 C 
HETATM    4  C4  UNL     1      -1.060  -2.286  -0.267  1.00  0.00     0.015 C 
HETATM    5  C5  UNL     1      -0.937  -2.438   1.237  1.00  0.00     0.007 C 
HETATM    6  C6  UNL     1       0.493  -2.943   1.476  1.00  0.00     0.014 C 
HETATM    7  C7  UNL     1       1.144  -2.984   0.116  1.00  0.00     0.003 C 
HETATM    8  C8  UNL     1       2.246  -3.977  -0.019  1.00  0.00     0.020 C 
HETATM    9  C9  UNL     1       1.686  -1.597  -0.171  1.00  0.00     0.142 C 
HETATM   10  C18 UNL     1       0.622  -0.593   0.071  1.00  0.00     0.176 C 
HETATM   11  O3  UNL     1       0.844   0.373   0.764  1.00  0.00    -0.294 OA
HETATM   12  C19 UNL     1      -0.695  -0.870  -0.590  1.00  0.00     0.155 C 
ENDROOT
BRANCH  12  13
HETATM   13  C20 UNL     1      -1.744   0.048  -0.118  1.00  0.00     0.230 C 
HETATM   14  O4  UNL     1      -1.459   0.928   0.714  1.00  0.00    -0.273 OA
HETATM   15  N2  UNL     1      -3.074  -0.045  -0.587  1.00  0.00    -0.351 N 
ATOM     16  H2  UNL     1      -3.281  -0.776  -1.268  1.00  0.00     0.163 HD
BRANCH  15  17
HETATM   17  C21 UNL     1      -4.156   0.806  -0.182  1.00  0.00     0.034 C 
HETATM   18  C22 UNL     1      -3.892   2.277  -0.494  1.00  0.00     0.035 C 
HETATM   19  C23 UNL     1      -5.125   3.073  -0.195  1.00  0.00    -0.012 C 
HETATM   20  C24 UNL     1      -6.337   2.644  -0.952  1.00  0.00     0.009 C 
HETATM   21  C28 UNL     1      -5.359   2.990   1.311  1.00  0.00     0.009 C 
HETATM   22  C25 UNL     1      -6.616   1.200  -0.572  1.00  0.00    -0.012 C 
HETATM   23  C26 UNL     1      -6.878   1.078   0.906  1.00  0.00     0.009 C 
HETATM   24  C30 UNL     1      -5.412   0.396  -0.942  1.00  0.00     0.035 C 
HETATM   25  C27 UNL     1      -5.656   1.554   1.629  1.00  0.00    -0.012 C 
HETATM   26  C29 UNL     1      -4.479   0.696   1.281  1.00  0.00     0.035 C 
ENDBRANCH  15  17
ENDBRANCH  12  13
BRANCH   9  27
HETATM   27  O1  UNL     1       2.055  -1.513  -1.533  1.00  0.00    -0.380 OA
ATOM     28  H1  UNL     1       2.395  -0.644  -1.713  1.00  0.00     0.211 HD
ENDBRANCH   9  27
BRANCH   9  29
HETATM   29  C10 UNL     1       2.918  -1.394   0.674  1.00  0.00     0.169 C 
BRANCH  29  30
HETATM   30  N1  UNL     1       3.498  -0.090   0.380  1.00  0.00    -0.357 N 
HETATM   31  C11 UNL     1       4.664   0.333   1.053  1.00  0.00     0.221 C 
HETATM   32  O2  UNL     1       5.188  -0.430   1.902  1.00  0.00    -0.273 OA
ATOM     33  H1  UNL     1       3.061   0.518  -0.313  1.00  0.00     0.162 HD
BRANCH  31  34
HETATM   34  C12 UNL     1       5.295   1.648   0.794  1.00  0.00     0.078 C 
HETATM   35  C13 UNL     1       6.516   1.836   1.644  1.00  0.00     0.014 C 
HETATM   36  C14 UNL     1       7.651   2.431   0.835  1.00  0.00     0.001 C 
HETATM   37  C15 UNL     1       7.192   3.628   0.032  1.00  0.00     0.000 C 
HETATM   38  C16 UNL     1       6.031   3.292  -0.869  1.00  0.00     0.001 C 
HETATM   39  C17 UNL     1       5.593   1.849  -0.672  1.00  0.00     0.014 C 
ENDBRANCH  31  34
ENDBRANCH  29  30
ENDBRANCH   9  29
TORSDOF 6
