REMARK  6 active torsions:
REMARK  status: ('A' for Active; 'I' for Inactive)
REMARK    1  A    between atoms: C2_2  and  C3_3 
REMARK    2  A    between atoms: C6_6  and  N1_7 
REMARK    3  A    between atoms: C6_6  and  C17_24 
REMARK       I    between atoms: N1_7  and  C7_9 
REMARK       I    between atoms: C7_9  and  N2_11 
REMARK    4  A    between atoms: C11_15  and  C12_16 
REMARK       I    between atoms: C12_16  and  N3_18 
REMARK    5  A    between atoms: N3_18  and  C13_20 
REMARK       I    between atoms: C17_24  and  N4_26 
REMARK    6  A    between atoms: N4_26  and  C18_28 
ROOT
HETATM    1  C3  UNL     1       1.730   4.130   0.366  1.00  0.00    -0.015 C 
HETATM    2  C4  UNL     1       2.306   2.960   1.104  1.00  0.00     0.007 C 
HETATM    3  C5  UNL     1       1.232   1.978   1.494  1.00  0.00     0.041 C 
HETATM    4  C6  UNL     1       0.510   1.395   0.280  1.00  0.00     0.115 C 
HETATM    5  C27 UNL     1       0.994   2.125  -0.928  1.00  0.00     0.041 C 
HETATM    6  C28 UNL     1       0.890   3.628  -0.787  1.00  0.00     0.007 C 
ENDROOT
BRANCH   4   7
HETATM    7  N1  UNL     1      -0.899   1.496   0.511  1.00  0.00    -0.325 N 
HETATM    8  C7  UNL     1      -1.894   1.105  -0.411  1.00  0.00     0.320 C 
HETATM    9  O1  UNL     1      -1.646   0.624  -1.548  1.00  0.00    -0.247 OA
HETATM   10  N2  UNL     1      -3.279   1.240  -0.086  1.00  0.00    -0.321 N 
HETATM   11  C8  UNL     1      -3.792   1.769   1.152  1.00  0.00     0.129 C 
HETATM   12  C11 UNL     1      -4.420   0.879  -0.898  1.00  0.00     0.181 C 
HETATM   13  C9  UNL     1      -4.943   2.655   0.639  1.00  0.00     0.022 C 
HETATM   14  C10 UNL     1      -5.453   1.915  -0.575  1.00  0.00     0.037 C 
ATOM     15  H1  UNL     1      -1.206   1.878   1.406  1.00  0.00     0.165 HD
BRANCH  12  16
HETATM   16  C12 UNL     1      -4.983  -0.462  -0.529  1.00  0.00     0.241 C 
HETATM   17  O2  UNL     1      -6.062  -0.834  -1.070  1.00  0.00    -0.271 OA
HETATM   18  N3  UNL     1      -4.347  -1.326   0.404  1.00  0.00    -0.351 N 
ATOM     19  H3  UNL     1      -3.475  -1.040   0.848  1.00  0.00     0.163 HD
BRANCH  18  20
HETATM   20  C13 UNL     1      -4.933  -2.612   0.727  1.00  0.00     0.022 C 
HETATM   21  C14 UNL     1      -4.081  -3.345   1.740  1.00  0.00     0.037 C 
HETATM   22  C15 UNL     1      -4.944  -3.471  -0.524  1.00  0.00     0.037 C 
HETATM   23  C16 UNL     1      -6.328  -2.397   1.273  1.00  0.00     0.037 C 
ENDBRANCH  18  20
ENDBRANCH  12  16
ENDBRANCH   4   7
BRANCH   4  24
HETATM   24  C17 UNL     1       0.886  -0.040   0.114  1.00  0.00     0.246 C 
HETATM   25  O3  UNL     1      -0.029  -0.892   0.229  1.00  0.00    -0.271 OA
HETATM   26  N4  UNL     1       2.189  -0.476  -0.161  1.00  0.00    -0.354 N 
ATOM     27  H4  UNL     1       2.943   0.204  -0.259  1.00  0.00     0.162 HD
BRANCH  26  28
HETATM   28  C18 UNL     1       2.467  -1.882  -0.306  1.00  0.00     0.084 C 
HETATM   29  C19 UNL     1       3.416  -2.412   0.722  1.00  0.00     0.026 C 
HETATM   30  C20 UNL     1       4.878  -2.203   0.464  1.00  0.00     0.008 C 
HETATM   31  C21 UNL     1       5.095  -2.006  -0.967  1.00  0.00    -0.001 A 
HETATM   32  C22 UNL     1       4.104  -3.041  -1.611  1.00  0.00     0.000 A 
HETATM   33  C24 UNL     1       5.443  -2.872  -2.033  1.00  0.00    -0.040 A 
HETATM   34  C23 UNL     1       2.878  -2.235  -1.742  1.00  0.00     0.031 C 
HETATM   35  C25 UNL     1       5.676  -2.276  -3.421  1.00  0.00     0.015 C 
HETATM   36  C26 UNL     1       6.436  -4.003  -1.759  1.00  0.00     0.015 C 
ENDBRANCH  26  28
ENDBRANCH   4  24
BRANCH   1  37
HETATM   37  C2  UNL     1       0.891   5.016   1.257  1.00  0.00     0.000 C 
HETATM   38  C1  UNL     1       1.691   5.579   2.404  1.00  0.00     0.005 C 
ENDBRANCH   1  37
TORSDOF 6
