REMARK  7 active torsions:
REMARK  status: ('A' for Active; 'I' for Inactive)
REMARK    1  A    between atoms: C2_2  and  C5_5 
REMARK    2  A    between atoms: C5_5  and  C6_6 
REMARK       I    between atoms: C6_6  and  N1_8 
REMARK    3  A    between atoms: C9_11  and  N2_12 
REMARK    4  A    between atoms: C9_11  and  C17_24 
REMARK       I    between atoms: N2_12  and  C10_14 
REMARK       I    between atoms: C10_14  and  N3_16 
REMARK    5  A    between atoms: N3_16  and  C11_18 
REMARK       I    between atoms: C17_24  and  N4_26 
REMARK    6  A    between atoms: N4_26  and  C18_28 
REMARK    7  A    between atoms: C18_28  and  C19_29 
ROOT
HETATM    1  C6  UNL     1       1.395   2.222   0.971  1.00  0.00     0.222 C 
HETATM    2  O1  UNL     1       1.379   2.471  -0.280  1.00  0.00    -0.273 OA
HETATM    3  N1  UNL     1       0.826   1.001   1.459  1.00  0.00    -0.317 N 
HETATM    4  C7  UNL     1       0.683   0.394   2.737  1.00  0.00     0.133 C 
HETATM    5  C8  UNL     1       0.360  -0.914   2.095  1.00  0.00     0.084 C 
HETATM    6  C9  UNL     1       0.157  -0.126   0.861  1.00  0.00     0.196 C 
ENDROOT
BRANCH   6   7
HETATM    7  N2  UNL     1       0.942  -0.701  -0.251  1.00  0.00    -0.308 N 
HETATM    8  C10 UNL     1       2.322  -0.802  -0.188  1.00  0.00     0.318 C 
HETATM    9  O2  UNL     1       2.974  -0.396   0.832  1.00  0.00    -0.247 OA
HETATM   10  N3  UNL     1       3.123  -1.354  -1.223  1.00  0.00    -0.338 N 
ATOM     11  H3  UNL     1       2.657  -1.698  -2.062  1.00  0.00     0.164 HD
ATOM     12  H2  UNL     1       0.456  -1.031  -1.085  1.00  0.00     0.167 HD
BRANCH  10  13
HETATM   13  C11 UNL     1       4.559  -1.454  -1.151  1.00  0.00     0.086 C 
HETATM   14  C12 UNL     1       4.904  -2.930  -1.041  1.00  0.00     0.025 C 
HETATM   15  C13 UNL     1       6.432  -2.965  -0.899  1.00  0.00     0.002 C 
HETATM   16  C14 UNL     1       7.004  -2.620  -2.235  1.00  0.00     0.000 C 
HETATM   17  C15 UNL     1       6.087  -1.802  -3.102  1.00  0.00     0.002 C 
HETATM   18  C16 UNL     1       5.274  -0.806  -2.307  1.00  0.00     0.025 C 
ENDBRANCH  10  13
ENDBRANCH   6   7
BRANCH   6  19
HETATM   19  C17 UNL     1      -1.242   0.152   0.413  1.00  0.00     0.271 C 
HETATM   20  O3  UNL     1      -1.471   0.295  -0.806  1.00  0.00    -0.268 OA
HETATM   21  N4  UNL     1      -2.261   0.243   1.358  1.00  0.00    -0.336 N 
ATOM     22  H4  UNL     1      -1.963   0.117   2.325  1.00  0.00     0.168 HD
BRANCH  21  23
HETATM   23  C18 UNL     1      -3.629   0.480   1.189  1.00  0.00     0.073 C 
BRANCH  23  24
HETATM   24  C19 UNL     1      -4.538  -0.464   0.504  1.00  0.00    -0.007 C 
HETATM   25  C20 UNL     1      -4.288  -0.822  -0.909  1.00  0.00     0.019 C 
HETATM   26  C21 UNL     1      -5.451  -1.647  -1.457  1.00  0.00    -0.013 C 
HETATM   27  C22 UNL     1      -5.529  -2.972  -0.695  1.00  0.00     0.009 C 
HETATM   28  C26 UNL     1      -6.780  -0.969  -1.331  1.00  0.00     0.009 C 
HETATM   29  C23 UNL     1      -5.723  -2.638   0.748  1.00  0.00    -0.013 C 
HETATM   30  C24 UNL     1      -7.027  -1.906   0.995  1.00  0.00     0.009 C 
HETATM   31  C28 UNL     1      -4.618  -1.776   1.285  1.00  0.00     0.019 C 
HETATM   32  C25 UNL     1      -7.022  -0.677   0.140  1.00  0.00    -0.013 C 
HETATM   33  C27 UNL     1      -5.924   0.234   0.577  1.00  0.00     0.019 C 
ENDBRANCH  23  24
ENDBRANCH  21  23
ENDBRANCH   6  19
BRANCH   1  34
HETATM   34  C5  UNL     1       2.017   3.243   1.844  1.00  0.00     0.111 C 
BRANCH  34  35
HETATM   35  C2  UNL     1       2.642   4.364   1.033  1.00  0.00    -0.043 C 
HETATM   36  C1  UNL     1       3.712   3.764   0.139  1.00  0.00     0.015 C 
HETATM   37  C3  UNL     1       1.556   5.027   0.228  1.00  0.00     0.015 C 
HETATM   38  C4  UNL     1       3.258   5.347   2.005  1.00  0.00     0.015 C 
ENDBRANCH  34  35
ENDBRANCH   1  34
TORSDOF 7
