REMARK  7 active torsions:
REMARK  status: ('A' for Active; 'I' for Inactive)
REMARK    1  A    between atoms: C7_7  and  C16_19 
REMARK    2  A    between atoms: C19_22  and  C20_23 
REMARK       I    between atoms: C20_23  and  N2_25 
REMARK    3  A    between atoms: N2_25  and  C21_27 
REMARK    4  A    between atoms: C21_27  and  C22_28 
REMARK    5  A    between atoms: C21_27  and  C26_32 
REMARK    6  A    between atoms: C22_28  and  C23_29 
REMARK    7  A    between atoms: C27_35  and  C29_37 
ROOT
HETATM    1  C16 UNL     1      -1.934  -2.824   0.289  1.00  0.00    -0.009 C 
HETATM    2  C17 UNL     1      -1.081  -3.358  -0.812  1.00  0.00     0.009 C 
HETATM    3  C18 UNL     1       0.126  -2.523  -1.139  1.00  0.00     0.041 C 
HETATM    4  C19 UNL     1       0.824  -2.258   0.169  1.00  0.00    -0.007 C 
HETATM    5  C27 UNL     1      -0.095  -1.604   1.155  1.00  0.00     0.029 C 
HETATM    6  C28 UNL     1      -1.097  -2.680   1.513  1.00  0.00     0.015 C 
ENDROOT
BRANCH   4   7
HETATM    7  C20 UNL     1       2.189  -1.811   0.076  1.00  0.00     0.244 C 
HETATM    8  O2  UNL     1       3.058  -2.361   0.841  1.00  0.00    -0.268 OA
HETATM    9  N2  UNL     1       2.716  -0.813  -0.778  1.00  0.00    -0.343 N 
ATOM     10  H2  UNL     1       2.075  -0.333  -1.410  1.00  0.00     0.163 HD
BRANCH   9  11
HETATM   11  C21 UNL     1       4.134  -0.429  -0.806  1.00  0.00     0.186 C 
BRANCH  11  12
HETATM   12  C22 UNL     1       4.246   0.973  -0.294  1.00  0.00     0.040 C 
BRANCH  12  13
HETATM   13  C23 UNL     1       5.620   1.543  -0.243  1.00  0.00    -0.020 C 
HETATM   14  C24 UNL     1       6.561   0.768   0.631  1.00  0.00     0.009 C 
HETATM   15  C25 UNL     1       5.470   2.929   0.418  1.00  0.00     0.009 C 
ENDBRANCH  12  13
ENDBRANCH  11  12
BRANCH  11  16
HETATM   16  C26 UNL     1       4.724  -0.679  -2.115  1.00  0.00     0.196 C 
HETATM   17  O3  UNL     1       3.996  -1.144  -3.035  1.00  0.00    -0.646 OA
HETATM   18  O4  UNL     1       6.041  -0.435  -2.401  1.00  0.00    -0.646 OA
ENDBRANCH  11  16
ENDBRANCH   9  11
ENDBRANCH   4   7
BRANCH   5  19
HETATM   19  C29 UNL     1      -0.704  -0.307   0.770  1.00  0.00     0.032 C 
HETATM   20  C2  UNL     1      -0.184   0.699   1.734  1.00  0.00    -0.084 C 
HETATM   21  C1  UNL     1       0.818   1.539   1.463  1.00  0.00     0.015 C 
HETATM   22  C3  UNL     1      -0.762   0.769   3.065  1.00  0.00     0.034 C 
HETATM   23  C4  UNL     1      -2.175   0.396   3.137  1.00  0.00     0.005 C 
HETATM   24  C5  UNL     1      -2.905  -0.059   1.990  1.00  0.00     0.012 C 
HETATM   25  C6  UNL     1      -2.225  -0.294   0.639  1.00  0.00    -0.019 C 
HETATM   26  C7  UNL     1      -2.719  -1.609   0.047  1.00  0.00    -0.000 C 
HETATM   27  C14 UNL     1      -2.718   0.871  -0.223  1.00  0.00    -0.014 C 
HETATM   28  C8  UNL     1      -3.182  -1.638  -1.353  1.00  0.00     0.008 C 
HETATM   29  C9  UNL     1      -3.997  -0.506  -1.835  1.00  0.00     0.026 C 
HETATM   30  C10 UNL     1      -4.110   0.436  -0.629  1.00  0.00     0.093 C 
HETATM   31  N1  UNL     1      -5.020   1.446  -1.008  1.00  0.00    -0.356 N 
HETATM   32  C11 UNL     1      -4.898   2.791  -0.579  1.00  0.00     0.217 C 
ATOM     33  H1  UNL     1      -5.799   1.197  -1.617  1.00  0.00     0.162 HD
HETATM   34  O1  UNL     1      -5.912   3.534  -0.431  1.00  0.00    -0.274 OA
HETATM   35  C12 UNL     1      -3.525   3.233  -0.328  1.00  0.00     0.103 C 
HETATM   36  C13 UNL     1      -2.714   2.196   0.449  1.00  0.00     0.021 C 
HETATM   37  C15 UNL     1      -1.869   1.102  -1.462  1.00  0.00     0.018 C 
ENDBRANCH   5  19
TORSDOF 7
