REMARK  12 active torsions:
REMARK  status: ('A' for Active; 'I' for Inactive)
REMARK    1  A    between atoms: C3_3  and  C4_4 
REMARK    2  A    between atoms: C4_4  and  C5_6 
REMARK    3  A    between atoms: C5_6  and  C6_7 
REMARK    4  A    between atoms: C6_7  and  C7_8 
REMARK    5  A    between atoms: C7_8  and  C8_9 
REMARK    6  A    between atoms: C8_9  and  C9_10 
REMARK    7  A    between atoms: C9_10  and  C10_11 
REMARK    8  A    between atoms: C15_16  and  O2_17 
REMARK    9  A    between atoms: C19_22  and  O3_23 
REMARK   10  A    between atoms: C20_25  and  O4_26 
REMARK   11  A    between atoms: C21_28  and  O5_29 
REMARK   12  A    between atoms: C24_33  and  O6_34 
ROOT
HETATM    1  C1  UNL     1      -0.616   3.005   1.917  1.00  0.00     0.015 C 
HETATM    2  C2  UNL     1      -0.448   2.274   0.813  1.00  0.00    -0.072 C 
HETATM    3  C3  UNL     1       0.822   1.638   0.298  1.00  0.00     0.092 C 
HETATM    4  C12 UNL     1      -0.011   0.847  -0.654  1.00  0.00    -0.020 C 
HETATM    5  C13 UNL     1       0.388   0.987  -2.131  1.00  0.00     0.017 C 
HETATM    6  C14 UNL     1      -0.182  -0.604  -0.338  1.00  0.00     0.043 C 
HETATM    7  C15 UNL     1      -1.572  -1.103  -0.671  1.00  0.00     0.126 C 
HETATM    8  C16 UNL     1      -2.493  -0.328   0.270  1.00  0.00     0.057 C 
HETATM    9  C17 UNL     1      -2.474   1.100  -0.187  1.00  0.00     0.006 C 
HETATM   10  C18 UNL     1      -3.428   1.845   0.736  1.00  0.00     0.041 C 
HETATM   11  C19 UNL     1      -4.844   1.362   0.491  1.00  0.00     0.158 C 
HETATM   12  C20 UNL     1      -4.959  -0.130   0.759  1.00  0.00     0.140 C 
HETATM   13  C21 UNL     1      -6.207  -0.680   0.133  1.00  0.00     0.158 C 
HETATM   14  C22 UNL     1      -5.783  -1.537  -1.039  1.00  0.00     0.038 C 
HETATM   15  C23 UNL     1      -4.315  -1.145  -1.256  1.00  0.00     0.044 C 
HETATM   16  C24 UNL     1      -3.861  -0.925   0.148  1.00  0.00     0.100 C 
HETATM   17  C25 UNL     1      -1.160   1.735  -0.342  1.00  0.00     0.028 C 
ENDROOT
BRANCH   3  18
HETATM   18  C4  UNL     1       1.530   0.934   1.370  1.00  0.00     0.135 C 
HETATM   19  O1  UNL     1       0.992   0.919   2.493  1.00  0.00    -0.297 OA
BRANCH  18  20
HETATM   20  C5  UNL     1       2.820   0.234   1.271  1.00  0.00     0.079 C 
BRANCH  20  21
HETATM   21  C6  UNL     1       3.475   0.282  -0.078  1.00  0.00     0.007 C 
BRANCH  21  22
HETATM   22  C7  UNL     1       4.796  -0.499   0.078  1.00  0.00     0.000 C 
BRANCH  22  23
HETATM   23  C8  UNL     1       5.559  -0.533  -1.203  1.00  0.00     0.000 C 
BRANCH  23  24
HETATM   24  C9  UNL     1       6.836  -1.308  -1.007  1.00  0.00    -0.000 C 
BRANCH  24  25
HETATM   25  C10 UNL     1       7.729  -0.702   0.039  1.00  0.00    -0.005 C 
HETATM   26  C11 UNL     1       8.986  -1.545   0.159  1.00  0.00     0.005 C 
ENDBRANCH  24  25
ENDBRANCH  23  24
ENDBRANCH  22  23
ENDBRANCH  21  22
ENDBRANCH  20  21
ENDBRANCH  18  20
ENDBRANCH   3  18
BRANCH   7  27
HETATM   27  O2  UNL     1      -1.606  -2.456  -0.296  1.00  0.00    -0.395 OA
ATOM     28  H2  UNL     1      -2.478  -2.769  -0.505  1.00  0.00     0.210 HD
ENDBRANCH   7  27
BRANCH  16  29
HETATM   29  O6  UNL     1      -3.845  -2.177   0.781  1.00  0.00    -0.386 OA
ATOM     30  H6  UNL     1      -4.713  -2.556   0.704  1.00  0.00     0.210 HD
ENDBRANCH  16  29
BRANCH  11  31
HETATM   31  O3  UNL     1      -5.663   2.004   1.424  1.00  0.00    -0.392 OA
ATOM     32  H3  UNL     1      -6.550   1.701   1.270  1.00  0.00     0.210 HD
ENDBRANCH  11  31
BRANCH  12  33
HETATM   33  O4  UNL     1      -4.997  -0.395   2.138  1.00  0.00    -0.381 OA
ATOM     34  H4  UNL     1      -5.069  -1.327   2.305  1.00  0.00     0.211 HD
ENDBRANCH  12  33
BRANCH  13  35
HETATM   35  O5  UNL     1      -7.079   0.288  -0.322  1.00  0.00    -0.392 OA
ATOM     36  H5  UNL     1      -7.869  -0.060  -0.718  1.00  0.00     0.210 HD
ENDBRANCH  13  35
TORSDOF 12
