REMARK  11 active torsions:
REMARK  status: ('A' for Active; 'I' for Inactive)
REMARK       I    between atoms: C2_2  and  N1_4 
REMARK    1  A    between atoms: N1_4  and  C3_6 
REMARK    2  A    between atoms: C3_6  and  C4_7 
REMARK    3  A    between atoms: C3_6  and  C13_16 
REMARK    4  A    between atoms: C5_8  and  C6_9 
REMARK    5  A    between atoms: C6_9  and  C8_11 
REMARK    6  A    between atoms: C8_11  and  C9_12 
REMARK    7  A    between atoms: C9_12  and  C10_13 
REMARK    8  A    between atoms: C19_23  and  O3_25 
REMARK    9  A    between atoms: C21_27  and  O4_28 
REMARK   10  A    between atoms: C23_31  and  O5_32 
REMARK   11  A    between atoms: C24_34  and  O6_35 
ROOT
HETATM    1  C13 UNL     1      -1.378  -0.067   0.082  1.00  0.00     0.051 C 
HETATM    2  C14 UNL     1      -2.699  -0.629  -0.389  1.00  0.00     0.012 C 
HETATM    3  C15 UNL     1      -2.613  -1.547  -1.549  1.00  0.00     0.012 C 
HETATM    4  C16 UNL     1      -3.665   0.508  -0.557  1.00  0.00     0.078 C 
HETATM    5  C17 UNL     1      -2.985   1.664  -1.254  1.00  0.00     0.144 C 
HETATM    6  O2  UNL     1      -3.478   2.761  -1.206  1.00  0.00    -0.297 OA
HETATM    7  C18 UNL     1      -1.736   1.348  -1.959  1.00  0.00     0.117 C 
HETATM    8  C19 UNL     1      -0.740   0.831  -0.937  1.00  0.00     0.067 C 
HETATM    9  C20 UNL     1      -0.092   2.062  -0.330  1.00  0.00     0.047 C 
HETATM   10  C21 UNL     1      -4.248   0.979   0.763  1.00  0.00     0.139 C 
HETATM   11  C22 UNL     1      -5.473   1.742   0.381  1.00  0.00     0.067 C 
HETATM   12  C23 UNL     1      -5.892   1.237  -0.968  1.00  0.00     0.150 C 
HETATM   13  C24 UNL     1      -4.870   0.176  -1.368  1.00  0.00     0.165 C 
ENDROOT
BRANCH   1  14
HETATM   14  C3  UNL     1      -0.409  -1.143   0.497  1.00  0.00     0.114 C 
BRANCH  14  15
HETATM   15  N1  UNL     1      -0.906  -1.966   1.563  1.00  0.00    -0.353 N 
HETATM   16  C2  UNL     1      -0.982  -3.373   1.461  1.00  0.00     0.214 C 
HETATM   17  C1  UNL     1      -1.494  -4.229   2.560  1.00  0.00     0.117 C 
HETATM   18  O1  UNL     1      -0.607  -3.946   0.408  1.00  0.00    -0.274 OA
ATOM     19  H1  UNL     1      -1.216  -1.519   2.426  1.00  0.00     0.163 HD
ENDBRANCH  14  15
BRANCH  14  20
HETATM   20  C4  UNL     1       0.865  -0.449   0.922  1.00  0.00    -0.005 C 
HETATM   21  C5  UNL     1       2.050  -0.881   0.550  1.00  0.00    -0.024 C 
BRANCH  21  22
HETATM   22  C6  UNL     1       3.293  -0.186   0.976  1.00  0.00     0.004 C 
HETATM   23  C7  UNL     1       4.194  -1.194   1.691  1.00  0.00     0.014 C 
BRANCH  22  24
HETATM   24  C8  UNL     1       4.060   0.295  -0.239  1.00  0.00     0.008 C 
BRANCH  24  25
HETATM   25  C9  UNL     1       5.315   0.992   0.287  1.00  0.00     0.004 C 
BRANCH  25  26
HETATM   26  C10 UNL     1       6.123   1.495  -0.880  1.00  0.00    -0.023 C 
HETATM   27  C11 UNL     1       7.359   2.180  -0.290  1.00  0.00     0.009 C 
HETATM   28  C12 UNL     1       6.657   0.254  -1.604  1.00  0.00     0.009 C 
ENDBRANCH  25  26
ENDBRANCH  24  25
ENDBRANCH  22  24
ENDBRANCH  21  22
ENDBRANCH  14  20
ENDBRANCH   1  14
BRANCH   8  29
HETATM   29  O3  UNL     1       0.255   0.188  -1.697  1.00  0.00    -0.389 OA
ATOM     30  H3  UNL     1       0.659   0.757  -2.342  1.00  0.00     0.210 HD
ENDBRANCH   8  29
BRANCH  10  31
HETATM   31  O4  UNL     1      -4.644  -0.156   1.469  1.00  0.00    -0.394 OA
ATOM     32  H4  UNL     1      -5.009   0.139   2.295  1.00  0.00     0.210 HD
ENDBRANCH  10  31
BRANCH  13  33
HETATM   33  O6  UNL     1      -5.373  -1.096  -1.118  1.00  0.00    -0.392 OA
ATOM     34  H6  UNL     1      -6.141  -1.308  -1.635  1.00  0.00     0.210 HD
ENDBRANCH  13  33
BRANCH  12  35
HETATM   35  O5  UNL     1      -7.137   0.582  -0.900  1.00  0.00    -0.393 OA
ATOM     36  H5  UNL     1      -7.402   0.262  -1.754  1.00  0.00     0.210 HD
ENDBRANCH  12  35
TORSDOF 11
