REMARK  12 active torsions:
REMARK  status: ('A' for Active; 'I' for Inactive)
REMARK    1  A    between atoms: C2_2  and  C3_3 
REMARK    2  A    between atoms: C2_2  and  C17_19 
REMARK    3  A    between atoms: C3_3  and  C4_4 
REMARK    4  A    between atoms: C4_4  and  C5_5 
REMARK    5  A    between atoms: C11_11  and  O1_12 
REMARK    6  A    between atoms: C17_19  and  N1_20 
REMARK    7  A    between atoms: C20_23  and  N2_24 
REMARK    8  A    between atoms: C21_28  and  O2_29 
REMARK    9  A    between atoms: C21_28  and  C22_31 
REMARK   10  A    between atoms: C22_31  and  O3_32 
REMARK   11  A    between atoms: C24_35  and  C25_36 
REMARK   12  A    between atoms: C25_36  and  O4_37 
ROOT
HETATM    1  N1  UNL     1      -3.301   0.385   0.070  1.00  0.00    -0.367 N 
HETATM    2  C18 UNL     1      -3.846   1.314   0.960  1.00  0.00     0.066 C 
HETATM    3  C19 UNL     1      -5.078   2.038   0.434  1.00  0.00     0.080 C 
HETATM    4  C20 UNL     1      -6.298   1.254   0.831  1.00  0.00     0.224 C 
HETATM    5  C21 UNL     1      -6.470   0.024  -0.039  1.00  0.00     0.109 C 
HETATM    6  C23 UNL     1      -5.374  -0.916   0.311  1.00  0.00     0.070 C 
HETATM    7  C24 UNL     1      -4.072  -0.677  -0.424  1.00  0.00     0.114 C 
ENDROOT
BRANCH   1   8
HETATM    8  C17 UNL     1      -1.966   0.448  -0.329  1.00  0.00     0.068 C 
BRANCH   8   9
HETATM    9  C2  UNL     1      -0.903   0.101   0.692  1.00  0.00     0.020 C 
HETATM   10  C1  UNL     1      -0.885   0.976   1.899  1.00  0.00     0.015 C 
BRANCH   9  11
HETATM   11  C3  UNL     1       0.417   0.168  -0.017  1.00  0.00     0.014 C 
BRANCH  11  12
HETATM   12  C4  UNL     1       1.601  -0.258   0.775  1.00  0.00     0.035 C 
BRANCH  12  13
HETATM   13  C5  UNL     1       2.869  -0.213   0.023  1.00  0.00    -0.079 C 
HETATM   14  C6  UNL     1       2.993   0.158  -1.224  1.00  0.00    -0.023 C 
HETATM   15  C7  UNL     1       4.275   0.200  -1.975  1.00  0.00     0.033 C 
HETATM   16  C8  UNL     1       5.440  -0.392  -1.265  1.00  0.00     0.004 C 
HETATM   17  C9  UNL     1       6.255   0.754  -0.695  1.00  0.00     0.015 C 
HETATM   18  C14 UNL     1       5.006  -1.363  -0.219  1.00  0.00    -0.036 C 
HETATM   19  C10 UNL     1       7.687   0.368  -0.430  1.00  0.00     0.013 C 
HETATM   20  C11 UNL     1       5.575   1.415   0.461  1.00  0.00     0.122 C 
HETATM   21  C12 UNL     1       4.831   0.514   1.381  1.00  0.00     0.042 C 
HETATM   22  C13 UNL     1       4.118  -0.631   0.751  1.00  0.00     0.025 C 
HETATM   23  C15 UNL     1       4.126  -2.398  -0.916  1.00  0.00     0.016 C 
HETATM   24  C16 UNL     1       6.096  -2.097   0.478  1.00  0.00     0.016 C 
BRANCH  20  25
HETATM   25  O1  UNL     1       6.553   2.091   1.199  1.00  0.00    -0.395 OA
ATOM     26  H1  UNL     1       6.121   2.511   1.933  1.00  0.00     0.210 HD
ENDBRANCH  20  25
ENDBRANCH  12  13
ENDBRANCH  11  12
ENDBRANCH   9  11
ENDBRANCH   8   9
ENDBRANCH   1   8
BRANCH   7  27
HETATM   27  C25 UNL     1      -3.295  -1.991  -0.251  1.00  0.00     0.189 C 
BRANCH  27  28
HETATM   28  O4  UNL     1      -4.057  -3.058  -0.739  1.00  0.00    -0.399 OA
ATOM     29  H4  UNL     1      -3.577  -3.871  -0.632  1.00  0.00     0.209 HD
ENDBRANCH  27  28
ENDBRANCH   7  27
BRANCH   4  30
HETATM   30  N2  UNL     1      -7.496   2.069   0.859  1.00  0.00    -0.072 N 
ATOM     31  H23 UNL     1      -7.372   2.884   1.460  1.00  0.00     0.274 HD
ATOM     32  H22 UNL     1      -7.638   2.543  -0.033  1.00  0.00     0.274 HD
ATOM     33  H21 UNL     1      -8.324   1.537   1.128  1.00  0.00     0.274 HD
ENDBRANCH   4  30
BRANCH   5  34
HETATM   34  O2  UNL     1      -7.676  -0.582   0.344  1.00  0.00    -0.385 OA
ATOM     35  H2  UNL     1      -7.784  -1.353  -0.201  1.00  0.00     0.210 HD
ENDBRANCH   5  34
BRANCH   5  36
HETATM   36  C22 UNL     1      -6.579   0.363  -1.490  1.00  0.00     0.204 C 
BRANCH  36  37
HETATM   37  O3  UNL     1      -7.635   1.233  -1.757  1.00  0.00    -0.398 OA
ATOM     38  H3  UNL     1      -7.704   1.449  -2.680  1.00  0.00     0.209 HD
ENDBRANCH  36  37
ENDBRANCH   5  36
TORSDOF 12
