REMARK  5 active torsions:
REMARK  status: ('A' for Active; 'I' for Inactive)
REMARK    1  A    between atoms: C2_2  and  C3_3 
REMARK       I    between atoms: C3_3  and  N1_5 
REMARK    2  A    between atoms: N1_5  and  S1_7 
REMARK    3  A    between atoms: C14_21  and  C15_22 
REMARK       I    between atoms: C15_22  and  N2_24 
REMARK    4  A    between atoms: N2_24  and  C16_26 
REMARK    5  A    between atoms: C16_26  and  C17_27 
ROOT
HETATM    1  C1  UNL     1      -4.651  -1.136   0.834  1.00  0.00     0.026 C 
HETATM    2  C2  UNL     1      -4.111  -0.333  -0.294  1.00  0.00     0.042 C 
HETATM    3  C4  UNL     1      -3.867  -1.334  -1.443  1.00  0.00     0.020 C 
HETATM    4  C5  UNL     1      -2.569  -1.950  -0.861  1.00  0.00     0.007 C 
HETATM    5  C6  UNL     1      -1.806  -0.672  -0.702  1.00  0.00    -0.004 C 
HETATM    6  C7  UNL     1      -2.748   0.287  -0.050  1.00  0.00     0.007 C 
HETATM    7  C8  UNL     1      -2.499   0.753   1.307  1.00  0.00     0.007 C 
HETATM    8  C9  UNL     1      -1.172   0.497   1.932  1.00  0.00     0.010 C 
HETATM    9  C10 UNL     1      -0.427  -0.664   1.420  1.00  0.00    -0.036 C 
HETATM   10  C11 UNL     1      -0.886  -1.983   2.043  1.00  0.00     0.016 C 
HETATM   11  C12 UNL     1       1.051  -0.697   1.616  1.00  0.00    -0.001 C 
HETATM   12  C13 UNL     1       1.889   0.409   1.181  1.00  0.00     0.020 C 
HETATM   13  C14 UNL     1       3.188  -0.255   0.747  1.00  0.00     0.078 C 
HETATM   14  C20 UNL     1       2.834  -1.699   0.409  1.00  0.00     0.019 C 
HETATM   15  C21 UNL     1       1.392  -1.895   0.694  1.00  0.00    -0.009 C 
HETATM   16  C22 UNL     1       0.456  -1.762  -0.464  1.00  0.00     0.011 C 
HETATM   17  C23 UNL     1      -0.490  -0.697  -0.079  1.00  0.00    -0.001 C 
ENDROOT
BRANCH   2  18
HETATM   18  C3  UNL     1      -5.107   0.645  -0.805  1.00  0.00     0.241 C 
HETATM   19  O1  UNL     1      -5.462   0.676  -2.026  1.00  0.00    -0.272 OA
HETATM   20  N1  UNL     1      -5.699   1.586   0.065  1.00  0.00    -0.235 N 
ATOM     21  H1  UNL     1      -5.427   1.578   1.048  1.00  0.00     0.184 HD
BRANCH  20  22
HETATM   22  S1  UNL     1      -6.856   2.743  -0.457  1.00  0.00     0.211 S 
HETATM   23  O2  UNL     1      -7.405   3.442   0.765  1.00  0.00    -0.578 OA
HETATM   24  O3  UNL     1      -6.174   3.784  -1.309  1.00  0.00    -0.578 OA
HETATM   25  O4  UNL     1      -8.090   2.053  -1.378  1.00  0.00    -0.578 OA
ENDBRANCH  20  22
ENDBRANCH   2  18
BRANCH  13  26
HETATM   26  C15 UNL     1       3.817   0.390  -0.423  1.00  0.00     0.221 C 
HETATM   27  O5  UNL     1       3.177   0.570  -1.517  1.00  0.00    -0.273 OA
HETATM   28  N2  UNL     1       5.167   0.819  -0.338  1.00  0.00    -0.360 N 
ATOM     29  H2  UNL     1       5.693   0.690   0.526  1.00  0.00     0.162 HD
BRANCH  28  30
HETATM   30  C16 UNL     1       5.783   1.432  -1.470  1.00  0.00     0.127 C 
BRANCH  30  31
HETATM   31  C17 UNL     1       7.184   1.876  -1.276  1.00  0.00     0.003 A 
HETATM   32  C18 UNL     1       8.252   0.916  -0.894  1.00  0.00     0.007 A 
HETATM   33  C19 UNL     1       7.839   2.007   0.069  1.00  0.00     0.007 A 
ENDBRANCH  30  31
ENDBRANCH  28  30
ENDBRANCH  13  26
TORSDOF 5
