REMARK  8 active torsions:
REMARK  status: ('A' for Active; 'I' for Inactive)
REMARK    1  A    between atoms: C5_5  and  N1_6 
REMARK    2  A    between atoms: N1_6  and  C6_8 
REMARK    3  A    between atoms: C6_8  and  C7_9 
REMARK    4  A    between atoms: C7_9  and  N2_10 
REMARK    5  A    between atoms: N2_10  and  C8_13 
REMARK    6  A    between atoms: C8_13  and  C9_14 
REMARK    7  A    between atoms: C9_14  and  C10_15 
REMARK    8  A    between atoms: C10_15  and  C11_16 
ROOT
HETATM    1  C7  UNL     1      -0.066  -1.420   2.021  1.00  0.00     0.251 C 
ENDROOT
BRANCH   1   2
HETATM    2  C6  UNL     1      -0.985  -2.229   1.175  1.00  0.00     0.147 C 
BRANCH   2   3
HETATM    3  N1  UNL     1      -1.743  -1.457   0.200  1.00  0.00    -0.388 N 
ATOM      4  H1  UNL     1      -1.489  -1.551  -0.783  1.00  0.00     0.159 HD
BRANCH   3   5
HETATM    5  C5  UNL     1      -2.800  -0.593   0.524  1.00  0.00     0.039 A 
HETATM    6  C4  UNL     1      -3.367   0.230  -0.447  1.00  0.00     0.001 A 
HETATM    7  C3  UNL     1      -2.902   0.256  -1.740  1.00  0.00     0.014 A 
HETATM    8  C17 UNL     1      -4.439   1.062  -0.121  1.00  0.00    -0.024 A 
HETATM    9  C2  UNL     1      -3.467   1.081  -2.712  1.00  0.00     0.001 A 
HETATM   10  C1  UNL     1      -4.517   1.877  -2.338  1.00  0.00     0.001 A 
HETATM   11  C18 UNL     1      -5.016   1.888  -1.068  1.00  0.00     0.012 A 
HETATM   12  C16 UNL     1      -4.923   1.052   1.180  1.00  0.00     0.012 A 
HETATM   13  C15 UNL     1      -4.361   0.241   2.130  1.00  0.00     0.003 A 
HETATM   14  C14 UNL     1      -3.307  -0.585   1.828  1.00  0.00     0.030 A 
ENDBRANCH   3   5
ENDBRANCH   2   3
ENDBRANCH   1   2
BRANCH   1  15
HETATM   15  N2  UNL     1       0.935  -0.718   1.243  1.00  0.00    -0.074 N 
ATOM     16  H22 UNL     1       0.500  -0.114   0.546  1.00  0.00     0.277 HD
ATOM     17  H21 UNL     1       1.405  -0.008   1.805  1.00  0.00     0.277 HD
BRANCH  15  18
HETATM   18  C8  UNL     1       1.888  -1.610   0.633  1.00  0.00     0.232 C 
BRANCH  18  19
HETATM   19  C9  UNL     1       2.930  -0.916  -0.172  1.00  0.00     0.033 C 
BRANCH  19  20
HETATM   20  C10 UNL     1       3.767   0.054   0.602  1.00  0.00     0.060 C 
BRANCH  20  21
HETATM   21  C11 UNL     1       4.763   0.679  -0.309  1.00  0.00     0.025 A 
HETATM   22  C12 UNL     1       5.724   1.627   0.002  1.00  0.00     0.113 A 
HETATM   23  N3  UNL     1       6.426   1.933  -1.105  1.00  0.00    -0.360 N 
HETATM   24  C13 UNL     1       5.931   1.199  -2.108  1.00  0.00     0.180 A 
ATOM     25  H3  UNL     1       7.194   2.601  -1.168  1.00  0.00     0.166 HD
HETATM   26  N4  UNL     1       4.920   0.433  -1.634  1.00  0.00    -0.355 N 
ATOM     27  H4  UNL     1       4.366  -0.223  -2.184  1.00  0.00     0.166 HD
ENDBRANCH  20  21
ENDBRANCH  19  20
ENDBRANCH  18  19
ENDBRANCH  15  18
ENDBRANCH   1  15
TORSDOF 8
