REMARK  7 active torsions:
REMARK  status: ('A' for Active; 'I' for Inactive)
REMARK    1  A    between atoms: O1_2  and  C2_3 
REMARK    2  A    between atoms: C4_5  and  N1_6 
REMARK    3  A    between atoms: N1_6  and  C5_8 
REMARK    4  A    between atoms: C13_16  and  N2_17 
REMARK    5  A    between atoms: N2_17  and  C14_19 
REMARK    6  A    between atoms: C14_19  and  C15_20 
REMARK    7  A    between atoms: C15_20  and  N3_21 
REMARK       I    between atoms: N3_21  and  C16_23 
ROOT
HETATM    1  C2  UNL     1       1.012  -1.744   0.501  1.00  0.00     0.096 A 
HETATM    2  C3  UNL     1      -0.320  -1.803   0.854  1.00  0.00     0.068 A 
HETATM    3  C4  UNL     1      -1.264  -0.878   0.412  1.00  0.00     0.031 A 
HETATM    4  C11 UNL     1      -0.828   0.126  -0.409  1.00  0.00     0.031 A 
HETATM    5  C12 UNL     1       0.520   0.193  -0.771  1.00  0.00     0.034 A 
HETATM    6  C13 UNL     1       1.430  -0.744  -0.312  1.00  0.00     0.061 A 
ENDROOT
BRANCH   6   7
HETATM    7  N2  UNL     1       2.807  -0.644  -0.708  1.00  0.00    -0.386 N 
ATOM      8  H2  UNL     1       3.470  -1.345  -0.376  1.00  0.00     0.159 HD
BRANCH   7   9
HETATM    9  C14 UNL     1       3.271   0.399  -1.546  1.00  0.00     0.139 C 
BRANCH   9  10
HETATM   10  C15 UNL     1       4.724   0.617  -1.647  1.00  0.00     0.143 C 
BRANCH  10  11
HETATM   11  N3  UNL     1       5.471   1.079  -0.540  1.00  0.00    -0.344 N 
HETATM   12  C16 UNL     1       5.713   0.516   0.708  1.00  0.00     0.328 C 
HETATM   13  N4  UNL     1       6.538   1.273   1.646  1.00  0.00    -0.040 NA
HETATM   14  O2  UNL     1       5.324  -0.570   1.174  1.00  0.00    -0.251 OA
ATOM     15  H3  UNL     1       5.911   1.988  -0.682  1.00  0.00     0.163 HD
ENDBRANCH  10  11
ENDBRANCH   9  10
ENDBRANCH   7   9
ENDBRANCH   6   7
BRANCH   1  16
HETATM   16  O1  UNL     1       1.932  -2.684   0.960  1.00  0.00    -0.354 OA
HETATM   17  C1  UNL     1       1.449  -3.708   1.807  1.00  0.00     0.210 C 
ENDBRANCH   1  16
BRANCH   3  18
HETATM   18  N1  UNL     1      -2.606  -1.001   0.807  1.00  0.00    -0.385 N 
ATOM     19  H1  UNL     1      -2.833  -1.799   1.401  1.00  0.00     0.160 HD
BRANCH  18  20
HETATM   20  C5  UNL     1      -3.703  -0.121   0.465  1.00  0.00     0.081 C 
HETATM   21  C6  UNL     1      -3.455   1.252   0.973  1.00  0.00     0.025 C 
HETATM   22  C7  UNL     1      -4.033   2.336   0.100  1.00  0.00     0.002 C 
HETATM   23  C8  UNL     1      -5.304   1.822  -0.508  1.00  0.00     0.000 C 
HETATM   24  C9  UNL     1      -4.988   0.746  -1.529  1.00  0.00     0.002 C 
HETATM   25  C10 UNL     1      -4.017  -0.267  -0.984  1.00  0.00     0.025 C 
ENDBRANCH  18  20
ENDBRANCH   3  18
TORSDOF 7
