REMARK  10 active torsions:
REMARK  status: ('A' for Active; 'I' for Inactive)
REMARK    1  A    between atoms: C3_4  and  S1_5 
REMARK    2  A    between atoms: S1_5  and  C4_6 
REMARK    3  A    between atoms: C4_6  and  C5_7 
REMARK    4  A    between atoms: C5_7  and  C6_8 
REMARK    5  A    between atoms: C6_8  and  C7_9 
REMARK    6  A    between atoms: C7_9  and  C8_10 
REMARK    7  A    between atoms: C8_10  and  C9_11 
REMARK    8  A    between atoms: C9_11  and  C10_12 
REMARK    9  A    between atoms: C14_18  and  N3_19 
REMARK   10  A    between atoms: C15_24  and  N5_25 
ROOT
HETATM    1  N1  UNL     1      -4.205   0.850  -3.770  1.00  0.00    -0.191 NA
HETATM    2  C1  UNL     1      -4.425   0.627  -2.656  1.00  0.00     0.106 C 
HETATM    3  C2  UNL     1      -4.677   0.338  -1.274  1.00  0.00     0.122 A 
HETATM    4  C3  UNL     1      -3.751  -0.359  -0.528  1.00  0.00     0.110 A 
HETATM    5  N2  UNL     1      -4.061  -0.590   0.758  1.00  0.00    -0.184 N 
ATOM      6  H2  UNL     1      -3.396  -1.104   1.336  1.00  0.00     0.185 HD
HETATM    7  C14 UNL     1      -5.213  -0.171   1.317  1.00  0.00     0.678 A 
HETATM    8  N4  UNL     1      -6.133   0.510   0.612  1.00  0.00    -0.176 N 
ATOM      9  H4  UNL     1      -7.005   0.825   1.038  1.00  0.00     0.186 HD
HETATM   10  C15 UNL     1      -5.849   0.761  -0.698  1.00  0.00     0.138 A 
ENDROOT
BRANCH   4  11
HETATM   11  S1  UNL     1      -2.211  -0.945  -1.189  1.00  0.00    -0.110 SA
BRANCH  11  12
HETATM   12  C4  UNL     1      -0.871   0.230  -1.026  1.00  0.00     0.081 C 
BRANCH  12  13
HETATM   13  C5  UNL     1      -0.476   0.486   0.406  1.00  0.00     0.010 C 
BRANCH  13  14
HETATM   14  C6  UNL     1      -0.020  -0.726   1.129  1.00  0.00     0.001 C 
BRANCH  14  15
HETATM   15  C7  UNL     1       1.184  -1.399   0.526  1.00  0.00     0.000 C 
BRANCH  15  16
HETATM   16  C8  UNL     1       2.389  -0.481   0.483  1.00  0.00     0.000 C 
BRANCH  16  17
HETATM   17  C9  UNL     1       3.514  -1.249  -0.130  1.00  0.00     0.004 C 
BRANCH  17  18
HETATM   18  C10 UNL     1       4.787  -0.492  -0.249  1.00  0.00    -0.014 C 
HETATM   19  C11 UNL     1       5.368   0.005   1.071  1.00  0.00     0.004 C 
HETATM   20  C12 UNL     1       5.883   1.212   0.274  1.00  0.00     0.001 C 
HETATM   21  C13 UNL     1       4.744   0.922  -0.711  1.00  0.00     0.004 C 
ENDBRANCH  17  18
ENDBRANCH  16  17
ENDBRANCH  15  16
ENDBRANCH  14  15
ENDBRANCH  13  14
ENDBRANCH  12  13
ENDBRANCH  11  12
ENDBRANCH   4  11
BRANCH  10  22
HETATM   22  N5  UNL     1      -6.756   1.417  -1.343  1.00  0.00    -0.384 N 
ATOM     23  H52 UNL     1      -6.544   1.605  -2.323  1.00  0.00     0.157 HD
ATOM     24  H51 UNL     1      -7.627   1.731  -0.915  1.00  0.00     0.157 HD
ENDBRANCH  10  22
BRANCH   7  25
HETATM   25  N3  UNL     1      -5.467  -0.420   2.567  1.00  0.00    -0.234 N 
ATOM     26  H32 UNL     1      -4.769  -0.937   3.102  1.00  0.00     0.174 HD
ATOM     27  H31 UNL     1      -6.339  -0.103   2.990  1.00  0.00     0.174 HD
ENDBRANCH   7  25
TORSDOF 10
