REMARK  8 active torsions:
REMARK  status: ('A' for Active; 'I' for Inactive)
REMARK       I    between atoms: C1_4  and  N3_6 
REMARK    1  A    between atoms: N3_6  and  C2_8 
REMARK    2  A    between atoms: C4_10  and  C5_11 
REMARK    3  A    between atoms: C5_11  and  C6_12 
REMARK    4  A    between atoms: C6_12  and  N4_13 
REMARK    5  A    between atoms: N4_13  and  C7_16 
REMARK    6  A    between atoms: C7_16  and  C8_17 
REMARK    7  A    between atoms: C13_22  and  N5_23 
REMARK    8  A    between atoms: N5_23  and  O1_25 
ROOT
HETATM    1  C6  UNL     1      -0.268  -0.044  -0.018  1.00  0.00     0.236 C 
ENDROOT
BRANCH   1   2
HETATM    2  C5  UNL     1       0.905  -0.809  -0.583  1.00  0.00     0.061 C 
BRANCH   2   3
HETATM    3  C4  UNL     1       2.156  -0.049  -0.392  1.00  0.00    -0.080 C 
HETATM    4  C3  UNL     1       3.122  -0.597   0.319  1.00  0.00     0.001 C 
HETATM    5  C2  UNL     1       4.412   0.049   0.583  1.00  0.00     0.107 C 
HETATM    6  C16 UNL     1       4.732   1.167  -0.378  1.00  0.00     0.029 C 
HETATM    7  C15 UNL     1       3.541   2.021  -0.695  1.00  0.00     0.007 C 
HETATM    8  C14 UNL     1       2.297   1.272  -0.985  1.00  0.00     0.034 C 
BRANCH   5   9
HETATM    9  N3  UNL     1       5.468  -0.928   0.473  1.00  0.00    -0.357 N 
HETATM   10  C1  UNL     1       6.832  -0.601   0.676  1.00  0.00     0.182 C 
HETATM   11  N1  UNL     1       7.771  -1.250   0.040  1.00  0.00    -0.374 N 
HETATM   12  N2  UNL     1       7.263   0.419   1.553  1.00  0.00    -0.064 NA
ATOM     13  H12 UNL     1       8.753  -1.015   0.186  1.00  0.00     0.158 HD
ATOM     14  H11 UNL     1       7.460  -1.987  -0.593  1.00  0.00     0.158 HD
ATOM     15  H3  UNL     1       5.224  -1.891   0.240  1.00  0.00     0.162 HD
ENDBRANCH   5   9
ENDBRANCH   2   3
ENDBRANCH   1   2
BRANCH   1  16
HETATM   16  N4  UNL     1      -1.515  -0.767  -0.190  1.00  0.00    -0.074 N 
ATOM     17  H42 UNL     1      -1.700  -1.031  -1.158  1.00  0.00     0.277 HD
ATOM     18  H41 UNL     1      -1.492  -1.711   0.196  1.00  0.00     0.277 HD
BRANCH  16  19
HETATM   19  C7  UNL     1      -2.552   0.065   0.387  1.00  0.00     0.239 C 
BRANCH  19  20
HETATM   20  C8  UNL     1      -3.924  -0.597   0.265  1.00  0.00     0.036 C 
HETATM   21  C9  UNL     1      -4.189  -0.798  -1.195  1.00  0.00     0.008 C 
HETATM   22  C10 UNL     1      -5.631  -0.994  -1.540  1.00  0.00     0.001 C 
HETATM   23  C11 UNL     1      -6.578  -0.149  -0.762  1.00  0.00     0.002 C 
HETATM   24  C12 UNL     1      -6.283  -0.205   0.729  1.00  0.00     0.027 C 
HETATM   25  C13 UNL     1      -4.902   0.364   0.905  1.00  0.00     0.111 C 
BRANCH  25  26
HETATM   26  N5  UNL     1      -4.549   0.639   2.238  1.00  0.00    -0.300 N 
ATOM     27  H5  UNL     1      -4.585  -0.143   2.892  1.00  0.00     0.187 HD
BRANCH  26  28
HETATM   28  O1  UNL     1      -4.214   1.687   2.680  1.00  0.00    -0.294 OA
ATOM     29  H1  UNL     1      -3.976   1.873   3.581  1.00  0.00     0.244 HD
ENDBRANCH  26  28
ENDBRANCH  25  26
ENDBRANCH  19  20
ENDBRANCH  16  19
ENDBRANCH   1  16
TORSDOF 8
