REMARK  9 active torsions:
REMARK  status: ('A' for Active; 'I' for Inactive)
REMARK    1  A    between atoms: N1_1  and  C1_5 
REMARK    2  A    between atoms: C1_5  and  C2_6 
REMARK    3  A    between atoms: C2_6  and  C3_7 
REMARK    4  A    between atoms: C3_7  and  C4_8 
REMARK    5  A    between atoms: C4_8  and  C5_9 
REMARK    6  A    between atoms: C5_9  and  C6_10 
REMARK    7  A    between atoms: C6_10  and  C7_11 
REMARK    8  A    between atoms: C7_11  and  C8_12 
REMARK    9  A    between atoms: C10_19  and  C11_20 
ROOT
HETATM    1  C8  UNL     1      -1.225   0.758  -0.728  1.00  0.00     0.039 A 
HETATM    2  N2  UNL     1      -0.995   0.874  -2.071  1.00  0.00    -0.335 N 
ATOM      3  H2  UNL     1      -0.094   1.101  -2.493  1.00  0.00     0.168 HD
HETATM    4  C9  UNL     1      -2.103   0.650  -2.738  1.00  0.00     0.176 A 
HETATM    5  S1  UNL     1      -2.252   0.692  -4.370  1.00  0.00    -0.041 SA
HETATM    6  N3  UNL     1      -3.077   0.384  -1.845  1.00  0.00    -0.331 N 
ATOM      7  H3  UNL     1      -4.048   0.171  -2.073  1.00  0.00     0.168 HD
HETATM    8  C10 UNL     1      -2.554   0.446  -0.588  1.00  0.00     0.069 A 
ENDROOT
BRANCH   1   9
HETATM    9  C7  UNL     1      -0.166   0.925   0.253  1.00  0.00     0.059 C 
BRANCH   9  10
HETATM   10  C6  UNL     1       0.364  -0.358   0.837  1.00  0.00     0.006 C 
BRANCH  10  11
HETATM   11  C5  UNL     1       0.973  -1.290  -0.160  1.00  0.00     0.000 C 
BRANCH  11  12
HETATM   12  C4  UNL     1       2.150  -0.752  -0.903  1.00  0.00     0.000 C 
BRANCH  12  13
HETATM   13  C3  UNL     1       3.288  -0.379   0.039  1.00  0.00     0.002 C 
BRANCH  13  14
HETATM   14  C2  UNL     1       4.463   0.163  -0.759  1.00  0.00     0.027 C 
BRANCH  14  15
HETATM   15  C1  UNL     1       5.589   0.535   0.147  1.00  0.00     0.229 C 
BRANCH  15  16
HETATM   16  N1  UNL     1       5.259   1.543   1.111  1.00  0.00    -0.079 N 
ATOM     17  H13 UNL     1       4.885   2.371   0.648  1.00  0.00     0.274 HD
ATOM     18  H12 UNL     1       4.442   1.264   1.654  1.00  0.00     0.274 HD
ATOM     19  H11 UNL     1       6.029   1.797   1.730  1.00  0.00     0.274 HD
ENDBRANCH  15  16
ENDBRANCH  14  15
ENDBRANCH  13  14
ENDBRANCH  12  13
ENDBRANCH  11  12
ENDBRANCH  10  11
ENDBRANCH   9  10
ENDBRANCH   1   9
BRANCH   8  20
HETATM   20  C11 UNL     1      -3.332   0.126   0.626  1.00  0.00     0.019 A 
HETATM   21  C12 UNL     1      -3.022   0.688   1.871  1.00  0.00     0.032 A 
HETATM   22  C13 UNL     1      -3.751   0.281   2.973  1.00  0.00     0.088 A 
HETATM   23  N4  UNL     1      -4.738  -0.627   2.889  1.00  0.00    -0.373 N 
HETATM   24  C14 UNL     1      -5.023  -1.155   1.692  1.00  0.00     0.115 A 
ATOM     25  H4  UNL     1      -5.259  -0.908   3.720  1.00  0.00     0.164 HD
HETATM   26  C15 UNL     1      -4.337  -0.804   0.522  1.00  0.00     0.074 A 
HETATM   27  N5  UNL     1      -4.690  -1.449  -0.676  1.00  0.00    -0.100 NA
ENDBRANCH   8  20
TORSDOF 9
