REMARK  13 active torsions:
REMARK  status: ('A' for Active; 'I' for Inactive)
REMARK    1  A    between atoms: C2_2  and  C4_4 
REMARK    2  A    between atoms: C4_4  and  N1_5 
REMARK    3  A    between atoms: C4_4  and  C23_34 
REMARK       I    between atoms: N1_5  and  C5_7 
REMARK    4  A    between atoms: C5_7  and  C6_9 
REMARK    5  A    between atoms: C6_9  and  C7_10 
REMARK    6  A    between atoms: C6_9  and  N2_15 
REMARK    7  A    between atoms: C7_10  and  C8_11 
REMARK    8  A    between atoms: C8_11  and  C9_12 
REMARK       I    between atoms: N2_15  and  C10_17 
REMARK    9  A    between atoms: C10_17  and  C11_19 
REMARK       I    between atoms: N3_24  and  C16_25 
REMARK   10  A    between atoms: C16_25  and  O6_27 
REMARK   11  A    between atoms: O6_27  and  C17_28 
REMARK   12  A    between atoms: C17_28  and  C19_30 
REMARK       I    between atoms: C23_34  and  N4_36 
REMARK   13  A    between atoms: N4_36  and  C24_38 
ROOT
HETATM    1  C6  UNL     1       0.259  -1.777   0.533  1.00  0.00     0.177 C 
ENDROOT
BRANCH   1   2
HETATM    2  C5  UNL     1      -0.729  -0.756   0.974  1.00  0.00     0.241 C 
HETATM    3  N1  UNL     1      -2.092  -0.814   0.619  1.00  0.00    -0.346 N 
ATOM      4  H1  UNL     1      -2.376  -1.592   0.024  1.00  0.00     0.163 HD
HETATM    5  O1  UNL     1      -0.325   0.184   1.688  1.00  0.00    -0.271 OA
BRANCH   3   6
HETATM    6  C4  UNL     1      -3.122   0.107   1.007  1.00  0.00     0.180 C 
BRANCH   6   7
HETATM    7  C2  UNL     1      -4.183  -0.696   1.776  1.00  0.00     0.009 C 
HETATM    8  C1  UNL     1      -3.588  -1.351   2.997  1.00  0.00     0.012 C 
HETATM    9  C3  UNL     1      -4.781  -1.757   0.854  1.00  0.00     0.012 C 
ENDBRANCH   6   7
BRANCH   6  10
HETATM   10  C23 UNL     1      -3.840   0.716  -0.143  1.00  0.00     0.241 C 
HETATM   11  O7  UNL     1      -3.463   0.434  -1.297  1.00  0.00    -0.271 OA
HETATM   12  N4  UNL     1      -4.923   1.589   0.086  1.00  0.00    -0.355 N 
ATOM     13  H4  UNL     1      -5.199   1.793   1.046  1.00  0.00     0.162 HD
BRANCH  12  14
HETATM   14  C24 UNL     1      -5.659   2.207  -1.006  1.00  0.00     0.084 C 
HETATM   15  C25 UNL     1      -6.986   1.482  -1.150  1.00  0.00     0.025 C 
HETATM   16  C26 UNL     1      -7.491   1.710  -2.554  1.00  0.00     0.002 C 
HETATM   17  C27 UNL     1      -7.623   3.183  -2.787  1.00  0.00     0.000 C 
HETATM   18  C28 UNL     1      -8.227   3.820  -1.566  1.00  0.00     0.000 C 
HETATM   19  C29 UNL     1      -7.228   4.114  -0.498  1.00  0.00     0.002 C 
HETATM   20  C30 UNL     1      -5.819   3.675  -0.842  1.00  0.00     0.025 C 
ENDBRANCH  12  14
ENDBRANCH   6  10
ENDBRANCH   3   6
ENDBRANCH   1   2
BRANCH   1  21
HETATM   21  C7  UNL     1       0.234  -2.011  -0.928  1.00  0.00     0.045 C 
BRANCH  21  22
HETATM   22  C8  UNL     1       1.188  -3.006  -1.469  1.00  0.00     0.116 C 
BRANCH  22  23
HETATM   23  C9  UNL     1       1.064  -4.382  -0.998  1.00  0.00     0.172 C 
HETATM   24  O2  UNL     1       0.163  -4.721  -0.214  1.00  0.00    -0.648 OA
HETATM   25  O3  UNL     1       1.974  -5.323  -1.436  1.00  0.00    -0.648 OA
ENDBRANCH  22  23
ENDBRANCH  21  22
ENDBRANCH   1  21
BRANCH   1  26
HETATM   26  N2  UNL     1       1.579  -1.524   1.009  1.00  0.00    -0.346 N 
HETATM   27  C10 UNL     1       2.127  -2.124   2.183  1.00  0.00     0.241 C 
HETATM   28  O4  UNL     1       1.353  -2.905   2.800  1.00  0.00    -0.271 OA
ATOM     29  H2  UNL     1       2.165  -0.878   0.481  1.00  0.00     0.163 HD
BRANCH  27  30
HETATM   30  C11 UNL     1       3.508  -1.857   2.659  1.00  0.00     0.181 C 
HETATM   31  C12 UNL     1       4.050  -2.941   3.520  1.00  0.00     0.035 C 
HETATM   32  C13 UNL     1       5.209  -3.688   2.975  1.00  0.00     0.004 C 
HETATM   33  C14 UNL     1       5.381  -3.621   1.495  1.00  0.00     0.020 C 
HETATM   34  C15 UNL     1       5.188  -2.290   0.886  1.00  0.00     0.129 C 
HETATM   35  N3  UNL     1       4.398  -1.355   1.658  1.00  0.00    -0.315 N 
HETATM   36  C16 UNL     1       4.560   0.030   1.364  1.00  0.00     0.363 C 
HETATM   37  O5  UNL     1       3.903   0.912   1.996  1.00  0.00    -0.238 OA
BRANCH  36  38
HETATM   38  O6  UNL     1       5.418   0.494   0.398  1.00  0.00    -0.298 OA
BRANCH  38  39
HETATM   39  C17 UNL     1       5.663   1.806   0.020  1.00  0.00     0.137 C 
HETATM   40  C18 UNL     1       7.125   2.089   0.405  1.00  0.00     0.041 C 
BRANCH  39  41
HETATM   41  C19 UNL     1       5.471   2.059  -1.458  1.00  0.00    -0.025 C 
HETATM   42  C20 UNL     1       4.055   1.756  -1.887  1.00  0.00     0.017 C 
HETATM   43  C21 UNL     1       6.473   1.283  -2.290  1.00  0.00     0.017 C 
HETATM   44  C22 UNL     1       5.727   3.531  -1.708  1.00  0.00     0.017 C 
ENDBRANCH  39  41
ENDBRANCH  38  39
ENDBRANCH  36  38
ENDBRANCH  27  30
ENDBRANCH   1  26
TORSDOF 13
