REMARK  11 active torsions:
REMARK  status: ('A' for Active; 'I' for Inactive)
REMARK    1  A    between atoms: C2_2  and  N1_3 
REMARK    2  A    between atoms: N1_3  and  C3_4 
REMARK       I    between atoms: N1_3  and  C5_6 
REMARK    3  A    between atoms: C5_6  and  C6_8 
REMARK    4  A    between atoms: C7_11  and  C8_12 
REMARK    5  A    between atoms: C9_15  and  N4_16 
REMARK       I    between atoms: N4_16  and  C10_18 
REMARK    6  A    between atoms: C10_18  and  C11_20 
REMARK    7  A    between atoms: C15_25  and  C16_26 
REMARK    8  A    between atoms: C20_30  and  C21_31 
REMARK    9  A    between atoms: C21_31  and  N5_32 
REMARK   10  A    between atoms: C21_31  and  C26_40 
REMARK       I    between atoms: N5_32  and  C22_33 
REMARK       I    between atoms: C22_33  and  N6_35 
REMARK   11  A    between atoms: N6_35  and  C23_37 
ROOT
HETATM    1  C8  UNL     1       1.277   0.142  -1.313  1.00  0.00     0.092 A 
HETATM    2  N3  UNL     1       0.238  -0.416  -0.572  1.00  0.00    -0.338 N 
ATOM      3  H3  UNL     1       0.352  -1.286  -0.052  1.00  0.00     0.167 HD
HETATM    4  C9  UNL     1      -0.885   0.237  -0.583  1.00  0.00     0.108 A 
HETATM    5  C19 UNL     1      -1.093   1.442  -1.274  1.00  0.00     0.059 A 
HETATM    6  C20 UNL     1      -0.085   1.992  -1.993  1.00  0.00    -0.010 A 
HETATM    7  C29 UNL     1       1.110   1.316  -2.002  1.00  0.00    -0.021 A 
HETATM    8  C30 UNL     1       2.322   1.865  -2.701  1.00  0.00     0.051 C 
ENDROOT
BRANCH   1   9
HETATM    9  C7  UNL     1       2.584  -0.542  -1.301  1.00  0.00     0.176 A 
HETATM   10  N2  UNL     1       2.909  -1.579  -0.539  1.00  0.00    -0.328 N 
HETATM   11  C6  UNL     1       4.145  -1.968  -0.812  1.00  0.00     0.133 A 
ATOM     12  H2  UNL     1       2.298  -2.012   0.154  1.00  0.00     0.168 HD
HETATM   13  C31 UNL     1       4.612  -1.121  -1.811  1.00  0.00     0.084 A 
HETATM   14  O5  UNL     1       3.606  -0.284  -2.040  1.00  0.00    -0.294 OA
HETATM   15  C32 UNL     1       5.877  -1.037  -2.564  1.00  0.00     0.079 C 
BRANCH  11  16
HETATM   16  C5  UNL     1       4.977  -2.951  -0.168  1.00  0.00     0.276 C 
HETATM   17  N1  UNL     1       4.489  -3.654   1.003  1.00  0.00    -0.327 N 
HETATM   18  O1  UNL     1       6.122  -3.265  -0.524  1.00  0.00    -0.265 OA
BRANCH  17  19
HETATM   19  C2  UNL     1       5.418  -4.647   1.583  1.00  0.00     0.127 C 
HETATM   20  C1  UNL     1       6.247  -3.862   2.621  1.00  0.00     0.027 C 
ENDBRANCH  17  19
BRANCH  17  21
HETATM   21  C3  UNL     1       3.255  -3.445   1.623  1.00  0.00     0.063 C 
HETATM   22  C4  UNL     1       2.172  -4.326   1.112  1.00  0.00     0.055 C 
ENDBRANCH  17  21
ENDBRANCH  11  16
ENDBRANCH   1   9
BRANCH   4  23
HETATM   23  N4  UNL     1      -1.990  -0.300  -0.041  1.00  0.00    -0.313 N 
HETATM   24  C10 UNL     1      -1.950  -1.604   0.538  1.00  0.00     0.230 C 
HETATM   25  O2  UNL     1      -1.137  -1.975   1.375  1.00  0.00    -0.273 OA
ATOM     26  H4  UNL     1      -2.863   0.227  -0.043  1.00  0.00     0.170 HD
BRANCH  24  27
HETATM   27  C11 UNL     1      -3.009  -2.545   0.045  1.00  0.00     0.107 C 
HETATM   28  C12 UNL     1      -3.457  -2.090  -1.320  1.00  0.00     0.019 C 
HETATM   29  C13 UNL     1      -4.427  -0.960  -1.291  1.00  0.00     0.027 C 
HETATM   30  C14 UNL     1      -5.246  -0.860  -0.043  1.00  0.00     0.168 C 
HETATM   31  O3  UNL     1      -4.612  -1.244   1.117  1.00  0.00    -0.385 OA
HETATM   32  C15 UNL     1      -4.231  -2.573   0.930  1.00  0.00     0.137 C 
BRANCH  32  33
HETATM   33  C16 UNL     1      -4.067  -3.324   2.193  1.00  0.00     0.007 C 
HETATM   34  C17 UNL     1      -5.383  -3.276   2.953  1.00  0.00     0.012 C 
HETATM   35  C18 UNL     1      -3.777  -4.808   1.919  1.00  0.00     0.012 C 
ENDBRANCH  32  33
ENDBRANCH  24  27
ENDBRANCH   4  23
BRANCH   6  36
HETATM   36  C21 UNL     1      -0.176   3.432  -2.544  1.00  0.00     0.206 C 
BRANCH  36  37
HETATM   37  N5  UNL     1       0.213   4.245  -1.552  1.00  0.00    -0.386 NA
HETATM   38  C22 UNL     1       0.631   5.113  -0.498  1.00  0.00     0.389 C 
HETATM   39  O4  UNL     1       1.306   6.063  -0.498  1.00  0.00    -0.231 OA
HETATM   40  N6  UNL     1       0.077   4.676   0.841  1.00  0.00    -0.328 N 
ATOM     41  H6  UNL     1      -0.526   3.854   0.874  1.00  0.00     0.165 HD
BRANCH  40  42
HETATM   42  C23 UNL     1       0.359   5.359   2.051  1.00  0.00     0.079 C 
HETATM   43  C24 UNL     1       0.816   4.399   3.134  1.00  0.00     0.032 C 
HETATM   44  C25 UNL     1      -0.893   6.069   2.574  1.00  0.00     0.032 C 
ENDBRANCH  40  42
ENDBRANCH  36  37
BRANCH  36  45
HETATM   45  C26 UNL     1      -1.449   3.719  -3.242  1.00  0.00     0.018 C 
HETATM   46  C27 UNL     1      -2.792   3.641  -2.703  1.00  0.00     0.013 C 
HETATM   47  C28 UNL     1      -1.277   5.094  -3.964  1.00  0.00     0.013 C 
ENDBRANCH  36  45
ENDBRANCH   6  36
TORSDOF 11
