REMARK  10 active torsions:
REMARK  status: ('A' for Active; 'I' for Inactive)
REMARK    1  A    between atoms: C2_2  and  N1_3 
REMARK    2  A    between atoms: N1_3  and  C3_4 
REMARK    3  A    between atoms: C5_6  and  O1_7 
REMARK    4  A    between atoms: C6_9  and  O2_10 
REMARK    5  A    between atoms: C7_12  and  O3_13 
REMARK    6  A    between atoms: C7_12  and  C16_23 
REMARK    7  A    between atoms: O3_13  and  C8_14 
REMARK    8  A    between atoms: C8_14  and  C9_15 
REMARK    9  A    between atoms: C9_15  and  C10_16 
REMARK   10  A    between atoms: C10_16  and  N2_17 
ROOT
HETATM    1  C3  UNL     1      -2.306  -0.845  -0.001  1.00  0.00     0.241 C 
HETATM    2  C4  UNL     1      -1.952  -0.938   1.474  1.00  0.00     0.071 C 
HETATM    3  C5  UNL     1      -0.890  -2.051   1.493  1.00  0.00     0.152 C 
HETATM    4  C6  UNL     1      -0.663  -2.396   0.060  1.00  0.00     0.194 C 
HETATM    5  C7  UNL     1      -0.916  -1.019  -0.592  1.00  0.00     0.205 C 
ENDROOT
BRANCH   5   6
HETATM    6  O3  UNL     1      -0.107  -0.067  -0.106  1.00  0.00    -0.365 OA
BRANCH   6   7
HETATM    7  C8  UNL     1       1.203   0.012  -0.437  1.00  0.00     0.171 C 
BRANCH   7   8
HETATM    8  C9  UNL     1       1.862   1.195   0.252  1.00  0.00     0.054 C 
BRANCH   8   9
HETATM    9  C10 UNL     1       3.271   1.449  -0.033  1.00  0.00     0.239 C 
BRANCH   9  10
HETATM   10  N2  UNL     1       4.305   0.585   0.269  1.00  0.00    -0.066 N 
HETATM   11  C11 UNL     1       5.639   1.242   0.390  1.00  0.00     0.238 C 
HETATM   12  C12 UNL     1       6.481   0.022   0.711  1.00  0.00     0.036 C 
HETATM   13  C13 UNL     1       5.409  -1.015   0.711  1.00  0.00     0.039 C 
HETATM   14  C14 UNL     1       4.287  -0.284   1.416  1.00  0.00     0.243 C 
HETATM   15  C15 UNL     1       4.617  -0.573  -0.526  1.00  0.00     0.243 C 
ENDBRANCH   9  10
ENDBRANCH   8   9
ENDBRANCH   7   8
ENDBRANCH   6   7
ENDBRANCH   5   6
BRANCH   5  16
HETATM   16  C16 UNL     1      -0.912  -1.276  -2.028  1.00  0.00     0.214 C 
HETATM   17  O4  UNL     1      -1.594  -2.254  -2.504  1.00  0.00    -0.646 OA
HETATM   18  O5  UNL     1      -0.230  -0.563  -3.003  1.00  0.00    -0.646 OA
ENDBRANCH   5  16
BRANCH   1  19
HETATM   19  N1  UNL     1      -3.048   0.303  -0.366  1.00  0.00    -0.059 N 
HETATM   20  C17 UNL     1      -4.044   0.494   0.711  1.00  0.00     0.238 C 
HETATM   21  C18 UNL     1      -5.278   1.043   0.071  1.00  0.00     0.029 C 
HETATM   22  C19 UNL     1      -5.228   0.574  -1.340  1.00  0.00     0.029 C 
HETATM   23  C20 UNL     1      -3.826   0.034  -1.545  1.00  0.00     0.238 C 
BRANCH  19  24
HETATM   24  C2  UNL     1      -2.252   1.484  -0.490  1.00  0.00     0.233 C 
HETATM   25  C1  UNL     1      -3.002   2.773  -0.660  1.00  0.00     0.035 C 
ENDBRANCH  19  24
ENDBRANCH   1  19
BRANCH   4  26
HETATM   26  O2  UNL     1       0.510  -2.974  -0.271  1.00  0.00    -0.389 OA
ATOM     27  H2  UNL     1       0.655  -3.194  -1.184  1.00  0.00     0.210 HD
ENDBRANCH   4  26
BRANCH   3  28
HETATM   28  O1  UNL     1      -1.415  -3.115   2.229  1.00  0.00    -0.393 OA
ATOM     29  H1  UNL     1      -0.759  -3.802   2.241  1.00  0.00     0.210 HD
ENDBRANCH   3  28
TORSDOF 10
