REMARK  8 active torsions:
REMARK  status: ('A' for Active; 'I' for Inactive)
REMARK    1  A    between atoms: C2_2  and  N1_3 
REMARK       I    between atoms: N1_3  and  C3_4 
REMARK    2  A    between atoms: N1_3  and  S1_26 
REMARK    3  A    between atoms: N3_6  and  C4_8 
REMARK    4  A    between atoms: C4_8  and  C5_9 
REMARK    5  A    between atoms: C5_9  and  C6_10 
REMARK    6  A    between atoms: C6_10  and  C7_11 
REMARK    7  A    between atoms: C7_11  and  C10_14 
REMARK       I    between atoms: C10_14  and  N4_16 
REMARK    8  A    between atoms: N4_16  and  C11_18 
ROOT
HETATM    1  C7  UNL     1      -1.583   1.073  -0.133  1.00  0.00     0.034 C 
HETATM    2  C8  UNL     1      -1.826   0.769  -1.573  1.00  0.00     0.025 C 
HETATM    3  C9  UNL     1      -0.922   2.450  -0.062  1.00  0.00     0.025 C 
ENDROOT
BRANCH   1   4
HETATM    4  C6  UNL     1      -0.617   0.109   0.516  1.00  0.00     0.020 C 
BRANCH   4   5
HETATM    5  C5  UNL     1       0.732   0.119  -0.148  1.00  0.00     0.021 C 
BRANCH   5   6
HETATM    6  C4  UNL     1       1.621  -0.875   0.572  1.00  0.00     0.122 C 
BRANCH   6   7
HETATM    7  N3  UNL     1       2.938  -0.913  -0.020  1.00  0.00    -0.364 N 
HETATM    8  C3  UNL     1       3.909  -0.168   0.364  1.00  0.00     0.199 C 
HETATM    9  N1  UNL     1       5.165  -0.272  -0.272  1.00  0.00    -0.250 N 
HETATM   10  N2  UNL     1       3.725   0.748   1.415  1.00  0.00    -0.063 NA
ATOM     11  H3  UNL     1       3.105  -1.567  -0.784  1.00  0.00     0.162 HD
BRANCH   9  12
HETATM   12  C2  UNL     1       5.367   0.455  -1.505  1.00  0.00     0.140 C 
HETATM   13  C1  UNL     1       5.904   1.830  -1.213  1.00  0.00     0.028 C 
ENDBRANCH   9  12
BRANCH   9  14
HETATM   14  S1  UNL     1       6.463  -1.215   0.340  1.00  0.00     0.231 S 
HETATM   15  C16 UNL     1       6.936  -2.506  -0.783  1.00  0.00     0.186 C 
HETATM   16  O3  UNL     1       7.658  -0.293   0.480  1.00  0.00    -0.206 OA
HETATM   17  O4  UNL     1       6.170  -1.763   1.703  1.00  0.00    -0.206 OA
ENDBRANCH   9  14
ENDBRANCH   6   7
ENDBRANCH   5   6
ENDBRANCH   4   5
ENDBRANCH   1   4
BRANCH   1  18
HETATM   18  C10 UNL     1      -2.885   1.111   0.563  1.00  0.00     0.226 C 
HETATM   19  O1  UNL     1      -3.297   2.183   1.055  1.00  0.00    -0.273 OA
HETATM   20  N4  UNL     1      -3.680  -0.052   0.683  1.00  0.00    -0.345 N 
ATOM     21  H4  UNL     1      -3.323  -0.915   0.273  1.00  0.00     0.163 HD
BRANCH  20  22
HETATM   22  C11 UNL     1      -4.953  -0.102   1.341  1.00  0.00     0.204 C 
HETATM   23  C12 UNL     1      -5.225  -1.290   2.157  1.00  0.00     0.243 C 
HETATM   24  O2  UNL     1      -4.643  -2.083   2.940  1.00  0.00    -0.271 OA
HETATM   25  N5  UNL     1      -6.574  -1.248   1.702  1.00  0.00    -0.348 N 
HETATM   26  C13 UNL     1      -6.085  -0.660   0.477  1.00  0.00     0.054 C 
ATOM     27  H5  UNL     1      -7.484  -1.515   2.076  1.00  0.00     0.163 HD
HETATM   28  C14 UNL     1      -6.938   0.415  -0.116  1.00  0.00     0.041 C 
HETATM   29  C15 UNL     1      -5.641  -1.713  -0.502  1.00  0.00     0.041 C 
ENDBRANCH  20  22
ENDBRANCH   1  18
TORSDOF 8
