REMARK  9 active torsions:
REMARK  status: ('A' for Active; 'I' for Inactive)
REMARK    1  A    between atoms: C2_2  and  O1_4 
REMARK    2  A    between atoms: C2_2  and  C4_6 
REMARK    3  A    between atoms: C6_8  and  C7_9 
REMARK    4  A    between atoms: C7_9  and  C8_10 
REMARK    5  A    between atoms: C8_10  and  C9_11 
REMARK    6  A    between atoms: C9_11  and  N1_12 
REMARK    7  A    between atoms: N2_17  and  C13_18 
REMARK    8  A    between atoms: C13_18  and  C14_19 
REMARK    9  A    between atoms: C14_19  and  N3_20 
ROOT
HETATM    1  N1  UNL     1       0.933  -2.106  -0.876  1.00  0.00    -0.270 N 
HETATM    2  C10 UNL     1       0.762  -2.979   0.227  1.00  0.00     0.229 C 
HETATM    3  O2  UNL     1       0.142  -4.055   0.093  1.00  0.00    -0.273 OA
HETATM    4  C11 UNL     1       1.337  -2.578   1.534  1.00  0.00     0.123 C 
HETATM    5  C12 UNL     1       2.798  -2.203   1.248  1.00  0.00     0.136 C 
HETATM    6  N2  UNL     1       2.748  -1.045   0.351  1.00  0.00    -0.332 N 
HETATM    7  C16 UNL     1       1.966  -1.093  -0.820  1.00  0.00     0.327 C 
HETATM    8  O3  UNL     1       2.115  -0.326  -1.787  1.00  0.00    -0.247 OA
ENDROOT
BRANCH   1   9
HETATM    9  C9  UNL     1       0.079  -2.268  -2.017  1.00  0.00     0.137 C 
BRANCH   9  10
HETATM   10  C8  UNL     1      -1.198  -1.472  -1.956  1.00  0.00     0.025 C 
BRANCH  10  11
HETATM   11  C7  UNL     1      -2.059  -1.836  -0.791  1.00  0.00     0.041 C 
BRANCH  11  12
HETATM   12  C6  UNL     1      -3.325  -0.989  -0.786  1.00  0.00    -0.051 A 
HETATM   13  C5  UNL     1      -3.399   0.205  -0.152  1.00  0.00     0.025 A 
HETATM   14  C4  UNL     1      -4.595   0.870  -0.222  1.00  0.00     0.016 A 
HETATM   15  S1  UNL     1      -5.568  -0.168  -1.152  1.00  0.00    -0.103 SA
HETATM   16  C17 UNL     1      -4.450  -1.416  -1.434  1.00  0.00     0.057 A 
BRANCH  14  17
HETATM   17  C2  UNL     1      -4.920   2.211   0.402  1.00  0.00     0.084 C 
HETATM   18  C1  UNL     1      -4.654   2.151   1.874  1.00  0.00     0.051 C 
HETATM   19  C3  UNL     1      -6.338   2.556   0.055  1.00  0.00     0.051 C 
BRANCH  17  20
HETATM   20  O1  UNL     1      -4.081   3.134  -0.186  1.00  0.00    -0.385 OA
ATOM     21  H1  UNL     1      -4.250   3.172  -1.120  1.00  0.00     0.211 HD
ENDBRANCH  17  20
ENDBRANCH  14  17
ENDBRANCH  11  12
ENDBRANCH  10  11
ENDBRANCH   9  10
ENDBRANCH   1   9
BRANCH   6  22
HETATM   22  C13 UNL     1       3.510   0.140   0.682  1.00  0.00     0.147 C 
BRANCH  22  23
HETATM   23  C14 UNL     1       4.882  -0.015   0.050  1.00  0.00     0.142 C 
BRANCH  23  24
HETATM   24  N3  UNL     1       5.637   1.147   0.392  1.00  0.00    -0.365 N 
HETATM   25  C15 UNL     1       5.880   2.064  -0.449  1.00  0.00     0.197 C 
HETATM   26  N4  UNL     1       6.639   3.191  -0.030  1.00  0.00    -0.067 NA
HETATM   27  N5  UNL     1       5.424   2.005  -1.793  1.00  0.00    -0.067 NA
ATOM     28  H3  UNL     1       5.992   1.243   1.343  1.00  0.00     0.161 HD
ENDBRANCH  23  24
ENDBRANCH  22  23
ENDBRANCH   6  22
TORSDOF 9
