REMARK  5 active torsions:
REMARK  status: ('A' for Active; 'I' for Inactive)
REMARK    1  A    between atoms: C6_8  and  C7_9 
REMARK    2  A    between atoms: C17_23  and  C18_24 
REMARK    3  A    between atoms: N5_30  and  C22_32 
REMARK    4  A    between atoms: C25_35  and  N6_36 
REMARK    5  A    between atoms: N6_36  and  S1_38 
ROOT
HETATM    1  C1  UNL     1       1.067  -3.280   2.130  1.00  0.00     0.049 C 
HETATM    2  C2  UNL     1      -0.204  -2.540   2.235  1.00  0.00    -0.049 A 
HETATM    3  C3  UNL     1      -0.944  -2.436   3.424  1.00  0.00     0.010 A 
HETATM    4  C4  UNL     1      -2.129  -1.731   3.481  1.00  0.00     0.032 A 
HETATM    5  C5  UNL     1      -2.610  -1.105   2.345  1.00  0.00     0.061 A 
HETATM    6  N1  UNL     1      -3.694  -0.373   2.021  1.00  0.00    -0.339 N 
ATOM      7  H1  UNL     1      -4.432  -0.123   2.679  1.00  0.00     0.167 HD
HETATM    8  C6  UNL     1      -3.686  -0.012   0.725  1.00  0.00     0.133 A 
HETATM    9  N3  UNL     1      -2.550  -0.542   0.222  1.00  0.00    -0.338 N 
ATOM     10  H3  UNL     1      -2.243  -0.450  -0.746  1.00  0.00     0.167 HD
HETATM   11  C16 UNL     1      -1.884  -1.205   1.174  1.00  0.00     0.072 A 
HETATM   12  C17 UNL     1      -0.692  -1.916   1.118  1.00  0.00     0.009 A 
ENDROOT
BRANCH  12  13
HETATM   13  C18 UNL     1      -0.036  -2.028  -0.172  1.00  0.00    -0.018 A 
HETATM   14  C19 UNL     1      -0.656  -2.757  -1.201  1.00  0.00     0.029 A 
HETATM   15  C20 UNL     1      -0.031  -2.874  -2.417  1.00  0.00     0.090 A 
HETATM   16  N4  UNL     1       1.157  -2.311  -2.653  1.00  0.00    -0.352 N 
HETATM   17  C21 UNL     1       1.825  -1.582  -1.692  1.00  0.00     0.106 A 
ATOM     18  H4  UNL     1       1.583  -2.424  -3.573  1.00  0.00     0.166 HD
HETATM   19  N5  UNL     1       2.963  -1.086  -1.991  1.00  0.00    -0.342 N 
HETATM   20  C29 UNL     1       1.187  -1.472  -0.479  1.00  0.00     0.060 A 
ATOM     21  H5  UNL     1       3.285  -1.277  -2.940  1.00  0.00     0.167 HD
BRANCH  19  22
HETATM   22  C22 UNL     1       3.823  -0.328  -1.217  1.00  0.00     0.033 A 
HETATM   23  C23 UNL     1       3.720   1.000  -0.884  1.00  0.00     0.032 A 
HETATM   24  C24 UNL     1       4.664   1.640  -0.143  1.00  0.00     0.032 A 
HETATM   25  C25 UNL     1       5.803   0.974   0.325  1.00  0.00     0.042 A 
HETATM   26  C27 UNL     1       5.911  -0.341   0.002  1.00  0.00     0.032 A 
HETATM   27  C28 UNL     1       4.965  -0.993  -0.742  1.00  0.00     0.032 A 
BRANCH  25  28
HETATM   28  N6  UNL     1       6.796   1.636   1.071  1.00  0.00    -0.285 N 
ATOM     29  H6  UNL     1       6.520   2.244   1.842  1.00  0.00     0.178 HD
BRANCH  28  30
HETATM   30  S1  UNL     1       8.460   1.440   0.709  1.00  0.00     0.227 S 
HETATM   31  C26 UNL     1       8.725   2.027  -0.966  1.00  0.00     0.186 C 
HETATM   32  O1  UNL     1       9.283   2.355   1.617  1.00  0.00    -0.206 OA
HETATM   33  O2  UNL     1       8.927   0.024   0.869  1.00  0.00    -0.206 OA
ENDBRANCH  28  30
ENDBRANCH  25  28
ENDBRANCH  19  22
ENDBRANCH  12  13
BRANCH   8  34
HETATM   34  C7  UNL     1      -4.702   0.740  -0.025  1.00  0.00     0.077 A 
HETATM   35  C8  UNL     1      -4.444   1.002  -1.370  1.00  0.00     0.034 A 
HETATM   36  C9  UNL     1      -5.362   1.703  -2.119  1.00  0.00     0.016 A 
HETATM   37  C10 UNL     1      -6.549   2.155  -1.542  1.00  0.00    -0.009 A 
HETATM   38  C11 UNL     1      -7.488   2.850  -2.267  1.00  0.00     0.013 A 
HETATM   39  C15 UNL     1      -6.776   1.879  -0.206  1.00  0.00     0.043 A 
HETATM   40  C12 UNL     1      -8.677   3.288  -1.683  1.00  0.00     0.001 A 
HETATM   41  C13 UNL     1      -8.878   3.003  -0.367  1.00  0.00     0.002 A 
HETATM   42  C14 UNL     1      -7.955   2.314   0.370  1.00  0.00     0.030 A 
HETATM   43  N2  UNL     1      -5.844   1.186   0.485  1.00  0.00    -0.353 N 
ATOM     44  H2  UNL     1      -6.031   0.992   1.469  1.00  0.00     0.166 HD
ENDBRANCH   8  34
TORSDOF 5
