REMARK  4 active torsions:
REMARK  status: ('A' for Active; 'I' for Inactive)
REMARK    1  A    between atoms: C4_4  and  N1_5 
REMARK    2  A    between atoms: N1_5  and  N2_7 
REMARK    3  A    between atoms: N2_7  and  C5_9 
REMARK    4  A    between atoms: N3_11  and  O2_12 
ROOT
HETATM    1  C1  UNL     1      -3.305   0.662   0.343  1.00  0.00     0.070 C 
HETATM    2  C2  UNL     1      -1.895   0.206   0.322  1.00  0.00     0.028 A 
HETATM    3  C3  UNL     1      -0.872   0.697  -0.468  1.00  0.00     0.080 A 
HETATM    4  C4  UNL     1       0.282  -0.021  -0.158  1.00  0.00     0.168 A 
HETATM    5  N3  UNL     1      -0.067  -0.896   0.780  1.00  0.00    -0.145 N 
HETATM    6  N4  UNL     1      -1.362  -0.772   1.075  1.00  0.00    -0.277 N 
ATOM      7  H4  UNL     1      -1.868  -1.330   1.763  1.00  0.00     0.189 HD
ENDROOT
BRANCH   4   8
HETATM    8  N1  UNL     1       1.554   0.182  -0.753  1.00  0.00    -0.280 N 
ATOM      9  H1  UNL     1       1.686   0.899  -1.467  1.00  0.00     0.188 HD
BRANCH   8  10
HETATM   10  N2  UNL     1       2.616  -0.614  -0.345  1.00  0.00    -0.276 N 
ATOM     11  H2  UNL     1       2.642  -1.609  -0.569  1.00  0.00     0.189 HD
BRANCH  10  12
HETATM   12  C5  UNL     1       3.670  -0.001   0.397  1.00  0.00     0.368 C 
HETATM   13  O1  UNL     1       3.667   1.214   0.688  1.00  0.00    -0.282 OA
ENDBRANCH  10  12
ENDBRANCH   8  10
ENDBRANCH   4   8
BRANCH   5  14
HETATM   14  O2  UNL     1       0.811  -1.789   1.346  1.00  0.00    -0.266 OA
ATOM     15  H2  UNL     1       0.562  -2.414   2.016  1.00  0.00     0.247 HD
ENDBRANCH   5  14
TORSDOF 4
