REMARK  4 active torsions:
REMARK  status: ('A' for Active; 'I' for Inactive)
REMARK    1  A    between atoms: N1_2  and  C2_5 
REMARK    2  A    between atoms: C2_5  and  C3_6 
REMARK    3  A    between atoms: C3_6  and  C4_7 
REMARK    4  A    between atoms: C7_14  and  N4_15 
ROOT
HETATM    1  C4  UNL     1       0.773  -0.046  -0.034  1.00  0.00     0.054 A 
HETATM    2  N2  UNL     1       1.261   1.218  -0.082  1.00  0.00    -0.365 N 
ATOM      3  H2  UNL     1       0.635   2.006  -0.247  1.00  0.00     0.165 HD
HETATM    4  C5  UNL     1       2.595   1.424   0.093  1.00  0.00     0.105 A 
HETATM    5  C6  UNL     1       3.476   0.383   0.322  1.00  0.00     0.106 A 
HETATM    6  N3  UNL     1       2.990  -0.868   0.369  1.00  0.00    -0.350 N 
ATOM      7  H3  UNL     1       3.612  -1.659   0.534  1.00  0.00     0.166 HD
HETATM    8  C7  UNL     1       1.647  -1.065   0.192  1.00  0.00     0.121 A 
ENDROOT
BRANCH   1   9
HETATM    9  C3  UNL     1      -0.661  -0.333  -0.184  1.00  0.00     0.088 C 
BRANCH   9  10
HETATM   10  C2  UNL     1      -1.433   0.760  -0.882  1.00  0.00     0.238 C 
BRANCH  10  11
HETATM   11  N1  UNL     1      -2.841   0.323  -0.896  1.00  0.00    -0.079 N 
HETATM   12  C1  UNL     1      -3.233   0.407   0.521  1.00  0.00     0.267 C 
ATOM     13  H12 UNL     1      -2.998  -0.588  -1.327  1.00  0.00     0.276 HD
ATOM     14  H11 UNL     1      -3.441   0.845  -1.534  1.00  0.00     0.276 HD
ENDBRANCH  10  11
ENDBRANCH   9  10
ENDBRANCH   1   9
BRANCH   8  15
HETATM   15  N4  UNL     1       1.265  -2.299   0.257  1.00  0.00    -0.384 N 
ATOM     16  H42 UNL     1       0.264  -2.446   0.125  1.00  0.00     0.157 HD
ATOM     17  H41 UNL     1       1.920  -3.062   0.426  1.00  0.00     0.157 HD
ENDBRANCH   8  15
TORSDOF 4
