REMARK  15 active torsions:
REMARK  status: ('A' for Active; 'I' for Inactive)
REMARK    1  A    between atoms: C6_6  and  N1_7 
REMARK    2  A    between atoms: N1_7  and  C7_9 
REMARK    3  A    between atoms: C7_9  and  N2_11 
REMARK    4  A    between atoms: N2_11  and  C8_13 
REMARK    5  A    between atoms: C8_13  and  C9_14 
REMARK    6  A    between atoms: C9_14  and  C10_15 
REMARK    7  A    between atoms: C10_15  and  C11_16 
REMARK    8  A    between atoms: C11_16  and  C12_17 
REMARK    9  A    between atoms: C12_17  and  C13_18 
REMARK   10  A    between atoms: C13_18  and  N3_19 
REMARK   11  A    between atoms: N3_19  and  C14_22 
REMARK   12  A    between atoms: C14_22  and  C15_23 
REMARK   13  A    between atoms: C15_23  and  N4_24 
REMARK       I    between atoms: N4_24  and  C16_26 
REMARK   14  A    between atoms: C16_26  and  O2_28 
REMARK   15  A    between atoms: O2_28  and  C17_29 
ROOT
HETATM    1  N3  UNL     1      -0.375   0.270  -0.095  1.00  0.00    -0.074 N 
ATOM      2  H31 UNL     1      -1.156  -0.355   0.104  1.00  0.00     0.277 HD
ATOM      3  H32 UNL     1      -0.222   0.051  -1.079  1.00  0.00     0.277 HD
ENDROOT
BRANCH   1   4
HETATM    4  C13 UNL     1       0.767  -0.099   0.681  1.00  0.00     0.232 C 
BRANCH   4   5
HETATM    5  C12 UNL     1       2.041   0.570   0.205  1.00  0.00     0.027 C 
BRANCH   5   6
HETATM    6  C11 UNL     1       3.159   0.102   1.095  1.00  0.00     0.002 C 
BRANCH   6   7
HETATM    7  C10 UNL     1       4.496   0.701   0.724  1.00  0.00     0.002 C 
BRANCH   7   8
HETATM    8  C9  UNL     1       4.904   0.350  -0.697  1.00  0.00     0.020 C 
BRANCH   8   9
HETATM    9  C8  UNL     1       6.247   1.009  -0.924  1.00  0.00     0.122 C 
BRANCH   9  10
HETATM   10  N2  UNL     1       6.722   0.744  -2.247  1.00  0.00    -0.367 N 
ATOM     11  H2  UNL     1       6.764   1.513  -2.915  1.00  0.00     0.161 HD
BRANCH  10  12
HETATM   12  C7  UNL     1       7.136  -0.541  -2.665  1.00  0.00     0.173 C 
HETATM   13  S1  UNL     1       7.664  -0.758  -4.205  1.00  0.00    -0.041 SA
BRANCH  12  14
HETATM   14  N1  UNL     1       7.122  -1.677  -1.818  1.00  0.00    -0.319 N 
ATOM     15  H1  UNL     1       6.279  -2.250  -1.780  1.00  0.00     0.169 HD
BRANCH  14  16
HETATM   16  C6  UNL     1       8.121  -2.009  -1.103  1.00  0.00     0.107 A 
HETATM   17  C5  UNL     1       8.052  -3.129  -0.295  1.00  0.00     0.048 A 
HETATM   18  C4  UNL     1       9.132  -3.480   0.472  1.00  0.00     0.006 A 
HETATM   19  C3  UNL     1      10.276  -2.708   0.427  1.00  0.00     0.025 A 
HETATM   20  C2  UNL     1      10.330  -1.592  -0.385  1.00  0.00     0.007 A 
HETATM   21  C1  UNL     1      11.542  -0.744  -0.457  1.00  0.00     0.068 C 
HETATM   22  N6  UNL     1       9.266  -1.282  -1.115  1.00  0.00    -0.346 N 
ATOM     23  H6  UNL     1       9.311  -0.458  -1.714  1.00  0.00     0.167 HD
ENDBRANCH  14  16
ENDBRANCH  12  14
ENDBRANCH  10  12
ENDBRANCH   9  10
ENDBRANCH   8   9
ENDBRANCH   7   8
ENDBRANCH   6   7
ENDBRANCH   5   6
ENDBRANCH   4   5
ENDBRANCH   1   4
BRANCH   1  24
HETATM   24  C14 UNL     1      -0.781   1.646   0.056  1.00  0.00     0.252 C 
BRANCH  24  25
HETATM   25  C15 UNL     1      -1.326   1.963   1.405  1.00  0.00     0.152 C 
BRANCH  25  26
HETATM   26  N4  UNL     1      -2.489   1.203   1.791  1.00  0.00    -0.335 N 
HETATM   27  C16 UNL     1      -3.697   1.248   1.066  1.00  0.00     0.361 C 
HETATM   28  O1  UNL     1      -3.818   1.950   0.057  1.00  0.00    -0.239 OA
ATOM     29  H4  UNL     1      -2.436   0.611   2.620  1.00  0.00     0.164 HD
BRANCH  27  30
HETATM   30  O2  UNL     1      -4.830   0.533   1.403  1.00  0.00    -0.296 OA
BRANCH  30  31
HETATM   31  C17 UNL     1      -6.035   0.549   0.718  1.00  0.00     0.164 C 
HETATM   32  C18 UNL     1      -7.127   1.252   1.537  1.00  0.00     0.039 C 
HETATM   33  C19 UNL     1      -8.415   1.339   0.798  1.00  0.00    -0.010 C 
HETATM   34  C20 UNL     1      -9.383   0.259   1.281  1.00  0.00     0.009 C 
HETATM   35  C24 UNL     1      -8.307   1.386  -0.685  1.00  0.00     0.037 C 
HETATM   36  C21 UNL     1      -9.007  -1.035   0.622  1.00  0.00    -0.010 C 
HETATM   37  C22 UNL     1      -9.255  -0.885  -0.852  1.00  0.00     0.037 C 
HETATM   38  C26 UNL     1      -7.617  -1.388   0.991  1.00  0.00     0.040 C 
HETATM   39  C23 UNL     1      -8.186   0.059  -1.366  1.00  0.00     0.187 C 
HETATM   40  N5  UNL     1      -6.935  -0.597  -1.202  1.00  0.00    -0.064 N 
HETATM   41  C25 UNL     1      -6.535  -0.740   0.187  1.00  0.00     0.216 C 
ATOM     42  H52 UNL     1      -6.937  -1.502  -1.672  1.00  0.00     0.278 HD
ATOM     43  H51 UNL     1      -6.207  -0.128  -1.741  1.00  0.00     0.278 HD
ENDBRANCH  30  31
ENDBRANCH  27  30
ENDBRANCH  25  26
ENDBRANCH  24  25
ENDBRANCH   1  24
TORSDOF 15
