REMARK  12 active torsions:
REMARK  status: ('A' for Active; 'I' for Inactive)
REMARK    1  A    between atoms: C2_2  and  C3_4 
REMARK    2  A    between atoms: C3_4  and  C4_5 
REMARK    3  A    between atoms: C4_5  and  C5_6 
REMARK    4  A    between atoms: C5_6  and  C6_7 
REMARK    5  A    between atoms: C6_7  and  C7_8 
REMARK    6  A    between atoms: C7_8  and  C8_9 
REMARK    7  A    between atoms: C10_14  and  C11_15 
REMARK    8  A    between atoms: C11_15  and  C12_16 
REMARK    9  A    between atoms: C15_21  and  O3_22 
REMARK   10  A    between atoms: C16_24  and  C17_25 
REMARK   11  A    between atoms: C17_25  and  C18_26 
REMARK   12  A    between atoms: C21_31  and  C22_32 
ROOT
HETATM    1  C8  UNL     1       1.500  -0.396  -0.742  1.00  0.00     0.177 C 
HETATM    2  N1  UNL     1       0.466  -0.069  -1.785  1.00  0.00    -0.346 N 
ATOM      3  H1  UNL     1       0.541  -0.527  -2.693  1.00  0.00     0.163 HD
HETATM    4  C9  UNL     1      -0.581   0.816  -1.587  1.00  0.00     0.241 C 
HETATM    5  O2  UNL     1      -1.565   0.775  -2.407  1.00  0.00    -0.271 OA
HETATM    6  C10 UNL     1      -0.671   1.825  -0.501  1.00  0.00     0.175 C 
HETATM    7  N2  UNL     1      -1.103   1.401   0.774  1.00  0.00    -0.359 N 
ATOM      8  H2  UNL     1      -0.531   1.834   1.499  1.00  0.00     0.162 HD
HETATM    9  C15 UNL     1      -2.059   0.582   1.351  1.00  0.00     0.135 C 
HETATM   10  C16 UNL     1      -2.569  -0.747   1.162  1.00  0.00     0.152 C 
HETATM   11  N3  UNL     1      -2.180  -1.541   0.103  1.00  0.00    -0.399 N 
ATOM     12  H3  UNL     1      -2.571  -1.265  -0.798  1.00  0.00     0.154 HD
HETATM   13  C21 UNL     1      -1.370  -2.622   0.054  1.00  0.00     0.148 C 
HETATM   14  C25 UNL     1      -0.144  -2.736   0.854  1.00  0.00     0.100 C 
HETATM   15  N4  UNL     1      -0.179  -2.859   2.155  1.00  0.00    -0.387 N 
ATOM     16  H41 UNL     1       0.673  -2.938   2.711  1.00  0.00     0.157 HD
ATOM     17  H42 UNL     1      -1.119  -2.861   2.552  1.00  0.00     0.157 HD
HETATM   18  N5  UNL     1       1.165  -2.733   0.301  1.00  0.00    -0.314 N 
ATOM     19  H5  UNL     1       1.829  -3.406   0.683  1.00  0.00     0.170 HD
HETATM   20  C26 UNL     1       1.638  -1.877  -0.738  1.00  0.00     0.245 C 
HETATM   21  O4  UNL     1       2.212  -2.404  -1.727  1.00  0.00    -0.271 OA
ENDROOT
BRANCH   1  22
HETATM   22  C7  UNL     1       2.747   0.277  -1.180  1.00  0.00     0.035 C 
BRANCH  22  23
HETATM   23  C6  UNL     1       3.981   0.242  -0.362  1.00  0.00     0.002 C 
BRANCH  23  24
HETATM   24  C5  UNL     1       4.635  -1.036  -0.066  1.00  0.00     0.000 C 
BRANCH  24  25
HETATM   25  C4  UNL     1       5.870  -1.045   0.763  1.00  0.00     0.007 C 
BRANCH  25  26
HETATM   26  C3  UNL     1       7.056  -0.300   0.305  1.00  0.00     0.077 C 
BRANCH  26  27
HETATM   27  C2  UNL     1       7.016   1.144   0.340  1.00  0.00     0.123 C 
HETATM   28  C1  UNL     1       7.926   1.928  -0.565  1.00  0.00     0.091 C 
HETATM   29  O1  UNL     1       6.302   1.794   1.049  1.00  0.00    -0.298 OA
ENDBRANCH  26  27
ENDBRANCH  25  26
ENDBRANCH  24  25
ENDBRANCH  23  24
ENDBRANCH  22  23
ENDBRANCH   1  22
BRANCH   6  30
HETATM   30  C11 UNL     1      -1.325   3.082  -1.051  1.00  0.00     0.038 C 
BRANCH  30  31
HETATM   31  C12 UNL     1      -1.465   4.173  -0.030  1.00  0.00    -0.020 C 
HETATM   32  C13 UNL     1      -2.137   5.352  -0.747  1.00  0.00     0.009 C 
HETATM   33  C14 UNL     1      -0.165   4.694   0.501  1.00  0.00     0.009 C 
ENDBRANCH  30  31
ENDBRANCH   6  30
BRANCH  13  34
HETATM   34  C22 UNL     1      -2.241  -3.887   0.238  1.00  0.00     0.007 C 
HETATM   35  C23 UNL     1      -3.275  -4.012  -0.829  1.00  0.00     0.012 C 
HETATM   36  C24 UNL     1      -1.425  -5.132   0.304  1.00  0.00     0.012 C 
ENDBRANCH  13  34
BRANCH   9  37
HETATM   37  O3  UNL     1      -2.708   1.126   2.369  1.00  0.00    -0.348 OA
ATOM     38  H3  UNL     1      -3.364   0.564   2.765  1.00  0.00     0.219 HD
ENDBRANCH   9  37
BRANCH  10  39
HETATM   39  C17 UNL     1      -4.062  -0.810   1.229  1.00  0.00     0.037 C 
BRANCH  39  40
HETATM   40  C18 UNL     1      -4.893  -0.097   0.257  1.00  0.00    -0.020 C 
HETATM   41  C19 UNL     1      -6.404  -0.398   0.560  1.00  0.00     0.009 C 
HETATM   42  C20 UNL     1      -4.869   1.408   0.271  1.00  0.00     0.009 C 
ENDBRANCH  39  40
ENDBRANCH  10  39
TORSDOF 12
