REMARK  13 active torsions:
REMARK  status: ('A' for Active; 'I' for Inactive)
REMARK    1  A    between atoms: C2_2  and  C3_3 
REMARK    2  A    between atoms: C3_3  and  C4_4 
REMARK    3  A    between atoms: C4_4  and  C5_5 
REMARK    4  A    between atoms: C5_5  and  N1_6 
REMARK    5  A    between atoms: N1_6  and  C6_8 
REMARK    6  A    between atoms: C6_8  and  C7_9 
REMARK    7  A    between atoms: C7_9  and  C8_10 
REMARK    8  A    between atoms: C8_10  and  N2_11 
REMARK    9  A    between atoms: N2_11  and  C9_13 
REMARK   10  A    between atoms: C9_13  and  C10_17 
REMARK   11  A    between atoms: C11_21  and  C12_22 
REMARK   12  A    between atoms: C12_22  and  C13_23 
REMARK   13  A    between atoms: C23_33  and  O1_34 
ROOT
HETATM    1  C10 UNL     1      -1.119  -0.394   1.013  1.00  0.00     0.261 C 
HETATM    2  N4  UNL     1      -1.385   0.709   1.918  1.00  0.00    -0.059 N 
ATOM      3  H41 UNL     1      -0.913   1.572   1.647  1.00  0.00     0.278 HD
ATOM      4  H42 UNL     1      -0.939   0.596   2.828  1.00  0.00     0.278 HD
HETATM    5  C11 UNL     1      -2.817   0.850   2.003  1.00  0.00     0.195 C 
HETATM    6  C16 UNL     1      -3.412  -0.011   0.937  1.00  0.00     0.064 C 
HETATM    7  C17 UNL     1      -2.388  -1.140   0.915  1.00  0.00     0.066 C 
HETATM    8  C18 UNL     1      -2.604  -2.024  -0.206  1.00  0.00    -0.042 A 
HETATM    9  C19 UNL     1      -1.502  -2.850  -0.217  1.00  0.00     0.015 A 
HETATM   10  C20 UNL     1      -1.335  -3.839  -1.150  1.00  0.00    -0.059 A 
HETATM   11  C21 UNL     1      -0.147  -4.744  -1.194  1.00  0.00     0.048 C 
HETATM   12  C22 UNL     1      -2.304  -4.002  -2.096  1.00  0.00     0.044 A 
HETATM   13  C23 UNL     1      -3.458  -3.167  -2.115  1.00  0.00     0.073 A 
HETATM   14  C24 UNL     1      -3.576  -2.190  -1.157  1.00  0.00    -0.018 A 
HETATM   15  C25 UNL     1      -4.858  -1.463  -1.366  1.00  0.00     0.049 C 
HETATM   16  C26 UNL     1      -5.714  -1.390  -0.155  1.00  0.00     0.025 C 
HETATM   17  C27 UNL     1      -5.760  -0.000   0.473  1.00  0.00     0.049 C 
HETATM   18  C28 UNL     1      -4.758  -0.462   1.400  1.00  0.00     0.095 A 
HETATM   19  O2  UNL     1      -4.583  -1.496   2.178  1.00  0.00    -0.368 OA
HETATM   20  C29 UNL     1      -5.348  -1.850   1.154  1.00  0.00     0.162 A 
ENDROOT
BRANCH   1  21
HETATM   21  C9  UNL     1      -0.456   0.008  -0.214  1.00  0.00     0.102 C 
HETATM   22  N3  UNL     1      -1.090   0.062  -1.325  1.00  0.00    -0.387 N 
ATOM     23  H32 UNL     1      -0.624   0.345  -2.187  1.00  0.00     0.157 HD
ATOM     24  H31 UNL     1      -2.077  -0.193  -1.340  1.00  0.00     0.157 HD
BRANCH  21  25
HETATM   25  N2  UNL     1       0.933   0.367  -0.193  1.00  0.00    -0.378 N 
ATOM     26  H2  UNL     1       1.235   1.271  -0.555  1.00  0.00     0.160 HD
BRANCH  25  27
HETATM   27  C8  UNL     1       1.915  -0.576   0.353  1.00  0.00     0.122 C 
BRANCH  27  28
HETATM   28  C7  UNL     1       3.314  -0.092   0.312  1.00  0.00     0.039 C 
BRANCH  28  29
HETATM   29  C6  UNL     1       3.839   0.218  -1.069  1.00  0.00     0.115 C 
BRANCH  29  30
HETATM   30  N1  UNL     1       5.195   0.659  -1.059  1.00  0.00    -0.421 N 
ATOM     31  H1  UNL     1       5.948   0.094  -1.452  1.00  0.00     0.153 HD
BRANCH  30  32
HETATM   32  C5  UNL     1       5.439   1.929  -0.471  1.00  0.00     0.113 C 
BRANCH  32  33
HETATM   33  C4  UNL     1       6.851   2.375  -0.398  1.00  0.00     0.019 C 
BRANCH  33  34
HETATM   34  C3  UNL     1       7.792   1.553   0.395  1.00  0.00     0.001 C 
BRANCH  34  35
HETATM   35  C2  UNL     1       7.989   0.139  -0.014  1.00  0.00    -0.004 C 
HETATM   36  C1  UNL     1       9.029  -0.471   0.951  1.00  0.00     0.005 C 
ENDBRANCH  34  35
ENDBRANCH  33  34
ENDBRANCH  32  33
ENDBRANCH  30  32
ENDBRANCH  29  30
ENDBRANCH  28  29
ENDBRANCH  27  28
ENDBRANCH  25  27
ENDBRANCH  21  25
ENDBRANCH   1  21
BRANCH   5  37
HETATM   37  C12 UNL     1      -3.262   2.253   2.140  1.00  0.00     0.037 C 
BRANCH  37  38
HETATM   38  C13 UNL     1      -2.886   3.254   1.136  1.00  0.00    -0.021 C 
HETATM   39  C14 UNL     1      -3.507   4.594   1.635  1.00  0.00     0.009 C 
HETATM   40  C15 UNL     1      -3.430   3.112  -0.257  1.00  0.00     0.009 C 
ENDBRANCH  37  38
ENDBRANCH   5  37
BRANCH  13  41
HETATM   41  O1  UNL     1      -4.373  -3.389  -3.085  1.00  0.00    -0.360 OA
ATOM     42  H1  UNL     1      -5.143  -2.832  -3.098  1.00  0.00     0.217 HD
ENDBRANCH  13  41
TORSDOF 13
