REMARK  12 active torsions:
REMARK  status: ('A' for Active; 'I' for Inactive)
REMARK    1  A    between atoms: C2_2  and  C3_3 
REMARK    2  A    between atoms: C3_3  and  C4_4 
REMARK    3  A    between atoms: C4_4  and  N1_5 
REMARK    4  A    between atoms: C4_4  and  C6_11 
REMARK    5  A    between atoms: N1_5  and  S1_7 
REMARK    6  A    between atoms: C6_11  and  O3_12 
REMARK    7  A    between atoms: C6_11  and  C7_14 
REMARK    8  A    between atoms: C7_14  and  N2_15 
REMARK    9  A    between atoms: C13_21  and  C14_22 
REMARK   10  A    between atoms: C14_22  and  C15_23 
REMARK   11  A    between atoms: C15_23  and  C16_24 
REMARK   12  A    between atoms: C16_24  and  N3_25 
REMARK       I    between atoms: N3_25  and  C17_27 
ROOT
HETATM    1  C6  UNL     1      -1.034  -0.363   1.095  1.00  0.00     0.170 C 
ENDROOT
BRANCH   1   2
HETATM    2  C4  UNL     1      -2.347  -0.623   0.372  1.00  0.00     0.135 C 
BRANCH   2   3
HETATM    3  C3  UNL     1      -3.352   0.501   0.614  1.00  0.00     0.000 C 
HETATM    4  C19 UNL     1      -2.663   1.879   0.585  1.00  0.00     0.015 C 
HETATM    5  C20 UNL     1      -2.170   2.280  -0.741  1.00  0.00     0.001 C 
HETATM    6  C21 UNL     1      -3.134   3.093  -1.557  1.00  0.00     0.000 C 
HETATM    7  C22 UNL     1      -4.290   3.687  -0.860  1.00  0.00     0.004 C 
HETATM    8  C23 UNL     1      -5.400   2.788  -0.449  1.00  0.00     0.027 C 
HETATM    9  C24 UNL     1      -5.360   1.377  -0.814  1.00  0.00    -0.030 C 
HETATM   10  C25 UNL     1      -4.408   0.385  -0.411  1.00  0.00    -0.019 C 
BRANCH   3  11
HETATM   11  C2  UNL     1      -3.963   0.483   1.995  1.00  0.00     0.011 C 
HETATM   12  C1  UNL     1      -4.723  -0.703   2.402  1.00  0.00     0.006 C 
ENDBRANCH   3  11
ENDBRANCH   2   3
BRANCH   2  13
HETATM   13  N1  UNL     1      -2.832  -1.930   0.510  1.00  0.00    -0.311 N 
ATOM     14  H1  UNL     1      -3.185  -2.144   1.443  1.00  0.00     0.172 HD
BRANCH  13  15
HETATM   15  S1  UNL     1      -2.937  -3.152  -0.522  1.00  0.00     0.223 S 
HETATM   16  C5  UNL     1      -3.983  -2.821  -1.926  1.00  0.00     0.185 C 
HETATM   17  O1  UNL     1      -3.535  -4.450   0.031  1.00  0.00    -0.206 OA
HETATM   18  O2  UNL     1      -1.674  -3.655  -1.231  1.00  0.00    -0.206 OA
ENDBRANCH  13  15
ENDBRANCH   2  13
ENDBRANCH   1   2
BRANCH   1  19
HETATM   19  O3  UNL     1      -1.095  -0.468   2.434  1.00  0.00    -0.392 OA
ATOM     20  H3  UNL     1      -0.275  -0.306   2.885  1.00  0.00     0.210 HD
ENDBRANCH   1  19
BRANCH   1  21
HETATM   21  C7  UNL     1       0.051  -1.277   0.473  1.00  0.00     0.306 C 
BRANCH  21  22
HETATM   22  N2  UNL     1       1.379  -0.982   0.884  1.00  0.00     0.096 N 
HETATM   23  C8  UNL     1       1.697  -1.349   2.201  1.00  0.00     0.273 C 
HETATM   24  C9  UNL     1       2.023  -2.855   2.106  1.00  0.00     0.037 C 
HETATM   25  C10 UNL     1       2.665  -2.957   0.759  1.00  0.00     0.021 C 
HETATM   26  C11 UNL     1       4.167  -2.967   0.967  1.00  0.00     0.007 C 
HETATM   27  C18 UNL     1       2.311  -1.716   0.029  1.00  0.00     0.231 C 
HETATM   28  C12 UNL     1       4.631  -1.574   0.715  1.00  0.00     0.007 C 
HETATM   29  C13 UNL     1       3.595  -0.969  -0.153  1.00  0.00     0.019 C 
BRANCH  29  30
HETATM   30  C14 UNL     1       4.003  -1.062  -1.606  1.00  0.00     0.008 C 
BRANCH  30  31
HETATM   31  C15 UNL     1       5.304  -0.340  -1.878  1.00  0.00     0.020 C 
BRANCH  31  32
HETATM   32  C16 UNL     1       5.233   1.115  -1.525  1.00  0.00     0.122 C 
BRANCH  32  33
HETATM   33  N3  UNL     1       6.520   1.728  -1.808  1.00  0.00    -0.365 N 
HETATM   34  C17 UNL     1       6.715   3.133  -1.530  1.00  0.00     0.181 C 
HETATM   35  N4  UNL     1       5.737   3.910  -1.897  1.00  0.00    -0.374 N 
HETATM   36  N5  UNL     1       7.868   3.630  -0.913  1.00  0.00    -0.064 NA
ATOM     37  H42 UNL     1       4.896   3.548  -2.347  1.00  0.00     0.158 HD
ATOM     38  H41 UNL     1       5.875   4.901  -1.701  1.00  0.00     0.158 HD
ATOM     39  H3  UNL     1       7.280   1.171  -2.200  1.00  0.00     0.162 HD
ENDBRANCH  32  33
ENDBRANCH  31  32
ENDBRANCH  30  31
ENDBRANCH  29  30
ENDBRANCH  21  22
ENDBRANCH   1  21
TORSDOF 12
