REMARK  14 active torsions:
REMARK  status: ('A' for Active; 'I' for Inactive)
REMARK    1  A    between atoms: C2_2  and  C3_3 
REMARK    2  A    between atoms: C3_3  and  C4_4 
REMARK    3  A    between atoms: C4_4  and  C5_5 
REMARK    4  A    between atoms: C5_5  and  C6_6 
REMARK    5  A    between atoms: C6_6  and  N1_7 
REMARK    6  A    between atoms: N1_7  and  C7_9 
REMARK    7  A    between atoms: C7_9  and  N2_11 
REMARK    8  A    between atoms: N2_11  and  C8_13 
REMARK    9  A    between atoms: C8_13  and  C9_14 
REMARK   10  A    between atoms: C9_14  and  C10_15 
REMARK   11  A    between atoms: C10_15  and  N3_16 
REMARK   12  A    between atoms: N3_16  and  C11_19 
REMARK   13  A    between atoms: C11_19  and  C12_20 
REMARK   14  A    between atoms: C25_36  and  O2_37 
ROOT
HETATM    1  N1  UNL     1      -1.088  -0.138   1.221  1.00  0.00    -0.367 N 
ATOM      2  H1  UNL     1      -1.282   0.778   0.816  1.00  0.00     0.161 HD
ENDROOT
BRANCH   1   3
HETATM    3  C6  UNL     1      -2.138  -0.866   1.844  1.00  0.00     0.122 C 
BRANCH   3   4
HETATM    4  C5  UNL     1      -3.486  -0.114   1.810  1.00  0.00     0.022 C 
BRANCH   4   5
HETATM    5  C4  UNL     1      -3.873   0.128   0.420  1.00  0.00     0.033 C 
BRANCH   5   6
HETATM    6  C3  UNL     1      -5.159   0.796   0.084  1.00  0.00     0.038 C 
HETATM    7  N4  UNL     1      -5.075   1.028  -1.372  1.00  0.00    -0.351 N 
HETATM    8  C21 UNL     1      -6.218   1.236  -2.138  1.00  0.00     0.228 C 
ATOM      9  H4  UNL     1      -4.161   1.036  -1.825  1.00  0.00     0.163 HD
HETATM   10  O1  UNL     1      -6.280   2.141  -3.026  1.00  0.00    -0.273 OA
HETATM   11  C22 UNL     1      -7.406   0.378  -1.919  1.00  0.00     0.060 C 
HETATM   12  C23 UNL     1      -8.648   1.129  -1.598  1.00  0.00     0.028 C 
HETATM   13  C24 UNL     1      -7.661  -0.371  -3.235  1.00  0.00     0.028 C 
HETATM   14  C25 UNL     1      -6.994  -0.654  -0.908  1.00  0.00     0.141 C 
HETATM   15  C26 UNL     1      -6.359  -0.077   0.315  1.00  0.00     0.040 C 
HETATM   16  C27 UNL     1      -7.415   0.466   1.207  1.00  0.00     0.015 C 
BRANCH   6  17
HETATM   17  C2  UNL     1      -5.288   2.179   0.635  1.00  0.00     0.027 C 
HETATM   18  C1  UNL     1      -5.236   2.408   2.081  1.00  0.00     0.007 C 
ENDBRANCH   6  17
BRANCH  14  19
HETATM   19  O2  UNL     1      -8.088  -1.401  -0.540  1.00  0.00    -0.394 OA
ATOM     20  H2  UNL     1      -7.827  -2.054   0.099  1.00  0.00     0.210 HD
ENDBRANCH  14  19
ENDBRANCH   5   6
ENDBRANCH   4   5
ENDBRANCH   3   4
ENDBRANCH   1   3
BRANCH   1  21
HETATM   21  C7  UNL     1       0.248  -0.678   1.155  1.00  0.00     0.167 C 
HETATM   22  S1  UNL     1       0.506  -2.157   1.799  1.00  0.00    -0.041 SA
BRANCH  21  23
HETATM   23  N2  UNL     1       1.282   0.037   0.538  1.00  0.00    -0.367 N 
ATOM     24  H2  UNL     1       1.069   0.946   0.126  1.00  0.00     0.161 HD
BRANCH  23  25
HETATM   25  C8  UNL     1       2.618  -0.450   0.461  1.00  0.00     0.123 C 
BRANCH  25  26
HETATM   26  C9  UNL     1       3.372  -0.472   1.765  1.00  0.00     0.047 C 
BRANCH  26  27
HETATM   27  C10 UNL     1       4.754  -1.030   1.581  1.00  0.00     0.234 C 
BRANCH  27  28
HETATM   28  N3  UNL     1       5.560  -0.301   0.659  1.00  0.00    -0.071 N 
ATOM     29  H32 UNL     1       5.126  -0.228  -0.261  1.00  0.00     0.277 HD
ATOM     30  H31 UNL     1       5.597   0.694   0.880  1.00  0.00     0.277 HD
BRANCH  28  31
HETATM   31  C11 UNL     1       6.886  -0.905   0.599  1.00  0.00     0.271 C 
BRANCH  31  32
HETATM   32  C12 UNL     1       7.764  -0.218  -0.351  1.00  0.00    -0.026 A 
HETATM   33  C13 UNL     1       7.279   0.868  -1.058  1.00  0.00     0.009 A 
HETATM   34  C14 UNL     1       8.120   1.489  -1.941  1.00  0.00     0.001 A 
HETATM   35  C15 UNL     1       9.414   1.064  -2.136  1.00  0.00     0.007 A 
HETATM   36  C16 UNL     1       9.918  -0.015  -1.443  1.00  0.00    -0.051 A 
HETATM   37  C17 UNL     1       9.056  -0.635  -0.553  1.00  0.00    -0.044 A 
HETATM   38  C20 UNL     1      11.234  -0.699  -1.429  1.00  0.00     0.039 C 
HETATM   39  C18 UNL     1       9.773  -1.780   0.105  1.00  0.00     0.040 C 
HETATM   40  C19 UNL     1      10.979  -2.038  -0.750  1.00  0.00     0.009 C 
ENDBRANCH  31  32
ENDBRANCH  28  31
ENDBRANCH  27  28
ENDBRANCH  26  27
ENDBRANCH  25  26
ENDBRANCH  23  25
ENDBRANCH  21  23
ENDBRANCH   1  21
TORSDOF 14
