REMARK  11 active torsions:
REMARK  status: ('A' for Active; 'I' for Inactive)
REMARK    1  A    between atoms: N1_2  and  C2_5 
REMARK    2  A    between atoms: N2_11  and  C7_12 
REMARK    3  A    between atoms: C7_12  and  C8_13 
REMARK       I    between atoms: C8_13  and  N3_15 
REMARK    4  A    between atoms: N3_15  and  C9_17 
REMARK    5  A    between atoms: C9_17  and  C10_18 
REMARK    6  A    between atoms: C13_25  and  C14_26 
REMARK    7  A    between atoms: C14_26  and  C15_27 
REMARK    8  A    between atoms: C18_32  and  N6_33 
REMARK    9  A    between atoms: N6_33  and  C19_36 
REMARK   10  A    between atoms: C19_36  and  C20_37 
REMARK   11  A    between atoms: C20_37  and  C21_38 
ROOT
HETATM    1  C2  UNL     1       1.364   1.808   1.161  1.00  0.00     0.216 C 
HETATM    2  C3  UNL     1       1.317   0.661   2.140  1.00  0.00     0.036 C 
HETATM    3  C4  UNL     1       0.145  -0.250   1.900  1.00  0.00     0.017 C 
HETATM    4  C5  UNL     1      -0.089  -0.567   0.456  1.00  0.00     0.084 C 
HETATM    5  C6  UNL     1      -1.488  -1.050   0.299  1.00  0.00     0.225 C 
HETATM    6  O1  UNL     1      -1.812  -2.246   0.556  1.00  0.00    -0.273 OA
HETATM    7  N2  UNL     1      -2.465  -0.158  -0.142  1.00  0.00    -0.338 N 
HETATM    8  C13 UNL     1      -2.146   1.274  -0.036  1.00  0.00     0.098 C 
HETATM    9  C16 UNL     1      -0.898   1.439  -0.872  1.00  0.00     0.033 C 
HETATM   10  C17 UNL     1       0.215   0.477  -0.525  1.00  0.00     0.033 C 
HETATM   11  C18 UNL     1       1.486   1.228  -0.206  1.00  0.00     0.221 C 
ENDROOT
BRANCH   7  12
HETATM   12  C7  UNL     1      -3.715  -0.606  -0.673  1.00  0.00     0.228 C 
BRANCH  12  13
HETATM   13  C8  UNL     1      -4.760  -0.746   0.402  1.00  0.00     0.235 C 
HETATM   14  O2  UNL     1      -4.390  -0.485   1.574  1.00  0.00    -0.272 OA
HETATM   15  N3  UNL     1      -6.070  -1.148   0.060  1.00  0.00    -0.353 N 
ATOM     16  H3  UNL     1      -6.297  -1.339  -0.916  1.00  0.00     0.162 HD
BRANCH  15  17
HETATM   17  C9  UNL     1      -7.088  -1.292   1.063  1.00  0.00     0.199 C 
BRANCH  17  18
HETATM   18  C10 UNL     1      -8.363  -1.659   0.414  1.00  0.00     0.099 A 
HETATM   19  N4  UNL     1      -9.421  -0.875   0.153  1.00  0.00    -0.353 N 
HETATM   20  C11 UNL     1     -10.381  -1.583  -0.459  1.00  0.00     0.106 A 
ATOM     21  H4  UNL     1      -9.485   0.116   0.386  1.00  0.00     0.166 HD
HETATM   22  C12 UNL     1      -9.913  -2.874  -0.593  1.00  0.00     0.106 A 
HETATM   23  N5  UNL     1      -8.675  -2.876  -0.045  1.00  0.00    -0.353 N 
ATOM     24  H5  UNL     1      -8.065  -3.692   0.010  1.00  0.00     0.166 HD
ENDBRANCH  17  18
ENDBRANCH  15  17
ENDBRANCH  12  13
ENDBRANCH   7  12
BRANCH   8  25
HETATM   25  C14 UNL     1      -3.246   2.063  -0.700  1.00  0.00     0.138 C 
BRANCH  25  26
HETATM   26  C15 UNL     1      -2.986   3.504  -0.575  1.00  0.00     0.174 C 
HETATM   27  O3  UNL     1      -2.053   4.029   0.050  1.00  0.00    -0.648 OA
HETATM   28  O4  UNL     1      -3.873   4.363  -1.219  1.00  0.00    -0.648 OA
ENDBRANCH  25  26
ENDBRANCH   8  25
BRANCH  11  29
HETATM   29  N6  UNL     1       2.621   0.276  -0.221  1.00  0.00    -0.069 N 
ATOM     30  H62 UNL     1       3.295   0.467   0.521  1.00  0.00     0.277 HD
ATOM     31  H61 UNL     1       2.343  -0.660   0.073  1.00  0.00     0.277 HD
BRANCH  29  32
HETATM   32  C19 UNL     1       3.231   0.279  -1.525  1.00  0.00     0.233 C 
BRANCH  32  33
HETATM   33  C20 UNL     1       4.310  -0.663  -1.825  1.00  0.00     0.032 C 
BRANCH  33  34
HETATM   34  C21 UNL     1       5.559  -0.665  -1.038  1.00  0.00    -0.013 C 
HETATM   35  C22 UNL     1       6.487  -1.737  -1.718  1.00  0.00     0.005 C 
HETATM   36  C23 UNL     1       7.805  -1.771  -1.020  1.00  0.00     0.000 C 
HETATM   37  C24 UNL     1       7.585  -2.328   0.378  1.00  0.00     0.000 C 
HETATM   38  C25 UNL     1       6.700  -1.295   1.083  1.00  0.00     0.000 C 
HETATM   39  C26 UNL     1       5.371  -1.296   0.341  1.00  0.00     0.005 C 
ENDBRANCH  33  34
ENDBRANCH  32  33
ENDBRANCH  29  32
ENDBRANCH  11  29
BRANCH   1  40
HETATM   40  N1  UNL     1       2.525   2.606   1.460  1.00  0.00    -0.073 N 
HETATM   41  C1  UNL     1       2.459   3.819   0.670  1.00  0.00     0.267 C 
ATOM     42  H12 UNL     1       3.398   2.096   1.324  1.00  0.00     0.277 HD
ATOM     43  H11 UNL     1       2.627   2.792   2.458  1.00  0.00     0.277 HD
ENDBRANCH   1  40
TORSDOF 11
