REMARK  13 active torsions:
REMARK  status: ('A' for Active; 'I' for Inactive)
REMARK    1  A    between atoms: C2_2  and  N2_6 
REMARK    2  A    between atoms: N2_6  and  C3_8 
REMARK    3  A    between atoms: N5_15  and  C5_16 
REMARK    4  A    between atoms: C5_16  and  C6_17 
REMARK    5  A    between atoms: C9_20  and  C10_21 
REMARK       I    between atoms: C10_21  and  N6_23 
REMARK    6  A    between atoms: N6_23  and  C11_25 
REMARK    7  A    between atoms: C11_25  and  C12_26 
REMARK    8  A    between atoms: C12_26  and  C13_27 
REMARK    9  A    between atoms: C13_27  and  C14_28 
REMARK   10  A    between atoms: C14_28  and  C15_29 
REMARK   11  A    between atoms: C15_29  and  C16_30 
REMARK   12  A    between atoms: N7_32  and  C18_34 
REMARK   13  A    between atoms: C20_36  and  C21_37 
ROOT
HETATM    1  C6  UNL     1       3.410  -0.854  -1.277  1.00  0.00     0.005 C 
HETATM    2  C7  UNL     1       2.368  -1.398  -0.361  1.00  0.00     0.007 C 
HETATM    3  C8  UNL     1       1.107  -0.538  -0.390  1.00  0.00     0.014 C 
HETATM    4  C9  UNL     1       1.475   0.905  -0.104  1.00  0.00     0.078 C 
HETATM    5  C22 UNL     1       2.386   1.368  -1.218  1.00  0.00     0.014 C 
HETATM    6  C23 UNL     1       3.712   0.600  -1.004  1.00  0.00     0.007 C 
ENDROOT
BRANCH   4   7
HETATM    7  C10 UNL     1       0.237   1.715  -0.018  1.00  0.00     0.221 C 
HETATM    8  O1  UNL     1      -0.018   2.323   1.054  1.00  0.00    -0.273 OA
HETATM    9  N6  UNL     1      -0.651   1.816  -1.103  1.00  0.00    -0.361 N 
ATOM     10  H6  UNL     1      -0.451   1.326  -1.975  1.00  0.00     0.162 HD
BRANCH   9  11
HETATM   11  C11 UNL     1      -1.841   2.611  -0.982  1.00  0.00     0.122 C 
BRANCH  11  12
HETATM   12  C12 UNL     1      -2.646   2.573  -2.251  1.00  0.00     0.020 C 
BRANCH  12  13
HETATM   13  C13 UNL     1      -3.050   1.160  -2.551  1.00  0.00     0.002 C 
BRANCH  13  14
HETATM   14  C14 UNL     1      -3.870   0.605  -1.430  1.00  0.00     0.006 C 
BRANCH  14  15
HETATM   15  C15 UNL     1      -5.107   1.447  -1.244  1.00  0.00     0.052 C 
BRANCH  15  16
HETATM   16  C16 UNL     1      -5.863   0.804  -0.110  1.00  0.00    -0.017 C 
HETATM   17  C17 UNL     1      -5.167   0.714   1.194  1.00  0.00     0.063 C 
HETATM   18  N7  UNL     1      -7.040   0.386  -0.352  1.00  0.00    -0.367 N 
ATOM     19  H7  UNL     1      -7.411   0.506  -1.295  1.00  0.00     0.165 HD
BRANCH  18  20
HETATM   20  C18 UNL     1      -7.869  -0.242   0.624  1.00  0.00     0.011 C 
HETATM   21  C19 UNL     1      -9.106   0.479   1.009  1.00  0.00     0.068 C 
HETATM   22  C20 UNL     1      -7.587  -1.391   1.172  1.00  0.00     0.108 C 
BRANCH  22  23
HETATM   23  C21 UNL     1      -8.395  -2.062   2.161  1.00  0.00     0.200 C 
HETATM   24  O2  UNL     1      -9.477  -1.628   2.626  1.00  0.00    -0.644 OA
HETATM   25  O3  UNL     1      -7.990  -3.304   2.684  1.00  0.00    -0.644 OA
ENDBRANCH  22  23
ENDBRANCH  18  20
ENDBRANCH  15  16
ENDBRANCH  14  15
ENDBRANCH  13  14
ENDBRANCH  12  13
ENDBRANCH  11  12
ENDBRANCH   9  11
ENDBRANCH   4   7
BRANCH   1  26
HETATM   26  C5  UNL     1       4.631  -1.701  -1.289  1.00  0.00     0.156 C 
BRANCH  26  27
HETATM   27  N5  UNL     1       5.274  -1.853  -0.029  1.00  0.00    -0.144 N 
HETATM   28  C4  UNL     1       5.081  -2.888   0.932  1.00  0.00     0.682 A 
HETATM   29  N3  UNL     1       5.964  -2.614   2.006  1.00  0.00    -0.171 N 
HETATM   30  N4  UNL     1       4.303  -3.900   0.898  1.00  0.00    -0.234 N 
HETATM   31  C3  UNL     1       6.653  -1.555   1.803  1.00  0.00     0.191 A 
ATOM     32  H3  UNL     1       6.041  -3.193   2.842  1.00  0.00     0.186 HD
HETATM   33  C24 UNL     1       6.279  -0.986   0.509  1.00  0.00     0.306 A 
HETATM   34  O4  UNL     1       6.752   0.053  -0.017  1.00  0.00    -0.263 OA
ATOM     35  H42 UNL     1       4.165  -4.641   1.586  1.00  0.00     0.174 HD
ATOM     36  H41 UNL     1       3.667  -4.097   0.125  1.00  0.00     0.174 HD
BRANCH  31  37
HETATM   37  N2  UNL     1       7.642  -0.975   2.671  1.00  0.00    -0.328 N 
ATOM     38  H2  UNL     1       7.462  -0.914   3.673  1.00  0.00     0.169 HD
BRANCH  37  39
HETATM   39  C2  UNL     1       8.863  -0.488   2.146  1.00  0.00     0.072 C 
HETATM   40  C1  UNL     1       9.144   0.949   1.928  1.00  0.00     0.088 C 
HETATM   41  N1  UNL     1       9.794  -1.339   1.837  1.00  0.00    -0.389 N 
ATOM     42  H12 UNL     1      10.674  -0.988   1.459  1.00  0.00     0.157 HD
ATOM     43  H11 UNL     1       9.600  -2.329   1.987  1.00  0.00     0.157 HD
ENDBRANCH  37  39
ENDBRANCH  31  37
ENDBRANCH  26  27
ENDBRANCH   1  26
TORSDOF 13
