REMARK  12 active torsions:
REMARK  status: ('A' for Active; 'I' for Inactive)
REMARK    1  A    between atoms: C2_2  and  C3_3 
REMARK    2  A    between atoms: C3_3  and  N1_4 
REMARK    3  A    between atoms: N1_4  and  C4_5 
REMARK    4  A    between atoms: C4_5  and  C5_6 
REMARK    5  A    between atoms: C5_6  and  N2_7 
REMARK    6  A    between atoms: N2_7  and  C6_9 
REMARK    7  A    between atoms: C6_9  and  O1_10 
REMARK    8  A    between atoms: C6_9  and  C7_12 
REMARK    9  A    between atoms: C9_14  and  C10_15 
REMARK   10  A    between atoms: C14_19  and  C15_20 
REMARK   11  A    between atoms: N3_21  and  O2_23 
REMARK   12  A    between atoms: C16_25  and  C17_26 
ROOT
HETATM    1  C7  UNL     1       1.687   0.111  -0.813  1.00  0.00     0.004 A 
HETATM    2  C8  UNL     1       2.313  -1.093  -0.528  1.00  0.00     0.020 A 
HETATM    3  C9  UNL     1       3.582  -1.090   0.005  1.00  0.00    -0.053 A 
HETATM    4  C13 UNL     1       4.218   0.091   0.251  1.00  0.00     0.021 A 
HETATM    5  C14 UNL     1       3.613   1.322  -0.025  1.00  0.00    -0.004 A 
HETATM    6  C16 UNL     1       2.329   1.284  -0.565  1.00  0.00     0.024 A 
ENDROOT
BRANCH   1   7
HETATM    7  C6  UNL     1       0.288   0.099  -1.340  1.00  0.00     0.252 C 
BRANCH   7   8
HETATM    8  N2  UNL     1      -0.502  -0.878  -0.715  1.00  0.00    -0.371 N 
ATOM      9  H2  UNL     1      -0.714  -1.725  -1.243  1.00  0.00     0.161 HD
BRANCH   8  10
HETATM   10  C5  UNL     1      -1.016  -0.775   0.570  1.00  0.00     0.086 C 
BRANCH  10  11
HETATM   11  C4  UNL     1      -2.151   0.115   0.888  1.00  0.00     0.281 C 
BRANCH  11  12
HETATM   12  N1  UNL     1      -3.372  -0.177   0.180  1.00  0.00    -0.060 N 
HETATM   13  C18 UNL     1      -3.209  -1.046  -0.963  1.00  0.00     0.238 C 
HETATM   14  C19 UNL     1      -4.666  -1.406  -1.283  1.00  0.00     0.030 C 
HETATM   15  C20 UNL     1      -5.412  -1.243   0.006  1.00  0.00     0.030 C 
HETATM   16  C21 UNL     1      -4.333  -0.884   0.987  1.00  0.00     0.238 C 
BRANCH  12  17
HETATM   17  C3  UNL     1      -3.968   1.055  -0.272  1.00  0.00     0.264 C 
BRANCH  17  18
HETATM   18  C2  UNL     1      -4.728   1.797   0.744  1.00  0.00    -0.009 C 
HETATM   19  C1  UNL     1      -4.390   3.023   1.110  1.00  0.00     0.008 C 
ENDBRANCH  17  18
ENDBRANCH  12  17
ENDBRANCH  11  12
ENDBRANCH  10  11
ENDBRANCH   8  10
ENDBRANCH   7   8
BRANCH   7  20
HETATM   20  O1  UNL     1      -0.163   1.351  -1.511  1.00  0.00    -0.373 OA
ATOM     21  H1  UNL     1       0.372   2.012  -1.934  1.00  0.00     0.212 HD
ENDBRANCH   7  20
ENDBRANCH   1   7
BRANCH   6  22
HETATM   22  C17 UNL     1       1.747   2.577  -0.870  1.00  0.00     0.271 C 
HETATM   23  O3  UNL     1       1.953   3.087  -2.011  1.00  0.00    -0.301 OA
ENDBRANCH   6  22
BRANCH   3  24
HETATM   24  C10 UNL     1       4.239  -2.398   0.320  1.00  0.00     0.010 C 
HETATM   25  C11 UNL     1       5.424  -2.608  -0.596  1.00  0.00     0.015 C 
HETATM   26  C12 UNL     1       4.685  -2.489   1.738  1.00  0.00     0.015 C 
ENDBRANCH   3  24
BRANCH   5  27
HETATM   27  C15 UNL     1       4.345   2.535   0.282  1.00  0.00     0.126 C 
HETATM   28  N3  UNL     1       3.857   3.681   0.088  1.00  0.00    -0.280 N 
ATOM     29  H3  UNL     1       2.914   3.707  -0.299  1.00  0.00     0.193 HD
BRANCH  28  30
HETATM   30  O2  UNL     1       4.432   4.878   0.331  1.00  0.00    -0.290 OA
ATOM     31  H2  UNL     1       4.064   5.742   0.185  1.00  0.00     0.244 HD
ENDBRANCH  28  30
ENDBRANCH   5  27
TORSDOF 12
