REMARK  13 active torsions:
REMARK  status: ('A' for Active; 'I' for Inactive)
REMARK    1  A    between atoms: N1_2  and  C2_3 
REMARK    2  A    between atoms: N1_2  and  C16_23 
REMARK    3  A    between atoms: C2_3  and  C3_4 
REMARK    4  A    between atoms: C3_4  and  C4_5 
REMARK    5  A    between atoms: C4_5  and  C5_6 
REMARK    6  A    between atoms: C5_6  and  C6_7 
REMARK    7  A    between atoms: C6_7  and  C7_8 
REMARK    8  A    between atoms: C7_8  and  C8_9 
REMARK    9  A    between atoms: C8_9  and  C9_10 
REMARK   10  A    between atoms: C13_14  and  O1_15 
REMARK   11  A    between atoms: C15_18  and  N2_19 
REMARK   12  A    between atoms: C16_23  and  C17_24 
REMARK       I    between atoms: C17_24  and  N3_26 
REMARK   13  A    between atoms: N3_26  and  C18_28 
ROOT
HETATM    1  C5  UNL     1      -1.216  -1.201   0.902  1.00  0.00     0.000 C 
ENDROOT
BRANCH   1   2
HETATM    2  C4  UNL     1       0.183  -1.284   0.307  1.00  0.00     0.002 C 
BRANCH   2   3
HETATM    3  C3  UNL     1       1.195  -0.782   1.326  1.00  0.00     0.020 C 
BRANCH   3   4
HETATM    4  C2  UNL     1       2.554  -0.911   0.616  1.00  0.00     0.122 C 
BRANCH   4   5
HETATM    5  N1  UNL     1       2.536  -0.130  -0.548  1.00  0.00    -0.390 N 
HETATM    6  C1  UNL     1       2.494   1.255  -0.346  1.00  0.00     0.149 C 
BRANCH   5   7
HETATM    7  C16 UNL     1       3.136  -0.671  -1.692  1.00  0.00     0.160 C 
BRANCH   7   8
HETATM    8  C17 UNL     1       4.590  -0.548  -1.834  1.00  0.00     0.256 C 
HETATM    9  O2  UNL     1       5.130  -1.032  -2.861  1.00  0.00    -0.267 OA
HETATM   10  N3  UNL     1       5.396   0.084  -0.873  1.00  0.00    -0.352 N 
ATOM     11  H3  UNL     1       4.971   0.479  -0.034  1.00  0.00     0.163 HD
BRANCH  10  12
HETATM   12  C18 UNL     1       6.847   0.178  -1.070  1.00  0.00     0.084 C 
HETATM   13  C19 UNL     1       7.206   1.637  -1.036  1.00  0.00     0.025 C 
HETATM   14  C20 UNL     1       8.013   1.793   0.256  1.00  0.00     0.002 C 
HETATM   15  C21 UNL     1       8.778   0.479   0.273  1.00  0.00     0.002 C 
HETATM   16  C22 UNL     1       7.614  -0.497   0.047  1.00  0.00     0.025 C 
ENDBRANCH  10  12
ENDBRANCH   7   8
ENDBRANCH   5   7
ENDBRANCH   4   5
ENDBRANCH   3   4
ENDBRANCH   2   3
ENDBRANCH   1   2
BRANCH   1  17
HETATM   17  C6  UNL     1      -2.156  -1.703  -0.141  1.00  0.00     0.000 C 
BRANCH  17  18
HETATM   18  C7  UNL     1      -3.624  -1.694   0.324  1.00  0.00     0.000 C 
BRANCH  18  19
HETATM   19  C8  UNL     1      -4.047  -0.304   0.675  1.00  0.00     0.007 C 
BRANCH  19  20
HETATM   20  C9  UNL     1      -5.414  -0.087   1.167  1.00  0.00     0.019 C 
HETATM   21  C10 UNL     1      -5.518   1.439   1.455  1.00  0.00     0.033 C 
HETATM   22  C11 UNL     1      -5.152   2.250   0.293  1.00  0.00    -0.028 C 
HETATM   23  C12 UNL     1      -5.482   2.117  -0.992  1.00  0.00     0.001 C 
HETATM   24  C13 UNL     1      -6.358   1.032  -1.551  1.00  0.00     0.142 C 
HETATM   25  C14 UNL     1      -7.239   0.488  -0.485  1.00  0.00     0.069 C 
HETATM   26  C15 UNL     1      -6.589  -0.545   0.415  1.00  0.00     0.190 C 
BRANCH  24  27
HETATM   27  O1  UNL     1      -5.668   0.095  -2.278  1.00  0.00    -0.392 OA
ATOM     28  H1  UNL     1      -6.222  -0.591  -2.631  1.00  0.00     0.210 HD
ENDBRANCH  24  27
BRANCH  26  29
HETATM   29  N2  UNL     1      -6.538  -1.770  -0.293  1.00  0.00    -0.075 N 
ATOM     30  H23 UNL     1      -5.738  -1.745  -0.926  1.00  0.00     0.274 HD
ATOM     31  H22 UNL     1      -6.261  -2.507   0.355  1.00  0.00     0.274 HD
ATOM     32  H21 UNL     1      -7.354  -2.088  -0.815  1.00  0.00     0.274 HD
ENDBRANCH  26  29
ENDBRANCH  19  20
ENDBRANCH  18  19
ENDBRANCH  17  18
ENDBRANCH   1  17
TORSDOF 13
