REMARK  8 active torsions:
REMARK  status: ('A' for Active; 'I' for Inactive)
REMARK    1  A    between atoms: C2_2  and  C3_3 
REMARK    2  A    between atoms: C4_4  and  C5_5 
REMARK       I    between atoms: C5_5  and  N1_7 
REMARK    3  A    between atoms: N1_7  and  C6_9 
REMARK    4  A    between atoms: C6_9  and  C9_12 
REMARK    5  A    between atoms: C10_13  and  S1_14 
REMARK    6  A    between atoms: C15_23  and  C16_24 
REMARK    7  A    between atoms: C17_25  and  C18_26 
REMARK    8  A    between atoms: C21_29  and  N3_30 
ROOT
HETATM    1  C3  UNL     1       0.983  -1.052  -0.605  1.00  0.00    -0.021 A 
HETATM    2  C4  UNL     1      -0.001  -1.920  -0.986  1.00  0.00     0.055 A 
HETATM    3  C12 UNL     1       0.413  -3.158  -1.501  1.00  0.00     0.105 A 
HETATM    4  N2  UNL     1       1.714  -3.483  -1.617  1.00  0.00    -0.367 N 
ATOM      5  H2  UNL     1       1.984  -4.391  -1.995  1.00  0.00     0.165 HD
HETATM    6  C13 UNL     1       2.663  -2.596  -1.228  1.00  0.00     0.024 A 
HETATM    7  C14 UNL     1       4.104  -2.956  -1.363  1.00  0.00     0.070 C 
HETATM    8  C15 UNL     1       2.348  -1.349  -0.710  1.00  0.00     0.047 A 
ENDROOT
BRANCH   2   9
HETATM    9  C5  UNL     1      -1.415  -1.621  -0.850  1.00  0.00     0.254 C 
HETATM   10  O1  UNL     1      -2.097  -1.468  -1.895  1.00  0.00    -0.268 OA
HETATM   11  N1  UNL     1      -2.017  -1.509   0.403  1.00  0.00    -0.345 N 
ATOM     12  H1  UNL     1      -1.468  -1.650   1.251  1.00  0.00     0.163 HD
BRANCH  11  13
HETATM   13  C6  UNL     1      -3.465  -1.183   0.493  1.00  0.00     0.044 C 
HETATM   14  C7  UNL     1      -3.761  -1.364   1.986  1.00  0.00     0.042 C 
HETATM   15  C8  UNL     1      -4.239  -2.163  -0.299  1.00  0.00     0.042 C 
BRANCH  13  16
HETATM   16  C9  UNL     1      -3.660   0.215   0.051  1.00  0.00     0.015 C 
HETATM   17  C10 UNL     1      -4.946   0.856  -0.107  1.00  0.00     0.107 C 
BRANCH  17  18
HETATM   18  S1  UNL     1      -6.056   1.025   1.224  1.00  0.00     0.161 S 
HETATM   19  C11 UNL     1      -7.539   1.922   0.636  1.00  0.00     0.166 C 
HETATM   20  O2  UNL     1      -5.463   1.819   2.345  1.00  0.00    -0.224 OA
HETATM   21  O3  UNL     1      -6.611  -0.271   1.744  1.00  0.00    -0.224 OA
ENDBRANCH  17  18
ENDBRANCH  13  16
ENDBRANCH  11  13
ENDBRANCH   2   9
BRANCH   1  22
HETATM   22  C2  UNL     1       0.648   0.298  -0.094  1.00  0.00     0.037 C 
HETATM   23  C1  UNL     1       0.289   1.228  -1.261  1.00  0.00     0.010 C 
ENDBRANCH   1  22
BRANCH   8  24
HETATM   24  C16 UNL     1       3.380  -0.422  -0.348  1.00  0.00    -0.059 C 
HETATM   25  C17 UNL     1       4.264   0.355  -0.081  1.00  0.00    -0.060 C 
BRANCH  25  26
HETATM   26  C18 UNL     1       5.334   1.274   0.196  1.00  0.00     0.033 A 
HETATM   27  C19 UNL     1       5.506   2.371  -0.620  1.00  0.00     0.026 A 
HETATM   28  C20 UNL     1       6.548   3.271  -0.390  1.00  0.00     0.049 A 
HETATM   29  C21 UNL     1       7.408   3.043   0.678  1.00  0.00     0.098 A 
HETATM   30  N4  UNL     1       7.231   1.978   1.462  1.00  0.00    -0.351 N 
HETATM   31  C22 UNL     1       6.214   1.100   1.235  1.00  0.00     0.110 A 
ATOM     32  H4  UNL     1       7.867   1.819   2.243  1.00  0.00     0.166 HD
BRANCH  29  33
HETATM   33  N3  UNL     1       8.363   3.876   0.875  1.00  0.00    -0.385 N 
ATOM     34  H32 UNL     1       8.498   4.690   0.276  1.00  0.00     0.157 HD
ATOM     35  H31 UNL     1       8.994   3.709   1.659  1.00  0.00     0.157 HD
ENDBRANCH  29  33
ENDBRANCH  25  26
ENDBRANCH   8  24
TORSDOF 8
