REMARK  11 active torsions:
REMARK  status: ('A' for Active; 'I' for Inactive)
REMARK    1  A    between atoms: C2_2  and  C3_3 
REMARK    2  A    between atoms: C3_3  and  N1_4 
REMARK    3  A    between atoms: N1_4  and  C4_5 
REMARK    4  A    between atoms: N1_4  and  C6_7 
REMARK    5  A    between atoms: C6_7  and  O1_8 
REMARK    6  A    between atoms: C6_7  and  N2_10 
REMARK    7  A    between atoms: N2_10  and  C7_11 
REMARK    8  A    between atoms: N2_10  and  C11_15 
REMARK    9  A    between atoms: C7_11  and  C8_12 
REMARK   10  A    between atoms: C8_12  and  C9_13 
REMARK   11  A    between atoms: C13_17  and  C14_18 
ROOT
HETATM    1  C11 UNL     1       0.283   0.452  -0.371  1.00  0.00     0.111 A 
HETATM    2  C12 UNL     1       1.285   0.676   0.541  1.00  0.00     0.062 A 
HETATM    3  C13 UNL     1       2.453   0.993  -0.163  1.00  0.00    -0.009 A 
HETATM    4  C19 UNL     1       2.122   0.953  -1.499  1.00  0.00     0.017 A 
HETATM    5  C20 UNL     1       3.045   1.241  -2.655  1.00  0.00     0.069 C 
HETATM    6  N5  UNL     1       0.819   0.627  -1.580  1.00  0.00    -0.345 N 
ATOM      7  H5  UNL     1       0.306   0.526  -2.456  1.00  0.00     0.167 HD
ENDROOT
BRANCH   1   8
HETATM    8  N2  UNL     1      -1.116   0.086  -0.061  1.00  0.00    -0.299 N 
BRANCH   8   9
HETATM    9  C6  UNL     1      -1.555  -1.196  -0.318  1.00  0.00     0.223 C 
BRANCH   9  10
HETATM   10  N1  UNL     1      -2.755  -1.827  -0.110  1.00  0.00    -0.344 N 
BRANCH  10  11
HETATM   11  C3  UNL     1      -3.989  -1.387   0.468  1.00  0.00     0.153 C 
BRANCH  11  12
HETATM   12  C2  UNL     1      -3.951  -1.698   1.919  1.00  0.00    -0.017 C 
HETATM   13  C1  UNL     1      -4.845  -2.493   2.458  1.00  0.00     0.008 C 
ENDBRANCH  11  12
ENDBRANCH  10  11
BRANCH  10  14
HETATM   14  C4  UNL     1      -2.806  -3.261  -0.568  1.00  0.00     0.122 C 
HETATM   15  C5  UNL     1      -3.281  -3.243  -1.997  1.00  0.00     0.026 C 
ENDBRANCH  10  14
ENDBRANCH   9  10
BRANCH   9  16
HETATM   16  O1  UNL     1      -0.634  -1.959  -0.872  1.00  0.00    -0.332 OA
ATOM     17  H1  UNL     1       0.197  -1.522  -1.016  1.00  0.00     0.221 HD
ENDBRANCH   9  16
ENDBRANCH   8   9
BRANCH   8  18
HETATM   18  C7  UNL     1      -1.864   1.160   0.471  1.00  0.00     0.134 C 
BRANCH  18  19
HETATM   19  C8  UNL     1      -2.528   1.976  -0.649  1.00  0.00     0.020 C 
BRANCH  19  20
HETATM   20  C9  UNL     1      -3.299   3.092   0.014  1.00  0.00    -0.003 C 
HETATM   21  C10 UNL     1      -2.330   3.947   0.811  1.00  0.00     0.005 C 
ENDBRANCH  19  20
ENDBRANCH  18  19
ENDBRANCH   8  18
ENDBRANCH   1   8
BRANCH   3  22
HETATM   22  C14 UNL     1       3.729   1.329   0.442  1.00  0.00     0.036 C 
HETATM   23  C15 UNL     1       4.749   0.522   0.612  1.00  0.00     0.101 A 
HETATM   24  C16 UNL     1       4.696  -0.858   0.195  1.00  0.00     0.263 A 
HETATM   25  C18 UNL     1       5.985   1.000   1.215  1.00  0.00     0.263 A 
HETATM   26  O2  UNL     1       3.698  -1.401  -0.333  1.00  0.00    -0.267 OA
HETATM   27  N3  UNL     1       5.839  -1.719   0.378  1.00  0.00    -0.299 N 
HETATM   28  C17 UNL     1       7.025  -1.224   0.966  1.00  0.00     0.181 A 
ATOM     29  H3  UNL     1       5.791  -2.693   0.080  1.00  0.00     0.171 HD
HETATM   30  S1  UNL     1       8.323  -2.208   1.173  1.00  0.00    -0.040 SA
HETATM   31  N4  UNL     1       7.116   0.123   1.388  1.00  0.00    -0.299 N 
ATOM     32  H4  UNL     1       7.976   0.471   1.812  1.00  0.00     0.171 HD
HETATM   33  O3  UNL     1       6.073   2.182   1.588  1.00  0.00    -0.267 OA
ENDBRANCH   3  22
TORSDOF 11
