REMARK  8 active torsions:
REMARK  status: ('A' for Active; 'I' for Inactive)
REMARK    1  A    between atoms: N1_2  and  S1_4 
REMARK    2  A    between atoms: S1_4  and  N2_7 
REMARK       I    between atoms: N2_7  and  C2_9 
REMARK       I    between atoms: C2_9  and  N3_11 
REMARK    3  A    between atoms: N3_11  and  C3_12 
REMARK    4  A    between atoms: C3_12  and  C4_13 
REMARK    5  A    between atoms: C5_14  and  O4_15 
REMARK    6  A    between atoms: N4_17  and  C6_18 
REMARK    7  A    between atoms: C9_21  and  O5_22 
REMARK    8  A    between atoms: N5_28  and  C13_29 
ROOT
HETATM    1  C4  UNL     1      -0.560  -0.515   0.317  1.00  0.00     0.126 A 
HETATM    2  C5  UNL     1      -1.067   0.773  -0.008  1.00  0.00     0.181 A 
HETATM    3  N4  UNL     1      -2.386   0.726  -0.032  1.00  0.00    -0.241 N 
HETATM    4  C12 UNL     1      -2.730  -0.493   0.225  1.00  0.00     0.342 A 
HETATM    5  O6  UNL     1      -3.875  -1.022   0.330  1.00  0.00    -0.245 OA
HETATM    6  N5  UNL     1      -1.611  -1.276   0.436  1.00  0.00    -0.237 N 
ENDROOT
BRANCH   1   7
HETATM    7  C3  UNL     1       0.875  -0.635   0.441  1.00  0.00     0.222 C 
BRANCH   7   8
HETATM    8  N3  UNL     1       1.961  -1.284   0.678  1.00  0.00    -0.362 NA
HETATM    9  C2  UNL     1       3.124  -1.980   0.934  1.00  0.00     0.408 C 
HETATM   10  N2  UNL     1       4.212  -1.526   0.097  1.00  0.00    -0.207 N 
HETATM   11  O3  UNL     1       3.251  -2.829   1.750  1.00  0.00    -0.229 OA
ATOM     12  H2  UNL     1       3.828  -0.877  -0.590  1.00  0.00     0.186 HD
BRANCH  10  13
HETATM   13  S1  UNL     1       5.856  -1.653  -0.181  1.00  0.00     0.323 S 
HETATM   14  O1  UNL     1       6.172  -1.637  -1.677  1.00  0.00    -0.182 OA
HETATM   15  O2  UNL     1       6.620  -2.801   0.480  1.00  0.00    -0.182 OA
BRANCH  13  16
HETATM   16  N1  UNL     1       6.532  -0.119   0.429  1.00  0.00    -0.307 N 
HETATM   17  C1  UNL     1       5.887   0.924  -0.333  1.00  0.00     0.161 C 
ATOM     18  H1  UNL     1       7.230  -0.003   1.164  1.00  0.00     0.173 HD
ENDBRANCH  13  16
ENDBRANCH  10  13
ENDBRANCH   7   8
ENDBRANCH   1   7
BRANCH   2  19
HETATM   19  O4  UNL     1      -0.327   1.961  -0.296  1.00  0.00    -0.344 OA
ATOM     20  H4  UNL     1      -0.666   2.822  -0.513  1.00  0.00     0.219 HD
ENDBRANCH   2  19
BRANCH   6  21
HETATM   21  C13 UNL     1      -1.628  -2.644   0.682  1.00  0.00     0.184 A 
HETATM   22  N6  UNL     1      -1.868  -3.379   1.692  1.00  0.00    -0.221 N 
HETATM   23  O7  UNL     1      -1.924  -4.673   1.428  1.00  0.00    -0.153 OA
ATOM     24  H6  UNL     1      -2.006  -3.001   2.629  1.00  0.00     0.198 HD
HETATM   25  N7  UNL     1      -1.732  -4.834   0.161  1.00  0.00    -0.222 N 
HETATM   26  C14 UNL     1      -1.546  -3.596  -0.403  1.00  0.00     0.168 A 
ATOM     27  H7  UNL     1      -1.721  -5.726  -0.334  1.00  0.00     0.198 HD
HETATM   28  N8  UNL     1      -1.285  -3.355  -1.619  1.00  0.00    -0.381 N 
ATOM     29  H82 UNL     1      -1.147  -2.435  -2.038  1.00  0.00     0.157 HD
ATOM     30  H81 UNL     1      -1.227  -4.027  -2.384  1.00  0.00     0.157 HD
ENDBRANCH   6  21
BRANCH   3  31
HETATM   31  C6  UNL     1      -3.246   1.856  -0.087  1.00  0.00     0.046 A 
HETATM   32  C7  UNL     1      -3.992   2.344  -1.069  1.00  0.00     0.033 A 
HETATM   33  C8  UNL     1      -4.708   3.494  -0.928  1.00  0.00     0.039 A 
HETATM   34  C9  UNL     1      -4.689   4.191   0.273  1.00  0.00     0.065 A 
HETATM   35  C10 UNL     1      -3.938   3.716   1.329  1.00  0.00     0.039 A 
HETATM   36  C11 UNL     1      -3.198   2.554   1.181  1.00  0.00     0.033 A 
BRANCH  34  37
HETATM   37  O5  UNL     1      -5.414   5.399   0.476  1.00  0.00    -0.361 OA
ATOM     38  H5  UNL     1      -5.401   5.876   1.298  1.00  0.00     0.217 HD
ENDBRANCH  34  37
ENDBRANCH   3  31
TORSDOF 8
