REMARK  10 active torsions:
REMARK  status: ('A' for Active; 'I' for Inactive)
REMARK       I    between atoms: N2_3  and  C2_5 
REMARK    1  A    between atoms: C2_5  and  C3_7 
REMARK    2  A    between atoms: C3_7  and  C13_32 
REMARK    3  A    between atoms: N3_8  and  N4_10 
REMARK    4  A    between atoms: N4_10  and  C4_12 
REMARK    5  A    between atoms: C4_12  and  N5_14 
REMARK    6  A    between atoms: N5_14  and  N6_16 
REMARK    7  A    between atoms: C5_18  and  C6_19 
REMARK    8  A    between atoms: C9_22  and  C10_23 
REMARK    9  A    between atoms: N13_37  and  N14_38 
REMARK   10  A    between atoms: C14_41  and  N15_42 
ROOT
HETATM    1  N1  UNL     1      -2.938  -4.010   2.296  1.00  0.00    -0.172 NA
HETATM    2  C1  UNL     1      -3.304  -2.992   1.885  1.00  0.00     0.184 C 
HETATM    3  N2  UNL     1      -3.736  -1.739   1.373  1.00  0.00    -0.258 N 
ATOM      4  H2  UNL     1      -4.655  -1.384   1.638  1.00  0.00     0.181 HD
HETATM    5  C2  UNL     1      -2.935  -0.979   0.515  1.00  0.00     0.284 C 
HETATM    6  O1  UNL     1      -1.774  -1.447   0.191  1.00  0.00    -0.265 OA
ENDROOT
BRANCH   5   7
HETATM    7  C3  UNL     1      -3.329   0.301  -0.033  1.00  0.00     0.149 C 
HETATM    8  N3  UNL     1      -2.503   0.947  -0.837  1.00  0.00    -0.291 N 
ATOM      9  H3  UNL     1      -2.802   1.848  -1.211  1.00  0.00     0.187 HD
BRANCH   8  10
HETATM   10  N4  UNL     1      -1.266   0.475  -1.198  1.00  0.00    -0.274 N 
ATOM     11  H4  UNL     1      -0.493   0.517  -0.533  1.00  0.00     0.189 HD
BRANCH  10  12
HETATM   12  C4  UNL     1      -1.056  -0.071  -2.490  1.00  0.00     0.205 C 
HETATM   13  S1  UNL     1      -2.250  -0.166  -3.598  1.00  0.00    -0.038 SA
BRANCH  12  14
HETATM   14  N5  UNL     1       0.228  -0.547  -2.828  1.00  0.00    -0.275 N 
ATOM     15  H5  UNL     1       0.394  -0.943  -3.753  1.00  0.00     0.189 HD
BRANCH  14  16
HETATM   16  N6  UNL     1       1.258  -0.482  -1.920  1.00  0.00    -0.309 N 
HETATM   17  C5  UNL     1       2.336  -1.171  -2.009  1.00  0.00     0.118 C 
ATOM     18  H6  UNL     1       1.159   0.153  -1.128  1.00  0.00     0.186 HD
BRANCH  17  19
HETATM   19  C6  UNL     1       3.351  -1.023  -0.997  1.00  0.00    -0.019 A 
HETATM   20  C7  UNL     1       4.514  -1.763  -1.090  1.00  0.00     0.014 A 
HETATM   21  C8  UNL     1       5.503  -1.643  -0.138  1.00  0.00     0.016 A 
HETATM   22  C9  UNL     1       5.389  -0.791   0.944  1.00  0.00     0.010 A 
HETATM   23  C11 UNL     1       4.223  -0.062   1.018  1.00  0.00     0.016 A 
HETATM   24  C12 UNL     1       3.220  -0.164   0.079  1.00  0.00     0.014 A 
BRANCH  22  25
HETATM   25  C10 UNL     1       6.434  -0.665   1.949  1.00  0.00     0.141 A 
HETATM   26  N7  UNL     1       6.358   0.152   3.012  1.00  0.00    -0.270 N 
HETATM   27  N8  UNL     1       7.462   0.047   3.746  1.00  0.00    -0.007 NA
ATOM     28  H7  UNL     1       5.570   0.763   3.225  1.00  0.00     0.185 HD
HETATM   29  N9  UNL     1       8.240  -0.849   3.133  1.00  0.00    -0.007 NA
HETATM   30  N10 UNL     1       7.614  -1.286   2.033  1.00  0.00    -0.270 N 
ATOM     31  H10 UNL     1       7.976  -1.974   1.373  1.00  0.00     0.185 HD
ENDBRANCH  22  25
ENDBRANCH  17  19
ENDBRANCH  14  16
ENDBRANCH  12  14
ENDBRANCH  10  12
ENDBRANCH   8  10
BRANCH   7  32
HETATM   32  C13 UNL     1      -4.582   0.988   0.209  1.00  0.00     0.130 A 
HETATM   33  N11 UNL     1      -5.637   0.650   0.950  1.00  0.00    -0.279 N 
HETATM   34  N12 UNL     1      -6.580   1.572   0.896  1.00  0.00    -0.219 N 
ATOM     35  H11 UNL     1      -5.707  -0.212   1.491  1.00  0.00     0.189 HD
HETATM   36  N13 UNL     1      -6.173   2.551   0.112  1.00  0.00    -0.170 N 
ATOM     37  H12 UNL     1      -7.476   1.534   1.381  1.00  0.00     0.210 HD
HETATM   38  C14 UNL     1      -4.948   2.231  -0.332  1.00  0.00     0.171 A 
BRANCH  36  39
HETATM   39  N14 UNL     1      -6.881   3.722  -0.211  1.00  0.00    -0.321 N 
ATOM     40 2H14 UNL     1      -7.812   3.965   0.127  1.00  0.00     0.179 HD
ATOM     41 1H14 UNL     1      -6.566   4.479  -0.817  1.00  0.00     0.179 HD
ENDBRANCH  36  39
BRANCH  38  42
HETATM   42  N15 UNL     1      -4.238   2.959  -1.124  1.00  0.00    -0.381 N 
ATOM     43 2H15 UNL     1      -3.307   2.716  -1.462  1.00  0.00     0.157 HD
ATOM     44 1H15 UNL     1      -4.504   3.862  -1.517  1.00  0.00     0.157 HD
ENDBRANCH  38  42
ENDBRANCH   7  32
ENDBRANCH   5   7
TORSDOF 10
