REMARK  7 active torsions:
REMARK  status: ('A' for Active; 'I' for Inactive)
REMARK    1  A    between atoms: C2_2  and  O1_3 
REMARK    2  A    between atoms: O1_3  and  C3_4 
REMARK       I    between atoms: C3_4  and  N1_6 
REMARK    3  A    between atoms: C4_7  and  N2_8 
REMARK    4  A    between atoms: N2_8  and  N3_10 
REMARK       I    between atoms: N3_10  and  C5_12 
REMARK       I    between atoms: C5_12  and  N4_14 
REMARK    5  A    between atoms: N4_14  and  N5_16 
REMARK       I    between atoms: N5_16  and  C6_17 
REMARK       I    between atoms: C6_17  and  N7_19 
REMARK    6  A    between atoms: C9_26  and  C10_27 
REMARK    7  A    between atoms: N9_28  and  N10_30 
REMARK       I    between atoms: N10_30  and  C11_31 
ROOT
HETATM    1  N5  UNL     1      -4.673   0.004  -0.455  1.00  0.00    -0.286 NA
HETATM    2  C6  UNL     1      -5.257   0.733   0.418  1.00  0.00     0.298 C 
HETATM    3  N6  UNL     1      -6.682   0.739   0.567  1.00  0.00    -0.046 NA
HETATM    4  N7  UNL     1      -4.483   1.522   1.298  1.00  0.00    -0.254 N 
ATOM      5  H7  UNL     1      -4.611   1.354   2.296  1.00  0.00     0.182 HD
HETATM    6  C7  UNL     1      -3.574   2.493   0.947  1.00  0.00     0.185 C 
HETATM    7  N8  UNL     1      -2.820   3.319   0.676  1.00  0.00    -0.172 NA
ENDROOT
BRANCH   1   8
HETATM    8  N4  UNL     1      -4.086  -0.669  -1.267  1.00  0.00    -0.180 N 
HETATM    9  C5  UNL     1      -2.828  -1.318  -0.883  1.00  0.00     0.364 C 
HETATM   10  N3  UNL     1      -2.118  -2.102  -1.850  1.00  0.00    -0.246 N 
HETATM   11  O3  UNL     1      -2.385  -1.182   0.283  1.00  0.00    -0.243 OA
ATOM     12  H3  UNL     1      -2.418  -2.282  -2.808  1.00  0.00     0.192 HD
ATOM     13  H4  UNL     1      -4.460  -0.785  -2.209  1.00  0.00     0.207 HD
BRANCH  10  14
HETATM   14  N2  UNL     1      -0.873  -2.607  -1.223  1.00  0.00    -0.260 N 
ATOM     15  H2  UNL     1      -0.677  -3.583  -0.999  1.00  0.00     0.190 HD
BRANCH  14  16
HETATM   16  C4  UNL     1      -0.047  -1.577  -0.998  1.00  0.00     0.258 A 
HETATM   17  N1  UNL     1       1.111  -1.842  -0.405  1.00  0.00    -0.185 N 
HETATM   18  C3  UNL     1       1.439  -3.159  -0.024  1.00  0.00     0.377 C 
HETATM   19  C12 UNL     1       1.987  -0.830  -0.147  1.00  0.00     0.274 A 
HETATM   20  O2  UNL     1       0.692  -4.120  -0.271  1.00  0.00    -0.237 OA
HETATM   21  C9  UNL     1       1.655   0.449  -0.508  1.00  0.00     0.092 A 
HETATM   22  O6  UNL     1       3.089  -1.079   0.422  1.00  0.00    -0.266 OA
HETATM   23  C8  UNL     1       0.430   0.646  -1.135  1.00  0.00     0.144 A 
HETATM   24  O4  UNL     1      -0.382  -0.359  -1.360  1.00  0.00    -0.269 OA
HETATM   25  S1  UNL     1       0.005   2.308  -1.636  1.00  0.00    -0.024 SA
BRANCH  18  26
HETATM   26  O1  UNL     1       2.618  -3.381   0.646  1.00  0.00    -0.304 OA
BRANCH  26  27
HETATM   27  C2  UNL     1       2.914  -4.727   1.035  1.00  0.00     0.176 C 
HETATM   28  C1  UNL     1       4.231  -4.644   1.822  1.00  0.00     0.034 C 
ENDBRANCH  26  27
ENDBRANCH  18  26
BRANCH  21  29
HETATM   29  C10 UNL     1       2.471   1.618  -0.137  1.00  0.00     0.141 C 
HETATM   30  N9  UNL     1       1.981   2.745  -0.425  1.00  0.00    -0.241 N 
ATOM     31  H9  UNL     1       1.074   2.698  -0.890  1.00  0.00     0.201 HD
BRANCH  30  32
HETATM   32  N10 UNL     1       2.425   3.969  -0.236  1.00  0.00    -0.268 NA
HETATM   33  C11 UNL     1       2.889   5.215  -0.050  1.00  0.00     0.424 C 
HETATM   34  N11 UNL     1       2.096   6.169   0.745  1.00  0.00    -0.024 NA
HETATM   35  O5  UNL     1       3.955   5.725  -0.469  1.00  0.00    -0.232 OA
ENDBRANCH  30  32
ENDBRANCH  21  29
ENDBRANCH  14  16
ENDBRANCH  10  14
ENDBRANCH   1   8
TORSDOF 7
