REMARK  10 active torsions:
REMARK  status: ('A' for Active; 'I' for Inactive)
REMARK    1  A    between atoms: C2_4  and  N2_5 
REMARK    2  A    between atoms: C2_4  and  C6_17 
REMARK    3  A    between atoms: N2_5  and  C3_7 
REMARK       I    between atoms: N4_10  and  C4_11 
REMARK    4  A    between atoms: C9_20  and  N7_21 
REMARK    5  A    between atoms: N7_21  and  N8_23 
REMARK    6  A    between atoms: C10_25  and  C12_27 
REMARK    7  A    between atoms: N11_34  and  C14_35 
REMARK    8  A    between atoms: C14_35  and  C15_36 
REMARK    9  A    between atoms: C15_36  and  O3_37 
REMARK   10  A    between atoms: C15_36  and  O4_39 
ROOT
HETATM    1  C6  UNL     1       1.723  -0.880  -0.524  1.00  0.00     0.008 A 
HETATM    2  C7  UNL     1       0.967  -1.736  -1.273  1.00  0.00     0.017 A 
HETATM    3  C8  UNL     1      -0.338  -1.376  -1.614  1.00  0.00     0.032 A 
HETATM    4  C9  UNL     1      -0.908  -0.194  -1.232  1.00  0.00     0.048 A 
HETATM    5  C16 UNL     1      -0.119   0.645  -0.479  1.00  0.00     0.032 A 
HETATM    6  C17 UNL     1       1.164   0.338  -0.119  1.00  0.00     0.017 A 
ENDROOT
BRANCH   4   7
HETATM    7  N7  UNL     1      -2.227   0.204  -1.531  1.00  0.00    -0.301 N 
ATOM      8  H7  UNL     1      -2.407   0.538  -2.478  1.00  0.00     0.187 HD
BRANCH   7   9
HETATM    9  N8  UNL     1      -3.282   0.183  -0.670  1.00  0.00    -0.301 N 
HETATM   10  C10 UNL     1      -3.954  -0.739  -0.168  1.00  0.00     0.067 C 
HETATM   11  C11 UNL     1      -3.570  -2.145  -0.554  1.00  0.00     0.074 C 
ATOM     12  H8  UNL     1      -3.584   1.112  -0.376  1.00  0.00     0.186 HD
BRANCH  10  13
HETATM   13  C12 UNL     1      -5.067  -0.564   0.758  1.00  0.00     0.150 A 
HETATM   14  N9  UNL     1      -5.725  -1.620   1.343  1.00  0.00    -0.280 N 
HETATM   15  N10 UNL     1      -6.661  -1.181   2.149  1.00  0.00    -0.249 N 
ATOM     16  H9  UNL     1      -5.515  -2.604   1.174  1.00  0.00     0.189 HD
HETATM   17  C13 UNL     1      -6.656   0.142   2.124  1.00  0.00     0.343 A 
ATOM     18  H10 UNL     1      -7.289  -1.763   2.704  1.00  0.00     0.192 HD
HETATM   19  O2  UNL     1      -7.379   0.975   2.741  1.00  0.00    -0.245 OA
HETATM   20  N11 UNL     1      -5.664   0.521   1.256  1.00  0.00    -0.277 N 
BRANCH  20  21
HETATM   21  C14 UNL     1      -5.368   1.890   0.912  1.00  0.00     0.196 C 
BRANCH  21  22
HETATM   22  C15 UNL     1      -6.267   2.453  -0.168  1.00  0.00     0.272 C 
BRANCH  22  23
HETATM   23  O3  UNL     1      -7.610   2.414   0.290  1.00  0.00    -0.370 OA
ATOM     24  H3  UNL     1      -8.174   2.767  -0.388  1.00  0.00     0.212 HD
ENDBRANCH  22  23
BRANCH  22  25
HETATM   25  O4  UNL     1      -6.180   1.841  -1.389  1.00  0.00    -0.370 OA
ATOM     26  H4  UNL     1      -6.744   2.194  -2.067  1.00  0.00     0.212 HD
ENDBRANCH  22  25
ENDBRANCH  21  22
ENDBRANCH  20  21
ENDBRANCH  10  13
ENDBRANCH   7   9
ENDBRANCH   4   7
BRANCH   1  27
HETATM   27  C2  UNL     1       3.081  -1.201  -0.144  1.00  0.00     0.113 C 
HETATM   28  N1  UNL     1       3.711  -2.206  -0.437  1.00  0.00    -0.380 N 
HETATM   29  C1  UNL     1       3.724  -3.404  -1.111  1.00  0.00     0.147 C 
ATOM     30  H1  UNL     1       4.622  -2.118   0.014  1.00  0.00     0.160 HD
BRANCH  27  31
HETATM   31  N2  UNL     1       3.761  -0.221   0.710  1.00  0.00    -0.312 N 
ATOM     32  H2  UNL     1       3.236   0.261   1.440  1.00  0.00     0.170 HD
BRANCH  31  33
HETATM   33  C3  UNL     1       5.142   0.066   0.534  1.00  0.00     0.214 C 
HETATM   34  N3  UNL     1       5.745   1.015  -0.082  1.00  0.00    -0.247 N 
HETATM   35  N4  UNL     1       7.124   0.840   0.045  1.00  0.00    -0.142 N 
ATOM     36  H3  UNL     1       5.290   1.777  -0.585  1.00  0.00     0.192 HD
HETATM   37  C4  UNL     1       8.161   1.805  -0.091  1.00  0.00     0.252 C 
HETATM   38  N5  UNL     1       7.309  -0.522   0.346  1.00  0.00     0.006 NA
HETATM   39  C5  UNL     1       7.851   3.222  -0.409  1.00  0.00     0.121 C 
HETATM   40  O1  UNL     1       9.355   1.440   0.065  1.00  0.00    -0.271 OA
HETATM   41  N6  UNL     1       6.156  -0.781   1.096  1.00  0.00    -0.252 N 
ATOM     42  H6  UNL     1       6.057  -1.432   1.875  1.00  0.00     0.187 HD
ENDBRANCH  31  33
ENDBRANCH  27  31
ENDBRANCH   1  27
TORSDOF 10
