REMARK  2 active torsions:
REMARK  status: ('A' for Active; 'I' for Inactive)
REMARK    1  A    between atoms: C2_4  and  N2_5 
REMARK    2  A    between atoms: N2_5  and  N3_7 
ROOT
HETATM    1  C1  UNL     1       2.888  -0.069  -0.041  1.00  0.00     0.146 C 
HETATM    2  N1  UNL     1       1.543   0.037  -0.532  1.00  0.00    -0.394 N 
ATOM      3  H1  UNL     1       1.326  -0.110  -1.518  1.00  0.00     0.159 HD
HETATM    4  C2  UNL     1       0.637   0.320   0.305  1.00  0.00     0.162 C 
ENDROOT
BRANCH   4   5
HETATM    5  N2  UNL     1      -0.744   0.459  -0.035  1.00  0.00    -0.201 NA
HETATM    6  C3  UNL     1      -1.181   1.756   0.450  1.00  0.00     0.139 C 
BRANCH   5   7
HETATM    7  N3  UNL     1      -1.404  -0.565   0.658  1.00  0.00    -0.165 NA
HETATM    8  C4  UNL     1      -1.327  -1.830  -0.008  1.00  0.00     0.153 C 
ENDBRANCH   5   7
ENDBRANCH   4   5
TORSDOF 2
