REMARK  5 active torsions:
REMARK  status: ('A' for Active; 'I' for Inactive)
REMARK    1  A    between atoms: C2_2  and  N1_3 
REMARK    2  A    between atoms: C2_2  and  C4_10 
REMARK    3  A    between atoms: N1_3  and  C3_5 
REMARK    4  A    between atoms: C3_5  and  N2_6 
REMARK    5  A    between atoms: N2_6  and  N3_7 
ROOT
HETATM    1  N1  UNL     1       0.819   0.039  -1.094  1.00  0.00    -0.361 N 
ATOM      2  H1  UNL     1       0.536  -0.159  -2.054  1.00  0.00     0.162 HD
ENDROOT
BRANCH   1   3
HETATM    3  C2  UNL     1      -0.110  -0.205  -0.024  1.00  0.00     0.168 C 
HETATM    4  C1  UNL     1      -0.353   1.126   0.685  1.00  0.00     0.042 C 
BRANCH   3   5
HETATM    5  C4  UNL     1      -1.376  -0.776  -0.540  1.00  0.00     0.253 C 
HETATM    6  N4  UNL     1      -2.467  -1.113   0.299  1.00  0.00    -0.060 NA
HETATM    7  O1  UNL     1      -1.518  -0.982  -1.773  1.00  0.00    -0.275 OA
ENDBRANCH   3   5
ENDBRANCH   1   3
BRANCH   1   8
HETATM    8  C3  UNL     1       2.112   0.546  -0.849  1.00  0.00     0.297 C 
BRANCH   8   9
HETATM    9  N2  UNL     1       3.007  -0.206  -0.441  1.00  0.00    -0.329 NA
BRANCH   9  10
HETATM   10  N3  UNL     1       3.799  -0.872   0.214  1.00  0.00    -0.279 N 
ATOM     11  H32 UNL     1       3.399  -0.538   1.091  1.00  0.00     0.191 HD
ATOM     12  H31 UNL     1       4.536  -1.492   0.550  1.00  0.00     0.191 HD
ENDBRANCH   9  10
ENDBRANCH   8   9
ENDBRANCH   1   8
TORSDOF 5
