REMARK  16 active torsions:
REMARK  status: ('A' for Active; 'I' for Inactive)
REMARK    1  A    between atoms: C2_7  and  C3_8 
REMARK    2  A    between atoms: C8_15  and  C9_16 
REMARK    3  A    between atoms: C9_16  and  N4_17 
REMARK    4  A    between atoms: C10_21  and  N7_22 
REMARK    5  A    between atoms: N8_25  and  S1_26 
REMARK    6  A    between atoms: S1_26  and  C13_29 
REMARK    7  A    between atoms: C13_29  and  O3_30 
REMARK    8  A    between atoms: C13_29  and  C14_32 
REMARK    9  A    between atoms: C14_32  and  O4_33 
REMARK   10  A    between atoms: C16_36  and  N9_37 
REMARK   11  A    between atoms: N11_44  and  C18_45 
REMARK   12  A    between atoms: C18_45  and  C19_46 
REMARK   13  A    between atoms: C19_46  and  O5_47 
REMARK   14  A    between atoms: C19_46  and  C20_49 
REMARK   15  A    between atoms: C20_49  and  N12_50 
REMARK   16  A    between atoms: C23_55  and  N14_56 
ROOT
HETATM    1  N1  UNL     1      -0.287  -4.073  -1.664  1.00  0.00    -0.234 N 
ATOM      2  H11 UNL     1       0.700  -4.117  -1.916  1.00  0.00     0.174 HD
ATOM      3  H12 UNL     1      -0.782  -4.932  -1.425  1.00  0.00     0.174 HD
HETATM    4  C1  UNL     1      -0.893  -2.910  -1.655  1.00  0.00     0.676 A 
HETATM    5  N2  UNL     1      -2.171  -2.853  -1.329  1.00  0.00    -0.193 N 
ATOM      6  H2  UNL     1      -2.645  -3.725  -1.093  1.00  0.00     0.184 HD
HETATM    7  C2  UNL     1      -2.899  -1.694  -1.289  1.00  0.00     0.060 A 
HETATM    8  C6  UNL     1      -2.266  -0.540  -1.602  1.00  0.00     0.086 A 
HETATM    9  C7  UNL     1      -0.917  -0.638  -1.940  1.00  0.00     0.087 A 
HETATM   10  N3  UNL     1      -0.249  -1.792  -1.966  1.00  0.00    -0.189 N 
ATOM     11  H3  UNL     1       0.739  -1.815  -2.220  1.00  0.00     0.184 HD
HETATM   12  C8  UNL     1      -0.494   0.639  -2.213  1.00  0.00     0.008 A 
HETATM   13  C17 UNL     1      -1.587   1.444  -2.031  1.00  0.00     0.102 A 
HETATM   14  N11 UNL     1      -2.683   0.726  -1.654  1.00  0.00    -0.350 N 
ENDROOT
BRANCH  12  15
HETATM   15  C9  UNL     1       0.884   1.108  -2.622  1.00  0.00     0.210 C 
BRANCH  15  16
HETATM   16  N4  UNL     1       1.794   1.150  -1.512  1.00  0.00    -0.199 N 
HETATM   17  N5  UNL     1       1.977   2.196  -0.718  1.00  0.00     0.011 NA
HETATM   18  N6  UNL     1       2.882   1.911   0.202  1.00  0.00    -0.113 N 
HETATM   19  C10 UNL     1       3.299   0.645   0.000  1.00  0.00     0.711 A 
ATOM     20  H6  UNL     1       3.208   2.539   0.937  1.00  0.00     0.203 HD
HETATM   21  N10 UNL     1       2.603   0.224  -1.060  1.00  0.00    -0.116 N 
ATOM     22  H10 UNL     1       2.691  -0.707  -1.468  1.00  0.00     0.207 HD
BRANCH  19  23
HETATM   23  N7  UNL     1       4.261  -0.099   0.736  1.00  0.00    -0.176 N 
HETATM   24  C11 UNL     1       4.598  -1.412   0.274  1.00  0.00     0.189 C 
HETATM   25  C12 UNL     1       6.018  -1.808   0.557  1.00  0.00     0.101 C 
HETATM   26  N8  UNL     1       6.670  -1.067   1.544  1.00  0.00    -0.262 N 
HETATM   27  C15 UNL     1       5.927  -0.303   2.453  1.00  0.00     0.135 C 
HETATM   28  C16 UNL     1       4.827   0.535   1.909  1.00  0.00     0.340 C 
BRANCH  26  29
HETATM   29  S1  UNL     1       8.340  -0.970   1.546  1.00  0.00     0.265 S 
HETATM   30  O1  UNL     1       8.908  -0.263   2.751  1.00  0.00    -0.202 OA
HETATM   31  O2  UNL     1       8.900  -2.386   1.619  1.00  0.00    -0.202 OA
BRANCH  29  32
HETATM   32  C13 UNL     1       9.046  -0.227   0.119  1.00  0.00     0.284 C 
BRANCH  32  33
HETATM   33  O3  UNL     1      10.451  -0.284   0.275  1.00  0.00    -0.377 OA
ATOM     34  H3  UNL     1      10.833   0.118  -0.497  1.00  0.00     0.211 HD
ENDBRANCH  32  33
BRANCH  32  35
HETATM   35  C14 UNL     1       8.719   1.265   0.040  1.00  0.00     0.213 C 
BRANCH  35  36
HETATM   36  O4  UNL     1       9.109   1.931   1.176  1.00  0.00    -0.397 OA
ATOM     37  H4  UNL     1       8.906   2.858   1.127  1.00  0.00     0.209 HD
ENDBRANCH  35  36
ENDBRANCH  32  35
ENDBRANCH  29  32
ENDBRANCH  26  29
BRANCH  28  38
HETATM   38  N9  UNL     1       5.208   1.904   1.659  1.00  0.00    -0.053 N 
ATOM     39  H93 UNL     1       5.841   1.971   0.862  1.00  0.00     0.277 HD
ATOM     40  H92 UNL     1       4.425   2.443   1.290  1.00  0.00     0.277 HD
ATOM     41  H91 UNL     1       5.607   2.350   2.485  1.00  0.00     0.277 HD
ENDBRANCH  28  38
ENDBRANCH  19  23
ENDBRANCH  15  16
ENDBRANCH  12  15
BRANCH  14  42
HETATM   42  C18 UNL     1      -3.937   1.339  -1.385  1.00  0.00     0.162 C 
BRANCH  42  43
HETATM   43  C19 UNL     1      -4.012   1.793   0.080  1.00  0.00     0.154 C 
BRANCH  43  44
HETATM   44  O5  UNL     1      -2.926   2.708   0.245  1.00  0.00    -0.392 OA
ATOM     45  H5  UNL     1      -2.972   2.989   1.151  1.00  0.00     0.210 HD
ENDBRANCH  43  44
BRANCH  43  46
HETATM   46  C20 UNL     1      -5.231   2.587   0.393  1.00  0.00     0.164 C 
BRANCH  46  47
HETATM   47  N12 UNL     1      -6.446   1.874   0.164  1.00  0.00    -0.325 N 
HETATM   48  C21 UNL     1      -7.170   1.830  -0.950  1.00  0.00     0.185 A 
HETATM   49  N13 UNL     1      -8.240   1.051  -0.723  1.00  0.00    -0.346 N 
HETATM   50  C22 UNL     1      -8.196   0.599   0.539  1.00  0.00     0.122 A 
ATOM     51  H13 UNL     1      -8.970   0.837  -1.402  1.00  0.00     0.167 HD
HETATM   52  C23 UNL     1      -9.011  -0.215   1.293  1.00  0.00     0.131 A 
HETATM   53  C25 UNL     1      -7.060   1.118   1.106  1.00  0.00     0.140 A 
HETATM   54  N15 UNL     1      -8.670  -0.486   2.586  1.00  0.00    -0.337 N 
HETATM   55  C24 UNL     1      -7.551   0.033   3.123  1.00  0.00     0.183 A 
ATOM     56  H15 UNL     1      -9.269  -1.088   3.151  1.00  0.00     0.168 HD
HETATM   57  N16 UNL     1      -6.743   0.830   2.403  1.00  0.00    -0.336 N 
ATOM     58  H16 UNL     1      -5.898   1.218   2.823  1.00  0.00     0.168 HD
BRANCH  52  59
HETATM   59  N14 UNL     1     -10.065  -0.693   0.758  1.00  0.00    -0.383 N 
ATOM     60 2H14 UNL     1     -10.320  -0.490  -0.209  1.00  0.00     0.157 HD
ATOM     61 1H14 UNL     1     -10.669  -1.296   1.317  1.00  0.00     0.157 HD
ENDBRANCH  52  59
ENDBRANCH  46  47
ENDBRANCH  43  46
ENDBRANCH  42  43
ENDBRANCH  14  42
BRANCH   7  62
HETATM   62  C3  UNL     1      -4.316  -1.741  -0.931  1.00  0.00     0.038 A 
HETATM   63  C4  UNL     1      -4.806  -3.132  -0.373  1.00  0.00     0.011 A 
HETATM   64  C5  UNL     1      -4.619  -2.022   0.549  1.00  0.00     0.011 A 
ENDBRANCH   7  62
TORSDOF 16
