REMARK  19 active torsions:
REMARK  status: ('A' for Active; 'I' for Inactive)
REMARK    1  A    between atoms: C2_2  and  N1_3 
REMARK    2  A    between atoms: N1_3  and  C3_4 
REMARK    3  A    between atoms: N1_3  and  S1_21 
REMARK    4  A    between atoms: C3_4  and  C4_5 
REMARK    5  A    between atoms: C4_5  and  N2_6 
REMARK    6  A    between atoms: N2_6  and  C5_9 
REMARK    7  A    between atoms: C5_9  and  C7_11 
REMARK    8  A    between atoms: C8_12  and  C9_13 
REMARK    9  A    between atoms: S1_21  and  C14_22 
REMARK   10  A    between atoms: C17_26  and  O5_27 
REMARK   11  A    between atoms: O5_27  and  C18_28 
REMARK   12  A    between atoms: C19_29  and  N3_30 
REMARK   13  A    between atoms: C21_35  and  N4_36 
REMARK   14  A    between atoms: C22_40  and  O6_41 
REMARK   15  A    between atoms: O6_41  and  S2_42 
REMARK   16  A    between atoms: C23_46  and  O10_47 
REMARK   17  A    between atoms: C24_49  and  C25_50 
REMARK   18  A    between atoms: C25_50  and  O11_51 
REMARK   19  A    between atoms: C25_50  and  O12_53 
ROOT
HETATM    1  C14 UNL     1       0.372  -1.494  -0.121  1.00  0.00     0.347 C 
HETATM    2  O4  UNL     1       0.487  -1.105   1.209  1.00  0.00    -0.343 OA
HETATM    3  C15 UNL     1       1.691  -0.528   1.510  1.00  0.00     0.153 C 
HETATM    4  C16 UNL     1       1.892  -0.615   3.008  1.00  0.00     0.042 C 
HETATM    5  C17 UNL     1       2.849  -1.161   0.769  1.00  0.00     0.184 C 
HETATM    6  C24 UNL     1       2.466  -2.485   0.182  1.00  0.00     0.211 C 
HETATM    7  O13 UNL     1       1.274  -2.430  -0.530  1.00  0.00    -0.338 OA
ENDROOT
BRANCH   5   8
HETATM    8  O5  UNL     1       3.313  -0.370  -0.272  1.00  0.00    -0.370 OA
BRANCH   8   9
HETATM    9  C18 UNL     1       4.606   0.095  -0.114  1.00  0.00     0.183 C 
HETATM   10  C19 UNL     1       4.516   1.602  -0.195  1.00  0.00     0.217 C 
HETATM   11  C20 UNL     1       5.852   2.281  -0.299  1.00  0.00     0.071 C 
HETATM   12  C21 UNL     1       6.928   1.300   0.077  1.00  0.00     0.218 C 
HETATM   13  C22 UNL     1       6.943   0.100  -0.863  1.00  0.00     0.206 C 
HETATM   14  C23 UNL     1       5.544  -0.349  -1.223  1.00  0.00     0.181 C 
BRANCH  10  15
HETATM   15  N3  UNL     1       3.659   1.959  -1.338  1.00  0.00    -0.072 N 
ATOM     16  H33 UNL     1       3.976   1.538  -2.211  1.00  0.00     0.274 HD
ATOM     17  H32 UNL     1       2.742   1.514  -1.294  1.00  0.00     0.274 HD
ATOM     18  H31 UNL     1       3.598   2.976  -1.393  1.00  0.00     0.274 HD
ENDBRANCH  10  15
BRANCH  12  19
HETATM   19  N4  UNL     1       8.211   1.960  -0.091  1.00  0.00    -0.072 N 
ATOM     20  H43 UNL     1       8.337   2.346  -1.027  1.00  0.00     0.274 HD
ATOM     21  H42 UNL     1       8.276   2.836   0.427  1.00  0.00     0.274 HD
ATOM     22  H41 UNL     1       8.941   1.295   0.164  1.00  0.00     0.274 HD
ENDBRANCH  12  19
BRANCH  13  23
HETATM   23  O6  UNL     1       7.619  -0.901  -0.171  1.00  0.00    -0.247 OA
BRANCH  23  24
HETATM   24  S2  UNL     1       9.065  -1.348  -0.846  1.00  0.00     0.252 S 
HETATM   25  O7  UNL     1       8.982  -2.808  -1.225  1.00  0.00    -0.572 OA
HETATM   26  O8  UNL     1       9.366  -0.478  -2.028  1.00  0.00    -0.572 OA
HETATM   27  O9  UNL     1      10.272  -1.158   0.323  1.00  0.00    -0.572 OA
ENDBRANCH  23  24
ENDBRANCH  13  23
BRANCH  14  28
HETATM   28  O10 UNL     1       5.185   0.236  -2.444  1.00  0.00    -0.390 OA
ATOM     29  H10 UNL     1       5.772  -0.042  -3.138  1.00  0.00     0.210 HD
ENDBRANCH  14  28
ENDBRANCH   8   9
ENDBRANCH   5   8
BRANCH   6  30
HETATM   30  C25 UNL     1       2.532  -3.626   1.158  1.00  0.00     0.285 C 
BRANCH  30  31
HETATM   31  O11 UNL     1       3.752  -3.596   1.805  1.00  0.00    -0.369 OA
ATOM     32  H11 UNL     1       3.794  -4.317   2.422  1.00  0.00     0.212 HD
ENDBRANCH  30  31
BRANCH  30  33
HETATM   33  O12 UNL     1       1.459  -3.689   2.033  1.00  0.00    -0.369 OA
ATOM     34  H12 UNL     1       1.501  -4.410   2.650  1.00  0.00     0.212 HD
ENDBRANCH  30  33
ENDBRANCH   6  30
BRANCH   1  35
HETATM   35  S1  UNL     1       0.250  -0.027  -1.136  1.00  0.00     0.008 SA
BRANCH  35  36
HETATM   36  N1  UNL     1      -1.165   0.922  -0.955  1.00  0.00    -0.331 N 
BRANCH  36  37
HETATM   37  C2  UNL     1      -2.037   1.061  -2.041  1.00  0.00     0.131 C 
HETATM   38  C1  UNL     1      -1.383   0.408  -3.275  1.00  0.00     0.027 C 
ENDBRANCH  36  37
BRANCH  36  39
HETATM   39  C3  UNL     1      -1.492   1.433   0.306  1.00  0.00     0.099 C 
BRANCH  39  40
HETATM   40  C4  UNL     1      -2.603   0.772   1.065  1.00  0.00     0.279 C 
BRANCH  40  41
HETATM   41  N2  UNL     1      -3.884   0.811   0.429  1.00  0.00    -0.057 N 
ATOM     42  H22 UNL     1      -4.186   1.758   0.199  1.00  0.00     0.279 HD
ATOM     43  H21 UNL     1      -3.868   0.442  -0.522  1.00  0.00     0.279 HD
BRANCH  41  44
HETATM   44  C5  UNL     1      -4.825   0.108   1.297  1.00  0.00     0.260 C 
HETATM   45  C6  UNL     1      -4.944   0.806   2.612  1.00  0.00     0.054 C 
BRANCH  44  46
HETATM   46  C7  UNL     1      -6.131  -0.037   0.625  1.00  0.00    -0.073 C 
HETATM   47  C8  UNL     1      -7.188  -0.150   0.056  1.00  0.00    -0.094 C 
BRANCH  47  48
HETATM   48  C9  UNL     1      -8.473  -0.272  -0.645  1.00  0.00     0.130 C 
HETATM   49  C10 UNL     1      -9.076   1.102  -0.936  1.00  0.00     0.139 C 
HETATM   50  C11 UNL     1     -10.046   1.037  -2.080  1.00  0.00     0.041 C 
HETATM   51  O1  UNL     1      -9.647   1.511   0.240  1.00  0.00    -0.349 OA
HETATM   52  C12 UNL     1      -9.916   0.440   1.047  1.00  0.00     0.330 C 
HETATM   53  O2  UNL     1     -11.163  -0.146   0.907  1.00  0.00    -0.205 OA
HETATM   54  C13 UNL     1      -9.514  -0.816   0.309  1.00  0.00     0.236 C 
HETATM   55  O3  UNL     1     -10.798  -0.758  -0.205  1.00  0.00    -0.226 OA
ENDBRANCH  47  48
ENDBRANCH  44  46
ENDBRANCH  41  44
ENDBRANCH  40  41
ENDBRANCH  39  40
ENDBRANCH  36  39
ENDBRANCH  35  36
ENDBRANCH   1  35
TORSDOF 19
