REMARK  19 active torsions:
REMARK  status: ('A' for Active; 'I' for Inactive)
REMARK    1  A    between atoms: O1_2  and  N1_3 
REMARK    2  A    between atoms: N1_3  and  C2_5 
REMARK    3  A    between atoms: C2_5  and  C3_6 
REMARK    4  A    between atoms: C2_5  and  C18_44 
REMARK    5  A    between atoms: C3_6  and  C4_8 
REMARK    6  A    between atoms: C4_8  and  C5_9 
REMARK    7  A    between atoms: C5_9  and  C6_10 
REMARK    8  A    between atoms: C7_13  and  N3_14 
REMARK    9  A    between atoms: C8_18  and  C9_19 
REMARK   10  A    between atoms: C9_19  and  C10_20 
REMARK   11  A    between atoms: N6_30  and  C15_31 
REMARK   12  A    between atoms: C15_31  and  C16_32 
REMARK   13  A    between atoms: C16_32  and  N7_33 
REMARK   14  A    between atoms: C16_32  and  N8_37 
REMARK   15  A    between atoms: C21_47  and  N10_48 
REMARK   16  A    between atoms: N10_48  and  O5_50 
REMARK   17  A    between atoms: C22_54  and  C23_55 
REMARK   18  A    between atoms: C23_55  and  S2_56 
REMARK   19  A    between atoms: S2_56  and  N12_57 
ROOT
HETATM    1  C6  UNL     1       0.245  -0.235  -1.567  1.00  0.00     0.047 A 
HETATM    2  N2  UNL     1       0.769  -1.416  -1.665  1.00  0.00    -0.336 N 
ATOM      3  H2  UNL     1       1.780  -1.512  -1.761  1.00  0.00     0.168 HD
HETATM    4  C7  UNL     1      -0.001  -2.512  -1.642  1.00  0.00     0.143 A 
HETATM    5  S1  UNL     1      -1.559  -1.876  -1.479  1.00  0.00    -0.056 SA
HETATM    6  C8  UNL     1      -1.164  -0.227  -1.444  1.00  0.00     0.020 A 
ENDROOT
BRANCH   1   7
HETATM    7  C5  UNL     1       0.938   1.043  -1.468  1.00  0.00     0.034 C 
BRANCH   7   8
HETATM    8  C4  UNL     1       2.085   1.466  -1.080  1.00  0.00     0.059 C 
BRANCH   8   9
HETATM    9  C3  UNL     1       3.204   0.789  -0.543  1.00  0.00     0.202 C 
HETATM   10  O2  UNL     1       3.258  -0.427  -0.293  1.00  0.00    -0.286 OA
BRANCH   9  11
HETATM   11  C2  UNL     1       4.457   1.522  -0.224  1.00  0.00     0.131 C 
BRANCH  11  12
HETATM   12  N1  UNL     1       4.595   2.725  -0.410  1.00  0.00    -0.261 N 
ATOM     13  H1  UNL     1       5.538   2.967  -0.106  1.00  0.00     0.194 HD
BRANCH  12  14
HETATM   14  O1  UNL     1       4.045   3.810  -0.829  1.00  0.00    -0.285 OA
HETATM   15  C1  UNL     1       4.556   4.570  -1.935  1.00  0.00     0.237 C 
ENDBRANCH  12  14
ENDBRANCH  11  12
BRANCH  11  16
HETATM   16  C18 UNL     1       5.600   0.751   0.355  1.00  0.00     0.066 C 
HETATM   17  C19 UNL     1       6.732   1.501   0.620  1.00  0.00     0.036 C 
HETATM   18  C20 UNL     1       7.818   1.151   1.412  1.00  0.00     0.052 C 
HETATM   19  C21 UNL     1       7.927   0.057   2.212  1.00  0.00     0.126 C 
HETATM   20  N11 UNL     1       7.204  -1.098   2.133  1.00  0.00    -0.330 N 
HETATM   21  C22 UNL     1       6.055  -1.354   1.495  1.00  0.00     0.099 C 
ATOM     22  H11 UNL     1       7.601  -1.890   2.639  1.00  0.00     0.168 HD
HETATM   23  N13 UNL     1       5.447  -0.555   0.570  1.00  0.00    -0.343 N 
ATOM     24  H13 UNL     1       4.781  -1.024  -0.044  1.00  0.00     0.167 HD
BRANCH  19  25
HETATM   25  N10 UNL     1       8.800   0.068   3.165  1.00  0.00    -0.253 N 
ATOM     26  H10 UNL     1       8.884  -0.752   3.766  1.00  0.00     0.196 HD
BRANCH  25  27
HETATM   27  O5  UNL     1       9.610   1.137   3.392  1.00  0.00    -0.288 OA
ATOM     28  H5  UNL     1      10.252   1.145   4.092  1.00  0.00     0.244 HD
ENDBRANCH  25  27
ENDBRANCH  19  25
BRANCH  21  29
HETATM   29  C23 UNL     1       5.368  -2.618   1.816  1.00  0.00     0.239 C 
BRANCH  29  30
HETATM   30  S2  UNL     1       5.955  -3.867   0.704  1.00  0.00     0.231 S 
HETATM   31  O6  UNL     1       5.364  -5.207   0.992  1.00  0.00    -0.206 OA
HETATM   32  O7  UNL     1       7.454  -3.917   0.819  1.00  0.00    -0.206 OA
BRANCH  30  33
HETATM   33  N12 UNL     1       5.597  -3.380  -0.927  1.00  0.00    -0.328 N 
ATOM     34 2H12 UNL     1       5.125  -2.513  -1.185  1.00  0.00     0.168 HD
ATOM     35 1H12 UNL     1       5.935  -4.099  -1.567  1.00  0.00     0.168 HD
ENDBRANCH  30  33
ENDBRANCH  29  30
ENDBRANCH  21  29
ENDBRANCH  11  16
ENDBRANCH   9  11
ENDBRANCH   8   9
ENDBRANCH   7   8
ENDBRANCH   1   7
BRANCH   6  36
HETATM   36  C9  UNL     1      -2.061   0.972  -1.309  1.00  0.00     0.125 C 
BRANCH  36  37
HETATM   37  C10 UNL     1      -3.456   0.544  -1.195  1.00  0.00     0.088 A 
HETATM   38  N4  UNL     1      -4.287   0.385  -2.250  1.00  0.00    -0.338 N 
HETATM   39  C11 UNL     1      -5.496  -0.017  -1.817  1.00  0.00     0.147 A 
ATOM     40  H4  UNL     1      -4.036   0.545  -3.225  1.00  0.00     0.167 HD
HETATM   41  C12 UNL     1      -6.701  -0.335  -2.404  1.00  0.00     0.281 A 
HETATM   42  C17 UNL     1      -5.433  -0.119  -0.423  1.00  0.00     0.145 A 
HETATM   43  O3  UNL     1      -6.793  -0.256  -3.646  1.00  0.00    -0.265 OA
HETATM   44  N5  UNL     1      -7.779  -0.726  -1.703  1.00  0.00    -0.269 N 
HETATM   45  C13 UNL     1      -9.044  -1.056  -2.351  1.00  0.00     0.164 C 
HETATM   46  C14 UNL     1      -7.652  -0.803  -0.363  1.00  0.00     0.333 A 
HETATM   47  O4  UNL     1      -8.702  -1.178   0.261  1.00  0.00    -0.246 OA
HETATM   48  N6  UNL     1      -6.509  -0.509   0.278  1.00  0.00    -0.279 N 
HETATM   49  N9  UNL     1      -4.164   0.237  -0.114  1.00  0.00    -0.330 N 
ATOM     50  H9  UNL     1      -3.795   0.266   0.837  1.00  0.00     0.168 HD
BRANCH  48  51
HETATM   51  C15 UNL     1      -6.455  -0.625   1.706  1.00  0.00     0.197 C 
BRANCH  51  52
HETATM   52  C16 UNL     1      -6.869   0.596   2.462  1.00  0.00     0.396 C 
BRANCH  52  53
HETATM   53  N7  UNL     1      -6.055   1.724   2.156  1.00  0.00    -0.049 N 
ATOM     54  H73 UNL     1      -5.067   1.516   2.304  1.00  0.00     0.276 HD
ATOM     55  H72 UNL     1      -6.035   1.902   1.152  1.00  0.00     0.276 HD
ATOM     56  H71 UNL     1      -6.338   2.557   2.672  1.00  0.00     0.276 HD
ENDBRANCH  52  53
BRANCH  52  57
HETATM   57  N8  UNL     1      -6.828   0.236   3.885  1.00  0.00    -0.049 N 
ATOM     58  H83 UNL     1      -7.386  -0.588   4.110  1.00  0.00     0.276 HD
ATOM     59  H82 UNL     1      -5.926  -0.137   4.182  1.00  0.00     0.276 HD
ATOM     60  H81 UNL     1      -7.111   1.069   4.401  1.00  0.00     0.276 HD
ENDBRANCH  52  57
ENDBRANCH  51  52
ENDBRANCH  48  51
ENDBRANCH  36  37
ENDBRANCH   6  36
BRANCH   4  61
HETATM   61  N3  UNL     1       0.394  -3.771  -1.730  1.00  0.00    -0.380 N 
ATOM     62  H32 UNL     1       1.334  -4.155  -1.828  1.00  0.00     0.158 HD
ATOM     63  H31 UNL     1      -0.192  -4.605  -1.712  1.00  0.00     0.158 HD
ENDBRANCH   4  61
TORSDOF 19
