REMARK  16 active torsions:
REMARK  status: ('A' for Active; 'I' for Inactive)
REMARK    1  A    between atoms: N1_1  and  C1_4 
REMARK    2  A    between atoms: C2_7  and  O1_8 
REMARK    3  A    between atoms: O1_8  and  S1_9 
REMARK    4  A    between atoms: C5_15  and  N3_16 
REMARK    5  A    between atoms: C7_18  and  C8_19 
REMARK    6  A    between atoms: C8_19  and  O5_20 
REMARK    7  A    between atoms: C8_19  and  C9_22 
REMARK    8  A    between atoms: C9_22  and  O6_23 
REMARK    9  A    between atoms: C9_22  and  C19_50 
REMARK   10  A    between atoms: O6_23  and  C10_24 
REMARK   11  A    between atoms: C13_27  and  C14_28 
REMARK   12  A    between atoms: C14_28  and  N4_29 
REMARK   13  A    between atoms: N4_29  and  N5_31 
REMARK   14  A    between atoms: N5_31  and  C15_33 
REMARK   15  A    between atoms: C16_38  and  S2_39 
REMARK   16  A    between atoms: S2_39  and  N8_40 
ROOT
HETATM    1  C9  UNL     1       0.591  -1.282   0.394  1.00  0.00     0.264 C 
ENDROOT
BRANCH   1   2
HETATM    2  C8  UNL     1       1.824  -0.871   1.171  1.00  0.00     0.210 C 
BRANCH   2   3
HETATM    3  C7  UNL     1       3.048  -0.990   0.323  1.00  0.00     0.072 A 
HETATM    4  C6  UNL     1       4.273  -0.357   0.615  1.00  0.00     0.143 A 
HETATM    5  N3  UNL     1       5.171  -0.642  -0.343  1.00  0.00    -0.245 N 
HETATM    6  N10 UNL     1       4.548  -1.422  -1.209  1.00  0.00    -0.015 NA
HETATM    7  N9  UNL     1       3.299  -1.627  -0.818  1.00  0.00    -0.284 N 
ATOM      8  H9  UNL     1       2.621  -2.197  -1.324  1.00  0.00     0.184 HD
BRANCH   5   9
HETATM    9  C5  UNL     1       6.518  -0.181  -0.390  1.00  0.00     0.097 A 
HETATM   10  C1  UNL     1       7.519  -0.774   0.352  1.00  0.00     0.129 A 
HETATM   11  N2  UNL     1       8.796  -0.346   0.314  1.00  0.00    -0.321 N 
HETATM   12  C2  UNL     1       9.123   0.711  -0.483  1.00  0.00     0.165 A 
ATOM     13  H2  UNL     1       9.511  -0.808   0.876  1.00  0.00     0.169 HD
HETATM   14  C3  UNL     1       8.183   1.360  -1.256  1.00  0.00     0.060 A 
HETATM   15  C4  UNL     1       6.880   0.888  -1.188  1.00  0.00     0.039 A 
BRANCH  10  16
HETATM   16  N1  UNL     1       7.169  -1.785   1.104  1.00  0.00    -0.384 N 
ATOM     17  H12 UNL     1       7.909  -2.223   1.652  1.00  0.00     0.157 HD
ATOM     18  H11 UNL     1       6.202  -2.109   1.133  1.00  0.00     0.157 HD
ENDBRANCH  10  16
BRANCH  12  19
HETATM   19  O1  UNL     1      10.444   1.104  -0.481  1.00  0.00    -0.196 OA
BRANCH  19  20
HETATM   20  S1  UNL     1      10.928   2.728  -0.345  1.00  0.00     0.258 S 
HETATM   21  O2  UNL     1      11.257   3.342  -1.664  1.00  0.00    -0.572 OA
HETATM   22  O3  UNL     1      12.149   2.802   0.520  1.00  0.00    -0.572 OA
HETATM   23  O4  UNL     1       9.715   3.622   0.433  1.00  0.00    -0.572 OA
ENDBRANCH  19  20
ENDBRANCH  12  19
ENDBRANCH   5   9
ENDBRANCH   2   3
BRANCH   2  24
HETATM   24  O5  UNL     1       1.718   0.547   1.358  1.00  0.00    -0.386 OA
ATOM     25  H5  UNL     1       0.940   0.623   1.897  1.00  0.00     0.210 HD
ENDBRANCH   2  24
ENDBRANCH   1   2
BRANCH   1  26
HETATM   26  O6  UNL     1      -0.520  -0.785   1.164  1.00  0.00    -0.328 OA
BRANCH  26  27
HETATM   27  C10 UNL     1      -1.844  -0.941   0.816  1.00  0.00     0.124 A 
HETATM   28  C11 UNL     1      -2.741  -1.360   1.726  1.00  0.00     0.042 A 
HETATM   29  C12 UNL     1      -4.135  -1.536   1.401  1.00  0.00     0.020 A 
HETATM   30  C13 UNL     1      -4.655  -1.307   0.205  1.00  0.00     0.035 A 
HETATM   31  C17 UNL     1      -3.758  -0.842  -0.867  1.00  0.00     0.236 A 
HETATM   32  O9  UNL     1      -4.258  -0.628  -1.996  1.00  0.00    -0.283 OA
HETATM   33  C18 UNL     1      -2.357  -0.671  -0.521  1.00  0.00     0.255 A 
HETATM   34  O10 UNL     1      -1.593  -0.269  -1.457  1.00  0.00    -0.281 OA
BRANCH  30  35
HETATM   35  C14 UNL     1      -6.076  -1.510  -0.036  1.00  0.00     0.122 C 
BRANCH  35  36
HETATM   36  N4  UNL     1      -6.579  -1.284  -1.208  1.00  0.00    -0.309 N 
ATOM     37  H4  UNL     1      -5.993  -0.962  -1.978  1.00  0.00     0.186 HD
BRANCH  36  38
HETATM   38  N5  UNL     1      -7.947  -1.495  -1.385  1.00  0.00    -0.279 N 
ATOM     39  H5  UNL     1      -8.318  -2.392  -1.699  1.00  0.00     0.189 HD
BRANCH  38  40
HETATM   40  C15 UNL     1      -8.731  -0.473  -1.124  1.00  0.00     0.180 A 
HETATM   41  N6  UNL     1     -10.062  -0.419  -1.214  1.00  0.00    -0.277 N 
HETATM   42  N7  UNL     1     -10.652   0.664  -0.918  1.00  0.00    -0.281 N 
ATOM     43  H6  UNL     1     -10.595  -1.235  -1.516  1.00  0.00     0.189 HD
HETATM   44  C16 UNL     1      -9.952   1.719  -0.527  1.00  0.00     0.208 A 
ATOM     45  H7  UNL     1     -11.668   0.723  -0.981  1.00  0.00     0.188 HD
HETATM   46  S3  UNL     1      -8.357   1.113  -0.591  1.00  0.00    -0.018 SA
BRANCH  44  47
HETATM   47  S2  UNL     1     -10.576   3.314  -0.072  1.00  0.00     0.280 S 
HETATM   48  O7  UNL     1     -11.809   3.641  -0.826  1.00  0.00    -0.199 OA
HETATM   49  O8  UNL     1      -9.473   4.308  -0.313  1.00  0.00    -0.199 OA
BRANCH  47  50
HETATM   50  N8  UNL     1     -10.887   3.288   1.632  1.00  0.00    -0.323 N 
ATOM     51  H82 UNL     1     -10.733   2.490   2.249  1.00  0.00     0.169 HD
ATOM     52  H81 UNL     1     -11.246   4.206   1.894  1.00  0.00     0.169 HD
ENDBRANCH  47  50
ENDBRANCH  44  47
ENDBRANCH  38  40
ENDBRANCH  36  38
ENDBRANCH  35  36
ENDBRANCH  30  35
ENDBRANCH  26  27
ENDBRANCH   1  26
BRANCH   1  53
HETATM   53  C19 UNL     1       0.396  -2.760   0.367  1.00  0.00     0.206 C 
HETATM   54  O11 UNL     1      -0.550  -3.347   0.974  1.00  0.00    -0.646 OA
HETATM   55  O12 UNL     1       1.254  -3.578  -0.338  1.00  0.00    -0.646 OA
ENDBRANCH   1  53
TORSDOF 16
