REMARK  14 active torsions:
REMARK  status: ('A' for Active; 'I' for Inactive)
REMARK    1  A    between atoms: C3_3  and  C4_4 
REMARK    2  A    between atoms: C4_4  and  C5_5 
REMARK    3  A    between atoms: C11_12  and  O1_13 
REMARK    4  A    between atoms: C12_17  and  C13_18 
REMARK    5  A    between atoms: C13_18  and  C14_19 
REMARK    6  A    between atoms: C14_19  and  C15_20 
REMARK    7  A    between atoms: C15_20  and  N2_21 
REMARK    8  A    between atoms: C19_30  and  C20_31 
REMARK    9  A    between atoms: C22_36  and  C23_37 
REMARK   10  A    between atoms: C23_37  and  C24_38 
REMARK   11  A    between atoms: C24_38  and  C25_39 
REMARK   12  A    between atoms: C25_39  and  C26_40 
REMARK   13  A    between atoms: C26_40  and  N7_41 
REMARK   14  A    between atoms: C27_45  and  N8_46 
ROOT
HETATM    1  C1  UNL     1      -1.022   1.577   1.246  1.00  0.00     0.017 C 
HETATM    2  C2  UNL     1      -1.405   1.202   0.052  1.00  0.00    -0.046 C 
HETATM    3  C3  UNL     1      -0.660   1.827  -1.119  1.00  0.00     0.095 C 
HETATM    4  C11 UNL     1       0.791   1.765  -0.944  1.00  0.00     0.124 C 
HETATM    5  N1  UNL     1       1.730   0.762  -1.237  1.00  0.00    -0.339 N 
ATOM      6  H1  UNL     1       2.285   0.975  -2.066  1.00  0.00     0.167 HD
HETATM    7  C12 UNL     1       2.085  -0.477  -0.649  1.00  0.00     0.079 C 
HETATM    8  C17 UNL     1       1.624  -1.705  -1.382  1.00  0.00     0.267 C 
HETATM    9  O2  UNL     1       2.019  -1.701  -2.592  1.00  0.00    -0.266 OA
HETATM   10  N5  UNL     1       0.875  -2.807  -0.989  1.00  0.00    -0.332 N 
HETATM   11  C18 UNL     1       1.486  -4.165  -0.955  1.00  0.00     0.154 C 
HETATM   12  C19 UNL     1      -0.535  -2.883  -0.590  1.00  0.00     0.246 C 
HETATM   13  C21 UNL     1      -1.347  -1.706  -0.879  1.00  0.00     0.165 C 
HETATM   14  O4  UNL     1      -1.135  -1.163  -1.923  1.00  0.00    -0.295 OA
HETATM   15  C22 UNL     1      -2.391  -1.164   0.011  1.00  0.00     0.092 C 
HETATM   16  C27 UNL     1      -2.524   0.296  -0.240  1.00  0.00     0.223 C 
ENDROOT
BRANCH   3  17
HETATM   17  C4  UNL     1      -1.220   3.269  -1.128  1.00  0.00     0.056 C 
BRANCH  17  18
HETATM   18  C5  UNL     1      -0.724   4.110  -2.208  1.00  0.00    -0.056 A 
HETATM   19  C6  UNL     1      -1.338   3.895  -3.468  1.00  0.00     0.007 A 
HETATM   20  C7  UNL     1      -1.034   4.608  -4.580  1.00  0.00     0.002 A 
HETATM   21  C8  UNL     1      -0.062   5.618  -4.512  1.00  0.00     0.024 A 
HETATM   22  C9  UNL     1       0.529   5.831  -3.317  1.00  0.00     0.034 A 
HETATM   23 CL1  UNL     1       1.754   7.098  -3.243  1.00  0.00    -0.084 Cl
HETATM   24  C10 UNL     1       0.210   5.095  -2.177  1.00  0.00     0.031 A 
ENDBRANCH  17  18
ENDBRANCH   3  17
BRANCH   4  25
HETATM   25  O1  UNL     1       1.294   2.848  -0.419  1.00  0.00    -0.349 OA
ATOM     26  H1  UNL     1       2.236   2.808  -0.305  1.00  0.00     0.219 HD
ENDBRANCH   4  25
BRANCH  16  27
HETATM   27  N8  UNL     1      -3.700   0.911   0.358  1.00  0.00    -0.070 N 
ATOM     28  H83 UNL     1      -3.592   1.118   1.351  1.00  0.00     0.275 HD
ATOM     29  H82 UNL     1      -3.860   1.870   0.049  1.00  0.00     0.275 HD
ATOM     30  H81 UNL     1      -4.477   0.282   0.155  1.00  0.00     0.275 HD
ENDBRANCH  16  27
BRANCH  15  31
HETATM   31  C23 UNL     1      -2.283  -1.587   1.417  1.00  0.00     0.015 C 
BRANCH  31  32
HETATM   32  C24 UNL     1      -3.238  -1.213   2.432  1.00  0.00     0.002 C 
BRANCH  32  33
HETATM   33  C25 UNL     1      -4.654  -1.632   2.364  1.00  0.00     0.027 C 
BRANCH  33  34
HETATM   34  C26 UNL     1      -4.843  -3.158   2.369  1.00  0.00     0.229 C 
BRANCH  34  35
HETATM   35  N7  UNL     1      -4.290  -3.717   3.557  1.00  0.00    -0.079 N 
ATOM     36  H73 UNL     1      -3.313  -3.453   3.684  1.00  0.00     0.274 HD
ATOM     37  H72 UNL     1      -4.672  -3.283   4.397  1.00  0.00     0.274 HD
ATOM     38  H71 UNL     1      -4.415  -4.729   3.560  1.00  0.00     0.274 HD
ENDBRANCH  34  35
ENDBRANCH  33  34
ENDBRANCH  32  33
ENDBRANCH  31  32
ENDBRANCH  15  31
BRANCH   7  39
HETATM   39  C13 UNL     1       2.069  -0.644   0.818  1.00  0.00     0.064 C 
BRANCH  39  40
HETATM   40  C14 UNL     1       2.964   0.260   1.598  1.00  0.00     0.026 C 
BRANCH  40  41
HETATM   41  C15 UNL     1       4.409   0.120   1.221  1.00  0.00     0.122 C 
BRANCH  41  42
HETATM   42  N2  UNL     1       5.254   0.999   2.043  1.00  0.00    -0.367 N 
HETATM   43  C16 UNL     1       6.486   1.141   1.654  1.00  0.00     0.196 C 
HETATM   44  N3  UNL     1       7.313   1.984   2.438  1.00  0.00    -0.067 NA
HETATM   45  N4  UNL     1       7.026   0.512   0.518  1.00  0.00    -0.067 NA
ATOM     46  H2  UNL     1       4.893   1.471   2.872  1.00  0.00     0.161 HD
ENDBRANCH  41  42
ENDBRANCH  40  41
ENDBRANCH  39  40
ENDBRANCH   7  39
BRANCH  12  47
HETATM   47  C20 UNL     1      -1.082  -4.042  -1.425  1.00  0.00     0.261 C 
HETATM   48  N6  UNL     1      -2.218  -4.771  -1.022  1.00  0.00    -0.060 NA
HETATM   49  O3  UNL     1      -0.475  -4.336  -2.511  1.00  0.00    -0.274 OA
ENDBRANCH  12  47
TORSDOF 14
