REMARK  12 active torsions:
REMARK  status: ('A' for Active; 'I' for Inactive)
REMARK    1  A    between atoms: C3_5  and  N2_6 
REMARK    2  A    between atoms: N2_6  and  C4_8 
REMARK       I    between atoms: N3_11  and  C7_12 
REMARK    3  A    between atoms: C7_12  and  C8_14 
REMARK    4  A    between atoms: C8_14  and  C9_15 
REMARK    5  A    between atoms: C9_15  and  N4_16 
REMARK    6  A    between atoms: C11_19  and  C12_20 
REMARK    7  A    between atoms: C12_20  and  C13_21 
REMARK    8  A    between atoms: C13_21  and  C14_22 
REMARK    9  A    between atoms: C14_22  and  C15_23 
REMARK   10  A    between atoms: C15_23  and  C16_27 
REMARK   11  A    between atoms: C16_27  and  C17_28 
REMARK   12  A    between atoms: C22_37  and  N7_38 
REMARK       I    between atoms: N7_38  and  C23_40 
ROOT
HETATM    1  C4  UNL     1      -5.056  -1.030   0.169  1.00  0.00     0.104 C 
HETATM    2  C5  UNL     1      -3.845  -1.946   0.230  1.00  0.00     0.045 C 
HETATM    3  C6  UNL     1      -2.672  -1.216   0.861  1.00  0.00     0.130 C 
HETATM    4  N3  UNL     1      -2.786   0.224   0.625  1.00  0.00    -0.331 N 
HETATM    5  C7  UNL     1      -1.831   0.945  -0.125  1.00  0.00     0.223 C 
HETATM    6  O1  UNL     1      -1.995   2.176  -0.291  1.00  0.00    -0.273 OA
HETATM    7  C22 UNL     1      -3.939   0.877   1.206  1.00  0.00     0.192 C 
HETATM    8  C24 UNL     1      -4.987  -0.201   1.459  1.00  0.00     0.073 C 
ENDROOT
BRANCH   5   9
HETATM    9  C8  UNL     1      -0.643   0.306  -0.725  1.00  0.00     0.123 C 
BRANCH   9  10
HETATM   10  C9  UNL     1       0.200   1.292  -1.503  1.00  0.00     0.145 C 
BRANCH  10  11
HETATM   11  N4  UNL     1       1.367   0.644  -2.080  1.00  0.00    -0.275 N 
HETATM   12  C10 UNL     1       2.530   0.591  -1.363  1.00  0.00     0.206 A 
HETATM   13  F1  UNL     1       2.563   1.142  -0.144  1.00  0.00    -0.185 F 
HETATM   14  C11 UNL     1       3.654  -0.014  -1.873  1.00  0.00     0.066 A 
HETATM   15  C20 UNL     1       3.620  -0.577  -3.120  1.00  0.00     0.260 A 
HETATM   16  O2  UNL     1       4.615  -1.133  -3.616  1.00  0.00    -0.267 OA
HETATM   17  N6  UNL     1       2.445  -0.508  -3.812  1.00  0.00    -0.275 N 
HETATM   18  C21 UNL     1       1.349   0.086  -3.304  1.00  0.00     0.331 A 
ATOM     19  H6  UNL     1       2.396  -0.920  -4.744  1.00  0.00     0.173 HD
HETATM   20  O3  UNL     1       0.272   0.137  -3.965  1.00  0.00    -0.246 OA
BRANCH  14  21
HETATM   21  C12 UNL     1       4.950  -0.081  -1.092  1.00  0.00     0.049 C 
BRANCH  21  22
HETATM   22  C13 UNL     1       4.878  -1.106  -0.032  1.00  0.00     0.011 C 
BRANCH  22  23
HETATM   23  C14 UNL     1       6.035  -1.302   0.872  1.00  0.00     0.052 C 
BRANCH  23  24
HETATM   24  C15 UNL     1       7.319  -1.744   0.324  1.00  0.00    -0.020 C 
HETATM   25  N5  UNL     1       7.690  -2.953   0.725  1.00  0.00    -0.406 N 
ATOM     26  H52 UNL     1       7.087  -3.473   1.362  1.00  0.00     0.155 HD
ATOM     27  H51 UNL     1       8.584  -3.261   0.343  1.00  0.00     0.155 HD
BRANCH  24  28
HETATM   28  C16 UNL     1       8.188  -0.994  -0.594  1.00  0.00     0.055 C 
BRANCH  28  29
HETATM   29  C17 UNL     1       8.533   0.378  -0.070  1.00  0.00    -0.018 C 
HETATM   30  C18 UNL     1       9.426   1.084  -1.063  1.00  0.00     0.010 C 
HETATM   31  C19 UNL     1       9.279   0.264   1.241  1.00  0.00     0.010 C 
ENDBRANCH  28  29
ENDBRANCH  24  28
ENDBRANCH  23  24
ENDBRANCH  22  23
ENDBRANCH  21  22
ENDBRANCH  14  21
ENDBRANCH  10  11
ENDBRANCH   9  10
ENDBRANCH   5   9
BRANCH   7  32
HETATM   32  N7  UNL     1      -3.610   1.580   2.426  1.00  0.00    -0.324 N 
HETATM   33  C23 UNL     1      -3.928   2.960   2.514  1.00  0.00     0.330 C 
HETATM   34  N8  UNL     1      -3.639   3.719   3.667  1.00  0.00    -0.040 NA
HETATM   35  O4  UNL     1      -4.491   3.564   1.543  1.00  0.00    -0.251 OA
ATOM     36  H7  UNL     1      -3.161   1.096   3.204  1.00  0.00     0.166 HD
ENDBRANCH   7  32
BRANCH   1  37
HETATM   37  N2  UNL     1      -6.255  -1.802   0.190  1.00  0.00    -0.221 N 
ATOM     38  H2  UNL     1      -6.217  -2.805   0.373  1.00  0.00     0.178 HD
BRANCH  37  39
HETATM   39  C3  UNL     1      -7.405  -1.214  -0.027  1.00  0.00     0.679 A 
HETATM   40  N1  UNL     1      -8.598  -1.842  -0.032  1.00  0.00    -0.191 N 
HETATM   41  C2  UNL     1      -9.562  -0.927  -0.288  1.00  0.00     0.066 A 
ATOM     42  H1  UNL     1      -8.749  -2.838   0.130  1.00  0.00     0.184 HD
HETATM   43  C1  UNL     1     -10.857  -1.153  -0.373  1.00  0.00     0.046 C 
HETATM   44  C25 UNL     1      -8.956   0.300  -0.446  1.00  0.00     0.066 A 
HETATM   45  N9  UNL     1      -7.641   0.080  -0.279  1.00  0.00    -0.191 N 
HETATM   46  C26 UNL     1      -9.578   1.438  -0.709  1.00  0.00     0.046 C 
ATOM     47  H9  UNL     1      -6.921   0.800  -0.336  1.00  0.00     0.184 HD
ENDBRANCH  37  39
ENDBRANCH   1  37
TORSDOF 12
