REMARK  11 active torsions:
REMARK  status: ('A' for Active; 'I' for Inactive)
REMARK    1  A    between atoms: C2_2  and  C4_4 
REMARK    2  A    between atoms: C4_4  and  C5_5 
REMARK    3  A    between atoms: C10_13  and  C11_14 
REMARK    4  A    between atoms: C11_14  and  C12_15 
REMARK    5  A    between atoms: C12_15  and  C13_16 
REMARK    6  A    between atoms: C13_16  and  C14_17 
REMARK    7  A    between atoms: C14_17  and  O3_19 
REMARK    8  A    between atoms: C20_32  and  C21_33 
REMARK    9  A    between atoms: C21_33  and  C22_34 
REMARK   10  A    between atoms: C22_34  and  C23_35 
REMARK   11  A    between atoms: C23_35  and  N4_36 
REMARK       I    between atoms: N4_36  and  C24_38 
ROOT
HETATM    1  C5  UNL     1      -1.434  -2.280  -0.005  1.00  0.00     0.179 C 
HETATM    2  C6  UNL     1      -0.405  -2.052   1.012  1.00  0.00     0.240 C 
HETATM    3  O1  UNL     1      -0.683  -1.187   1.933  1.00  0.00    -0.271 OA
HETATM    4  N1  UNL     1       0.859  -2.637   1.145  1.00  0.00    -0.359 N 
ATOM      5  H1  UNL     1       1.096  -2.981   2.075  1.00  0.00     0.162 HD
HETATM    6  C7  UNL     1       1.867  -2.814   0.131  1.00  0.00     0.122 C 
HETATM    7  C8  UNL     1       2.408  -1.563  -0.461  1.00  0.00     0.020 C 
HETATM    8  C9  UNL     1       3.490  -0.882   0.366  1.00  0.00     0.007 C 
HETATM    9  C10 UNL     1       4.105   0.158  -0.571  1.00  0.00    -0.006 C 
HETATM   10  C15 UNL     1       3.215   1.306  -0.862  1.00  0.00     0.107 C 
HETATM   11  C16 UNL     1       2.881   2.183   0.270  1.00  0.00     0.218 C 
HETATM   12  O4  UNL     1       3.811   2.446   1.090  1.00  0.00    -0.274 OA
HETATM   13  N2  UNL     1       1.618   2.763   0.532  1.00  0.00    -0.348 N 
ATOM     14  H2  UNL     1       1.610   3.757   0.759  1.00  0.00     0.163 HD
HETATM   15  C17 UNL     1       0.339   2.094   0.511  1.00  0.00     0.172 C 
HETATM   16  C18 UNL     1      -0.393   2.451   1.797  1.00  0.00     0.042 C 
HETATM   17  C19 UNL     1      -0.449   2.566  -0.679  1.00  0.00     0.240 C 
HETATM   18  O5  UNL     1       0.094   3.401  -1.486  1.00  0.00    -0.271 OA
HETATM   19  N3  UNL     1      -1.762   2.145  -0.972  1.00  0.00    -0.346 N 
ATOM     20  H3  UNL     1      -2.428   2.827  -1.335  1.00  0.00     0.163 HD
HETATM   21  C20 UNL     1      -2.196   0.789  -0.777  1.00  0.00     0.176 C 
HETATM   22  C25 UNL     1      -1.276  -0.175  -1.432  1.00  0.00     0.243 C 
HETATM   23  O6  UNL     1      -0.428   0.331  -2.247  1.00  0.00    -0.271 OA
HETATM   24  N7  UNL     1      -1.237  -1.559  -1.258  1.00  0.00    -0.341 N 
HETATM   25  C26 UNL     1      -0.979  -2.359  -2.466  1.00  0.00     0.153 C 
ENDROOT
BRANCH  21  26
HETATM   26  C21 UNL     1      -3.589   0.533  -1.268  1.00  0.00     0.036 C 
BRANCH  26  27
HETATM   27  C22 UNL     1      -4.670   1.330  -0.643  1.00  0.00     0.022 C 
BRANCH  27  28
HETATM   28  C23 UNL     1      -4.784   1.115   0.860  1.00  0.00     0.122 C 
BRANCH  28  29
HETATM   29  N4  UNL     1      -5.848   1.907   1.402  1.00  0.00    -0.365 N 
HETATM   30  C24 UNL     1      -5.805   3.314   1.465  1.00  0.00     0.181 C 
HETATM   31  N5  UNL     1      -4.685   3.940   1.296  1.00  0.00    -0.374 N 
HETATM   32  N6  UNL     1      -6.976   4.077   1.713  1.00  0.00    -0.064 NA
ATOM     33  H52 UNL     1      -3.844   3.392   1.118  1.00  0.00     0.158 HD
ATOM     34  H51 UNL     1      -4.654   4.959   1.342  1.00  0.00     0.158 HD
ATOM     35  H4  UNL     1      -6.676   1.430   1.759  1.00  0.00     0.162 HD
ENDBRANCH  28  29
ENDBRANCH  27  28
ENDBRANCH  26  27
ENDBRANCH  21  26
BRANCH   1  36
HETATM   36  C4  UNL     1      -1.809  -3.695  -0.282  1.00  0.00     0.039 C 
BRANCH  36  37
HETATM   37  C2  UNL     1      -2.383  -4.494   0.815  1.00  0.00    -0.020 C 
HETATM   38  C1  UNL     1      -1.548  -4.701   2.036  1.00  0.00     0.009 C 
HETATM   39  C3  UNL     1      -3.789  -4.045   1.200  1.00  0.00     0.009 C 
ENDBRANCH  36  37
ENDBRANCH   1  36
BRANCH   9  40
HETATM   40  C11 UNL     1       5.509   0.492  -0.165  1.00  0.00     0.005 C 
BRANCH  40  41
HETATM   41  C12 UNL     1       6.141   1.498  -1.062  1.00  0.00     0.010 C 
BRANCH  41  42
HETATM   42  C13 UNL     1       7.562   1.788  -0.637  1.00  0.00     0.114 C 
BRANCH  42  43
HETATM   43  C14 UNL     1       7.587   2.325   0.736  1.00  0.00     0.294 C 
HETATM   44  O2  UNL     1       7.678   1.616   1.767  1.00  0.00    -0.262 OA
BRANCH  43  45
HETATM   45  O3  UNL     1       7.507   3.698   0.910  1.00  0.00    -0.117 OA
HETATM   46  F1  UNL     1       7.528   4.213   2.155  1.00  0.00    -0.039 F 
ENDBRANCH  43  45
ENDBRANCH  42  43
ENDBRANCH  41  42
ENDBRANCH  40  41
ENDBRANCH   9  40
TORSDOF 11
