REMARK  16 active torsions:
REMARK  status: ('A' for Active; 'I' for Inactive)
REMARK    1  A    between atoms: C2_2  and  C4_4 
REMARK    2  A    between atoms: C4_4  and  C5_5 
REMARK    3  A    between atoms: C6_8  and  O1_9 
REMARK    4  A    between atoms: C7_11  and  C8_12 
REMARK    5  A    between atoms: C8_12  and  C9_13 
REMARK    6  A    between atoms: C9_13  and  C10_14 
REMARK    7  A    between atoms: C10_14  and  C11_15 
REMARK    8  A    between atoms: C11_15  and  N2_16 
REMARK    9  A    between atoms: C13_22  and  O2_23 
REMARK   10  A    between atoms: C14_25  and  C15_26 
REMARK   11  A    between atoms: C17_30  and  C18_31 
REMARK   12  A    between atoms: C18_31  and  C19_32 
REMARK   13  A    between atoms: C19_32  and  C20_33 
REMARK   14  A    between atoms: C20_33  and  C21_34 
REMARK   15  A    between atoms: C22_36  and  O4_37 
REMARK   16  A    between atoms: C26_47  and  O6_48 
ROOT
HETATM    1  C5  UNL     1      -2.118  -2.108   1.056  1.00  0.00     0.158 C 
HETATM    2  N1  UNL     1      -2.841  -1.061   0.409  1.00  0.00    -0.357 N 
ATOM      3  H1  UNL     1      -3.483  -1.432  -0.291  1.00  0.00     0.162 HD
HETATM    4  C6  UNL     1      -2.909   0.316   0.471  1.00  0.00     0.164 C 
HETATM    5  C7  UNL     1      -1.959   1.441   0.200  1.00  0.00     0.083 C 
HETATM    6  N3  UNL     1      -0.856   1.515   1.106  1.00  0.00    -0.332 N 
HETATM    7  C12 UNL     1      -1.352   1.163   2.499  1.00  0.00     0.158 C 
HETATM    8  C13 UNL     1       0.464   1.854   1.106  1.00  0.00     0.134 C 
HETATM    9  C14 UNL     1       1.739   1.627   0.397  1.00  0.00     0.172 C 
HETATM   10  C16 UNL     1       1.884   0.628  -0.639  1.00  0.00     0.002 C 
HETATM   11  C17 UNL     1       2.981  -0.301  -0.775  1.00  0.00    -0.035 C 
HETATM   12  C22 UNL     1       2.547  -1.658  -1.351  1.00  0.00     0.250 C 
HETATM   13  N5  UNL     1       1.581  -1.529  -2.405  1.00  0.00    -0.329 N 
ATOM     14  H5  UNL     1       1.613  -0.659  -2.937  1.00  0.00     0.165 HD
HETATM   15  C23 UNL     1       0.599  -2.451  -2.794  1.00  0.00     0.242 C 
HETATM   16  O5  UNL     1       0.613  -2.812  -4.030  1.00  0.00    -0.271 OA
HETATM   17  C24 UNL     1      -0.463  -3.066  -1.957  1.00  0.00     0.171 C 
HETATM   18  C25 UNL     1      -1.758  -2.585  -2.536  1.00  0.00     0.042 C 
HETATM   19  N6  UNL     1      -0.274  -3.051  -0.567  1.00  0.00    -0.360 N 
ATOM     20  H6  UNL     1       0.432  -3.736  -0.296  1.00  0.00     0.162 HD
HETATM   21  C26 UNL     1      -0.753  -2.392   0.539  1.00  0.00     0.135 C 
ENDROOT
BRANCH   5  22
HETATM   22  C8  UNL     1      -1.894   1.732  -1.223  1.00  0.00     0.007 C 
BRANCH  22  23
HETATM   23  C9  UNL     1      -1.127   2.785  -1.843  1.00  0.00     0.031 C 
BRANCH  23  24
HETATM   24  C10 UNL     1      -1.383   4.200  -1.416  1.00  0.00     0.031 C 
BRANCH  24  25
HETATM   25  C11 UNL     1      -2.807   4.654  -1.653  1.00  0.00     0.230 C 
BRANCH  25  26
HETATM   26  N2  UNL     1      -2.895   6.028  -1.201  1.00  0.00    -0.079 N 
ATOM     27  H23 UNL     1      -2.590   6.152  -0.236  1.00  0.00     0.274 HD
ATOM     28  H22 UNL     1      -2.203   6.638  -1.636  1.00  0.00     0.274 HD
ATOM     29  H21 UNL     1      -3.855   6.334  -1.361  1.00  0.00     0.274 HD
ENDBRANCH  25  26
ENDBRANCH  24  25
ENDBRANCH  23  24
ENDBRANCH  22  23
ENDBRANCH   5  22
BRANCH   4  30
HETATM   30  O1  UNL     1      -4.074   0.784   0.850  1.00  0.00    -0.345 OA
ATOM     31  H1  UNL     1      -4.121   1.732   0.893  1.00  0.00     0.219 HD
ENDBRANCH   4  30
BRANCH   8  32
HETATM   32  O2  UNL     1       0.766   2.712   2.108  1.00  0.00    -0.348 OA
ATOM     33  H2  UNL     1       1.686   2.948   2.108  1.00  0.00     0.219 HD
ENDBRANCH   8  32
BRANCH   1  34
HETATM   34  C4  UNL     1      -2.817  -3.451   1.127  1.00  0.00     0.037 C 
BRANCH  34  35
HETATM   35  C2  UNL     1      -4.082  -3.587   1.830  1.00  0.00    -0.020 C 
HETATM   36  C1  UNL     1      -5.208  -2.764   1.284  1.00  0.00     0.009 C 
HETATM   37  C3  UNL     1      -3.978  -3.458   3.342  1.00  0.00     0.009 C 
ENDBRANCH  34  35
ENDBRANCH   1  34
BRANCH   9  38
HETATM   38  C15 UNL     1       2.318   2.979  -0.030  1.00  0.00     0.246 C 
HETATM   39  N4  UNL     1       3.120   3.022  -1.182  1.00  0.00    -0.061 NA
HETATM   40  O3  UNL     1       2.047   3.969   0.667  1.00  0.00    -0.276 OA
ENDBRANCH   9  38
BRANCH  21  41
HETATM   41  O6  UNL     1       0.171  -1.909   1.317  1.00  0.00    -0.348 OA
ATOM     42  H6  UNL     1       1.043  -2.090   0.987  1.00  0.00     0.219 HD
ENDBRANCH  21  41
BRANCH  11  43
HETATM   43  C18 UNL     1       4.010  -0.616   0.221  1.00  0.00     0.038 C 
BRANCH  43  44
HETATM   44  C19 UNL     1       4.985   0.403   0.685  1.00  0.00     0.006 C 
BRANCH  44  45
HETATM   45  C20 UNL     1       5.942  -0.229   1.712  1.00  0.00     0.015 C 
BRANCH  45  46
HETATM   46  C21 UNL     1       6.891   0.859   2.135  1.00  0.00     0.114 C 
HETATM   47 CL1  UNL     1       8.062   0.256   3.323  1.00  0.00    -0.130 Cl
ENDBRANCH  45  46
ENDBRANCH  44  45
ENDBRANCH  43  44
ENDBRANCH  11  43
BRANCH  12  48
HETATM   48  O4  UNL     1       3.719  -2.202  -1.935  1.00  0.00    -0.373 OA
ATOM     49  H4  UNL     1       3.451  -3.041  -2.291  1.00  0.00     0.212 HD
ENDBRANCH  12  48
TORSDOF 16
