REMARK  15 active torsions:
REMARK  status: ('A' for Active; 'I' for Inactive)
REMARK    1  A    between atoms: C2_2  and  C3_3 
REMARK    2  A    between atoms: C2_2  and  N4_10 
REMARK    3  A    between atoms: C3_3  and  C4_4 
REMARK    4  A    between atoms: C4_4  and  N1_5 
REMARK       I    between atoms: N1_5  and  C5_7 
REMARK    5  A    between atoms: N4_10  and  C6_12 
REMARK    6  A    between atoms: C6_12  and  N5_13 
REMARK    7  A    between atoms: C6_12  and  C16_32 
REMARK       I    between atoms: N5_13  and  C7_15 
REMARK    8  A    between atoms: C7_15  and  C8_17 
REMARK    9  A    between atoms: C8_17  and  C9_18 
REMARK   10  A    between atoms: C16_32  and  N8_33 
REMARK   11  A    between atoms: C16_32  and  C17_37 
REMARK   12  A    between atoms: C17_37  and  C18_38 
REMARK   13  A    between atoms: C18_38  and  C19_39 
REMARK   14  A    between atoms: C19_39  and  C20_40 
REMARK   15  A    between atoms: C20_40  and  N9_41 
ROOT
HETATM    1  C6  UNL     1      -0.776  -0.622  -1.322  1.00  0.00     0.114 C 
ENDROOT
BRANCH   1   2
HETATM    2  N4  UNL     1      -0.431   0.538  -0.589  1.00  0.00    -0.352 N 
ATOM      3  H4  UNL     1       0.077   0.387   0.283  1.00  0.00     0.166 HD
BRANCH   2   4
HETATM    4  C2  UNL     1      -0.680   1.743  -0.891  1.00  0.00    -0.014 C 
HETATM    5  C1  UNL     1      -1.398   2.141  -2.103  1.00  0.00     0.063 C 
BRANCH   4   6
HETATM    6  C3  UNL     1      -0.203   2.790   0.056  1.00  0.00     0.071 C 
BRANCH   6   7
HETATM    7  C4  UNL     1       0.754   3.736  -0.643  1.00  0.00     0.127 C 
BRANCH   7   8
HETATM    8  N1  UNL     1       1.268   4.755   0.200  1.00  0.00    -0.367 N 
HETATM    9  C5  UNL     1       0.675   5.732   0.741  1.00  0.00     0.196 C 
HETATM   10  N2  UNL     1      -0.719   5.912   0.522  1.00  0.00    -0.067 NA
HETATM   11  N3  UNL     1       1.395   6.653   1.570  1.00  0.00    -0.067 NA
ATOM     12  H1  UNL     1       2.266   4.690   0.400  1.00  0.00     0.161 HD
ENDBRANCH   7   8
ENDBRANCH   6   7
ENDBRANCH   4   6
ENDBRANCH   2   4
ENDBRANCH   1   2
BRANCH   1  13
HETATM   13  N5  UNL     1       0.124  -1.406  -1.755  1.00  0.00    -0.315 N 
HETATM   14  C7  UNL     1       1.496  -1.422  -1.689  1.00  0.00     0.227 C 
HETATM   15  O1  UNL     1       2.116  -2.556  -1.685  1.00  0.00    -0.273 OA
ATOM     16  H5  UNL     1      -0.257  -2.202  -2.266  1.00  0.00     0.170 HD
BRANCH  14  17
HETATM   17  C8  UNL     1       2.359  -0.222  -1.623  1.00  0.00     0.146 C 
BRANCH  17  18
HETATM   18  C9  UNL     1       3.805  -0.560  -1.635  1.00  0.00     0.012 A 
HETATM   19  C10 UNL     1       4.509  -0.949  -2.750  1.00  0.00     0.132 A 
HETATM   20 BR1  UNL     1       3.797  -1.151  -4.529  1.00  0.00    -0.022 Br
HETATM   21  O2  UNL     1       5.747  -1.153  -2.374  1.00  0.00    -0.285 OA
HETATM   22  C11 UNL     1       5.913  -0.928  -1.089  1.00  0.00     0.166 A 
HETATM   23  N6  UNL     1       6.983  -1.004  -0.275  1.00  0.00    -0.326 N 
HETATM   24  C15 UNL     1       4.667  -0.543  -0.590  1.00  0.00     0.093 A 
HETATM   25  C12 UNL     1       6.899  -0.717   1.034  1.00  0.00     0.081 A 
ATOM     26  H6  UNL     1       7.882  -1.288  -0.664  1.00  0.00     0.169 HD
HETATM   27  C13 UNL     1       8.115  -0.811   1.914  1.00  0.00     0.089 C 
HETATM   28  N7  UNL     1       5.708  -0.346   1.526  1.00  0.00    -0.312 N 
HETATM   29  C14 UNL     1       4.608  -0.253   0.761  1.00  0.00     0.262 A 
ATOM     30  H7  UNL     1       5.635  -0.126   2.519  1.00  0.00     0.170 HD
HETATM   31  O3  UNL     1       3.493   0.097   1.230  1.00  0.00    -0.267 OA
ENDBRANCH  17  18
ENDBRANCH  14  17
ENDBRANCH   1  13
BRANCH   1  32
HETATM   32  C16 UNL     1      -2.181  -0.991  -1.615  1.00  0.00     0.250 C 
BRANCH  32  33
HETATM   33  N8  UNL     1      -2.138  -1.925  -2.764  1.00  0.00    -0.068 N 
ATOM     34  H83 UNL     1      -1.642  -1.549  -3.572  1.00  0.00     0.275 HD
ATOM     35  H82 UNL     1      -1.533  -2.731  -2.607  1.00  0.00     0.275 HD
ATOM     36  H81 UNL     1      -3.105  -2.179  -2.966  1.00  0.00     0.275 HD
ENDBRANCH  32  33
BRANCH  32  37
HETATM   37  C17 UNL     1      -2.747  -1.794  -0.436  1.00  0.00     0.041 C 
BRANCH  37  38
HETATM   38  C18 UNL     1      -2.766  -1.077   0.851  1.00  0.00     0.004 C 
BRANCH  38  39
HETATM   39  C19 UNL     1      -3.258  -1.865   2.000  1.00  0.00     0.020 C 
BRANCH  39  40
HETATM   40  C20 UNL     1      -4.638  -2.378   1.907  1.00  0.00     0.122 C 
BRANCH  40  41
HETATM   41  N9  UNL     1      -4.824  -3.316   0.849  1.00  0.00    -0.367 N 
HETATM   42  C21 UNL     1      -5.889  -4.046   0.723  1.00  0.00     0.196 C 
HETATM   43  N10 UNL     1      -6.001  -4.957  -0.357  1.00  0.00    -0.067 NA
HETATM   44  N11 UNL     1      -6.897  -3.881   1.697  1.00  0.00    -0.067 NA
ATOM     45  H9  UNL     1      -4.082  -3.418   0.156  1.00  0.00     0.161 HD
ENDBRANCH  40  41
ENDBRANCH  39  40
ENDBRANCH  38  39
ENDBRANCH  37  38
ENDBRANCH  32  37
ENDBRANCH   1  32
TORSDOF 15
