REMARK  12 active torsions:
REMARK  status: ('A' for Active; 'I' for Inactive)
REMARK    1  A    between atoms: N1_1  and  C1_5 
REMARK    2  A    between atoms: C1_5  and  C2_6 
REMARK    3  A    between atoms: C1_5  and  C3_10 
REMARK    4  A    between atoms: C2_6  and  N2_7 
REMARK       I    between atoms: C3_10  and  N3_12 
REMARK    5  A    between atoms: N3_12  and  N4_14 
REMARK       I    between atoms: N4_14  and  C4_16 
REMARK    6  A    between atoms: C4_16  and  C5_18 
REMARK       I    between atoms: C5_18  and  N5_20 
REMARK    7  A    between atoms: N5_20  and  O6_22 
REMARK    8  A    between atoms: O6_22  and  C6_23 
REMARK    9  A    between atoms: C6_23  and  C7_25 
REMARK   10  A    between atoms: C8_27  and  O9_28 
REMARK   11  A    between atoms: C9_30  and  O10_31 
REMARK   12  A    between atoms: C10_33  and  O11_34 
ROOT
HETATM    1  C5  UNL     1       0.534   0.359   0.015  1.00  0.00     0.335 C 
HETATM    2  O5  UNL     1       1.021   1.284   0.698  1.00  0.00    -0.260 OA
HETATM    3  N5  UNL     1       1.377  -0.497  -0.713  1.00  0.00    -0.217 N 
ATOM      4  H5  UNL     1       0.945  -1.241  -1.261  1.00  0.00     0.198 HD
ENDROOT
BRANCH   1   5
HETATM    5  C4  UNL     1      -0.903   0.183  -0.015  1.00  0.00     0.329 C 
HETATM    6  N4  UNL     1      -1.737   1.080   0.679  1.00  0.00    -0.259 N 
ATOM      7  H4  UNL     1      -1.313   1.851   1.195  1.00  0.00     0.190 HD
HETATM    8  O4  UNL     1      -1.408  -0.794  -0.679  1.00  0.00    -0.261 OA
BRANCH   6   9
HETATM    9  N3  UNL     1      -3.104   0.950   0.683  1.00  0.00    -0.265 N 
HETATM   10  C3  UNL     1      -3.918   0.951  -0.462  1.00  0.00     0.268 C 
HETATM   11  O3  UNL     1      -3.363   1.071  -1.602  1.00  0.00    -0.269 OA
ATOM     12  H3  UNL     1      -3.564   0.845   1.587  1.00  0.00     0.190 HD
BRANCH  10  13
HETATM   13  C1  UNL     1      -5.397   0.818  -0.372  1.00  0.00     0.300 C 
BRANCH  13  14
HETATM   14  N1  UNL     1      -5.766   0.966   1.027  1.00  0.00    -0.065 N 
ATOM     15  H13 UNL     1      -6.765   0.839   1.188  1.00  0.00     0.275 HD
ATOM     16  H12 UNL     1      -5.436   0.194   1.607  1.00  0.00     0.275 HD
ATOM     17  H11 UNL     1      -5.427   1.873   1.346  1.00  0.00     0.275 HD
ENDBRANCH  13  14
BRANCH  13  18
HETATM   18  C2  UNL     1      -5.900  -0.527  -0.845  1.00  0.00     0.243 C 
BRANCH  18  19
HETATM   19  N2  UNL     1      -7.350  -0.606  -0.704  1.00  0.00    -0.153 N 
HETATM   20  O1  UNL     1      -8.042  -0.804  -1.748  1.00  0.00    -0.536 OA
HETATM   21  O2  UNL     1      -7.983  -0.477   0.493  1.00  0.00    -0.536 OA
ENDBRANCH  18  19
ENDBRANCH  13  18
ENDBRANCH  10  13
ENDBRANCH   6   9
ENDBRANCH   1   5
BRANCH   3  22
HETATM   22  O6  UNL     1       2.756  -0.394  -0.733  1.00  0.00    -0.190 OA
BRANCH  22  23
HETATM   23  C6  UNL     1       3.537  -0.671   0.354  1.00  0.00     0.342 C 
HETATM   24  O7  UNL     1       2.933  -1.041   1.409  1.00  0.00    -0.255 OA
BRANCH  23  25
HETATM   25  C7  UNL     1       4.989  -0.587   0.422  1.00  0.00     0.191 A 
HETATM   26  O8  UNL     1       5.744  -0.847   1.450  1.00  0.00    -0.277 OA
HETATM   27  C8  UNL     1       7.012  -0.683   1.222  1.00  0.00     0.221 A 
HETATM   28  C9  UNL     1       7.152  -0.274  -0.080  1.00  0.00     0.161 A 
HETATM   29  C10 UNL     1       5.861  -0.209  -0.604  1.00  0.00     0.144 A 
BRANCH  27  30
HETATM   30  O9  UNL     1       8.082  -0.881   2.125  1.00  0.00    -0.339 OA
ATOM     31  H9  UNL     1       9.010  -0.761   1.958  1.00  0.00     0.220 HD
ENDBRANCH  27  30
BRANCH  28  32
HETATM   32  O10 UNL     1       8.276   0.037  -0.828  1.00  0.00    -0.354 OA
ATOM     33  H10 UNL     1       8.373   0.320  -1.730  1.00  0.00     0.218 HD
ENDBRANCH  28  32
BRANCH  29  34
HETATM   34  O11 UNL     1       5.500   0.157  -1.890  1.00  0.00    -0.355 OA
ATOM     35  H11 UNL     1       6.092   0.414  -2.587  1.00  0.00     0.218 HD
ENDBRANCH  29  34
ENDBRANCH  23  25
ENDBRANCH  22  23
ENDBRANCH   3  22
TORSDOF 12
