REMARK  9 active torsions:
REMARK  status: ('A' for Active; 'I' for Inactive)
REMARK    1  A    between atoms: C2_2  and  O1_3 
REMARK    2  A    between atoms: C2_2  and  C3_5 
REMARK    3  A    between atoms: C3_5  and  N1_6 
REMARK       I    between atoms: N1_6  and  C4_8 
REMARK    4  A    between atoms: C4_8  and  C5_10 
REMARK    5  A    between atoms: C7_15  and  O3_16 
REMARK    6  A    between atoms: C8_20  and  N5_21 
REMARK       I    between atoms: N5_21  and  C9_23 
REMARK    7  A    between atoms: C10_28  and  O5_29 
REMARK    8  A    between atoms: C10_28  and  N8_31 
REMARK    9  A    between atoms: N8_31  and  N9_33 
ROOT
HETATM    1  C5  UNL     1      -0.951   0.185  -0.154  1.00  0.00     0.153 A 
HETATM    2  N2  UNL     1      -0.177  -0.915  -0.463  1.00  0.00    -0.284 N 
ATOM      3  H2  UNL     1      -0.524  -1.750  -0.936  1.00  0.00     0.188 HD
HETATM    4  N3  UNL     1       1.063  -0.747  -0.069  1.00  0.00    -0.198 N 
HETATM    5  C6  UNL     1       1.203   0.428   0.504  1.00  0.00     0.180 A 
HETATM    6  C7  UNL     1      -0.086   1.040   0.460  1.00  0.00     0.146 A 
HETATM    7  N4  UNL     1       2.452   0.943   0.958  1.00  0.00    -0.172 N 
ATOM      8  H4  UNL     1       2.486   1.859   1.406  1.00  0.00     0.186 HD
HETATM    9  C8  UNL     1       3.560   0.255   0.807  1.00  0.00     0.689 C 
HETATM   10  N7  UNL     1       3.435  -0.917   0.049  1.00  0.00    -0.152 N 
ATOM     11  H7  UNL     1       4.266  -1.267  -0.429  1.00  0.00     0.185 HD
HETATM   12  C10 UNL     1       2.213  -1.658  -0.099  1.00  0.00     0.356 C 
ENDROOT
BRANCH   1  13
HETATM   13  C4  UNL     1      -2.365   0.242  -0.492  1.00  0.00     0.272 C 
HETATM   14  N1  UNL     1      -3.197   1.308  -0.224  1.00  0.00    -0.353 N 
ATOM     15  H1  UNL     1      -2.740   2.098   0.232  1.00  0.00     0.162 HD
HETATM   16  O2  UNL     1      -2.855  -0.779  -1.081  1.00  0.00    -0.266 OA
BRANCH  14  17
HETATM   17  C3  UNL     1      -4.591   1.494  -0.477  1.00  0.00     0.154 C 
BRANCH  17  18
HETATM   18  C2  UNL     1      -5.447   0.563   0.304  1.00  0.00     0.132 C 
HETATM   19  C1  UNL     1      -6.935   0.846   0.082  1.00  0.00     0.041 C 
BRANCH  18  20
HETATM   20  O1  UNL     1      -5.234  -0.748   0.022  1.00  0.00    -0.394 OA
ATOM     21  H1  UNL     1      -4.311  -0.924   0.160  1.00  0.00     0.210 HD
ENDBRANCH  18  20
ENDBRANCH  17  18
ENDBRANCH  14  17
ENDBRANCH   1  13
BRANCH   6  22
HETATM   22  O3  UNL     1      -0.254   2.277   0.988  1.00  0.00    -0.355 OA
ATOM     23  H3  UNL     1       0.349   2.873   1.416  1.00  0.00     0.218 HD
ENDBRANCH   6  22
BRANCH  12  24
HETATM   24  O5  UNL     1       2.084  -2.496   1.023  1.00  0.00    -0.334 OA
ATOM     25  H5  UNL     1       2.829  -3.086   1.004  1.00  0.00     0.216 HD
ENDBRANCH  12  24
BRANCH  12  26
HETATM   26  N8  UNL     1       2.221  -2.452  -1.289  1.00  0.00    -0.203 N 
ATOM     27  H8  UNL     1       1.481  -2.337  -1.981  1.00  0.00     0.193 HD
BRANCH  26  28
HETATM   28  N9  UNL     1       3.225  -3.373  -1.504  1.00  0.00    -0.038 N 
HETATM   29  O6  UNL     1       3.845  -3.842  -0.545  1.00  0.00    -0.517 OA
HETATM   30  O7  UNL     1       3.529  -3.762  -2.775  1.00  0.00    -0.517 OA
ENDBRANCH  26  28
ENDBRANCH  12  26
BRANCH   9  31
HETATM   31  N5  UNL     1       4.796   0.744   1.263  1.00  0.00    -0.144 N 
HETATM   32  C9  UNL     1       6.054   0.139   1.203  1.00  0.00     0.346 C 
HETATM   33  N6  UNL     1       7.168   0.844   1.732  1.00  0.00    -0.039 NA
HETATM   34  O4  UNL     1       6.209  -0.990   0.702  1.00  0.00    -0.250 OA
ATOM     35  H5  UNL     1       4.771   1.667   1.697  1.00  0.00     0.188 HD
ENDBRANCH   9  31
TORSDOF 9
