REMARK  5 active torsions:
REMARK  status: ('A' for Active; 'I' for Inactive)
REMARK    1  A    between atoms: C2_2  and  C3_3 
REMARK    2  A    between atoms: C3_3  and  C4_4 
REMARK    3  A    between atoms: C6_7  and  N1_8 
REMARK    4  A    between atoms: N1_8  and  C7_10 
REMARK    5  A    between atoms: C7_10  and  C8_11 
ROOT
HETATM    1  C4  UNL     1       0.499  -0.039   1.236  1.00  0.00     0.020 A 
HETATM    2  C5  UNL     1       0.862   0.377   2.494  1.00  0.00     0.078 A 
HETATM    3  S1  UNL     1      -0.541   1.198   3.012  1.00  0.00    -0.064 SA
HETATM    4  C6  UNL     1      -1.500   0.965   1.606  1.00  0.00     0.144 A 
HETATM    5  N5  UNL     1      -0.688   0.268   0.816  1.00  0.00    -0.340 N 
ATOM      6  H5  UNL     1      -0.997  -0.022  -0.112  1.00  0.00     0.168 HD
ENDROOT
BRANCH   1   7
HETATM    7  C3  UNL     1       1.507  -0.831   0.423  1.00  0.00     0.096 C 
BRANCH   7   8
HETATM    8  C2  UNL     1       2.378   0.093  -0.406  1.00  0.00     0.090 C 
HETATM    9  C1  UNL     1       1.514   0.912  -1.374  1.00  0.00     0.047 C 
HETATM   10  N6  UNL     1       3.130   1.004   0.416  1.00  0.00    -0.348 N 
HETATM   11  C11 UNL     1       4.226   0.958   1.074  1.00  0.00     0.191 C 
ATOM     12  H6  UNL     1       2.675   1.914   0.493  1.00  0.00     0.163 HD
HETATM   13  N7  UNL     1       4.653   2.105   1.788  1.00  0.00    -0.063 NA
HETATM   14  N8  UNL     1       5.069  -0.212   1.135  1.00  0.00    -0.305 N 
HETATM   15  C12 UNL     1       5.129  -1.182   0.254  1.00  0.00     0.195 C 
ATOM     16  H8  UNL     1       5.681  -0.293   1.947  1.00  0.00     0.171 HD
HETATM   17  N9  UNL     1       6.048  -2.216   0.560  1.00  0.00    -0.063 NA
HETATM   18  N10 UNL     1       4.375  -1.286  -0.947  1.00  0.00    -0.320 N 
HETATM   19  C13 UNL     1       3.245  -0.766  -1.226  1.00  0.00     0.123 C 
ATOM     20  H10 UNL     1       4.794  -1.853  -1.684  1.00  0.00     0.169 HD
HETATM   21  N11 UNL     1       2.751  -1.058  -2.513  1.00  0.00    -0.085 NA
ENDBRANCH   7   8
ENDBRANCH   1   7
BRANCH   4  22
HETATM   22  N1  UNL     1      -2.728   1.376   1.381  1.00  0.00    -0.368 N 
ATOM     23  H1  UNL     1      -3.237   1.907   2.087  1.00  0.00     0.161 HD
BRANCH  22  24
HETATM   24  C7  UNL     1      -3.332   1.064   0.130  1.00  0.00     0.148 C 
BRANCH  24  25
HETATM   25  C8  UNL     1      -3.956  -0.303   0.082  1.00  0.00     0.119 C 
HETATM   26  C9  UNL     1      -5.036  -0.503   1.089  1.00  0.00     0.149 C 
HETATM   27  N2  UNL     1      -6.247  -0.133   0.402  1.00  0.00    -0.363 N 
HETATM   28  C10 UNL     1      -6.027  -0.109  -0.862  1.00  0.00     0.184 C 
ATOM     29  H2  UNL     1      -7.139   0.077   0.850  1.00  0.00     0.162 HD
HETATM   30  N3  UNL     1      -7.039   0.225  -1.827  1.00  0.00    -0.064 NA
HETATM   31  N4  UNL     1      -4.684  -0.448  -1.167  1.00  0.00    -0.357 N 
ATOM     32  H4  UNL     1      -4.309  -0.733  -2.072  1.00  0.00     0.162 HD
ENDBRANCH  24  25
ENDBRANCH  22  24
ENDBRANCH   4  22
TORSDOF 5
