REMARK  7 active torsions:
REMARK  status: ('A' for Active; 'I' for Inactive)
REMARK    1  A    between atoms: C3_5  and  N2_6 
REMARK    2  A    between atoms: C5_8  and  N3_9 
REMARK    3  A    between atoms: C5_8  and  C6_13 
REMARK    4  A    between atoms: C7_16  and  C8_17 
REMARK    5  A    between atoms: N4_18  and  N5_20 
REMARK    6  A    between atoms: N5_20  and  C9_22 
REMARK    7  A    between atoms: C13_31  and  N9_32 
ROOT
HETATM    1  C1  UNL     1      -3.945  -3.633  -1.405  1.00  0.00     0.089 C 
HETATM    2  C2  UNL     1      -2.916  -2.681  -0.895  1.00  0.00     0.080 A 
HETATM    3  N1  UNL     1      -2.969  -1.364  -1.135  1.00  0.00    -0.332 N 
ATOM      4  H1  UNL     1      -3.733  -0.974  -1.686  1.00  0.00     0.168 HD
HETATM    5  C3  UNL     1      -1.993  -0.545  -0.637  1.00  0.00     0.122 A 
HETATM    6  C7  UNL     1      -0.958  -1.064   0.106  1.00  0.00     0.068 A 
HETATM    7  C13 UNL     1      -0.925  -2.419   0.339  1.00  0.00     0.115 A 
HETATM    8  N10 UNL     1      -1.902  -3.182  -0.167  1.00  0.00    -0.332 N 
ATOM      9  H10 UNL     1      -1.876  -4.187   0.007  1.00  0.00     0.168 HD
ENDROOT
BRANCH   6  10
HETATM   10  C8  UNL     1       0.079  -0.169   0.635  1.00  0.00     0.126 C 
HETATM   11  N4  UNL     1       1.016  -0.687   1.315  1.00  0.00    -0.309 N 
ATOM     12  H4  UNL     1       0.983  -1.698   1.448  1.00  0.00     0.186 HD
BRANCH  11  13
HETATM   13  N5  UNL     1       2.073  -0.019   1.892  1.00  0.00    -0.283 N 
ATOM     14  H5  UNL     1       1.968   0.441   2.796  1.00  0.00     0.188 HD
BRANCH  13  15
HETATM   15  C9  UNL     1       3.313   0.015   1.199  1.00  0.00     0.158 A 
HETATM   16  N6  UNL     1       4.132  -0.944   1.145  1.00  0.00    -0.368 N 
HETATM   17  C10 UNL     1       5.376  -0.967   0.474  1.00  0.00     0.165 A 
ATOM     18  H6  UNL     1       3.867  -1.796   1.640  1.00  0.00     0.161 HD
HETATM   19  C11 UNL     1       5.719   0.292  -0.225  1.00  0.00     0.082 A 
HETATM   20  N7  UNL     1       4.754   1.314  -0.117  1.00  0.00    -0.354 N 
HETATM   21  C12 UNL     1       3.652   1.265   0.504  1.00  0.00     0.161 A 
ATOM     22  H7  UNL     1       4.968   2.191  -0.592  1.00  0.00     0.166 HD
HETATM   23  N8  UNL     1       2.746   2.375   0.543  1.00  0.00    -0.079 NA
ENDBRANCH  13  15
ENDBRANCH  11  13
ENDBRANCH   6  10
BRANCH   5  24
HETATM   24  N2  UNL     1      -2.117   0.842  -0.939  1.00  0.00    -0.319 N 
HETATM   25  C4  UNL     1      -1.499   2.027  -1.608  1.00  0.00     0.201 A 
HETATM   26  C5  UNL     1      -2.770   2.136  -0.923  1.00  0.00     0.303 A 
BRANCH  26  27
HETATM   27  N3  UNL     1      -3.944   2.307  -1.788  1.00  0.00    -0.040 N 
ATOM     28  H33 UNL     1      -3.696   2.064  -2.747  1.00  0.00     0.278 HD
ATOM     29  H32 UNL     1      -4.628   1.580  -1.579  1.00  0.00     0.278 HD
ATOM     30  H31 UNL     1      -4.404   3.218  -1.777  1.00  0.00     0.278 HD
ENDBRANCH  26  27
BRANCH  26  31
HETATM   31  C6  UNL     1      -2.824   2.934   0.320  1.00  0.00     0.234 C 
HETATM   32  O1  UNL     1      -1.884   2.897   1.174  1.00  0.00    -0.645 OA
HETATM   33  O2  UNL     1      -3.891   3.745   0.601  1.00  0.00    -0.645 OA
ENDBRANCH  26  31
ENDBRANCH   5  24
BRANCH   7  34
HETATM   34  N9  UNL     1       0.046  -2.891   1.034  1.00  0.00    -0.385 N 
ATOM     35  H92 UNL     1       0.790  -2.310   1.419  1.00  0.00     0.157 HD
ATOM     36  H91 UNL     1       0.070  -3.896   1.207  1.00  0.00     0.157 HD
ENDBRANCH   7  34
TORSDOF 7
