REMARK  10 active torsions:
REMARK  status: ('A' for Active; 'I' for Inactive)
REMARK    1  A    between atoms: C2_2  and  N1_3 
REMARK    2  A    between atoms: C2_2  and  C7_25 
REMARK    3  A    between atoms: N1_3  and  N2_5 
REMARK       I    between atoms: N2_5  and  C3_7 
REMARK    4  A    between atoms: C3_7  and  C4_9 
REMARK    5  A    between atoms: C5_14  and  N5_15 
REMARK    6  A    between atoms: N5_15  and  N6_17 
REMARK    7  A    between atoms: N7_20  and  O2_21 
REMARK    8  A    between atoms: C10_32  and  N10_33 
REMARK    9  A    between atoms: N10_33  and  N11_35 
REMARK   10  A    between atoms: N11_35  and  N12_37 
ROOT
HETATM    1  N2  UNL     1       0.596  -0.025  -0.631  1.00  0.00    -0.264 N 
ATOM      2  H2  UNL     1       0.749  -0.959  -1.012  1.00  0.00     0.190 HD
HETATM    3  C3  UNL     1       1.723   0.720  -0.155  1.00  0.00     0.293 C 
HETATM    4  O1  UNL     1       1.522   1.854   0.306  1.00  0.00    -0.264 OA
ENDROOT
BRANCH   1   5
HETATM    5  N1  UNL     1      -0.696   0.478  -0.593  1.00  0.00    -0.300 N 
ATOM      6  H1  UNL     1      -0.913   1.341  -1.092  1.00  0.00     0.186 HD
BRANCH   5   7
HETATM    7  C2  UNL     1      -1.633  -0.132   0.067  1.00  0.00     0.052 C 
HETATM    8  C1  UNL     1      -1.317  -1.370   0.781  1.00  0.00     0.072 C 
BRANCH   7   9
HETATM    9  C7  UNL     1      -2.964   0.457   0.060  1.00  0.00     0.103 A 
HETATM   10  N8  UNL     1      -3.359   1.591  -0.565  1.00  0.00    -0.342 N 
HETATM   11  C8  UNL     1      -4.666   1.801  -0.333  1.00  0.00     0.079 A 
ATOM     12  H8  UNL     1      -2.757   2.194  -1.126  1.00  0.00     0.167 HD
HETATM   13  C9  UNL     1      -5.502   2.944  -0.839  1.00  0.00     0.089 C 
HETATM   14  N9  UNL     1      -5.094   0.784   0.448  1.00  0.00    -0.329 N 
HETATM   15  C10 UNL     1      -4.065  -0.055   0.702  1.00  0.00     0.151 A 
ATOM     16  H9  UNL     1      -6.047   0.668   0.793  1.00  0.00     0.168 HD
BRANCH  15  17
HETATM   17  N10 UNL     1      -4.085  -1.243   1.479  1.00  0.00    -0.269 N 
ATOM     18  H10 UNL     1      -3.445  -1.346   2.266  1.00  0.00     0.190 HD
BRANCH  17  19
HETATM   19  N11 UNL     1      -4.908  -2.192   1.194  1.00  0.00    -0.248 N 
ATOM     20  H11 UNL     1      -4.925  -3.047   1.750  1.00  0.00     0.207 HD
BRANCH  19  21
HETATM   21  N12 UNL     1      -5.777  -2.031   0.111  1.00  0.00    -0.331 N 
ATOM     22 2H12 UNL     1      -5.747  -1.170  -0.435  1.00  0.00     0.178 HD
ATOM     23 1H12 UNL     1      -6.429  -2.782  -0.115  1.00  0.00     0.178 HD
ENDBRANCH  19  21
ENDBRANCH  17  19
ENDBRANCH  15  17
ENDBRANCH   7   9
ENDBRANCH   5   7
ENDBRANCH   1   5
BRANCH   3  24
HETATM   24  C4  UNL     1       3.060   0.156  -0.213  1.00  0.00     0.189 A 
HETATM   25  N3  UNL     1       3.235  -1.073  -0.718  1.00  0.00    -0.277 N 
HETATM   26  N4  UNL     1       4.444  -1.598  -0.778  1.00  0.00    -0.128 N 
ATOM     27  H3  UNL     1       2.432  -1.603  -1.057  1.00  0.00     0.188 HD
HETATM   28  C5  UNL     1       5.524  -0.934  -0.342  1.00  0.00     0.740 A 
ATOM     29  H4  UNL     1       4.560  -2.534  -1.166  1.00  0.00     0.205 HD
HETATM   30  N7  UNL     1       5.388   0.288   0.165  1.00  0.00    -0.008 N 
HETATM   31  C6  UNL     1       4.158   0.829   0.228  1.00  0.00     0.322 A 
HETATM   32  O3  UNL     1       4.032   1.983   0.708  1.00  0.00    -0.262 OA
BRANCH  28  33
HETATM   33  N5  UNL     1       6.665  -1.492  -0.425  1.00  0.00    -0.135 N 
ATOM     34  H5  UNL     1       6.709  -2.430  -0.823  1.00  0.00     0.205 HD
BRANCH  33  35
HETATM   35  N6  UNL     1       7.850  -0.909  -0.010  1.00  0.00    -0.331 N 
ATOM     36  H62 UNL     1       7.787   0.029   0.386  1.00  0.00     0.177 HD
ATOM     37  H61 UNL     1       8.764  -1.356  -0.077  1.00  0.00     0.177 HD
ENDBRANCH  33  35
ENDBRANCH  28  33
BRANCH  30  38
HETATM   38  O2  UNL     1       6.507   0.944   0.602  1.00  0.00    -0.266 OA
ATOM     39  H2  UNL     1       6.410   1.817   0.964  1.00  0.00     0.246 HD
ENDBRANCH  30  38
ENDBRANCH   3  24
TORSDOF 10
