REMARK  9 active torsions:
REMARK  status: ('A' for Active; 'I' for Inactive)
REMARK    1  A    between atoms: C3_7  and  S1_8 
REMARK    2  A    between atoms: S1_8  and  C4_9 
REMARK    3  A    between atoms: C4_9  and  C5_10 
REMARK    4  A    between atoms: C5_10  and  N5_16 
REMARK    5  A    between atoms: N3_11  and  N4_13 
REMARK    6  A    between atoms: N5_16  and  N6_18 
REMARK    7  A    between atoms: N6_18  and  C6_20 
REMARK    8  A    between atoms: C7_23  and  N8_24 
REMARK    9  A    between atoms: N13_36  and  N14_37 
ROOT
HETATM    1  N5  UNL     1       0.593   0.239  -0.597  1.00  0.00    -0.273 N 
ATOM      2  H5  UNL     1       0.420   0.701  -1.490  1.00  0.00     0.189 HD
ENDROOT
BRANCH   1   3
HETATM    3  C5  UNL     1      -0.238   0.506   0.507  1.00  0.00     0.120 C 
HETATM    4  N3  UNL     1      -0.524   1.679   0.910  1.00  0.00    -0.294 N 
ATOM      5  H3  UNL     1      -1.137   1.751   1.722  1.00  0.00     0.187 HD
BRANCH   3   6
HETATM    6  C4  UNL     1      -0.805  -0.663   1.234  1.00  0.00     0.161 C 
BRANCH   6   7
HETATM    7  S1  UNL     1      -1.816  -1.581   0.011  1.00  0.00    -0.083 SA
BRANCH   7   8
HETATM    8  C3  UNL     1      -3.201  -0.499  -0.408  1.00  0.00     0.182 A 
HETATM    9  N2  UNL     1      -3.292   0.418  -1.361  1.00  0.00    -0.277 N 
HETATM   10  N1  UNL     1      -4.512   0.973  -1.297  1.00  0.00    -0.286 N 
ATOM     11  H2  UNL     1      -2.560   0.660  -2.029  1.00  0.00     0.189 HD
HETATM   12  C2  UNL     1      -5.197   0.411  -0.306  1.00  0.00     0.116 A 
ATOM     13  H1  UNL     1      -4.859   1.710  -1.911  1.00  0.00     0.188 HD
HETATM   14  C1  UNL     1      -6.579   0.644   0.198  1.00  0.00     0.092 C 
HETATM   15  N13 UNL     1      -4.380  -0.522   0.264  1.00  0.00    -0.226 N 
BRANCH  15  16
HETATM   16  N14 UNL     1      -4.683  -1.352   1.339  1.00  0.00    -0.335 N 
ATOM     17 2H14 UNL     1      -5.569  -1.369   1.844  1.00  0.00     0.177 HD
ATOM     18 1H14 UNL     1      -4.072  -2.049   1.765  1.00  0.00     0.177 HD
ENDBRANCH  15  16
ENDBRANCH   7   8
ENDBRANCH   6   7
ENDBRANCH   3   6
BRANCH   4  19
HETATM   19  N4  UNL     1      -0.083   2.864   0.352  1.00  0.00    -0.344 N 
ATOM     20  H42 UNL     1       0.529   2.772  -0.459  1.00  0.00     0.176 HD
ATOM     21  H41 UNL     1      -0.312   3.804   0.675  1.00  0.00     0.176 HD
ENDBRANCH   4  19
ENDBRANCH   1   3
BRANCH   1  22
HETATM   22  N6  UNL     1       1.645  -0.650  -0.470  1.00  0.00    -0.128 N 
ATOM     23  H6  UNL     1       1.408  -1.642  -0.500  1.00  0.00     0.205 HD
BRANCH  22  24
HETATM   24  C6  UNL     1       2.873  -0.367  -0.320  1.00  0.00     0.747 A 
HETATM   25  N7  UNL     1       3.338   0.894  -0.263  1.00  0.00    -0.018 N 
HETATM   26  C7  UNL     1       4.645   1.116  -0.104  1.00  0.00     0.705 A 
ATOM     27  H7  UNL     1       2.693   1.680  -0.341  1.00  0.00     0.203 HD
HETATM   28  N9  UNL     1       5.508   0.082  -0.000  1.00  0.00    -0.020 N 
HETATM   29  C8  UNL     1       5.051  -1.198  -0.057  1.00  0.00     0.734 A 
ATOM     30  H9  UNL     1       6.505   0.261   0.122  1.00  0.00     0.203 HD
HETATM   31  N10 UNL     1       5.643  -2.404   0.015  1.00  0.00    -0.184 N 
HETATM   32  N12 UNL     1       3.729  -1.423  -0.218  1.00  0.00     0.093 N 
HETATM   33  C9  UNL     1       4.705  -3.381  -0.100  1.00  0.00     0.216 A 
ATOM     34  H10 UNL     1       6.643  -2.561   0.137  1.00  0.00     0.185 HD
HETATM   35  N11 UNL     1       3.537  -2.730  -0.242  1.00  0.00    -0.260 N 
ATOM     36  H11 UNL     1       2.629  -3.182  -0.353  1.00  0.00     0.189 HD
BRANCH  26  37
HETATM   37  N8  UNL     1       5.065   2.350  -0.051  1.00  0.00    -0.234 N 
ATOM     38  H82 UNL     1       4.413   3.131  -0.130  1.00  0.00     0.174 HD
ATOM     39  H81 UNL     1       6.063   2.520   0.070  1.00  0.00     0.174 HD
ENDBRANCH  26  37
ENDBRANCH  22  24
ENDBRANCH   1  22
TORSDOF 9
