REMARK  7 active torsions:
REMARK  status: ('A' for Active; 'I' for Inactive)
REMARK    1  A    between atoms: C3_3  and  C4_4 
REMARK    2  A    between atoms: C4_4  and  N2_6 
REMARK    3  A    between atoms: N2_6  and  N3_8 
REMARK    4  A    between atoms: N3_8  and  N4_9 
REMARK    5  A    between atoms: N4_9  and  C5_11 
REMARK    6  A    between atoms: C11_20  and  N6_21 
REMARK    7  A    between atoms: C13_25  and  O3_27 
ROOT
HETATM    1  N2  UNL     1       0.212   0.283   0.224  1.00  0.00    -0.271 N 
ATOM      2  H2  UNL     1      -0.018   0.485   1.197  1.00  0.00     0.185 HD
ENDROOT
BRANCH   1   3
HETATM    3  C4  UNL     1       1.348  -0.548  -0.080  1.00  0.00     0.144 C 
HETATM    4  N1  UNL     1       0.949  -1.850  -0.466  1.00  0.00    -0.081 NA
BRANCH   3   5
HETATM    5  C3  UNL     1       2.600  -0.169  -0.022  1.00  0.00     0.066 A 
HETATM    6  C2  UNL     1       3.004   1.130   0.359  1.00  0.00     0.057 A 
HETATM    7  C1  UNL     1       2.303   2.151   0.755  1.00  0.00     0.046 C 
HETATM    8  N9  UNL     1       4.368   1.199   0.266  1.00  0.00    -0.296 N 
HETATM    9  N8  UNL     1       4.798   0.053  -0.134  1.00  0.00    -0.294 N 
HETATM   10  C14 UNL     1       5.189   2.394   0.576  1.00  0.00     0.178 C 
HETATM   11  C12 UNL     1       3.743  -0.839  -0.327  1.00  0.00     0.112 A 
ATOM     12  H8  UNL     1       5.781  -0.173  -0.289  1.00  0.00     0.187 HD
HETATM   13  C13 UNL     1       4.014  -2.205  -0.681  1.00  0.00     0.179 C 
HETATM   14  N7  UNL     1       3.349  -3.394  -0.390  1.00  0.00    -0.073 NA
BRANCH  13  15
HETATM   15  O3  UNL     1       5.084  -2.385  -1.403  1.00  0.00    -0.347 OA
ATOM     16  H3  UNL     1       5.263  -3.288  -1.637  1.00  0.00     0.219 HD
ENDBRANCH  13  15
ENDBRANCH   3   5
ENDBRANCH   1   3
BRANCH   1  17
HETATM   17  N3  UNL     1      -0.581   0.818  -0.799  1.00  0.00    -0.021 NA
BRANCH  17  18
HETATM   18  N4  UNL     1      -1.392  -0.114  -1.410  1.00  0.00    -0.282 N 
ATOM     19  H4  UNL     1      -1.155  -0.435  -2.349  1.00  0.00     0.184 HD
BRANCH  18  20
HETATM   20  C5  UNL     1      -2.545  -0.640  -0.774  1.00  0.00     0.080 A 
HETATM   21  C6  UNL     1      -2.839  -1.929  -0.753  1.00  0.00     0.088 A 
HETATM   22  C7  UNL     1      -4.080  -2.151  -0.026  1.00  0.00     0.191 A 
HETATM   23  O1  UNL     1      -4.626  -3.263   0.170  1.00  0.00    -0.287 OA
HETATM   24  C8  UNL     1      -4.530  -0.847   0.408  1.00  0.00     0.098 A 
HETATM   25  C9  UNL     1      -3.590   0.084  -0.049  1.00  0.00     0.103 A 
HETATM   26  C11 UNL     1      -5.494  -0.147   1.080  1.00  0.00     0.180 A 
HETATM   27  N5  UNL     1      -4.036   1.269   0.367  1.00  0.00    -0.252 N 
HETATM   28  C10 UNL     1      -3.358   2.526   0.109  1.00  0.00     0.186 C 
HETATM   29  O2  UNL     1      -5.146   1.118   1.024  1.00  0.00    -0.217 OA
BRANCH  26  30
HETATM   30  N6  UNL     1      -6.541  -0.677   1.652  1.00  0.00    -0.377 N 
ATOM     31  H62 UNL     1      -6.811  -1.660   1.695  1.00  0.00     0.158 HD
ATOM     32  H61 UNL     1      -7.260  -0.155   2.153  1.00  0.00     0.158 HD
ENDBRANCH  26  30
ENDBRANCH  18  20
ENDBRANCH  17  18
ENDBRANCH   1  17
TORSDOF 7
