REMARK  7 active torsions:
REMARK  status: ('A' for Active; 'I' for Inactive)
REMARK    1  A    between atoms: S1_2  and  C2_3 
REMARK    2  A    between atoms: C3_6  and  C4_7 
REMARK    3  A    between atoms: C4_7  and  O1_8 
REMARK    4  A    between atoms: C4_7  and  C5_10 
REMARK    5  A    between atoms: C6_13  and  C7_14 
REMARK    6  A    between atoms: C7_14  and  N4_18 
REMARK    7  A    between atoms: N4_18  and  C8_20 
ROOT
HETATM    1  C5  UNL     1       0.093  -0.936   1.182  1.00  0.00     0.120 A 
HETATM    2  N2  UNL     1       0.497   0.330   0.974  1.00  0.00    -0.338 N 
ATOM      3  H2  UNL     1       0.061   1.167   1.361  1.00  0.00     0.167 HD
HETATM    4  C6  UNL     1       1.586   0.304   0.159  1.00  0.00     0.119 A 
HETATM    5  C9  UNL     1       1.858  -1.030  -0.142  1.00  0.00     0.148 A 
HETATM    6  N9  UNL     1       2.918  -1.492  -0.967  1.00  0.00    -0.080 NA
HETATM    7  N10 UNL     1       0.921  -1.730   0.505  1.00  0.00    -0.330 N 
ATOM      8  H10 UNL     1       0.849  -2.747   0.483  1.00  0.00     0.168 HD
ENDROOT
BRANCH   4   9
HETATM    9  C7  UNL     1       2.325   1.463  -0.307  1.00  0.00     0.145 C 
HETATM   10  N3  UNL     1       1.956   2.635   0.056  1.00  0.00    -0.383 N 
ATOM     11  H32 UNL     1       1.145   2.727   0.668  1.00  0.00     0.157 HD
ATOM     12  H31 UNL     1       2.475   3.450  -0.271  1.00  0.00     0.157 HD
BRANCH   9  13
HETATM   13  N4  UNL     1       3.449   1.335  -1.155  1.00  0.00    -0.172 N 
ATOM     14  H4  UNL     1       3.307   1.319  -2.165  1.00  0.00     0.186 HD
BRANCH  13  15
HETATM   15  C8  UNL     1       4.650   1.238  -0.691  1.00  0.00     0.715 A 
HETATM   16  N5  UNL     1       5.000   1.242   0.605  1.00  0.00    -0.115 N 
HETATM   17  N6  UNL     1       6.313   1.122   0.649  1.00  0.00    -0.213 N 
ATOM     18  H5  UNL     1       4.371   1.322   1.404  1.00  0.00     0.207 HD
HETATM   19  N7  UNL     1       6.803   1.042  -0.572  1.00  0.00    -0.213 N 
ATOM     20  H6  UNL     1       6.869   1.095   1.504  1.00  0.00     0.210 HD
HETATM   21  N8  UNL     1       5.780   1.113  -1.398  1.00  0.00    -0.115 N 
ATOM     22  H7  UNL     1       7.786   0.944  -0.828  1.00  0.00     0.210 HD
ATOM     23  H8  UNL     1       5.839   1.078  -2.416  1.00  0.00     0.207 HD
ENDBRANCH  13  15
ENDBRANCH   9  13
ENDBRANCH   4   9
BRANCH   1  24
HETATM   24  C4  UNL     1      -1.069  -1.373   2.016  1.00  0.00     0.254 C 
BRANCH  24  25
HETATM   25  C3  UNL     1      -2.361  -1.152   1.292  1.00  0.00     0.135 A 
HETATM   26  N1  UNL     1      -2.880   0.066   0.836  1.00  0.00    -0.322 N 
HETATM   27  C2  UNL     1      -4.020  -0.093   0.250  1.00  0.00     0.162 A 
ATOM     28  H1  UNL     1      -2.416   0.967   0.952  1.00  0.00     0.169 HD
HETATM   29  N12 UNL     1      -4.285  -1.487   0.311  1.00  0.00    -0.274 N 
HETATM   30  N11 UNL     1      -3.199  -2.081   0.979  1.00  0.00    -0.283 N 
HETATM   31  C10 UNL     1      -5.464  -2.146  -0.223  1.00  0.00     0.180 C 
ATOM     32  H11 UNL     1      -3.093  -3.075   1.181  1.00  0.00     0.188 HD
BRANCH  27  33
HETATM   33  S1  UNL     1      -5.088   1.126  -0.500  1.00  0.00    -0.097 SA
HETATM   34  C1  UNL     1      -4.346   2.775  -0.344  1.00  0.00     0.099 C 
ENDBRANCH  27  33
ENDBRANCH  24  25
BRANCH  24  35
HETATM   35  O1  UNL     1      -1.040  -0.659   3.225  1.00  0.00    -0.380 OA
ATOM     36  H1  UNL     1      -0.220  -0.799   3.684  1.00  0.00     0.211 HD
ENDBRANCH  24  35
ENDBRANCH   1  24
TORSDOF 7
