REMARK  3 active torsions:
REMARK  status: ('A' for Active; 'I' for Inactive)
REMARK    1  A    between atoms: C4_4  and  C5_5 
REMARK    2  A    between atoms: C12_12  and  N1_13 
REMARK    3  A    between atoms: N1_13  and  C13_15 
ROOT
HETATM    1  C13 UNL     1       2.975  -0.316  -0.068  1.00  0.00     0.143 A 
HETATM    2  N2  UNL     1       2.805   1.008   0.088  1.00  0.00    -0.284 N 
ATOM      3  H2  UNL     1       1.909   1.492   0.142  1.00  0.00     0.188 HD
HETATM    4  N3  UNL     1       4.014   1.586   0.161  1.00  0.00    -0.302 N 
ATOM      5  H3  UNL     1       4.175   2.586   0.281  1.00  0.00     0.186 HD
HETATM    6  C14 UNL     1       4.974   0.668   0.055  1.00  0.00     0.046 A 
HETATM    7  C15 UNL     1       6.449   0.878   0.085  1.00  0.00     0.071 C 
HETATM    8  C16 UNL     1       4.313  -0.558  -0.092  1.00  0.00     0.113 A 
HETATM    9  C17 UNL     1       5.000  -1.797  -0.237  1.00  0.00     0.105 C 
HETATM   10  N4  UNL     1       5.566  -2.792  -0.370  1.00  0.00    -0.191 NA
ENDROOT
BRANCH   1  11
HETATM   11  N1  UNL     1       2.051  -1.179  -0.174  1.00  0.00    -0.340 N 
ATOM     12  H1  UNL     1       2.312  -2.158  -0.290  1.00  0.00     0.167 HD
BRANCH  11  13
HETATM   13  C12 UNL     1       0.655  -0.843  -0.139  1.00  0.00     0.040 A 
HETATM   14  C2  UNL     1       0.026  -0.402  -1.281  1.00  0.00    -0.035 A 
HETATM   15  C1  UNL     1       0.805  -0.278  -2.542  1.00  0.00     0.050 C 
HETATM   16  C3  UNL     1      -1.322  -0.082  -1.228  1.00  0.00     0.017 A 
HETATM   17  C4  UNL     1      -2.097  -0.176  -0.090  1.00  0.00    -0.044 A 
HETATM   18  C9  UNL     1      -1.446  -0.622   1.051  1.00  0.00    -0.053 A 
HETATM   19  C10 UNL     1      -2.172  -0.755   2.311  1.00  0.00     0.049 C 
HETATM   20  C11 UNL     1      -0.083  -0.946   1.000  1.00  0.00     0.037 A 
BRANCH  17  21
HETATM   21  C5  UNL     1      -3.534   0.172  -0.076  1.00  0.00    -0.024 C 
HETATM   22  C6  UNL     1      -3.887   0.622  -1.504  1.00  0.00     0.019 C 
HETATM   23  C7  UNL     1      -3.890   1.317   0.802  1.00  0.00     0.019 C 
HETATM   24  C8  UNL     1      -4.418  -1.046   0.158  1.00  0.00     0.019 C 
ENDBRANCH  17  21
ENDBRANCH  11  13
ENDBRANCH   1  11
TORSDOF 3
