REMARK  7 active torsions:
REMARK  status: ('A' for Active; 'I' for Inactive)
REMARK    1  A    between atoms: O1_2  and  C2_3 
REMARK    2  A    between atoms: C2_3  and  O2_4 
REMARK    3  A    between atoms: C2_3  and  C3_6 
REMARK    4  A    between atoms: C3_6  and  C4_7 
REMARK    5  A    between atoms: C4_7  and  C5_8 
REMARK       I    between atoms: C5_8  and  N1_10 
REMARK    6  A    between atoms: N1_10  and  C7_12 
REMARK    7  A    between atoms: C8_13  and  C9_14 
ROOT
HETATM    1  C7  UNL     1       1.548   0.402  -0.021  1.00  0.00     0.011 C 
HETATM    2  C8  UNL     1       1.062   0.075   1.387  1.00  0.00     0.094 C 
HETATM    3  C10 UNL     1      -0.280  -0.596   1.354  1.00  0.00     0.027 C 
HETATM    4  C11 UNL     1      -1.178   0.125   0.331  1.00  0.00    -0.033 C 
HETATM    5  C12 UNL     1      -1.801   1.354   0.933  1.00  0.00     0.011 C 
HETATM    6  C13 UNL     1      -3.169   1.267   1.443  1.00  0.00     0.020 C 
HETATM    7  C14 UNL     1      -4.408   1.008   0.767  1.00  0.00     0.043 C 
HETATM    8  C15 UNL     1      -4.955   2.323   0.167  1.00  0.00     0.026 C 
HETATM    9  C16 UNL     1      -5.441   0.666   1.788  1.00  0.00     0.230 C 
HETATM   10  O5  UNL     1      -5.216   0.965   2.976  1.00  0.00    -0.272 OA
HETATM   11  N2  UNL     1      -6.647   0.022   1.441  1.00  0.00    -0.340 N 
ATOM     12  H2  UNL     1      -7.548   0.357   1.781  1.00  0.00     0.167 HD
HETATM   13  C17 UNL     1      -6.556  -1.022   0.665  1.00  0.00     0.064 C 
HETATM   14  C18 UNL     1      -5.165  -1.364   0.272  1.00  0.00     0.052 C 
HETATM   15  C19 UNL     1      -4.530  -0.119  -0.271  1.00  0.00     0.031 C 
HETATM   16  C20 UNL     1      -3.212  -0.259  -0.830  1.00  0.00     0.043 C 
HETATM   17 CL1  UNL     1      -3.008   1.377  -1.496  1.00  0.00    -0.119 Cl
HETATM   18  C21 UNL     1      -2.726  -0.995  -1.990  1.00  0.00     0.026 C 
HETATM   19  C22 UNL     1      -1.300  -0.423  -2.181  1.00  0.00     0.008 C 
HETATM   20  C23 UNL     1      -0.621   0.178  -1.031  1.00  0.00     0.008 C 
HETATM   21  C24 UNL     1       0.870  -0.344  -1.075  1.00  0.00    -0.004 C 
HETATM   22  C25 UNL     1       0.891  -1.804  -1.155  1.00  0.00     0.021 C 
HETATM   23  C26 UNL     1       1.364   0.177  -2.436  1.00  0.00     0.021 C 
HETATM   24  C27 UNL     1      -2.370  -0.796   0.249  1.00  0.00     0.036 C 
ENDROOT
BRANCH   1  25
HETATM   25  N1  UNL     1       2.886   0.765   0.017  1.00  0.00    -0.325 N 
HETATM   26  C5  UNL     1       4.140   0.181   0.090  1.00  0.00     0.247 C 
HETATM   27  O3  UNL     1       5.145   0.976   0.168  1.00  0.00    -0.268 OA
HETATM   28  C6  UNL     1       3.060   2.285   0.001  1.00  0.00     0.159 C 
BRANCH  26  29
HETATM   29  C4  UNL     1       4.478  -1.201   0.091  1.00  0.00     0.079 C 
BRANCH  29  30
HETATM   30  C3  UNL     1       5.612  -1.828   0.162  1.00  0.00     0.069 C 
BRANCH  30  31
HETATM   31  C2  UNL     1       6.975  -1.414   0.268  1.00  0.00     0.177 C 
BRANCH  31  32
HETATM   32  O1  UNL     1       7.501  -0.143   0.329  1.00  0.00    -0.336 OA
HETATM   33  C1  UNL     1       8.854   0.176   0.433  1.00  0.00     0.212 C 
ENDBRANCH  31  32
BRANCH  31  34
HETATM   34  O2  UNL     1       7.917  -2.324   0.320  1.00  0.00    -0.341 OA
ATOM     35  H2  UNL     1       7.554  -3.201   0.278  1.00  0.00     0.220 HD
ENDBRANCH  31  34
ENDBRANCH  30  31
ENDBRANCH  29  30
ENDBRANCH  26  29
ENDBRANCH   1  25
BRANCH   2  36
HETATM   36  C9  UNL     1       1.973  -0.681   2.228  1.00  0.00     0.241 C 
HETATM   37  O4  UNL     1       1.705  -1.838   2.518  1.00  0.00    -0.306 OA
ENDBRANCH   2  36
TORSDOF 7
