REMARK  6 active torsions:
REMARK  status: ('A' for Active; 'I' for Inactive)
REMARK    1  A    between atoms: N1_8  and  O1_9 
REMARK    2  A    between atoms: C8_11  and  C9_12 
REMARK    3  A    between atoms: C9_12  and  C10_13 
REMARK    4  A    between atoms: C13_16  and  N2_17 
REMARK    5  A    between atoms: C16_22  and  C17_23 
REMARK    6  A    between atoms: N3_30  and  O4_31 
ROOT
HETATM    1  C1  UNL     1       6.507  -2.594   0.352  1.00  0.00     0.036 C 
HETATM    2  C2  UNL     1       5.160  -2.713  -0.265  1.00  0.00    -0.020 C 
HETATM    3  C3  UNL     1       4.277  -1.732  -0.236  1.00  0.00    -0.009 C 
HETATM    4  C4  UNL     1       4.679  -0.483   0.446  1.00  0.00     0.048 C 
HETATM    5  C5  UNL     1       3.616   0.491   0.709  1.00  0.00     0.067 C 
HETATM    6  C6  UNL     1       2.324   0.239   0.049  1.00  0.00     0.074 A 
HETATM    7  C7  UNL     1       1.984  -0.850  -0.682  1.00  0.00     0.138 A 
HETATM    8  N1  UNL     1       0.771  -0.969  -1.238  1.00  0.00    -0.220 N 
HETATM    9  C8  UNL     1      -0.188  -0.001  -1.099  1.00  0.00     0.075 A 
HETATM   10  C16 UNL     1       0.140   1.105  -0.363  1.00  0.00     0.098 A 
HETATM   11  N3  UNL     1       1.393   1.195   0.193  1.00  0.00    -0.224 N 
HETATM   12  C23 UNL     1       2.992  -1.911  -0.853  1.00  0.00     0.209 C 
HETATM   13  O5  UNL     1       2.681  -2.926  -1.532  1.00  0.00    -0.285 OA
ENDROOT
BRANCH   9  14
HETATM   14  C9  UNL     1      -1.455  -0.234  -1.776  1.00  0.00     0.100 C 
BRANCH  14  15
HETATM   15  C10 UNL     1      -2.602  -0.657  -0.956  1.00  0.00    -0.052 A 
HETATM   16  C11 UNL     1      -2.609  -1.829  -0.233  1.00  0.00     0.010 A 
HETATM   17  C12 UNL     1      -3.736  -2.228   0.494  1.00  0.00     0.036 A 
HETATM   18  C13 UNL     1      -4.890  -1.478   0.527  1.00  0.00     0.102 A 
HETATM   19  C14 UNL     1      -4.875  -0.306  -0.200  1.00  0.00     0.036 A 
HETATM   20  C15 UNL     1      -3.777   0.101  -0.920  1.00  0.00     0.010 A 
BRANCH  18  21
HETATM   21  N2  UNL     1      -6.038  -1.865   1.255  1.00  0.00    -0.116 N 
HETATM   22  O2  UNL     1      -6.040  -2.917   1.904  1.00  0.00    -0.532 OA
HETATM   23  O3  UNL     1      -7.145  -1.070   1.237  1.00  0.00    -0.532 OA
ENDBRANCH  18  21
ENDBRANCH  14  15
ENDBRANCH   9  14
BRANCH   8  24
HETATM   24  O1  UNL     1       0.522  -2.124  -1.981  1.00  0.00    -0.282 OA
ATOM     25  H1  UNL     1      -0.338  -2.208  -2.375  1.00  0.00     0.245 HD
ENDBRANCH   8  24
BRANCH  10  26
HETATM   26  C17 UNL     1      -0.792   2.190  -0.121  1.00  0.00    -0.005 A 
HETATM   27  C18 UNL     1      -1.464   2.255   1.071  1.00  0.00     0.015 A 
HETATM   28  C19 UNL     1      -2.357   3.307   1.284  1.00  0.00     0.020 A 
HETATM   29  C20 UNL     1      -2.558   4.259   0.319  1.00  0.00     0.011 A 
HETATM   30 BR1  UNL     1      -3.804   5.683   0.680  1.00  0.00    -0.051 Br
HETATM   31  C21 UNL     1      -1.886   4.201  -0.882  1.00  0.00     0.020 A 
HETATM   32  C22 UNL     1      -0.997   3.144  -1.080  1.00  0.00     0.015 A 
ENDBRANCH  10  26
BRANCH  11  33
HETATM   33  O4  UNL     1       1.641   2.344   0.919  1.00  0.00    -0.282 OA
ATOM     34  H4  UNL     1       0.982   3.021   1.021  1.00  0.00     0.245 HD
ENDBRANCH  11  33
TORSDOF 6
