REMARK  10 active torsions:
REMARK  status: ('A' for Active; 'I' for Inactive)
REMARK    1  A    between atoms: C2_2  and  O1_5 
REMARK    2  A    between atoms: O1_5  and  C5_6 
REMARK       I    between atoms: C5_6  and  N1_8 
REMARK    3  A    between atoms: C8_11  and  C9_12 
REMARK    4  A    between atoms: C9_12  and  O3_13 
REMARK    5  A    between atoms: C9_12  and  C16_22 
REMARK    6  A    between atoms: O3_13  and  C10_14 
REMARK    7  A    between atoms: C10_14  and  C11_16 
REMARK    8  A    between atoms: C11_16  and  C12_18 
REMARK    9  A    between atoms: C16_22  and  O5_23 
REMARK   10  A    between atoms: C16_22  and  N2_25 
ROOT
HETATM    1  C9  UNL     1      -1.477   0.269  -1.150  1.00  0.00     0.210 C 
ENDROOT
BRANCH   1   2
HETATM    2  C8  UNL     1      -0.398   0.272  -0.167  1.00  0.00     0.026 C 
HETATM    3  C7  UNL     1       0.293  -1.110  -0.113  1.00  0.00     0.027 C 
HETATM    4  C6  UNL     1       1.581  -1.033   0.720  1.00  0.00     0.128 C 
HETATM    5  N1  UNL     1       2.519  -0.249  -0.090  1.00  0.00    -0.328 N 
HETATM    6  C5  UNL     1       3.852  -0.150   0.302  1.00  0.00     0.363 C 
HETATM    7  C23 UNL     1       1.934   0.355  -1.243  1.00  0.00     0.128 C 
HETATM    8  O2  UNL     1       4.698   0.510  -0.356  1.00  0.00    -0.238 OA
HETATM    9  C22 UNL     1       0.733   1.143  -0.789  1.00  0.00     0.027 C 
BRANCH   6  10
HETATM   10  O1  UNL     1       4.341  -0.773   1.452  1.00  0.00    -0.294 OA
BRANCH  10  11
HETATM   11  C2  UNL     1       5.687  -0.681   1.861  1.00  0.00     0.061 C 
HETATM   12  C1  UNL     1       5.820  -1.485   3.139  1.00  0.00     0.046 C 
HETATM   13  C3  UNL     1       6.635  -1.232   0.833  1.00  0.00     0.046 C 
HETATM   14  C4  UNL     1       6.090   0.745   2.195  1.00  0.00     0.046 C 
ENDBRANCH  10  11
ENDBRANCH   6  10
ENDBRANCH   1   2
BRANCH   1  15
HETATM   15  O3  UNL     1      -2.415  -0.832  -0.970  1.00  0.00    -0.306 OA
BRANCH  15  16
HETATM   16  C10 UNL     1      -2.619  -1.812  -1.902  1.00  0.00     0.275 C 
HETATM   17  O4  UNL     1      -1.925  -1.697  -2.947  1.00  0.00    -0.264 OA
BRANCH  16  18
HETATM   18  C11 UNL     1      -3.581  -2.907  -1.681  1.00  0.00     0.164 C 
HETATM   19 BR1  UNL     1      -5.345  -2.080  -1.515  1.00  0.00    -0.080 Br
BRANCH  18  20
HETATM   20  C12 UNL     1      -3.375  -3.697  -0.425  1.00  0.00    -0.029 C 
HETATM   21  C13 UNL     1      -3.478  -2.844   0.819  1.00  0.00     0.016 C 
HETATM   22  C14 UNL     1      -2.075  -4.427  -0.379  1.00  0.00     0.016 C 
HETATM   23  C15 UNL     1      -4.502  -4.706  -0.351  1.00  0.00     0.016 C 
ENDBRANCH  18  20
ENDBRANCH  16  18
ENDBRANCH  15  16
ENDBRANCH   1  15
BRANCH   1  24
HETATM   24  C16 UNL     1      -2.308   1.483  -1.234  1.00  0.00     0.144 C 
BRANCH  24  25
HETATM   25  O5  UNL     1      -3.516   1.218  -1.818  1.00  0.00    -0.347 OA
ATOM     26  H5  UNL     1      -4.052   2.001  -1.872  1.00  0.00     0.219 HD
ENDBRANCH  24  25
BRANCH  24  27
HETATM   27  N2  UNL     1      -2.245   2.808  -0.899  1.00  0.00    -0.363 N 
HETATM   28  C17 UNL     1      -3.406   3.650  -1.375  1.00  0.00     0.124 C 
HETATM   29  C18 UNL     1      -2.894   4.962  -1.884  1.00  0.00     0.020 C 
HETATM   30  C19 UNL     1      -2.204   5.774  -0.825  1.00  0.00     0.003 C 
HETATM   31  C20 UNL     1      -2.035   4.893   0.379  1.00  0.00     0.020 C 
HETATM   32  C21 UNL     1      -1.338   3.600  -0.113  1.00  0.00     0.124 C 
ENDBRANCH  24  27
ENDBRANCH   1  24
TORSDOF 10
