REMARK  7 active torsions:
REMARK  status: ('A' for Active; 'I' for Inactive)
REMARK    1  A    between atoms: C7_7  and  C8_8 
REMARK    2  A    between atoms: C8_8  and  O2_10 
REMARK    3  A    between atoms: O2_10  and  C9_11 
REMARK    4  A    between atoms: C9_11  and  C10_12 
REMARK       I    between atoms: C10_12  and  N1_14 
REMARK    5  A    between atoms: N1_14  and  C12_16 
REMARK    6  A    between atoms: C14_18  and  C15_19 
REMARK    7  A    between atoms: C16_20  and  C17_21 
ROOT
HETATM    1  C10 UNL     1      -0.018  -1.710  -0.358  1.00  0.00     0.244 C 
HETATM    2  O3  UNL     1      -0.375  -1.106  -1.398  1.00  0.00    -0.271 OA
HETATM    3  N1  UNL     1       1.303  -2.166  -0.271  1.00  0.00    -0.346 N 
HETATM    4  C11 UNL     1       1.774  -2.871   0.904  1.00  0.00     0.153 C 
ENDROOT
BRANCH   3   5
HETATM    5  C12 UNL     1       2.287  -1.963  -1.347  1.00  0.00     0.112 C 
HETATM    6  C13 UNL     1       3.292  -1.049  -0.832  1.00  0.00     0.031 C 
HETATM    7  C14 UNL     1       4.594  -1.185  -0.813  1.00  0.00     0.111 C 
HETATM    8  S1  UNL     1       5.257  -2.651  -1.483  1.00  0.00     0.183 S 
HETATM    9  O4  UNL     1       5.666  -2.516  -2.901  1.00  0.00    -0.222 OA
HETATM   10  O5  UNL     1       6.408  -3.158  -0.630  1.00  0.00    -0.222 OA
HETATM   11  C23 UNL     1       3.954  -3.876  -1.292  1.00  0.00     0.148 C 
HETATM   12  C24 UNL     1       2.709  -3.284  -1.831  1.00  0.00     0.045 C 
BRANCH   7  13
HETATM   13  C15 UNL     1       5.444  -0.181  -0.264  1.00  0.00    -0.050 C 
HETATM   14  C16 UNL     1       6.149   0.683   0.201  1.00  0.00    -0.061 C 
BRANCH  14  15
HETATM   15  C17 UNL     1       6.979   1.702   0.777  1.00  0.00     0.018 A 
HETATM   16  C18 UNL     1       6.559   3.012   0.788  1.00  0.00     0.024 A 
HETATM   17  C19 UNL     1       7.309   4.036   1.325  1.00  0.00     0.044 A 
HETATM   18  C20 UNL     1       8.542   3.738   1.880  1.00  0.00     0.116 A 
HETATM   19  F1  UNL     1       9.282   4.752   2.411  1.00  0.00    -0.206 F 
HETATM   20  C21 UNL     1       8.993   2.447   1.888  1.00  0.00     0.044 A 
HETATM   21  C22 UNL     1       8.217   1.460   1.344  1.00  0.00     0.024 A 
ENDBRANCH  14  15
ENDBRANCH   7  13
ENDBRANCH   3   5
BRANCH   1  22
HETATM   22  C9  UNL     1      -0.966  -1.926   0.728  1.00  0.00     0.281 C 
BRANCH  22  23
HETATM   23  O2  UNL     1      -2.243  -1.414   0.554  1.00  0.00    -0.308 OA
BRANCH  23  24
HETATM   24  C8  UNL     1      -2.607  -0.093   0.387  1.00  0.00     0.294 C 
HETATM   25  O1  UNL     1      -1.622   0.720   0.404  1.00  0.00    -0.259 OA
BRANCH  24  26
HETATM   26  C7  UNL     1      -3.965   0.397   0.204  1.00  0.00     0.052 A 
HETATM   27  C5  UNL     1      -5.083  -0.444   0.171  1.00  0.00    -0.039 A 
HETATM   28  C3  UNL     1      -6.363   0.022   0.011  1.00  0.00    -0.049 A 
HETATM   29  C6  UNL     1      -4.850  -1.901   0.304  1.00  0.00     0.050 C 
HETATM   30  C2  UNL     1      -6.549   1.391  -0.125  1.00  0.00    -0.049 A 
HETATM   31  C4  UNL     1      -7.563  -0.808  -0.020  1.00  0.00     0.049 C 
HETATM   32  C1  UNL     1      -7.921   1.929  -0.305  1.00  0.00     0.049 C 
HETATM   33  C27 UNL     1      -5.483   2.256  -0.099  1.00  0.00    -0.049 A 
HETATM   34  C25 UNL     1      -4.205   1.748   0.066  1.00  0.00    -0.039 A 
HETATM   35  C28 UNL     1      -5.728   3.699  -0.245  1.00  0.00     0.049 C 
HETATM   36  C26 UNL     1      -3.122   2.759   0.082  1.00  0.00     0.050 C 
ENDBRANCH  24  26
ENDBRANCH  23  24
ENDBRANCH  22  23
ENDBRANCH   1  22
TORSDOF 7
