REMARK  2 active torsions:
REMARK  status: ('A' for Active; 'I' for Inactive)
REMARK    1  A    between atoms: N2_4  and  N3_6 
REMARK    2  A    between atoms: N3_6  and  C1_8 
ROOT
HETATM    1  N3  UNL     1       1.124  -0.703   0.285  1.00  0.00    -0.270 N 
ATOM      2  H3  UNL     1       1.330  -1.574   0.774  1.00  0.00     0.190 HD
ENDROOT
BRANCH   1   3
HETATM    3  N2  UNL     1       2.167   0.144  -0.077  1.00  0.00    -0.248 N 
HETATM    4  N1  UNL     1       1.946   1.320  -0.477  1.00  0.00    -0.331 N 
ATOM      5  H12 UNL     1       0.979   1.640  -0.530  1.00  0.00     0.178 HD
ATOM      6  H11 UNL     1       2.711   1.941  -0.742  1.00  0.00     0.178 HD
ATOM      7  H2  UNL     1       3.128  -0.192  -0.018  1.00  0.00     0.207 HD
ENDBRANCH   1   3
BRANCH   1   8
HETATM    8  C1  UNL     1      -0.218  -0.372  -0.016  1.00  0.00     0.136 A 
HETATM    9  N4  UNL     1      -1.221  -0.623  -0.834  1.00  0.00    -0.346 N 
HETATM   10  C2  UNL     1      -1.485   0.323   0.155  1.00  0.00     0.139 A 
ATOM     11  H4  UNL     1      -1.566  -1.148  -1.637  1.00  0.00     0.167 HD
ENDBRANCH   1   8
TORSDOF 2
