REMARK  1 active torsions:
REMARK  status: ('A' for Active; 'I' for Inactive)
REMARK    1  A    between atoms: O1_1  and  N1_3 
ROOT
HETATM    1  N1  UNL     1       1.087  -0.551   0.049  1.00  0.00    -0.158 N 
HETATM    2  C1  UNL     1       0.623   0.708  -0.000  1.00  0.00     0.235 A 
HETATM    3  N2  UNL     1      -0.736   0.656  -0.041  1.00  0.00    -0.344 N 
ATOM      4  H2  UNL     1      -1.366   1.457  -0.083  1.00  0.00     0.167 HD
HETATM    5  C2  UNL     1      -1.098  -0.629  -0.017  1.00  0.00     0.200 A 
HETATM    6  N3  UNL     1       0.020  -1.352   0.039  1.00  0.00    -0.269 N 
ATOM      7  H3  UNL     1       0.055  -2.371   0.070  1.00  0.00     0.190 HD
ENDROOT
BRANCH   1   8
HETATM    8  O1  UNL     1       2.411  -0.907   0.101  1.00  0.00    -0.267 OA
ATOM      9  H1  UNL     1       2.739  -1.798   0.136  1.00  0.00     0.247 HD
ENDBRANCH   1   8
TORSDOF 1
