REMARK  19 active torsions:
REMARK  status: ('A' for Active; 'I' for Inactive)
REMARK    1  A    between atoms: C4_5  and  C5_6 
REMARK    2  A    between atoms: C5_6  and  C6_7 
REMARK    3  A    between atoms: C6_7  and  C7_8 
REMARK    4  A    between atoms: C7_8  and  C8_9 
REMARK    5  A    between atoms: C8_9  and  O2_10 
REMARK    6  A    between atoms: O2_10  and  C9_11 
REMARK    7  A    between atoms: C10_13  and  S1_14 
REMARK    8  A    between atoms: S1_14  and  C11_15 
REMARK    9  A    between atoms: C15_19  and  O4_20 
REMARK   10  A    between atoms: C16_22  and  O5_23 
REMARK   11  A    between atoms: C17_25  and  O6_26 
REMARK   12  A    between atoms: C18_28  and  O7_29 
REMARK   13  A    between atoms: N1_31  and  C19_32 
REMARK   14  A    between atoms: C19_32  and  C20_33 
REMARK   15  A    between atoms: C20_33  and  S2_34 
REMARK   16  A    between atoms: S2_34  and  C21_35 
REMARK   17  A    between atoms: C21_35  and  C22_36 
REMARK   18  A    between atoms: C22_36  and  C23_37 
REMARK   19  A    between atoms: C23_37  and  O8_38 
ROOT
HETATM    1  C9  UNL     1      -2.583  -0.298  -1.863  1.00  0.00     0.292 C 
HETATM    2  O3  UNL     1      -2.889   0.165  -0.580  1.00  0.00    -0.340 OA
HETATM    3  C10 UNL     1      -3.105  -0.864   0.311  1.00  0.00     0.217 C 
HETATM    4  C16 UNL     1      -3.648  -2.117  -0.288  1.00  0.00     0.188 C 
HETATM    5  C17 UNL     1      -4.262  -2.010  -1.627  1.00  0.00     0.183 C 
HETATM    6  C18 UNL     1      -3.993  -0.722  -2.371  1.00  0.00     0.204 C 
ENDROOT
BRANCH   1   7
HETATM    7  O2  UNL     1      -2.051   0.658  -2.631  1.00  0.00    -0.358 OA
BRANCH   7   8
HETATM    8  C8  UNL     1      -0.861   0.530  -3.218  1.00  0.00     0.171 C 
BRANCH   8   9
HETATM    9  C7  UNL     1       0.401   0.467  -2.434  1.00  0.00     0.026 C 
BRANCH   9  10
HETATM   10  C6  UNL     1       0.584  -0.611  -1.448  1.00  0.00     0.004 C 
BRANCH  10  11
HETATM   11  C5  UNL     1       1.958  -0.569  -0.773  1.00  0.00     0.025 C 
BRANCH  11  12
HETATM   12  C4  UNL     1       2.206   0.691  -0.037  1.00  0.00     0.087 C 
HETATM   13  C3  UNL     1       1.135   0.823   1.038  1.00  0.00     0.034 C 
HETATM   14  C2  UNL     1       1.813   1.453   2.211  1.00  0.00     0.105 C 
HETATM   15  C1  UNL     1       3.229   1.109   2.006  1.00  0.00     0.220 C 
HETATM   16  O1  UNL     1       4.104   1.212   2.892  1.00  0.00    -0.273 OA
HETATM   17  N1  UNL     1       3.451   0.650   0.675  1.00  0.00    -0.347 N 
BRANCH  17  18
HETATM   18  C19 UNL     1       4.766   0.267   0.173  1.00  0.00     0.136 C 
BRANCH  18  19
HETATM   19  C20 UNL     1       5.081  -1.148   0.454  1.00  0.00     0.093 C 
BRANCH  19  20
HETATM   20  S2  UNL     1       6.531  -1.879  -0.100  1.00  0.00    -0.167 SA
BRANCH  20  21
HETATM   21  C21 UNL     1       8.108  -1.499   0.499  1.00  0.00     0.076 C 
BRANCH  21  22
HETATM   22  C22 UNL     1       8.875  -0.303   0.119  1.00  0.00     0.036 C 
BRANCH  22  23
HETATM   23  C23 UNL     1       8.380   1.055   0.407  1.00  0.00     0.165 C 
BRANCH  23  24
HETATM   24  O8  UNL     1       8.155   1.289   1.765  1.00  0.00    -0.401 OA
ATOM     25  H8  UNL     1       7.836   2.164   1.951  1.00  0.00     0.209 HD
ENDBRANCH  23  24
ENDBRANCH  22  23
ENDBRANCH  21  22
ENDBRANCH  20  21
ENDBRANCH  19  20
ENDBRANCH  18  19
ENDBRANCH  17  18
ENDBRANCH  11  12
ENDBRANCH  10  11
ENDBRANCH   9  10
ENDBRANCH   8   9
ENDBRANCH   7   8
ENDBRANCH   1   7
BRANCH   6  26
HETATM   26  O7  UNL     1      -3.972  -0.911  -3.736  1.00  0.00    -0.388 OA
ATOM     27  H7  UNL     1      -4.832  -1.170  -4.046  1.00  0.00     0.210 HD
ENDBRANCH   6  26
BRANCH   3  28
HETATM   28  S1  UNL     1      -4.024  -0.302   1.764  1.00  0.00    -0.127 SA
BRANCH  28  29
HETATM   29  C11 UNL     1      -5.697   0.205   1.399  1.00  0.00     0.078 C 
HETATM   30  C12 UNL     1      -5.674   1.460   0.560  1.00  0.00     0.018 C 
HETATM   31  C13 UNL     1      -5.999   2.625   1.498  1.00  0.00     0.004 C 
HETATM   32  C14 UNL     1      -5.889   2.009   2.901  1.00  0.00     0.033 C 
HETATM   33  C15 UNL     1      -6.462   0.642   2.625  1.00  0.00     0.132 C 
BRANCH  33  34
HETATM   34  O4  UNL     1      -6.290  -0.226   3.692  1.00  0.00    -0.394 OA
ATOM     35  H4  UNL     1      -6.771   0.049   4.463  1.00  0.00     0.210 HD
ENDBRANCH  33  34
ENDBRANCH  28  29
ENDBRANCH   3  28
BRANCH   5  36
HETATM   36  O6  UNL     1      -5.653  -2.283  -1.607  1.00  0.00    -0.390 OA
ATOM     37  H6  UNL     1      -6.048  -2.214  -2.468  1.00  0.00     0.210 HD
ENDBRANCH   5  36
BRANCH   4  38
HETATM   38  O5  UNL     1      -2.701  -3.156  -0.283  1.00  0.00    -0.389 OA
ATOM     39  H5  UNL     1      -3.047  -3.954  -0.665  1.00  0.00     0.210 HD
ENDBRANCH   4  38
TORSDOF 19
