REMARK  25 active torsions:
REMARK  status: ('A' for Active; 'I' for Inactive)
REMARK    1  A    between atoms: C2_2  and  C3_3 
REMARK    2  A    between atoms: C2_2  and  C11_16 
REMARK    3  A    between atoms: C3_3  and  C4_4 
REMARK    4  A    between atoms: C3_3  and  O2_7 
REMARK    5  A    between atoms: C4_4  and  O1_5 
REMARK    6  A    between atoms: O2_7  and  C5_8 
REMARK    7  A    between atoms: C5_8  and  C6_9 
REMARK    8  A    between atoms: C6_9  and  O4_11 
REMARK    9  A    between atoms: O4_11  and  C7_12 
REMARK   10  A    between atoms: C11_16  and  O5_17 
REMARK   11  A    between atoms: C11_16  and  C12_19 
REMARK   12  A    between atoms: C12_19  and  O6_20 
REMARK   13  A    between atoms: C12_19  and  C13_22 
REMARK   14  A    between atoms: C13_22  and  O7_23 
REMARK   15  A    between atoms: C13_22  and  C14_25 
REMARK   16  A    between atoms: C14_25  and  O8_26 
REMARK   17  A    between atoms: C15_28  and  C16_29 
REMARK   18  A    between atoms: C16_29  and  C17_30 
REMARK   19  A    between atoms: C17_30  and  C18_31 
REMARK   20  A    between atoms: C18_31  and  C19_32 
REMARK   21  A    between atoms: C19_32  and  C20_33 
REMARK   22  A    between atoms: C21_34  and  C22_35 
REMARK   23  A    between atoms: C22_35  and  C23_36 
REMARK   24  A    between atoms: C24_37  and  C25_38 
REMARK   25  A    between atoms: C28_41  and  O9_42 
ROOT
HETATM    1  C13 UNL     1      -0.262   0.979   0.940  1.00  0.00     0.205 C 
ENDROOT
BRANCH   1   2
HETATM    2  C12 UNL     1      -1.431   1.861   0.569  1.00  0.00     0.182 C 
BRANCH   2   3
HETATM    3  C11 UNL     1      -2.701   1.143   0.292  1.00  0.00     0.156 C 
BRANCH   3   4
HETATM    4  C2  UNL     1      -2.803   0.263  -0.901  1.00  0.00     0.044 C 
HETATM    5  C1  UNL     1      -2.243   0.734  -2.207  1.00  0.00     0.015 C 
BRANCH   4   6
HETATM    6  C3  UNL     1      -4.202  -0.240  -1.160  1.00  0.00     0.151 C 
BRANCH   6   7
HETATM    7  C4  UNL     1      -5.046   0.840  -1.912  1.00  0.00     0.196 C 
BRANCH   7   8
HETATM    8  O1  UNL     1      -4.635   1.026  -3.204  1.00  0.00    -0.398 OA
ATOM      9  H1  UNL     1      -5.148   1.682  -3.661  1.00  0.00     0.209 HD
ENDBRANCH   7   8
ENDBRANCH   6   7
BRANCH   6  10
HETATM   10  O2  UNL     1      -4.995  -0.326   0.033  1.00  0.00    -0.374 OA
BRANCH  10  11
HETATM   11  C5  UNL     1      -5.603  -1.588   0.050  1.00  0.00     0.279 C 
BRANCH  11  12
HETATM   12  C6  UNL     1      -6.954  -1.518   0.687  1.00  0.00     0.283 C 
HETATM   13  O3  UNL     1      -7.631  -2.506   0.987  1.00  0.00    -0.263 OA
BRANCH  12  14
HETATM   14  O4  UNL     1      -7.490  -0.271   0.938  1.00  0.00    -0.310 OA
BRANCH  14  15
HETATM   15  C7  UNL     1      -8.774  -0.030   1.460  1.00  0.00     0.060 C 
HETATM   16  C8  UNL     1      -9.724  -0.625   0.432  1.00  0.00     0.045 C 
HETATM   17  C9  UNL     1      -8.925   1.497   1.443  1.00  0.00     0.045 C 
HETATM   18  C10 UNL     1      -8.999  -0.500   2.843  1.00  0.00     0.045 C 
ENDBRANCH  14  15
ENDBRANCH  12  14
ENDBRANCH  11  12
ENDBRANCH  10  11
ENDBRANCH   6  10
ENDBRANCH   4   6
ENDBRANCH   3   4
BRANCH   3  19
HETATM   19  O5  UNL     1      -3.160   0.427   1.373  1.00  0.00    -0.392 OA
ATOM     20  H5  UNL     1      -3.095   0.990   2.136  1.00  0.00     0.210 HD
ENDBRANCH   3  19
ENDBRANCH   2   3
BRANCH   2  21
HETATM   21  O6  UNL     1      -1.111   2.645  -0.598  1.00  0.00    -0.390 OA
ATOM     22  H6  UNL     1      -0.299   3.104  -0.421  1.00  0.00     0.210 HD
ENDBRANCH   2  21
ENDBRANCH   1   2
BRANCH   1  23
HETATM   23  O7  UNL     1      -0.532   0.420   2.162  1.00  0.00    -0.386 OA
ATOM     24  H7  UNL     1       0.203  -0.135   2.395  1.00  0.00     0.210 HD
ENDBRANCH   1  23
BRANCH   1  25
HETATM   25  C14 UNL     1       0.997   1.640   0.712  1.00  0.00     0.074 C 
HETATM   26  C15 UNL     1       2.359   1.299   0.549  1.00  0.00     0.035 C 
BRANCH  25  27
HETATM   27  O8  UNL     1       0.884   2.986   0.603  1.00  0.00    -0.362 OA
ATOM     28  H8  UNL     1       1.715   3.422   0.453  1.00  0.00     0.217 HD
ENDBRANCH  25  27
BRANCH  26  29
HETATM   29  C16 UNL     1       2.939   0.129   0.631  1.00  0.00     0.003 C 
BRANCH  29  30
HETATM   30  C17 UNL     1       2.335  -1.100   0.930  1.00  0.00     0.008 C 
BRANCH  30  31
HETATM   31  C18 UNL     1       2.795  -2.386   0.945  1.00  0.00     0.055 C 
BRANCH  31  32
HETATM   32  C19 UNL     1       4.033  -2.806   0.668  1.00  0.00    -0.128 C 
BRANCH  32  33
HETATM   33  C20 UNL     1       5.264  -3.234   0.392  1.00  0.00     0.064 C 
HETATM   34  C21 UNL     1       6.212  -2.146   0.296  1.00  0.00     0.064 C 
BRANCH  34  35
HETATM   35  C22 UNL     1       7.385  -1.836  -0.057  1.00  0.00    -0.128 C 
BRANCH  35  36
HETATM   36  C23 UNL     1       8.583  -1.385  -0.380  1.00  0.00     0.052 C 
HETATM   37  C24 UNL     1       9.728  -1.429  -0.951  1.00  0.00    -0.011 C 
BRANCH  37  38
HETATM   38  C25 UNL     1      10.659  -0.253  -0.772  1.00  0.00     0.044 A 
HETATM   39  C26 UNL     1       9.986   0.964  -1.463  1.00  0.00     0.021 A 
HETATM   40  C27 UNL     1       9.403   1.995  -0.601  1.00  0.00     0.013 C 
HETATM   41  C28 UNL     1      11.366   0.574  -1.694  1.00  0.00     0.130 A 
BRANCH  41  42
HETATM   42  O9  UNL     1      12.326   1.477  -1.147  1.00  0.00    -0.394 OA
ATOM     43  H9  UNL     1      12.797   2.028  -1.761  1.00  0.00     0.210 HD
ENDBRANCH  41  42
ENDBRANCH  37  38
ENDBRANCH  35  36
ENDBRANCH  34  35
ENDBRANCH  32  33
ENDBRANCH  31  32
ENDBRANCH  30  31
ENDBRANCH  29  30
ENDBRANCH  26  29
ENDBRANCH   1  25
TORSDOF 25
