REMARK  19 active torsions:
REMARK  status: ('A' for Active; 'I' for Inactive)
REMARK    1  A    between atoms: C2_2  and  C3_3 
REMARK    2  A    between atoms: C2_2  and  C25_37 
REMARK    3  A    between atoms: C3_3  and  C4_4 
REMARK    4  A    between atoms: C4_4  and  O1_5 
REMARK    5  A    between atoms: C4_4  and  O2_7 
REMARK    6  A    between atoms: O2_7  and  C5_8 
REMARK    7  A    between atoms: C5_8  and  C6_9 
REMARK    8  A    between atoms: C5_8  and  C13_18 
REMARK    9  A    between atoms: C7_10  and  C8_11 
REMARK   10  A    between atoms: C8_11  and  C9_12 
REMARK   11  A    between atoms: C9_12  and  O3_13 
REMARK   12  A    between atoms: C9_12  and  C10_15 
REMARK   13  A    between atoms: C13_18  and  C14_19 
REMARK   14  A    between atoms: C14_19  and  C16_21 
REMARK   15  A    between atoms: C17_23  and  C18_24 
REMARK   16  A    between atoms: C18_24  and  C19_25 
REMARK   17  A    between atoms: C23_30  and  O6_31 
REMARK   18  A    between atoms: C24_34  and  O8_35 
REMARK   19  A    between atoms: C25_37  and  C27_39 
ROOT
HETATM    1  C5  UNL     1      -1.510   0.235   0.125  1.00  0.00     0.151 C 
ENDROOT
BRANCH   1   2
HETATM    2  O2  UNL     1      -1.450   1.227  -0.805  1.00  0.00    -0.349 OA
BRANCH   2   3
HETATM    3  C4  UNL     1      -2.032   2.453  -0.442  1.00  0.00     0.282 C 
BRANCH   3   4
HETATM    4  C3  UNL     1      -3.265   2.712  -1.205  1.00  0.00     0.040 C 
BRANCH   4   5
HETATM    5  C2  UNL     1      -4.229   3.740  -0.852  1.00  0.00    -0.053 C 
HETATM    6  C1  UNL     1      -5.456   3.336  -0.420  1.00  0.00     0.019 C 
BRANCH   5   7
HETATM    7  C25 UNL     1      -4.037   5.181  -1.050  1.00  0.00     0.115 C 
HETATM    8  C26 UNL     1      -3.045   5.796  -0.047  1.00  0.00     0.026 C 
BRANCH   7   9
HETATM    9  C27 UNL     1      -5.352   5.900  -0.819  1.00  0.00     0.181 C 
HETATM   10  O9  UNL     1      -6.054   6.229  -1.801  1.00  0.00    -0.647 OA
HETATM   11  O10 UNL     1      -5.790   6.198   0.452  1.00  0.00    -0.647 OA
ENDBRANCH   7   9
ENDBRANCH   5   7
ENDBRANCH   4   5
ENDBRANCH   3   4
BRANCH   3  12
HETATM   12  O1  UNL     1      -1.167   3.482  -0.416  1.00  0.00    -0.368 OA
ATOM     13  H1  UNL     1      -0.372   3.315   0.076  1.00  0.00     0.213 HD
ENDBRANCH   3  12
ENDBRANCH   2   3
ENDBRANCH   1   2
BRANCH   1  14
HETATM   14  C6  UNL     1      -2.651  -0.687  -0.358  1.00  0.00     0.001 C 
HETATM   15  C7  UNL     1      -3.069  -1.581   0.505  1.00  0.00    -0.026 C 
BRANCH  15  16
HETATM   16  C8  UNL     1      -4.161  -2.512   0.135  1.00  0.00     0.059 C 
BRANCH  16  17
HETATM   17  C9  UNL     1      -3.630  -3.936   0.232  1.00  0.00     0.124 C 
BRANCH  17  18
HETATM   18  O3  UNL     1      -2.559  -4.112  -0.627  1.00  0.00    -0.395 OA
ATOM     19  H3  UNL     1      -2.228  -5.000  -0.566  1.00  0.00     0.210 HD
ENDBRANCH  17  18
BRANCH  17  20
HETATM   20  C10 UNL     1      -4.793  -4.840  -0.106  1.00  0.00     0.006 C 
HETATM   21  C11 UNL     1      -4.452  -6.299  -0.061  1.00  0.00     0.012 C 
HETATM   22  C12 UNL     1      -5.436  -4.448  -1.410  1.00  0.00     0.012 C 
ENDBRANCH  17  20
ENDBRANCH  16  17
ENDBRANCH  15  16
ENDBRANCH   1  14
BRANCH   1  23
HETATM   23  C13 UNL     1      -0.332  -0.633   0.209  1.00  0.00     0.072 C 
BRANCH  23  24
HETATM   24  C14 UNL     1       0.976  -0.085   0.587  1.00  0.00    -0.053 C 
HETATM   25  C15 UNL     1       1.049   1.105   1.159  1.00  0.00     0.017 C 
BRANCH  24  26
HETATM   26  C16 UNL     1       2.258  -0.783   0.353  1.00  0.00     0.205 C 
HETATM   27  O4  UNL     1       3.287  -0.151   1.096  1.00  0.00    -0.366 OA
HETATM   28  C17 UNL     1       4.492  -0.777   0.637  1.00  0.00     0.180 C 
HETATM   29  C23 UNL     1       4.828  -0.224  -0.716  1.00  0.00     0.289 C 
HETATM   30  O7  UNL     1       3.602  -0.008  -1.391  1.00  0.00    -0.326 OA
HETATM   31  C24 UNL     1       2.722  -0.987  -1.015  1.00  0.00     0.293 C 
BRANCH  28  32
HETATM   32  C18 UNL     1       5.587  -0.538   1.610  1.00  0.00     0.072 C 
BRANCH  32  33
HETATM   33  C19 UNL     1       6.870  -1.198   1.228  1.00  0.00     0.159 A 
HETATM   34  O5  UNL     1       7.403  -0.755  -0.028  1.00  0.00    -0.370 OA
HETATM   35  C20 UNL     1       8.140  -0.455   1.124  1.00  0.00     0.080 A 
HETATM   36  C21 UNL     1       8.282   0.970   1.570  1.00  0.00     0.048 C 
HETATM   37  C22 UNL     1       9.430  -1.249   1.190  1.00  0.00     0.048 C 
ENDBRANCH  32  33
ENDBRANCH  28  32
BRANCH  29  38
HETATM   38  O6  UNL     1       5.387   1.057  -0.633  1.00  0.00    -0.369 OA
ATOM     39  H6  UNL     1       5.600   1.407  -1.490  1.00  0.00     0.212 HD
ENDBRANCH  29  38
BRANCH  31  40
HETATM   40  O8  UNL     1       1.772  -1.087  -2.020  1.00  0.00    -0.368 OA
ATOM     41  H8  UNL     1       2.074  -1.220  -2.911  1.00  0.00     0.212 HD
ENDBRANCH  31  40
ENDBRANCH  24  26
ENDBRANCH  23  24
ENDBRANCH   1  23
TORSDOF 19
