REMARK  6 active torsions:
REMARK  status: ('A' for Active; 'I' for Inactive)
REMARK    1  A    between atoms: N1_2  and  C2_4 
REMARK    2  A    between atoms: C2_4  and  C3_5 
REMARK    3  A    between atoms: C3_5  and  N2_6 
REMARK    4  A    between atoms: N2_6  and  C4_8 
REMARK    5  A    between atoms: C9_13  and  N3_14 
REMARK    6  A    between atoms: N3_14  and  C10_16 
ROOT
HETATM    1  C4  UNL     1      -0.992   0.184  -0.219  1.00  0.00     0.055 A 
HETATM    2  C5  UNL     1      -0.951   1.580  -0.298  1.00  0.00     0.031 A 
HETATM    3  C6  UNL     1      -2.058   2.352  -0.312  1.00  0.00     0.002 A 
HETATM    4  C7  UNL     1      -3.299   1.770  -0.248  1.00  0.00     0.002 A 
HETATM    5  C8  UNL     1      -3.396   0.380  -0.168  1.00  0.00     0.032 A 
HETATM    6  C9  UNL     1      -2.270  -0.392  -0.154  1.00  0.00     0.060 A 
ENDROOT
BRANCH   1   7
HETATM    7  N2  UNL     1       0.223  -0.538  -0.214  1.00  0.00    -0.387 N 
ATOM      8  H2  UNL     1       0.225  -1.557  -0.167  1.00  0.00     0.159 HD
BRANCH   7   9
HETATM    9  C3  UNL     1       1.471   0.209  -0.278  1.00  0.00     0.139 C 
BRANCH   9  10
HETATM   10  C2  UNL     1       2.647  -0.742  -0.271  1.00  0.00     0.133 C 
BRANCH  10  11
HETATM   11  N1  UNL     1       3.885  -0.042  -0.329  1.00  0.00    -0.424 N 
HETATM   12  C1  UNL     1       4.216   0.721   0.830  1.00  0.00     0.139 C 
ATOM     13  H1  UNL     1       4.495  -0.083  -1.145  1.00  0.00     0.152 HD
ENDBRANCH  10  11
ENDBRANCH   9  10
ENDBRANCH   7   9
ENDBRANCH   1   7
BRANCH   6  14
HETATM   14  N3  UNL     1      -2.339  -1.796  -0.073  1.00  0.00    -0.332 N 
ATOM     15  H3  UNL     1      -1.444  -2.286  -0.071  1.00  0.00     0.168 HD
BRANCH  14  16
HETATM   16  C10 UNL     1      -3.470  -2.601   0.005  1.00  0.00     0.353 C 
HETATM   17  O1  UNL     1      -4.639  -2.211   0.015  1.00  0.00    -0.283 OA
ENDBRANCH  14  16
ENDBRANCH   6  14
TORSDOF 6
