REMARK  7 active torsions:
REMARK  status: ('A' for Active; 'I' for Inactive)
REMARK    1  A    between atoms: N1_2  and  C2_4 
REMARK    2  A    between atoms: C2_4  and  C3_5 
REMARK    3  A    between atoms: C3_5  and  O1_6 
REMARK    4  A    between atoms: O1_6  and  C4_7 
REMARK    5  A    between atoms: C5_12  and  N4_13 
REMARK    6  A    between atoms: N4_13  and  C6_15 
REMARK    7  A    between atoms: C6_15  and  C7_16 
ROOT
HETATM    1  C4  UNL     1      -0.468  -0.167   0.734  1.00  0.00     0.203 A 
HETATM    2  N2  UNL     1      -0.413  -1.511   0.638  1.00  0.00    -0.275 N 
ATOM      3  H2  UNL     1      -1.091  -2.268   0.557  1.00  0.00     0.189 HD
HETATM    4  N3  UNL     1       0.900  -1.418   0.695  1.00  0.00    -0.280 N 
ATOM      5  H3  UNL     1       1.646  -2.113   0.673  1.00  0.00     0.188 HD
HETATM    6  C5  UNL     1       0.903  -0.061   0.794  1.00  0.00     0.169 A 
ENDROOT
BRANCH   1   7
HETATM    7  O1  UNL     1      -1.502   0.722   0.760  1.00  0.00    -0.330 OA
BRANCH   7   8
HETATM    8  C3  UNL     1      -2.158   1.266  -0.360  1.00  0.00     0.196 C 
BRANCH   8   9
HETATM    9  C2  UNL     1      -2.793   0.180  -1.215  1.00  0.00     0.140 C 
BRANCH   9  10
HETATM   10  N1  UNL     1      -3.740  -0.520  -0.415  1.00  0.00    -0.423 N 
HETATM   11  C1  UNL     1      -4.897   0.197  -0.025  1.00  0.00     0.139 C 
ATOM     12  H1  UNL     1      -3.592  -1.490  -0.137  1.00  0.00     0.152 HD
ENDBRANCH   9  10
ENDBRANCH   8   9
ENDBRANCH   7   8
ENDBRANCH   1   7
BRANCH   6  13
HETATM   13  N4  UNL     1       1.913   0.912   0.909  1.00  0.00    -0.365 N 
ATOM     14  H4  UNL     1       1.646   1.894   0.980  1.00  0.00     0.161 HD
BRANCH  13  15
HETATM   15  C6  UNL     1       3.305   0.568   0.930  1.00  0.00     0.199 C 
BRANCH  15  16
HETATM   16  C7  UNL     1       3.717  -0.096  -0.330  1.00  0.00     0.140 C 
HETATM   17  C8  UNL     1       5.121  -0.571  -0.542  1.00  0.00     0.092 C 
HETATM   18  O2  UNL     1       2.902  -0.260  -1.212  1.00  0.00    -0.297 OA
ENDBRANCH  15  16
ENDBRANCH  13  15
ENDBRANCH   6  13
TORSDOF 7
