REMARK  8 active torsions:
REMARK  status: ('A' for Active; 'I' for Inactive)
REMARK    1  A    between atoms: C2_2  and  C3_3 
REMARK    2  A    between atoms: C3_3  and  C4_4 
REMARK    3  A    between atoms: C4_4  and  N1_5 
REMARK    4  A    between atoms: N1_5  and  C5_8 
REMARK    5  A    between atoms: C5_8  and  C6_9 
REMARK    6  A    between atoms: C6_9  and  O1_10 
REMARK    7  A    between atoms: O1_10  and  C7_11 
REMARK    8  A    between atoms: C8_17  and  N5_18 
ROOT
HETATM    1  C7  UNL     1      -3.143   0.453   0.225  1.00  0.00     0.201 A 
HETATM    2  N2  UNL     1      -3.383   1.664   0.748  1.00  0.00    -0.261 N 
ATOM      3  H2  UNL     1      -2.677   2.316   1.092  1.00  0.00     0.186 HD
HETATM    4  N3  UNL     1      -4.702   1.873   0.743  1.00  0.00    -0.019 NA
HETATM    5  N4  UNL     1      -5.324   0.820   0.226  1.00  0.00    -0.266 N 
ATOM      6  H4  UNL     1      -6.331   0.712   0.103  1.00  0.00     0.186 HD
HETATM    7  C8  UNL     1      -4.381  -0.076  -0.104  1.00  0.00     0.165 A 
ENDROOT
BRANCH   1   8
HETATM    8  O1  UNL     1      -1.963  -0.225   0.010  1.00  0.00    -0.331 OA
BRANCH   8   9
HETATM    9  C6  UNL     1      -0.692   0.288   0.334  1.00  0.00     0.205 C 
BRANCH   9  10
HETATM   10  C5  UNL     1       0.328  -0.758  -0.058  1.00  0.00     0.259 C 
BRANCH  10  11
HETATM   11  N1  UNL     1       1.673  -0.303   0.246  1.00  0.00    -0.073 N 
ATOM     12  H12 UNL     1       1.768  -0.030   1.224  1.00  0.00     0.277 HD
ATOM     13  H11 UNL     1       1.873   0.599  -0.185  1.00  0.00     0.277 HD
BRANCH  11  14
HETATM   14  C4  UNL     1       2.644  -1.301  -0.127  1.00  0.00     0.236 C 
BRANCH  14  15
HETATM   15  C3  UNL     1       4.023  -0.797   0.202  1.00  0.00     0.054 C 
BRANCH  15  16
HETATM   16  C2  UNL     1       4.375   0.421  -0.529  1.00  0.00    -0.035 C 
HETATM   17  C1  UNL     1       3.668   1.033  -1.446  1.00  0.00     0.007 C 
ENDBRANCH  15  16
ENDBRANCH  14  15
ENDBRANCH  11  14
ENDBRANCH  10  11
ENDBRANCH   9  10
ENDBRANCH   8   9
ENDBRANCH   1   8
BRANCH   7  18
HETATM   18  N5  UNL     1      -4.616  -1.222  -0.633  1.00  0.00    -0.381 N 
ATOM     19  H52 UNL     1      -3.899  -1.903  -0.884  1.00  0.00     0.157 HD
ATOM     20  H51 UNL     1      -5.527  -1.611  -0.875  1.00  0.00     0.157 HD
ENDBRANCH   7  18
TORSDOF 8
