REMARK  9 active torsions:
REMARK  status: ('A' for Active; 'I' for Inactive)
REMARK    1  A    between atoms: C2_2  and  C3_3 
REMARK    2  A    between atoms: C3_3  and  C4_4 
REMARK    3  A    between atoms: C4_4  and  O1_5 
REMARK    4  A    between atoms: O1_5  and  C5_6 
REMARK    5  A    between atoms: C5_6  and  C6_7 
REMARK    6  A    between atoms: C6_7  and  C7_8 
REMARK    7  A    between atoms: C7_8  and  N1_9 
REMARK    8  A    between atoms: C8_10  and  N2_11 
REMARK    9  A    between atoms: C9_18  and  N5_19 
ROOT
HETATM    1  N1  UNL     1       2.208  -0.391   0.261  1.00  0.00    -0.012 N 
HETATM    2  C8  UNL     1       2.948  -1.454  -0.029  1.00  0.00     0.707 A 
HETATM    3  N3  UNL     1       4.146  -1.291   0.552  1.00  0.00    -0.117 N 
ATOM      4  H3  UNL     1       4.927  -1.946   0.506  1.00  0.00     0.206 HD
HETATM    5  N4  UNL     1       4.141  -0.155   1.184  1.00  0.00    -0.117 N 
ATOM      6  H4  UNL     1       4.919   0.231   1.719  1.00  0.00     0.206 HD
HETATM    7  C9  UNL     1       2.945   0.426   1.017  1.00  0.00     0.707 A 
ENDROOT
BRANCH   1   8
HETATM    8  C7  UNL     1       0.840  -0.203  -0.192  1.00  0.00     0.169 C 
BRANCH   8   9
HETATM    9  C6  UNL     1       0.747   0.476  -1.493  1.00  0.00     0.048 C 
BRANCH   9  10
HETATM   10  C5  UNL     1      -0.606   0.706  -2.071  1.00  0.00     0.169 C 
BRANCH  10  11
HETATM   11  O1  UNL     1      -1.511   1.473  -1.479  1.00  0.00    -0.391 OA
BRANCH  11  12
HETATM   12  C4  UNL     1      -2.057   1.257  -0.285  1.00  0.00     0.171 C 
BRANCH  12  13
HETATM   13  C3  UNL     1      -2.789  -0.078  -0.121  1.00  0.00     0.052 C 
BRANCH  13  14
HETATM   14  C2  UNL     1      -3.328  -0.154   1.264  1.00  0.00    -0.035 C 
HETATM   15  C1  UNL     1      -4.629  -0.280   1.431  1.00  0.00     0.007 C 
ENDBRANCH  13  14
ENDBRANCH  12  13
ENDBRANCH  11  12
ENDBRANCH  10  11
ENDBRANCH   9  10
ENDBRANCH   8   9
ENDBRANCH   1   8
BRANCH   2  16
HETATM   16  N2  UNL     1       2.659  -2.512  -0.740  1.00  0.00    -0.233 N 
ATOM     17  H22 UNL     1       1.748  -2.636  -1.182  1.00  0.00     0.174 HD
ATOM     18  H21 UNL     1       3.228  -3.329  -0.963  1.00  0.00     0.174 HD
ENDBRANCH   2  16
BRANCH   7  19
HETATM   19  N5  UNL     1       2.582   1.588   1.516  1.00  0.00    -0.233 N 
ATOM     20  H52 UNL     1       1.672   2.030   1.389  1.00  0.00     0.174 HD
ATOM     21  H51 UNL     1       3.145   2.212   2.094  1.00  0.00     0.174 HD
ENDBRANCH   7  19
TORSDOF 9
