REMARK  3 active torsions:
REMARK  status: ('A' for Active; 'I' for Inactive)
REMARK    1  A    between atoms: C1_2  and  C2_4 
REMARK    2  A    between atoms: C2_4  and  C3_5 
REMARK    3  A    between atoms: C3_5  and  C4_6 
ROOT
HETATM    1  C4  UNL     1      -0.336  -0.197   0.089  1.00  0.00     0.062 C 
HETATM    2  C5  UNL     1      -1.347  -0.885  -0.771  1.00  0.00     0.040 C 
HETATM    3  C6  UNL     1      -2.546  -1.028   0.178  1.00  0.00     0.035 C 
HETATM    4  C7  UNL     1      -2.023  -0.262   1.383  1.00  0.00     0.122 C 
HETATM    5  C8  UNL     1      -1.988   1.195   0.993  1.00  0.00     0.035 C 
HETATM    6  C9  UNL     1      -0.631   1.259   0.273  1.00  0.00     0.040 C 
HETATM    7  O3  UNL     1      -0.675  -0.697   1.368  1.00  0.00    -0.375 OA
ENDROOT
BRANCH   1   8
HETATM    8  C3  UNL     1       1.058  -0.519  -0.301  1.00  0.00     0.048 C 
BRANCH   8   9
HETATM    9  C2  UNL     1       2.093   0.148   0.532  1.00  0.00     0.116 C 
BRANCH   9  10
HETATM   10  C1  UNL     1       3.452  -0.267   0.030  1.00  0.00     0.172 C 
HETATM   11  O1  UNL     1       3.564  -1.053  -0.941  1.00  0.00    -0.648 OA
HETATM   12  O2  UNL     1       4.618   0.200   0.617  1.00  0.00    -0.648 OA
ENDBRANCH   9  10
ENDBRANCH   8   9
ENDBRANCH   1   8
TORSDOF 3
