REMARK  2 active torsions:
REMARK  status: ('A' for Active; 'I' for Inactive)
REMARK    1  A    between atoms: C2_3  and  C3_4 
REMARK    2  A    between atoms: C2_3  and  N2_10 
ROOT
HETATM    1  N1  UNL     1       2.837   2.174  -1.049  1.00  0.00    -0.195 NA
HETATM    2  C1  UNL     1       2.419   1.164  -0.677  1.00  0.00     0.091 C 
HETATM    3  C2  UNL     1       1.883  -0.121  -0.226  1.00  0.00     0.266 C 
ENDROOT
BRANCH   3   4
HETATM    4  C3  UNL     1       0.440   0.056   0.153  1.00  0.00     0.028 C 
HETATM    5  C4  UNL     1      -0.209  -1.202   0.631  1.00  0.00     0.008 C 
HETATM    6  C5  UNL     1      -1.696  -1.089   0.359  1.00  0.00     0.000 C 
HETATM    7  C6  UNL     1      -2.157   0.359   0.430  1.00  0.00     0.000 C 
HETATM    8  C7  UNL     1      -1.601   1.191  -0.681  1.00  0.00     0.000 C 
HETATM    9  C8  UNL     1      -0.278   0.582  -1.095  1.00  0.00     0.008 C 
ENDBRANCH   3   4
BRANCH   3  10
HETATM   10  N2  UNL     1       2.709  -0.590   0.847  1.00  0.00    -0.136 N 
HETATM   11  O1  UNL     1       2.328  -0.825   2.010  1.00  0.00    -0.535 OA
HETATM   12  O2  UNL     1       4.039  -0.800   0.575  1.00  0.00    -0.535 OA
ENDBRANCH   3  10
TORSDOF 2
