REMARK  3 active torsions:
REMARK  status: ('A' for Active; 'I' for Inactive)
REMARK    1  A    between atoms: C2_2  and  C3_3 
REMARK    2  A    between atoms: C3_3  and  C4_4 
REMARK    3  A    between atoms: C8_8  and  N1_9 
ROOT
HETATM    1  C4  UNL     1       0.368   0.274  -0.518  1.00  0.00     0.128 C 
HETATM    2  C5  UNL     1       0.124  -1.175  -0.177  1.00  0.00     0.032 C 
HETATM    3  C6  UNL     1      -1.352  -1.393  -0.544  1.00  0.00     0.007 C 
HETATM    4  C7  UNL     1      -2.116  -0.530   0.430  1.00  0.00     0.060 C 
HETATM    5  C8  UNL     1      -1.600   0.836   0.590  1.00  0.00     0.291 C 
HETATM    6  O3  UNL     1      -0.308   1.089   0.349  1.00  0.00    -0.355 OA
ENDROOT
BRANCH   1   7
HETATM    7  C3  UNL     1       1.826   0.613  -0.584  1.00  0.00     0.058 C 
BRANCH   7   8
HETATM    8  C2  UNL     1       2.537   0.376   0.682  1.00  0.00    -0.034 C 
HETATM    9  C1  UNL     1       3.536  -0.465   0.731  1.00  0.00     0.007 C 
ENDBRANCH   7   8
ENDBRANCH   1   7
BRANCH   5  10
HETATM   10  N1  UNL     1      -2.398   1.713  -0.287  1.00  0.00    -0.124 N 
HETATM   11  O1  UNL     1      -1.898   2.375  -1.195  1.00  0.00    -0.534 OA
HETATM   12  O2  UNL     1      -3.768   1.803  -0.090  1.00  0.00    -0.534 OA
ENDBRANCH   5  10
TORSDOF 3
