REMARK  2 active torsions:
REMARK  status: ('A' for Active; 'I' for Inactive)
REMARK    1  A    between atoms: C2_3  and  C5_8 
REMARK    2  A    between atoms: C5_8  and  C6_9 
ROOT
HETATM    1  N1  UNL     1       1.163   1.258  -2.691  1.00  0.00    -0.194 NA
HETATM    2  C1  UNL     1       1.223   0.510  -1.804  1.00  0.00     0.100 C 
HETATM    3  C2  UNL     1       1.328  -0.436  -0.714  1.00  0.00     0.225 C 
HETATM    4  C3  UNL     1       2.219   0.098   0.358  1.00  0.00     0.100 C 
HETATM    5  N2  UNL     1       2.924   0.510   1.176  1.00  0.00    -0.194 NA
HETATM    6  C4  UNL     1       2.020  -1.627  -1.282  1.00  0.00     0.100 C 
HETATM    7  N3  UNL     1       2.552  -2.554  -1.725  1.00  0.00    -0.194 NA
ENDROOT
BRANCH   3   8
HETATM    8  C5  UNL     1       0.070  -0.811  -0.040  1.00  0.00     0.060 C 
BRANCH   8   9
HETATM    9  C6  UNL     1      -0.731   0.229   0.627  1.00  0.00    -0.011 A 
HETATM   10  C7  UNL     1      -1.346   1.401   0.023  1.00  0.00     0.005 A 
HETATM   11  C8  UNL     1      -2.238   0.185   0.300  1.00  0.00     0.005 A 
ENDBRANCH   8   9
ENDBRANCH   3   8
TORSDOF 2
