REMARK  2 active torsions:
REMARK  status: ('A' for Active; 'I' for Inactive)
REMARK    1  A    between atoms: C1_2  and  C2_4 
REMARK    2  A    between atoms: C2_4  and  C3_5 
ROOT
HETATM    1  C3  UNL     1       1.433   0.205   0.728  1.00  0.00     0.016 C 
HETATM    2  C4  UNL     1       0.221   0.270   0.202  1.00  0.00     0.043 C 
HETATM    3  C5  UNL     1      -0.832   1.143   0.782  1.00  0.00     0.064 C 
HETATM    4  C6  UNL     1      -2.087   0.287   0.890  1.00  0.00     0.008 C 
HETATM    5  C7  UNL     1      -2.490  -0.041  -0.546  1.00  0.00     0.027 C 
HETATM    6  C8  UNL     1      -1.434  -0.871  -1.190  1.00  0.00     0.175 C 
HETATM    7  O3  UNL     1      -0.125  -0.475  -0.916  1.00  0.00    -0.356 OA
ENDROOT
BRANCH   1   8
HETATM    8  C2  UNL     1       2.443  -0.678   0.115  1.00  0.00     0.142 C 
BRANCH   8   9
HETATM    9  C1  UNL     1       3.623   0.088  -0.338  1.00  0.00     0.176 C 
HETATM   10  O1  UNL     1       3.632   1.334  -0.159  1.00  0.00    -0.648 OA
HETATM   11  O2  UNL     1       4.706  -0.489  -0.941  1.00  0.00    -0.648 OA
ENDBRANCH   8   9
ENDBRANCH   1   8
TORSDOF 2
