REMARK  2 active torsions:
REMARK  status: ('A' for Active; 'I' for Inactive)
REMARK    1  A    between atoms: C2_3  and  C3_4 
REMARK    2  A    between atoms: C3_4  and  C4_5 
ROOT
HETATM    1  N1  UNL     1      -3.781   1.615  -0.045  1.00  0.00    -0.197 NA
HETATM    2  C1  UNL     1      -3.331   0.541  -0.036  1.00  0.00     0.059 C 
HETATM    3  C2  UNL     1      -2.775  -0.791   0.001  1.00  0.00     0.127 C 
ENDROOT
BRANCH   3   4
HETATM    4  C3  UNL     1      -1.513  -0.895   0.810  1.00  0.00     0.057 C 
BRANCH   4   5
HETATM    5  C4  UNL     1      -0.404  -0.033   0.316  1.00  0.00     0.183 C 
HETATM    6  O1  UNL     1       0.698  -0.226   1.150  1.00  0.00    -0.376 OA
HETATM    7  C5  UNL     1       1.725   0.637   0.892  1.00  0.00     0.170 C 
HETATM    8  C6  UNL     1       2.573   0.261  -0.291  1.00  0.00     0.036 C 
HETATM    9  C7  UNL     1       1.821   0.147  -1.569  1.00  0.00     0.078 C 
HETATM   10  S1  UNL     1       0.128  -0.457  -1.358  1.00  0.00    -0.137 SA
ENDBRANCH   4   5
ENDBRANCH   3   4
TORSDOF 2
