REMARK  2 active torsions:
REMARK  status: ('A' for Active; 'I' for Inactive)
REMARK    1  A    between atoms: S1_3  and  C2_4 
REMARK    2  A    between atoms: C2_4  and  C3_5 
ROOT
HETATM    1  N1  UNL     1       4.318   0.712   0.103  1.00  0.00    -0.184 NA
HETATM    2  C1  UNL     1       3.607  -0.014  -0.476  1.00  0.00     0.133 C 
HETATM    3  S1  UNL     1       2.508  -1.124  -1.330  1.00  0.00    -0.048 SA
ENDROOT
BRANCH   3   4
HETATM    4  C2  UNL     1       1.048  -1.278  -0.236  1.00  0.00     0.122 C 
BRANCH   4   5
HETATM    5  C3  UNL     1       0.322   0.037  -0.164  1.00  0.00     0.131 C 
HETATM    6  C4  UNL     1      -0.873  -0.143   0.757  1.00  0.00     0.035 C 
HETATM    7  C5  UNL     1      -1.808   0.904   0.138  1.00  0.00     0.029 C 
HETATM    8  C6  UNL     1      -1.523   0.583  -1.337  1.00  0.00     0.168 C 
HETATM    9  O1  UNL     1      -0.163   0.473  -1.381  1.00  0.00    -0.385 OA
ENDBRANCH   4   5
ENDBRANCH   3   4
TORSDOF 2
