REMARK  3 active torsions:
REMARK  status: ('A' for Active; 'I' for Inactive)
REMARK       I    between atoms: N2_6  and  C4_8 
REMARK    1  A    between atoms: C4_8  and  C5_10 
REMARK    2  A    between atoms: C5_10  and  N3_11 
REMARK    3  A    between atoms: C7_14  and  C8_15 
ROOT
HETATM    1  C1  UNL     1       4.346   2.031   1.166  1.00  0.00     0.071 C 
HETATM    2  C2  UNL     1       3.993   0.724   0.553  1.00  0.00     0.045 A 
HETATM    3  N1  UNL     1       2.775   0.162   0.440  1.00  0.00    -0.194 N 
ATOM      4  H1  UNL     1       1.908   0.582   0.776  1.00  0.00     0.184 HD
HETATM    5  C3  UNL     1       2.859  -1.023  -0.173  1.00  0.00     0.685 A 
HETATM    6  N2  UNL     1       1.878  -1.814  -0.435  1.00  0.00    -0.158 N 
ATOM      7  H2  UNL     1       2.072  -2.696  -0.909  1.00  0.00     0.187 HD
HETATM    8  C4  UNL     1       0.535  -1.506  -0.089  1.00  0.00     0.254 C 
HETATM    9  O1  UNL     1       0.035  -2.046   0.926  1.00  0.00    -0.271 OA
HETATM   10  N4  UNL     1       4.157  -1.215  -0.453  1.00  0.00    -0.194 N 
ATOM     11  H4  UNL     1       4.540  -2.036  -0.922  1.00  0.00     0.184 HD
HETATM   12  C12 UNL     1       4.882  -0.157  -0.020  1.00  0.00     0.045 A 
HETATM   13  C13 UNL     1       6.367   0.044  -0.127  1.00  0.00     0.071 C 
ENDROOT
BRANCH   8  14
HETATM   14  C5  UNL     1      -0.281  -0.581  -0.878  1.00  0.00     0.238 C 
BRANCH  14  15
HETATM   15  N3  UNL     1      -1.619  -0.401  -0.363  1.00  0.00    -0.278 N 
HETATM   16  C6  UNL     1      -2.886  -1.000  -0.531  1.00  0.00     0.240 C 
HETATM   17  O2  UNL     1      -3.397  -1.703  -1.427  1.00  0.00    -0.272 OA
HETATM   18  C7  UNL     1      -3.311  -0.452   0.760  1.00  0.00     0.174 C 
HETATM   19  C11 UNL     1      -2.206   0.508   0.553  1.00  0.00     0.240 C 
HETATM   20  O3  UNL     1      -1.901   1.641   0.989  1.00  0.00    -0.272 OA
BRANCH  18  21
HETATM   21  C8  UNL     1      -4.690   0.154   0.797  1.00  0.00    -0.001 C 
HETATM   22  C9  UNL     1      -5.695  -0.927   0.424  1.00  0.00     0.011 C 
HETATM   23  C10 UNL     1      -4.858   1.323  -0.116  1.00  0.00     0.011 C 
ENDBRANCH  18  21
ENDBRANCH  14  15
ENDBRANCH   8  14
TORSDOF 3
