REMARK  5 active torsions:
REMARK  status: ('A' for Active; 'I' for Inactive)
REMARK    1  A    between atoms: C1_2  and  N1_3 
REMARK    2  A    between atoms: C1_2  and  N4_15 
REMARK    3  A    between atoms: N1_3  and  C2_5 
REMARK    4  A    between atoms: C2_5  and  C3_6 
REMARK    5  A    between atoms: C3_6  and  N2_7 
ROOT
HETATM    1  N1  UNL     1      -0.304  -0.837  -0.344  1.00  0.00    -0.365 N 
ATOM      2  H1  UNL     1      -0.037  -0.852  -1.328  1.00  0.00     0.161 HD
ENDROOT
BRANCH   1   3
HETATM    3  C1  UNL     1       0.673  -0.521   0.614  1.00  0.00     0.169 C 
HETATM    4  S1  UNL     1       0.222  -0.556   2.205  1.00  0.00    -0.041 SA
BRANCH   3   5
HETATM    5  N4  UNL     1       2.014  -0.206   0.270  1.00  0.00    -0.358 N 
HETATM    6  C8  UNL     1       2.412  -0.203  -1.110  1.00  0.00     0.126 C 
HETATM    7  C9  UNL     1       3.754   0.477  -1.268  1.00  0.00     0.029 C 
HETATM    8  C10 UNL     1       4.811  -0.038  -0.349  1.00  0.00    -0.037 A 
HETATM    9  C11 UNL     1       4.236  -0.684   0.881  1.00  0.00     0.029 C 
HETATM   10  C13 UNL     1       6.004   0.826  -0.103  1.00  0.00     0.010 A 
HETATM   11  C14 UNL     1       6.139  -0.464  -0.862  1.00  0.00     0.010 A 
HETATM   12  C12 UNL     1       2.995   0.112   1.269  1.00  0.00     0.126 C 
ENDBRANCH   3   5
ENDBRANCH   1   3
BRANCH   1  13
HETATM   13  C2  UNL     1      -1.658  -1.138   0.003  1.00  0.00     0.152 C 
BRANCH  13  14
HETATM   14  C3  UNL     1      -2.464   0.029   0.482  1.00  0.00     0.292 C 
BRANCH  14  15
HETATM   15  N2  UNL     1      -3.801  -0.405   0.810  1.00  0.00     0.093 N 
HETATM   16  C4  UNL     1      -4.530   0.760   1.319  1.00  0.00     0.300 C 
HETATM   17  C5  UNL     1      -5.423   1.395   0.309  1.00  0.00     0.262 C 
HETATM   18  N3  UNL     1      -4.903   1.315  -1.019  1.00  0.00    -0.072 N 
HETATM   19  C6  UNL     1      -4.562  -0.033  -1.438  1.00  0.00     0.262 C 
ATOM     20  H32 UNL     1      -5.547   1.745  -1.683  1.00  0.00     0.277 HD
ATOM     21  H31 UNL     1      -4.103   1.938  -1.129  1.00  0.00     0.277 HD
HETATM   22  C7  UNL     1      -4.537  -0.988  -0.283  1.00  0.00     0.300 C 
ENDBRANCH  14  15
ENDBRANCH  13  14
ENDBRANCH   1  13
TORSDOF 5
