REMARK  4 active torsions:
REMARK  status: ('A' for Active; 'I' for Inactive)
REMARK    1  A    between atoms: C3_3  and  N1_4 
REMARK    2  A    between atoms: N3_9  and  C6_11 
REMARK    3  A    between atoms: C8_13  and  S1_14 
REMARK    4  A    between atoms: S1_14  and  N4_15 
ROOT
HETATM    1  C1  UNL     1       3.844   1.740   2.490  1.00  0.00     0.014 C 
HETATM    2  C2  UNL     1       3.168   1.883   1.500  1.00  0.00    -0.098 C 
HETATM    3  C3  UNL     1       2.344   2.049   0.277  1.00  0.00     0.218 C 
ENDROOT
BRANCH   3   4
HETATM    4  N1  UNL     1       1.966   0.723  -0.168  1.00  0.00    -0.352 N 
HETATM    5  C4  UNL     1       0.655   0.169  -0.157  1.00  0.00     0.112 A 
HETATM    6  N2  UNL     1      -0.557   0.744  -0.050  1.00  0.00    -0.327 N 
HETATM    7  C10 UNL     1       0.706  -1.199  -0.279  1.00  0.00    -0.011 A 
HETATM    8  C5  UNL     1      -1.698   0.031  -0.059  1.00  0.00     0.126 A 
ATOM      9  H2  UNL     1      -0.613   1.758   0.041  1.00  0.00     0.169 HD
HETATM   10  N3  UNL     1      -2.841   0.609   0.044  1.00  0.00    -0.375 N 
HETATM   11  C8  UNL     1      -1.638  -1.340  -0.182  1.00  0.00     0.123 A 
ATOM     12  H3  UNL     1      -3.674   0.020   0.032  1.00  0.00     0.161 HD
HETATM   13  C9  UNL     1      -0.417  -1.998  -0.297  1.00  0.00     0.040 A 
HETATM   14  C11 UNL     1       2.142  -1.612  -0.384  1.00  0.00     0.067 C 
HETATM   15  C12 UNL     1       2.846  -0.306  -0.713  1.00  0.00     0.087 C 
HETATM   16  C13 UNL     1       2.943  -0.211  -2.216  1.00  0.00     0.033 C 
BRANCH  10  17
HETATM   17  C6  UNL     1      -3.026   2.022   0.175  1.00  0.00     0.116 C 
HETATM   18  C7  UNL     1      -2.658   2.568   1.534  1.00  0.00     0.026 C 
ENDBRANCH  10  17
BRANCH  11  19
HETATM   19  S1  UNL     1      -3.082  -2.334  -0.201  1.00  0.00     0.260 S 
HETATM   20  O1  UNL     1      -3.968  -1.965  -1.364  1.00  0.00    -0.201 OA
HETATM   21  O2  UNL     1      -3.898  -2.123   1.066  1.00  0.00    -0.201 OA
BRANCH  19  22
HETATM   22  N4  UNL     1      -2.685  -3.995  -0.369  1.00  0.00    -0.324 N 
ATOM     23  H42 UNL     1      -1.729  -4.343  -0.446  1.00  0.00     0.169 HD
ATOM     24  H41 UNL     1      -3.525  -4.573  -0.380  1.00  0.00     0.169 HD
ENDBRANCH  19  22
ENDBRANCH  11  19
ENDBRANCH   3   4
TORSDOF 4
