REMARK  3 active torsions:
REMARK  status: ('A' for Active; 'I' for Inactive)
REMARK    1  A    between atoms: C2_2  and  C3_3 
REMARK    2  A    between atoms: C3_3  and  C4_4 
REMARK    3  A    between atoms: C4_4  and  N1_5 
ROOT
HETATM    1  N1  UNL     1       0.999   0.412  -1.042  1.00  0.00    -0.322 N 
HETATM    2  C5  UNL     1       0.804   1.482  -1.968  1.00  0.00     0.325 C 
HETATM    3  O1  UNL     1       1.485   2.541  -1.960  1.00  0.00    -0.247 OA
HETATM    4  N2  UNL     1      -0.218   1.375  -2.977  1.00  0.00    -0.279 N 
ATOM      5  H2  UNL     1      -0.364   2.135  -3.642  1.00  0.00     0.173 HD
HETATM    6  C6  UNL     1      -1.019   0.210  -3.041  1.00  0.00     0.228 C 
HETATM    7  O2  UNL     1      -2.036   0.169  -3.793  1.00  0.00    -0.273 OA
HETATM    8  C7  UNL     1      -0.636  -0.959  -2.205  1.00  0.00     0.136 C 
HETATM    9  C8  UNL     1      -0.146  -0.462  -0.823  1.00  0.00     0.077 C 
HETATM   10  C9  UNL     1       0.314  -1.680  -0.061  1.00  0.00     0.036 C 
HETATM   11  C10 UNL     1      -0.853  -2.597   0.241  1.00  0.00     0.033 C 
HETATM   12  C11 UNL     1      -1.813  -1.760   1.060  1.00  0.00     0.273 C 
HETATM   13  N3  UNL     1      -2.314  -0.725   0.236  1.00  0.00     0.099 N 
HETATM   14  C12 UNL     1      -3.503  -0.090   0.682  1.00  0.00     0.300 C 
HETATM   15  C13 UNL     1      -3.425   1.422   0.674  1.00  0.00     0.262 C 
HETATM   16  N4  UNL     1      -2.232   1.914   1.294  1.00  0.00    -0.071 N 
ATOM     17  H41 UNL     1      -2.284   1.824   2.309  1.00  0.00     0.277 HD
ATOM     18  H42 UNL     1      -2.174   2.930   1.220  1.00  0.00     0.277 HD
HETATM   19  C14 UNL     1      -1.029   1.286   0.778  1.00  0.00     0.270 C 
HETATM   20  C15 UNL     1      -1.336   0.225  -0.230  1.00  0.00     0.277 C 
ENDROOT
BRANCH   1  21
HETATM   21  C4  UNL     1       2.282   0.297  -0.447  1.00  0.00     0.128 C 
BRANCH  21  22
HETATM   22  C3  UNL     1       2.480   1.053   0.843  1.00  0.00     0.020 C 
BRANCH  22  23
HETATM   23  C2  UNL     1       3.918   0.809   1.301  1.00  0.00    -0.003 C 
HETATM   24  C1  UNL     1       4.047  -0.693   1.492  1.00  0.00     0.005 C 
ENDBRANCH  22  23
ENDBRANCH  21  22
ENDBRANCH   1  21
TORSDOF 3
