REMARK  4 active torsions:
REMARK  status: ('A' for Active; 'I' for Inactive)
REMARK       I    between atoms: C2_2  and  N1_4 
REMARK    1  A    between atoms: N1_4  and  C4_6 
REMARK    2  A    between atoms: C11_14  and  C12_15 
REMARK    3  A    between atoms: N3_16  and  N4_18 
REMARK    4  A    between atoms: N4_18  and  C13_20 
ROOT
HETATM    1  C4  UNL     1      -0.773  -0.110  -0.654  1.00  0.00     0.071 A 
HETATM    2  C5  UNL     1      -1.773   0.281  -1.537  1.00  0.00    -0.031 A 
HETATM    3  C6  UNL     1      -2.422  -0.682  -2.413  1.00  0.00     0.050 C 
HETATM    4  C7  UNL     1      -2.145   1.604  -1.573  1.00  0.00     0.033 A 
HETATM    5  C8  UNL     1      -1.504   2.489  -0.724  1.00  0.00     0.008 A 
HETATM    6  C9  UNL     1      -1.896   3.921  -0.752  1.00  0.00     0.068 C 
HETATM    7  N2  UNL     1      -0.544   2.096   0.120  1.00  0.00    -0.352 N 
HETATM    8  C10 UNL     1       0.087   3.040   0.975  1.00  0.00     0.156 C 
HETATM    9  C11 UNL     1      -0.160   0.785   0.169  1.00  0.00     0.079 A 
ENDROOT
BRANCH   9  10
HETATM   10  C12 UNL     1       0.864   0.408   1.081  1.00  0.00     0.139 C 
HETATM   11  N3  UNL     1       1.353  -0.769   1.272  1.00  0.00    -0.308 N 
ATOM     12  H3  UNL     1       0.989  -1.549   0.724  1.00  0.00     0.186 HD
BRANCH  11  13
HETATM   13  N4  UNL     1       2.353  -1.010   2.194  1.00  0.00    -0.279 N 
ATOM     14  H4  UNL     1       2.140  -1.492   3.068  1.00  0.00     0.189 HD
BRANCH  13  15
HETATM   15  C13 UNL     1       3.673  -0.585   1.919  1.00  0.00     0.199 C 
HETATM   16  N5  UNL     1       4.767  -0.785   2.799  1.00  0.00    -0.068 NA
HETATM   17  S1  UNL     1       3.980   0.182   0.515  1.00  0.00    -0.043 SA
ENDBRANCH  13  15
ENDBRANCH  11  13
ENDBRANCH   9  10
BRANCH   1  18
HETATM   18  N1  UNL     1      -0.436  -1.471  -0.665  1.00  0.00    -0.320 N 
HETATM   19  C2  UNL     1      -1.151  -2.362   0.186  1.00  0.00     0.220 C 
HETATM   20  C1  UNL     1      -0.842  -3.825   0.220  1.00  0.00     0.117 C 
HETATM   21  O1  UNL     1      -2.061  -1.935   0.929  1.00  0.00    -0.274 OA
HETATM   22  C3  UNL     1       0.597  -2.038  -1.518  1.00  0.00     0.159 C 
ENDBRANCH   1  18
TORSDOF 4
