REMARK  3 active torsions:
REMARK  status: ('A' for Active; 'I' for Inactive)
REMARK    1  A    between atoms: C2_2  and  C3_3 
REMARK    2  A    between atoms: C3_3  and  C4_4 
REMARK    3  A    between atoms: C3_3  and  N1_6 
ROOT
HETATM    1  N1  UNL     1      -1.711   0.553   0.626  1.00  0.00     0.103 N 
HETATM    2  C6  UNL     1      -1.271   1.774   1.256  1.00  0.00     0.375 C 
HETATM    3  C7  UNL     1       0.011   2.236   0.620  1.00  0.00     0.249 C 
HETATM    4  O1  UNL     1       0.396   3.424   0.681  1.00  0.00    -0.271 OA
HETATM    5  N2  UNL     1       0.752   1.228  -0.054  1.00  0.00    -0.338 N 
HETATM    6  C8  UNL     1       1.532   1.586  -1.223  1.00  0.00     0.186 C 
HETATM    7  C9  UNL     1       2.801   0.792  -1.179  1.00  0.00     0.067 A 
HETATM    8  N3  UNL     1       4.101   1.040  -1.394  1.00  0.00    -0.192 N 
ATOM      9  H3  UNL     1       4.507   1.936  -1.664  1.00  0.00     0.184 HD
HETATM   10  C10 UNL     1       4.783  -0.123  -1.187  1.00  0.00     0.678 A 
HETATM   11  N4  UNL     1       6.050  -0.194  -1.320  1.00  0.00    -0.230 N 
ATOM     12  H4  UNL     1       6.572   0.640  -1.589  1.00  0.00     0.177 HD
HETATM   13  C11 UNL     1       6.767  -1.444  -1.095  1.00  0.00     0.165 C 
HETATM   14  N5  UNL     1       3.906  -1.098  -0.843  1.00  0.00    -0.194 N 
ATOM     15  H5  UNL     1       4.134  -2.069  -0.630  1.00  0.00     0.184 HD
HETATM   16  C12 UNL     1       2.675  -0.544  -0.835  1.00  0.00     0.053 A 
HETATM   17  C13 UNL     1       1.306  -1.035  -0.554  1.00  0.00     0.087 C 
HETATM   18  C14 UNL     1       0.684  -0.107   0.483  1.00  0.00     0.121 C 
HETATM   19  C15 UNL     1      -0.731  -0.501   0.694  1.00  0.00     0.299 C 
ENDROOT
BRANCH   1  20
HETATM   20  C3  UNL     1      -2.896   0.087   1.362  1.00  0.00     0.223 C 
BRANCH  20  21
HETATM   21  C2  UNL     1      -4.009   1.069   1.291  1.00  0.00     0.031 C 
HETATM   22  C1  UNL     1      -4.669   1.268  -0.023  1.00  0.00     0.007 C 
ENDBRANCH  20  21
BRANCH  20  23
HETATM   23  C4  UNL     1      -3.257  -1.307   1.021  1.00  0.00     0.031 C 
HETATM   24  C5  UNL     1      -3.774  -1.608  -0.327  1.00  0.00     0.007 C 
ENDBRANCH  20  23
ENDBRANCH   1  20
TORSDOF 3
