REMARK  4 active torsions:
REMARK  status: ('A' for Active; 'I' for Inactive)
REMARK    1  A    between atoms: C6_8  and  N2_9 
REMARK       I    between atoms: N2_9  and  C7_11 
REMARK    2  A    between atoms: N4_13  and  S1_15 
REMARK    3  A    between atoms: S1_15  and  C8_18 
REMARK    4  A    between atoms: C8_18  and  C9_19 
ROOT
HETATM    1  N2  UNL     1      -0.730  -0.098  -1.723  1.00  0.00    -0.163 N 
ATOM      2  H2  UNL     1      -0.559  -0.713  -2.518  1.00  0.00     0.187 HD
HETATM    3  C7  UNL     1       0.137   0.991  -1.455  1.00  0.00     0.216 C 
HETATM    4  N3  UNL     1      -0.194   2.325  -1.868  1.00  0.00    -0.062 NA
HETATM    5  N4  UNL     1       1.238   0.764  -0.830  1.00  0.00    -0.257 N 
ATOM      6  H4  UNL     1       1.870   1.539  -0.631  1.00  0.00     0.181 HD
ENDROOT
BRANCH   1   7
HETATM    7  C6  UNL     1      -1.732  -0.296  -0.949  1.00  0.00     0.685 A 
HETATM    8  N1  UNL     1      -1.946   0.516   0.090  1.00  0.00    -0.196 N 
HETATM    9  C4  UNL     1      -2.972   0.373   0.944  1.00  0.00     0.024 A 
ATOM     10  H1  UNL     1      -1.295   1.286   0.243  1.00  0.00     0.184 HD
HETATM   11  C3  UNL     1      -3.851  -0.651   0.754  1.00  0.00     0.050 A 
HETATM   12  C5  UNL     1      -3.116   1.334   2.068  1.00  0.00     0.068 C 
HETATM   13  C2  UNL     1      -3.651  -1.514  -0.323  1.00  0.00     0.024 A 
HETATM   14  C1  UNL     1      -4.615  -2.634  -0.527  1.00  0.00     0.068 C 
HETATM   15  N5  UNL     1      -2.597  -1.300  -1.132  1.00  0.00    -0.196 N 
ATOM     16  H5  UNL     1      -2.451  -1.931  -1.920  1.00  0.00     0.184 HD
ENDBRANCH   1   7
BRANCH   5  17
HETATM   17  S1  UNL     1       1.664  -0.829  -0.323  1.00  0.00     0.233 S 
HETATM   18  O1  UNL     1       1.061  -1.133   0.985  1.00  0.00    -0.206 OA
HETATM   19  O2  UNL     1       1.067  -1.773  -1.340  1.00  0.00    -0.206 OA
BRANCH  17  20
HETATM   20  C8  UNL     1       3.418  -0.961  -0.363  1.00  0.00     0.167 C 
BRANCH  20  21
HETATM   21  C9  UNL     1       4.128   0.004   0.519  1.00  0.00    -0.007 C 
HETATM   22  C10 UNL     1       3.708  -0.208   1.978  1.00  0.00     0.010 C 
HETATM   23  C11 UNL     1       3.987   1.435   0.132  1.00  0.00     0.010 C 
ENDBRANCH  20  21
ENDBRANCH  17  20
ENDBRANCH   5  17
TORSDOF 4
