REMARK  10 active torsions:
REMARK  status: ('A' for Active; 'I' for Inactive)
REMARK    1  A    between atoms: C5_10  and  C6_11 
REMARK    2  A    between atoms: C6_11  and  N3_12 
REMARK    3  A    between atoms: N3_12  and  C7_14 
REMARK    4  A    between atoms: C9_20  and  N6_21 
REMARK    5  A    between atoms: N6_21  and  C10_23 
REMARK    6  A    between atoms: C10_23  and  C11_24 
REMARK    7  A    between atoms: C11_24  and  O1_25 
REMARK    8  A    between atoms: N8_30  and  C13_31 
REMARK    9  A    between atoms: C13_31  and  C14_32 
REMARK   10  A    between atoms: C14_32  and  N9_33 
ROOT
HETATM    1  C1  UNL     1      -3.633   3.367  -2.043  1.00  0.00     0.063 C 
HETATM    2  C2  UNL     1      -2.869   2.361  -1.671  1.00  0.00     0.098 A 
HETATM    3  N1  UNL     1      -1.474   2.482  -1.893  1.00  0.00    -0.329 N 
ATOM      4  H1  UNL     1      -1.087   3.320  -2.328  1.00  0.00     0.169 HD
HETATM    5  C3  UNL     1      -0.626   1.415  -1.499  1.00  0.00     0.115 A 
HETATM    6  N2  UNL     1       0.663   1.571  -1.624  1.00  0.00    -0.385 N 
ATOM      7  H21 UNL     1       1.273   0.804  -1.341  1.00  0.00     0.157 HD
ATOM      8  H22 UNL     1       1.091   2.390  -2.056  1.00  0.00     0.157 HD
HETATM    9  C4  UNL     1      -1.238   0.245  -0.882  1.00  0.00     0.061 A 
HETATM   10  C5  UNL     1      -0.585  -0.896  -0.364  1.00  0.00    -0.007 A 
HETATM   11  C12 UNL     1      -1.595  -1.651   0.161  1.00  0.00     0.102 A 
HETATM   12  N8  UNL     1      -2.818  -1.055  -0.012  1.00  0.00    -0.340 N 
HETATM   13  C17 UNL     1      -2.599   0.107  -0.646  1.00  0.00     0.123 A 
HETATM   14  N10 UNL     1      -3.431   1.192  -1.057  1.00  0.00    -0.328 N 
ATOM     15  H10 UNL     1      -4.439   1.135  -0.912  1.00  0.00     0.169 HD
ENDROOT
BRANCH  10  16
HETATM   16  C6  UNL     1       0.824  -1.221  -0.684  1.00  0.00     0.179 C 
BRANCH  16  17
HETATM   17  N3  UNL     1       1.755  -1.018   0.405  1.00  0.00    -0.221 N 
ATOM     18  H3  UNL     1       1.455  -0.900   1.373  1.00  0.00     0.178 HD
BRANCH  17  19
HETATM   19  C7  UNL     1       3.031  -0.998   0.041  1.00  0.00     0.693 A 
HETATM   20  N4  UNL     1       3.356  -1.194  -1.247  1.00  0.00    -0.187 N 
HETATM   21  C8  UNL     1       4.603  -0.925  -1.693  1.00  0.00     0.215 A 
ATOM     22  H4  UNL     1       2.654  -1.550  -1.896  1.00  0.00     0.185 HD
HETATM   23  N5  UNL     1       5.501  -0.450  -0.784  1.00  0.00    -0.187 N 
HETATM   24  C9  UNL     1       5.216  -0.240   0.488  1.00  0.00     0.693 A 
ATOM     25  H5  UNL     1       6.447  -0.245  -1.105  1.00  0.00     0.185 HD
HETATM   26  N7  UNL     1       3.963  -0.522   0.930  1.00  0.00    -0.022 N 
ATOM     27  H7  UNL     1       3.717  -0.382   1.910  1.00  0.00     0.203 HD
BRANCH  24  28
HETATM   28  N6  UNL     1       6.151   0.318   1.238  1.00  0.00    -0.224 N 
ATOM     29  H6  UNL     1       5.974   0.487   2.228  1.00  0.00     0.177 HD
BRANCH  28  30
HETATM   30  C10 UNL     1       7.428   0.691   0.657  1.00  0.00     0.164 C 
BRANCH  30  31
HETATM   31  C11 UNL     1       8.569  -0.205   0.986  1.00  0.00     0.184 C 
BRANCH  31  32
HETATM   32  O1  UNL     1       9.741   0.283   0.341  1.00  0.00    -0.399 OA
ATOM     33  H1  UNL     1      10.470  -0.289   0.551  1.00  0.00     0.209 HD
ENDBRANCH  31  32
ENDBRANCH  30  31
ENDBRANCH  28  30
ENDBRANCH  24  28
ENDBRANCH  17  19
ENDBRANCH  16  17
ENDBRANCH  10  16
BRANCH  12  34
HETATM   34  C13 UNL     1      -4.091  -1.631   0.348  1.00  0.00     0.160 C 
BRANCH  34  35
HETATM   35  C14 UNL     1      -4.689  -1.381   1.655  1.00  0.00     0.291 C 
BRANCH  35  36
HETATM   36  N9  UNL     1      -5.052  -0.060   2.047  1.00  0.00     0.081 N 
HETATM   37  C15 UNL     1      -5.568  -0.202   3.443  1.00  0.00     0.309 C 
HETATM   38  C16 UNL     1      -6.293   0.309   1.314  1.00  0.00     0.309 C 
ENDBRANCH  35  36
ENDBRANCH  34  35
ENDBRANCH  12  34
TORSDOF 10
