REMARK  14 active torsions:
REMARK  status: ('A' for Active; 'I' for Inactive)
REMARK    1  A    between atoms: C2_2  and  C4_4 
REMARK    2  A    between atoms: C4_4  and  N1_5 
REMARK    3  A    between atoms: C4_4  and  C5_9 
REMARK    4  A    between atoms: C5_9  and  O1_10 
REMARK    5  A    between atoms: C5_9  and  N2_12 
REMARK    6  A    between atoms: N2_12  and  C6_14 
REMARK    7  A    between atoms: C7_17  and  C8_18 
REMARK    8  A    between atoms: C8_18  and  O2_19 
REMARK    9  A    between atoms: C8_18  and  N4_21 
REMARK   10  A    between atoms: N5_24  and  C11_25 
REMARK   11  A    between atoms: C12_28  and  N7_29 
REMARK   12  A    between atoms: N10_37  and  C14_38 
REMARK   13  A    between atoms: C15_39  and  C16_40 
REMARK   14  A    between atoms: C16_40  and  O3_41 
ROOT
HETATM    1  N4  UNL     1      -0.256   0.384   0.200  1.00  0.00    -0.380 N 
HETATM    2  C9  UNL     1      -0.790  -0.898   0.486  1.00  0.00     0.140 C 
HETATM    3  C10 UNL     1      -2.060  -1.151  -0.270  1.00  0.00     0.160 C 
HETATM    4  N5  UNL     1      -2.826   0.064  -0.369  1.00  0.00    -0.214 N 
HETATM    5  C18 UNL     1      -2.545   1.291   0.325  1.00  0.00     0.160 C 
HETATM    6  C19 UNL     1      -1.099   1.498   0.604  1.00  0.00     0.140 C 
ENDROOT
BRANCH   1   7
HETATM    7  C8  UNL     1       1.106   0.612   0.503  1.00  0.00     0.267 C 
BRANCH   7   8
HETATM    8  C7  UNL     1       2.050  -0.008  -0.511  1.00  0.00     0.066 A 
HETATM    9  N3  UNL     1       3.351   0.091  -0.388  1.00  0.00    -0.336 N 
HETATM   10  C6  UNL     1       4.134  -0.429  -1.318  1.00  0.00     0.146 A 
ATOM     11  H3  UNL     1       3.756   0.565   0.419  1.00  0.00     0.168 HD
HETATM   12  S1  UNL     1       2.997  -1.095  -2.431  1.00  0.00    -0.064 SA
HETATM   13  C20 UNL     1       1.566  -0.654  -1.612  1.00  0.00     0.082 A 
BRANCH  10  14
HETATM   14  N2  UNL     1       5.431  -0.443  -1.402  1.00  0.00    -0.342 N 
ATOM     15  H2  UNL     1       5.873  -0.895  -2.202  1.00  0.00     0.164 HD
BRANCH  14  16
HETATM   16  C5  UNL     1       6.247   0.156  -0.406  1.00  0.00     0.250 C 
BRANCH  16  17
HETATM   17  C4  UNL     1       6.738  -0.947   0.506  1.00  0.00     0.235 C 
BRANCH  17  18
HETATM   18  C2  UNL     1       7.541  -0.387   1.641  1.00  0.00     0.012 C 
HETATM   19  C1  UNL     1       8.810   0.295   1.213  1.00  0.00     0.012 C 
HETATM   20  C3  UNL     1       6.716   0.561   2.454  1.00  0.00     0.012 C 
ENDBRANCH  17  18
BRANCH  17  21
HETATM   21  N1  UNL     1       7.474  -1.928  -0.241  1.00  0.00    -0.070 N 
ATOM     22  H13 UNL     1       8.365  -1.553  -0.567  1.00  0.00     0.274 HD
ATOM     23  H12 UNL     1       7.824  -2.669   0.366  1.00  0.00     0.274 HD
ATOM     24  H11 UNL     1       6.928  -2.309  -1.013  1.00  0.00     0.274 HD
ENDBRANCH  17  21
ENDBRANCH  16  17
BRANCH  16  25
HETATM   25  O1  UNL     1       7.339   0.788  -1.032  1.00  0.00    -0.375 OA
ATOM     26  H1  UNL     1       7.031   1.481  -1.605  1.00  0.00     0.212 HD
ENDBRANCH  16  25
ENDBRANCH  14  16
ENDBRANCH  10  14
ENDBRANCH   7   8
BRANCH   7  27
HETATM   27  O2  UNL     1       1.394   1.960   0.669  1.00  0.00    -0.371 OA
ATOM     28  H2  UNL     1       0.803   2.348   1.304  1.00  0.00     0.212 HD
ENDBRANCH   7  27
ENDBRANCH   1   7
BRANCH   4  29
HETATM   29  C11 UNL     1      -3.965   0.015  -1.239  1.00  0.00     0.683 A 
HETATM   30  N6  UNL     1      -3.753   0.073  -2.580  1.00  0.00    -0.175 N 
HETATM   31  C12 UNL     1      -4.784   0.048  -3.423  1.00  0.00     0.147 A 
ATOM     32  H6  UNL     1      -2.802   0.136  -2.942  1.00  0.00     0.186 HD
HETATM   33  C13 UNL     1      -6.059  -0.036  -2.914  1.00  0.00     0.140 A 
HETATM   34  N8  UNL     1      -7.281  -0.074  -3.458  1.00  0.00    -0.279 N 
HETATM   35  C17 UNL     1      -6.287  -0.096  -1.527  1.00  0.00     0.175 A 
HETATM   36  N9  UNL     1      -8.182  -0.149  -2.510  1.00  0.00    -0.234 N 
ATOM     37  H8  UNL     1      -7.480  -0.048  -4.458  1.00  0.00     0.189 HD
HETATM   38  N10 UNL     1      -7.589  -0.164  -1.287  1.00  0.00    -0.234 N 
ATOM     39  H9  UNL     1      -9.189  -0.190  -2.668  1.00  0.00     0.209 HD
HETATM   40  N11 UNL     1      -5.199  -0.066  -0.752  1.00  0.00    -0.172 N 
ATOM     41  H11 UNL     1      -5.321  -0.107   0.260  1.00  0.00     0.186 HD
BRANCH  31  42
HETATM   42  N7  UNL     1      -4.632   0.101  -4.716  1.00  0.00    -0.383 N 
ATOM     43  H72 UNL     1      -3.686   0.163  -5.093  1.00  0.00     0.157 HD
ATOM     44  H71 UNL     1      -5.422   0.082  -5.362  1.00  0.00     0.157 HD
ENDBRANCH  31  42
BRANCH  38  45
HETATM   45  C14 UNL     1      -8.307  -0.220  -0.097  1.00  0.00     0.118 C 
HETATM   46  C15 UNL     1      -7.974  -0.274   1.145  1.00  0.00     0.018 C 
BRANCH  46  47
HETATM   47  C16 UNL     1      -9.104  -0.321   2.175  1.00  0.00     0.192 C 
BRANCH  47  48
HETATM   48  O3  UNL     1      -9.042  -1.464   2.934  1.00  0.00    -0.397 OA
ATOM     49  H3  UNL     1      -9.744  -1.493   3.574  1.00  0.00     0.209 HD
ENDBRANCH  47  48
ENDBRANCH  46  47
ENDBRANCH  38  45
ENDBRANCH   4  29
TORSDOF 14
