REMARK  12 active torsions:
REMARK  status: ('A' for Active; 'I' for Inactive)
REMARK       I    between atoms: C2_5  and  N3_6 
REMARK       I    between atoms: C2_5  and  N11_41 
REMARK    1  A    between atoms: N3_6  and  C3_8 
REMARK    2  A    between atoms: C3_8  and  C4_9 
REMARK    3  A    between atoms: C4_9  and  S1_10 
REMARK    4  A    between atoms: S1_10  and  C5_11 
REMARK    5  A    between atoms: C7_15  and  C8_16 
REMARK    6  A    between atoms: C8_16  and  N5_17 
REMARK    7  A    between atoms: C8_16  and  N6_21 
REMARK       I    between atoms: N6_21  and  C9_23 
REMARK    8  A    between atoms: C9_23  and  C10_25 
REMARK    9  A    between atoms: C14_30  and  C15_31 
REMARK   10  A    between atoms: C15_31  and  N8_32 
REMARK   11  A    between atoms: N8_32  and  O2_34 
REMARK   12  A    between atoms: N11_41  and  C17_43 
ROOT
HETATM    1  N1  UNL     1       9.361  -2.157   0.259  1.00  0.00    -0.171 NA
HETATM    2  C1  UNL     1       8.222  -2.285   0.460  1.00  0.00     0.196 C 
HETATM    3  N2  UNL     1       6.885  -2.467   0.709  1.00  0.00    -0.126 N 
ATOM      4  H2  UNL     1       6.611  -3.103   1.458  1.00  0.00     0.197 HD
HETATM    5  C2  UNL     1       5.971  -1.878   0.048  1.00  0.00     0.701 C 
HETATM    6  N3  UNL     1       4.622  -2.138   0.383  1.00  0.00    -0.224 N 
ATOM      7  H3  UNL     1       4.445  -2.792   1.146  1.00  0.00     0.177 HD
HETATM    8  N11 UNL     1       6.275  -0.996  -1.001  1.00  0.00    -0.022 N 
ATOM      9  H11 UNL     1       5.848  -1.153  -1.914  1.00  0.00     0.203 HD
ENDROOT
BRANCH   6  10
HETATM   10  C3  UNL     1       3.476  -1.552  -0.269  1.00  0.00     0.148 C 
BRANCH  10  11
HETATM   11  C4  UNL     1       3.333  -0.096   0.026  1.00  0.00     0.102 C 
BRANCH  11  12
HETATM   12  S1  UNL     1       1.856   0.580  -0.825  1.00  0.00    -0.091 SA
BRANCH  12  13
HETATM   13  C5  UNL     1       0.376  -0.141  -0.136  1.00  0.00     0.159 A 
HETATM   14  N4  UNL     1      -0.167  -1.274  -0.611  1.00  0.00    -0.344 N 
HETATM   15  C6  UNL     1      -1.279  -1.844  -0.117  1.00  0.00     0.120 A 
ATOM     16  H4  UNL     1       0.295  -1.731  -1.397  1.00  0.00     0.167 HD
HETATM   17  C7  UNL     1      -1.923  -1.236   0.956  1.00  0.00     0.090 A 
HETATM   18  N9  UNL     1      -1.365  -0.104   1.416  1.00  0.00    -0.298 N 
HETATM   19  N10 UNL     1      -0.271   0.439   0.915  1.00  0.00    -0.280 N 
ATOM     20  H9  UNL     1      -1.815   0.366   2.202  1.00  0.00     0.187 HD
ATOM     21  H10 UNL     1       0.094   1.302   1.318  1.00  0.00     0.189 HD
BRANCH  17  22
HETATM   22  C8  UNL     1      -3.156  -1.804   1.557  1.00  0.00     0.337 C 
BRANCH  22  23
HETATM   23  N5  UNL     1      -3.115  -1.803   2.995  1.00  0.00    -0.053 N 
ATOM     24  H53 UNL     1      -2.283  -2.282   3.340  1.00  0.00     0.277 HD
ATOM     25  H52 UNL     1      -2.926  -0.868   3.357  1.00  0.00     0.277 HD
ATOM     26  H51 UNL     1      -3.962  -2.193   3.408  1.00  0.00     0.277 HD
ENDBRANCH  22  23
BRANCH  22  27
HETATM   27  N6  UNL     1      -4.263  -0.914   1.168  1.00  0.00    -0.324 N 
HETATM   28  C9  UNL     1      -5.357  -1.380   0.412  1.00  0.00     0.253 C 
HETATM   29  O1  UNL     1      -5.444  -2.571   0.034  1.00  0.00    -0.268 OA
ATOM     30  H6  UNL     1      -4.237   0.065   1.453  1.00  0.00     0.165 HD
BRANCH  28  31
HETATM   31  C10 UNL     1      -6.422  -0.455   0.055  1.00  0.00     0.034 A 
HETATM   32  C11 UNL     1      -7.576  -0.956  -0.546  1.00  0.00     0.043 A 
HETATM   33  C12 UNL     1      -8.638  -0.177  -0.926  1.00  0.00     0.048 A 
HETATM   34  N7  UNL     1      -9.798  -0.730  -1.537  1.00  0.00    -0.102 NA
HETATM   35  C13 UNL     1      -8.521   1.198  -0.680  1.00  0.00     0.039 A 
HETATM   36  C14 UNL     1      -7.406   1.730  -0.091  1.00  0.00    -0.016 A 
HETATM   37  C16 UNL     1      -6.349   0.887   0.277  1.00  0.00     0.030 A 
BRANCH  36  38
HETATM   38  C15 UNL     1      -7.272   3.140   0.167  1.00  0.00     0.125 C 
BRANCH  38  39
HETATM   39  N8  UNL     1      -8.073   4.062  -0.074  1.00  0.00    -0.280 N 
ATOM     40  H8  UNL     1      -7.758   4.992   0.201  1.00  0.00     0.193 HD
BRANCH  39  41
HETATM   41  O2  UNL     1      -9.280   4.017  -0.637  1.00  0.00    -0.290 OA
ATOM     42  H2  UNL     1      -9.891   4.721  -0.821  1.00  0.00     0.244 HD
ENDBRANCH  39  41
ENDBRANCH  38  39
ENDBRANCH  36  38
ENDBRANCH  28  31
ENDBRANCH  22  27
ENDBRANCH  17  22
ENDBRANCH  12  13
ENDBRANCH  11  12
ENDBRANCH  10  11
ENDBRANCH   6  10
BRANCH   8  43
HETATM   43  C17 UNL     1       7.146   0.096  -0.840  1.00  0.00     0.688 C 
HETATM   44  N12 UNL     1       7.163   0.770   0.276  1.00  0.00    -0.226 N 
HETATM   45  C18 UNL     1       8.081   1.881   0.381  1.00  0.00     0.139 C 
ATOM     46  H12 UNL     1       6.548   0.521   1.050  1.00  0.00     0.177 HD
HETATM   47  C19 UNL     1       8.037   2.670  -0.912  1.00  0.00     0.040 C 
HETATM   48  C20 UNL     1       8.530   1.813  -2.066  1.00  0.00     0.139 C 
HETATM   49  N13 UNL     1       8.017   0.479  -1.911  1.00  0.00    -0.226 N 
ATOM     50  H13 UNL     1       8.286  -0.228  -2.596  1.00  0.00     0.177 HD
ENDBRANCH   8  43
TORSDOF 12
