REMARK  11 active torsions:
REMARK  status: ('A' for Active; 'I' for Inactive)
REMARK    1  A    between atoms: N1_2  and  C3_4 
REMARK    2  A    between atoms: N1_2  and  C12_19 
REMARK    3  A    between atoms: C3_4  and  C4_5 
REMARK    4  A    between atoms: C4_5  and  C5_6 
REMARK    5  A    between atoms: C5_6  and  C6_7 
REMARK    6  A    between atoms: C8_9  and  O1_10 
REMARK    7  A    between atoms: C10_13  and  C11_14 
REMARK    8  A    between atoms: C12_19  and  C13_20 
REMARK       I    between atoms: C13_20  and  N3_22 
REMARK    9  A    between atoms: N3_22  and  C14_24 
REMARK   10  A    between atoms: C14_24  and  C15_25 
REMARK   11  A    between atoms: C15_25  and  C16_26 
ROOT
HETATM    1  C1  UNL     1       1.806   0.305   2.883  1.00  0.00     0.272 C 
HETATM    2  N1  UNL     1       1.012   0.048   1.679  1.00  0.00    -0.066 N 
HETATM    3  C2  UNL     1       1.167  -1.345   1.346  1.00  0.00     0.272 C 
ENDROOT
BRANCH   2   4
HETATM    4  C3  UNL     1       1.458   0.970   0.685  1.00  0.00     0.237 C 
BRANCH   4   5
HETATM    5  C4  UNL     1       2.516   0.516  -0.252  1.00  0.00     0.030 C 
BRANCH   5   6
HETATM    6  C5  UNL     1       3.786   0.155   0.426  1.00  0.00     0.026 C 
BRANCH   6   7
HETATM    7  C6  UNL     1       4.856  -0.310  -0.576  1.00  0.00     0.080 C 
HETATM    8  C7  UNL     1       5.132   0.789  -1.540  1.00  0.00     0.056 C 
HETATM    9  C8  UNL     1       6.476   0.753  -2.183  1.00  0.00     0.122 C 
HETATM   10  C9  UNL     1       7.595   0.418  -1.222  1.00  0.00     0.067 C 
HETATM   11  C10 UNL     1       7.202  -0.867  -0.523  1.00  0.00     0.181 C 
HETATM   12  N2  UNL     1       5.976  -0.742   0.200  1.00  0.00    -0.404 N 
ATOM     13  H2  UNL     1       5.905  -0.946   1.197  1.00  0.00     0.154 HD
BRANCH   9  14
HETATM   14  O1  UNL     1       6.735   2.019  -2.749  1.00  0.00    -0.395 OA
ATOM     15  H1  UNL     1       7.592   1.996  -3.159  1.00  0.00     0.210 HD
ENDBRANCH   9  14
BRANCH  11  16
HETATM   16  C11 UNL     1       8.285  -1.192   0.442  1.00  0.00     0.196 C 
HETATM   17  O2  UNL     1       8.048  -1.317   1.685  1.00  0.00    -0.646 OA
HETATM   18  O3  UNL     1       9.608  -1.378   0.040  1.00  0.00    -0.646 OA
ENDBRANCH  11  16
ENDBRANCH   6   7
ENDBRANCH   5   6
ENDBRANCH   4   5
ENDBRANCH   2   4
BRANCH   2  19
HETATM   19  C12 UNL     1      -0.372   0.326   2.080  1.00  0.00     0.338 C 
BRANCH  19  20
HETATM   20  C13 UNL     1      -1.359  -0.046   1.052  1.00  0.00     0.243 C 
HETATM   21  O4  UNL     1      -0.979  -0.543  -0.031  1.00  0.00    -0.272 OA
HETATM   22  N3  UNL     1      -2.746   0.146   1.253  1.00  0.00    -0.360 N 
ATOM     23  H3  UNL     1      -3.056   0.553   2.136  1.00  0.00     0.162 HD
BRANCH  22  24
HETATM   24  C14 UNL     1      -3.745  -0.205   0.272  1.00  0.00     0.123 C 
BRANCH  24  25
HETATM   25  C15 UNL     1      -5.098   0.122   0.792  1.00  0.00     0.029 C 
BRANCH  25  26
HETATM   26  C16 UNL     1      -6.175  -0.211  -0.165  1.00  0.00    -0.034 C 
HETATM   27  C17 UNL     1      -7.593   0.102   0.314  1.00  0.00     0.014 C 
HETATM   28  C18 UNL     1      -8.253   0.551  -0.961  1.00  0.00    -0.013 C 
HETATM   29  C19 UNL     1      -8.222  -0.599  -1.938  1.00  0.00     0.010 C 
HETATM   30  C23 UNL     1      -7.138   1.431  -1.551  1.00  0.00     0.010 C 
HETATM   31  C20 UNL     1      -6.726  -0.861  -2.060  1.00  0.00    -0.009 C 
HETATM   32  C21 UNL     1      -6.172  -1.564  -0.810  1.00  0.00     0.015 C 
HETATM   33  C22 UNL     1      -6.049   0.386  -1.537  1.00  0.00    -0.002 C 
ENDBRANCH  25  26
ENDBRANCH  24  25
ENDBRANCH  22  24
ENDBRANCH  19  20
ENDBRANCH   2  19
TORSDOF 11
