REMARK  9 active torsions:
REMARK  status: ('A' for Active; 'I' for Inactive)
REMARK    1  A    between atoms: C2_2  and  C3_3 
REMARK    2  A    between atoms: C5_5  and  C6_6 
REMARK    3  A    between atoms: C6_6  and  N1_7 
REMARK       I    between atoms: N1_7  and  C7_9 
REMARK       I    between atoms: C7_9  and  N2_11 
REMARK    4  A    between atoms: N2_11  and  C8_13 
REMARK    5  A    between atoms: C8_13  and  C9_14 
REMARK    6  A    between atoms: C8_13  and  C13_22 
REMARK    7  A    between atoms: C9_14  and  C10_15 
REMARK    8  A    between atoms: C10_15  and  C11_16 
REMARK    9  A    between atoms: C11_16  and  N3_17 
ROOT
HETATM    1  N1  UNL     1       0.473  -0.098  -0.211  1.00  0.00    -0.342 N 
ATOM      2  H1  UNL     1       0.077  -1.008  -0.448  1.00  0.00     0.164 HD
HETATM    3  C7  UNL     1       1.840   0.144  -0.491  1.00  0.00     0.316 C 
HETATM    4  O1  UNL     1       2.334   1.261  -0.201  1.00  0.00    -0.247 OA
HETATM    5  N2  UNL     1       2.656  -0.841  -1.087  1.00  0.00    -0.330 N 
ATOM      6  H2  UNL     1       2.255  -1.749  -1.324  1.00  0.00     0.165 HD
ENDROOT
BRANCH   1   7
HETATM    7  C6  UNL     1      -0.379   0.892   0.396  1.00  0.00     0.136 C 
BRANCH   7   8
HETATM    8  C5  UNL     1      -1.777   0.410   0.586  1.00  0.00     0.074 C 
HETATM    9  C4  UNL     1      -2.391   0.054  -0.729  1.00  0.00     0.018 C 
HETATM   10  C3  UNL     1      -3.614  -0.794  -0.441  1.00  0.00    -0.014 C 
HETATM   11  C21 UNL     1      -4.868  -0.032  -0.228  1.00  0.00     0.010 C 
HETATM   12  C20 UNL     1      -4.735   1.425   0.032  1.00  0.00    -0.003 C 
HETATM   13  C15 UNL     1      -4.012   1.775   1.300  1.00  0.00     0.060 C 
HETATM   14  C19 UNL     1      -6.159   1.979   0.184  1.00  0.00     0.005 C 
HETATM   15  C14 UNL     1      -2.582   1.459   1.277  1.00  0.00     0.137 C 
HETATM   16  C16 UNL     1      -4.659   1.129   2.507  1.00  0.00     0.013 C 
HETATM   17  O3  UNL     1      -1.899   2.200   1.962  1.00  0.00    -0.297 OA
HETATM   18  C17 UNL     1      -6.102   1.466   2.642  1.00  0.00     0.001 C 
HETATM   19  C18 UNL     1      -6.874   1.369   1.352  1.00  0.00     0.000 C 
BRANCH  10  20
HETATM   20  C2  UNL     1      -3.726  -1.771  -1.617  1.00  0.00     0.000 C 
HETATM   21  C1  UNL     1      -4.897  -2.689  -1.483  1.00  0.00     0.005 C 
ENDBRANCH  10  20
ENDBRANCH   7   8
ENDBRANCH   1   7
BRANCH   5  22
HETATM   22  C8  UNL     1       4.077  -0.580  -1.373  1.00  0.00     0.175 C 
BRANCH  22  23
HETATM   23  C9  UNL     1       4.849  -1.633  -0.647  1.00  0.00     0.036 C 
BRANCH  23  24
HETATM   24  C10 UNL     1       6.338  -1.561  -0.784  1.00  0.00     0.022 C 
BRANCH  24  25
HETATM   25  C11 UNL     1       6.868  -0.221  -0.262  1.00  0.00     0.122 C 
BRANCH  25  26
HETATM   26  N3  UNL     1       6.481  -0.158   1.132  1.00  0.00    -0.367 N 
HETATM   27  C12 UNL     1       7.312   0.243   2.049  1.00  0.00     0.196 C 
HETATM   28  N4  UNL     1       8.623   0.623   1.642  1.00  0.00    -0.067 NA
HETATM   29  N5  UNL     1       6.916   0.298   3.398  1.00  0.00    -0.067 NA
ATOM     30  H3  UNL     1       5.537  -0.434   1.401  1.00  0.00     0.161 HD
ENDBRANCH  25  26
ENDBRANCH  24  25
ENDBRANCH  23  24
ENDBRANCH  22  23
BRANCH  22  31
HETATM   31  C13 UNL     1       4.256  -0.714  -2.824  1.00  0.00     0.254 C 
HETATM   32  N6  UNL     1       5.501  -0.486  -3.509  1.00  0.00    -0.060 NA
HETATM   33  O2  UNL     1       3.254  -1.051  -3.536  1.00  0.00    -0.275 OA
ENDBRANCH  22  31
ENDBRANCH   5  22
TORSDOF 9
