REMARK  10 active torsions:
REMARK  status: ('A' for Active; 'I' for Inactive)
REMARK    1  A    between atoms: C2_2  and  N2_6 
REMARK    2  A    between atoms: N2_6  and  C3_8 
REMARK    3  A    between atoms: C3_8  and  C4_9 
REMARK    4  A    between atoms: C4_9  and  N3_10 
REMARK       I    between atoms: N3_10  and  C5_12 
REMARK    5  A    between atoms: C5_12  and  C6_14 
REMARK    6  A    between atoms: C6_14  and  C7_15 
REMARK    7  A    between atoms: C6_14  and  N4_22 
REMARK    8  A    between atoms: C7_15  and  C8_16 
REMARK       I    between atoms: N4_22  and  C14_24 
REMARK    9  A    between atoms: C14_24  and  C15_26 
REMARK   10  A    between atoms: C15_26  and  C16_27 
ROOT
HETATM    1  C6  UNL     1       1.179  -0.382  -0.198  1.00  0.00     0.177 C 
ENDROOT
BRANCH   1   2
HETATM    2  C5  UNL     1       2.115  -1.537  -0.016  1.00  0.00     0.240 C 
HETATM    3  N3  UNL     1       3.506  -1.359   0.150  1.00  0.00    -0.358 N 
ATOM      4  H3  UNL     1       3.851  -0.399   0.137  1.00  0.00     0.162 HD
HETATM    5  O1  UNL     1       1.645  -2.694  -0.010  1.00  0.00    -0.271 OA
BRANCH   3   6
HETATM    6  C4  UNL     1       4.484  -2.396   0.336  1.00  0.00     0.142 C 
BRANCH   6   7
HETATM    7  C3  UNL     1       4.196  -3.155   1.585  1.00  0.00     0.140 C 
BRANCH   7   8
HETATM    8  N2  UNL     1       5.170  -4.211   1.814  1.00  0.00    -0.379 N 
ATOM      9  H2  UNL     1       4.867  -5.182   1.739  1.00  0.00     0.160 HD
BRANCH   8  10
HETATM   10  C2  UNL     1       6.521  -3.943   2.136  1.00  0.00     0.066 C 
HETATM   11  C1  UNL     1       7.522  -3.595   1.102  1.00  0.00     0.088 C 
HETATM   12  N1  UNL     1       6.884  -4.007   3.371  1.00  0.00    -0.389 N 
ATOM     13  H12 UNL     1       7.858  -3.814   3.603  1.00  0.00     0.157 HD
ATOM     14  H11 UNL     1       6.194  -4.247   4.083  1.00  0.00     0.157 HD
ENDBRANCH   8  10
ENDBRANCH   7   8
ENDBRANCH   6   7
ENDBRANCH   3   6
ENDBRANCH   1   2
BRANCH   1  15
HETATM   15  C7  UNL     1       1.512   0.363  -1.474  1.00  0.00     0.039 C 
BRANCH  15  16
HETATM   16  C8  UNL     1       0.638   1.532  -1.746  1.00  0.00    -0.012 C 
HETATM   17  C9  UNL     1       1.106   2.155  -3.056  1.00  0.00     0.005 C 
HETATM   18  C10 UNL     1       0.154   3.222  -3.496  1.00  0.00     0.000 C 
HETATM   19  C11 UNL     1      -0.148   4.234  -2.436  1.00  0.00     0.000 C 
HETATM   20  C12 UNL     1      -0.314   3.664  -1.066  1.00  0.00     0.000 C 
HETATM   21  C13 UNL     1       0.731   2.626  -0.713  1.00  0.00     0.005 C 
ENDBRANCH  15  16
ENDBRANCH   1  15
BRANCH   1  22
HETATM   22  N4  UNL     1      -0.163  -0.901  -0.338  1.00  0.00    -0.348 N 
HETATM   23  C14 UNL     1      -1.137  -0.606   0.637  1.00  0.00     0.220 C 
HETATM   24  O2  UNL     1      -0.838   0.102   1.620  1.00  0.00    -0.274 OA
ATOM     25  H4  UNL     1      -0.405  -1.480  -1.142  1.00  0.00     0.163 HD
BRANCH  23  26
HETATM   26  C15 UNL     1      -2.525  -1.121   0.528  1.00  0.00     0.128 C 
BRANCH  26  27
HETATM   27  C16 UNL     1      -3.353  -0.653   1.703  1.00  0.00     0.093 C 
HETATM   28  C17 UNL     1      -4.767  -1.135   1.666  1.00  0.00     0.026 C 
HETATM   29  C18 UNL     1      -5.565  -0.678   0.485  1.00  0.00     0.002 C 
HETATM   30  C19 UNL     1      -6.209   0.664   0.728  1.00  0.00     0.001 C 
HETATM   31  C20 UNL     1      -5.839   1.672  -0.339  1.00  0.00     0.009 C 
HETATM   32  C21 UNL     1      -4.361   1.986  -0.322  1.00  0.00     0.103 C 
HETATM   33  C22 UNL     1      -3.796   1.847   1.026  1.00  0.00     0.217 C 
HETATM   34  O3  UNL     1      -3.713   2.945   1.666  1.00  0.00    -0.274 OA
HETATM   35  N5  UNL     1      -3.297   0.803   1.849  1.00  0.00    -0.356 N 
ATOM     36  H5  UNL     1      -2.815   1.123   2.689  1.00  0.00     0.162 HD
ENDBRANCH  26  27
ENDBRANCH  23  26
ENDBRANCH   1  22
TORSDOF 10
