REMARK  15 active torsions:
REMARK  status: ('A' for Active; 'I' for Inactive)
REMARK    1  A    between atoms: C2_2  and  N1_5 
REMARK    2  A    between atoms: N1_5  and  C5_7 
REMARK    3  A    between atoms: C5_7  and  N2_9 
REMARK    4  A    between atoms: N2_9  and  C6_11 
REMARK    5  A    between atoms: C6_11  and  C7_12 
REMARK    6  A    between atoms: C7_12  and  C8_13 
REMARK    7  A    between atoms: C8_13  and  C9_14 
REMARK    8  A    between atoms: C9_14  and  N3_15 
REMARK    9  A    between atoms: N3_15  and  C10_17 
REMARK   10  A    between atoms: C10_17  and  O1_18 
REMARK   11  A    between atoms: C10_17  and  N4_20 
REMARK   12  A    between atoms: C14_24  and  C15_25 
REMARK   13  A    between atoms: C15_25  and  C16_26 
REMARK   14  A    between atoms: C16_26  and  C17_27 
REMARK   15  A    between atoms: C17_27  and  N5_28 
REMARK       I    between atoms: N5_28  and  C18_30 
ROOT
HETATM    1  N5  UNL     1       6.691   1.300  -0.174  1.00  0.00    -0.344 N 
ATOM      2  H5  UNL     1       6.549   1.732   0.739  1.00  0.00     0.167 HD
HETATM    3  C18 UNL     1       7.758   0.368  -0.264  1.00  0.00     0.201 C 
HETATM    4  N6  UNL     1       7.974  -0.526   0.808  1.00  0.00    -0.062 NA
HETATM    5  N7  UNL     1       8.525   0.320  -1.286  1.00  0.00    -0.267 N 
ATOM      6  H7  UNL     1       8.378   0.963  -2.064  1.00  0.00     0.180 HD
HETATM    7  C19 UNL     1       9.565  -0.612  -1.339  1.00  0.00     0.184 C 
HETATM    8  N8  UNL     1      10.449  -1.387  -1.368  1.00  0.00    -0.172 NA
ENDROOT
BRANCH   1   9
HETATM    9  C17 UNL     1       5.808   1.699  -1.189  1.00  0.00     0.063 C 
BRANCH   9  10
HETATM   10  C16 UNL     1       4.772   0.814  -1.729  1.00  0.00     0.046 C 
BRANCH  10  11
HETATM   11  C15 UNL     1       3.674   0.348  -0.823  1.00  0.00     0.030 C 
BRANCH  11  12
HETATM   12  C14 UNL     1       4.132  -0.499   0.278  1.00  0.00     0.088 C 
HETATM   13  N4  UNL     1       3.131  -0.967   1.221  1.00  0.00    -0.343 N 
HETATM   14  C11 UNL     1       3.987  -1.819   2.106  1.00  0.00     0.127 C 
HETATM   15  C12 UNL     1       4.752  -2.623   1.076  1.00  0.00     0.022 C 
HETATM   16  C13 UNL     1       4.608  -1.874  -0.226  1.00  0.00     0.027 C 
BRANCH  13  17
HETATM   17  C10 UNL     1       1.776  -0.806   1.441  1.00  0.00     0.215 C 
BRANCH  17  18
HETATM   18  N3  UNL     1       0.826  -0.057   0.724  1.00  0.00    -0.356 N 
ATOM     19  H3  UNL     1       1.123   0.471  -0.096  1.00  0.00     0.163 HD
BRANCH  18  20
HETATM   20  C9  UNL     1      -0.584  -0.019   1.130  1.00  0.00     0.123 C 
BRANCH  20  21
HETATM   21  C8  UNL     1      -1.385   0.845   0.190  1.00  0.00     0.021 C 
BRANCH  21  22
HETATM   22  C7  UNL     1      -2.835   0.939   0.540  1.00  0.00     0.021 C 
BRANCH  22  23
HETATM   23  C6  UNL     1      -3.470  -0.411   0.519  1.00  0.00     0.122 C 
BRANCH  23  24
HETATM   24  N2  UNL     1      -4.865  -0.409   0.825  1.00  0.00    -0.367 N 
ATOM     25  H2  UNL     1      -5.151  -0.813   1.717  1.00  0.00     0.161 HD
BRANCH  24  26
HETATM   26  C5  UNL     1      -5.883   0.111  -0.014  1.00  0.00     0.168 C 
HETATM   27  S1  UNL     1      -5.464   0.742  -1.450  1.00  0.00    -0.041 SA
BRANCH  26  28
HETATM   28  N1  UNL     1      -7.248   0.091   0.356  1.00  0.00    -0.359 N 
ATOM     29  H1  UNL     1      -7.529  -0.302   1.254  1.00  0.00     0.162 HD
BRANCH  28  30
HETATM   30  C2  UNL     1      -8.244   0.631  -0.545  1.00  0.00     0.021 C 
HETATM   31  C1  UNL     1      -8.193  -0.167  -1.824  1.00  0.00     0.037 C 
HETATM   32  C3  UNL     1      -9.623   0.435   0.072  1.00  0.00     0.037 C 
HETATM   33  C4  UNL     1      -7.998   2.083  -0.872  1.00  0.00     0.037 C 
ENDBRANCH  28  30
ENDBRANCH  26  28
ENDBRANCH  24  26
ENDBRANCH  23  24
ENDBRANCH  22  23
ENDBRANCH  21  22
ENDBRANCH  20  21
ENDBRANCH  18  20
ENDBRANCH  17  18
BRANCH  17  34
HETATM   34  O1  UNL     1       1.302  -1.450   2.475  1.00  0.00    -0.333 OA
ATOM     35  H1  UNL     1       1.944  -1.956   2.959  1.00  0.00     0.220 HD
ENDBRANCH  17  34
ENDBRANCH  13  17
ENDBRANCH  11  12
ENDBRANCH  10  11
ENDBRANCH   9  10
ENDBRANCH   1   9
TORSDOF 15
