REMARK  10 active torsions:
REMARK  status: ('A' for Active; 'I' for Inactive)
REMARK    1  A    between atoms: N3_8  and  C4_10 
REMARK    2  A    between atoms: C7_13  and  N4_14 
REMARK    3  A    between atoms: N4_14  and  S1_16 
REMARK    4  A    between atoms: S1_16  and  C8_19 
REMARK    5  A    between atoms: C12_25  and  N6_26 
REMARK    6  A    between atoms: N6_26  and  C13_28 
REMARK    7  A    between atoms: C13_28  and  C14_29 
REMARK    8  A    between atoms: C14_29  and  C15_30 
REMARK    9  A    between atoms: C15_30  and  C16_31 
REMARK   10  A    between atoms: C16_31  and  C17_32 
ROOT
HETATM    1  C1  UNL     1      -3.526   2.097   2.107  1.00  0.00     0.048 C 
HETATM    2  C2  UNL     1      -2.334   1.742   1.672  1.00  0.00     0.083 A 
HETATM    3  N1  UNL     1      -1.272   2.711   1.807  1.00  0.00    -0.284 N 
ATOM      4  H1  UNL     1      -1.454   3.624   2.225  1.00  0.00     0.187 HD
HETATM    5  N2  UNL     1       0.007   2.380   1.357  1.00  0.00    -0.132 N 
ATOM      6  H2  UNL     1       0.755   3.067   1.453  1.00  0.00     0.205 HD
HETATM    7  C3  UNL     1       0.305   1.122   0.770  1.00  0.00     0.694 A 
HETATM    8  N3  UNL     1       1.484   0.874   0.379  1.00  0.00    -0.220 N 
ATOM      9  H3  UNL     1       1.615  -0.050  -0.032  1.00  0.00     0.178 HD
HETATM   10  N5  UNL     1      -0.716   0.162   0.629  1.00  0.00    -0.173 N 
ATOM     11  H5  UNL     1      -0.493  -0.739   0.206  1.00  0.00     0.186 HD
HETATM   12  C12 UNL     1      -2.098   0.421   1.075  1.00  0.00     0.148 A 
ENDROOT
BRANCH   8  13
HETATM   13  C4  UNL     1       2.651   1.681   0.423  1.00  0.00     0.099 C 
HETATM   14  C5  UNL     1       3.654   1.323  -0.620  1.00  0.00     0.028 C 
HETATM   15  C6  UNL     1       5.011   1.135   0.044  1.00  0.00     0.028 C 
HETATM   16  C7  UNL     1       4.832   0.005   1.026  1.00  0.00     0.093 C 
HETATM   17  C10 UNL     1       4.019   0.460   2.170  1.00  0.00     0.028 C 
HETATM   18  C11 UNL     1       3.194   1.650   1.824  1.00  0.00     0.028 C 
BRANCH  16  19
HETATM   19  N4  UNL     1       6.069  -0.639   1.368  1.00  0.00    -0.315 N 
ATOM     20  H4  UNL     1       6.815  -0.168   1.880  1.00  0.00     0.172 HD
BRANCH  19  21
HETATM   21  S1  UNL     1       6.185  -2.259   0.846  1.00  0.00     0.226 S 
HETATM   22  O1  UNL     1       5.176  -3.162   1.475  1.00  0.00    -0.206 OA
HETATM   23  O2  UNL     1       7.546  -2.784   1.208  1.00  0.00    -0.206 OA
BRANCH  21  24
HETATM   24  C8  UNL     1       6.079  -2.268  -0.931  1.00  0.00     0.158 C 
HETATM   25  C9  UNL     1       6.175  -3.678  -1.472  1.00  0.00     0.023 C 
ENDBRANCH  21  24
ENDBRANCH  19  21
ENDBRANCH  16  19
ENDBRANCH   8  13
BRANCH  12  26
HETATM   26  N6  UNL     1      -2.940  -0.442   0.941  1.00  0.00    -0.354 N 
ATOM     27  H6  UNL     1      -2.410  -1.194   0.502  1.00  0.00     0.166 HD
BRANCH  26  28
HETATM   28  C13 UNL     1      -4.164  -0.977   1.037  1.00  0.00     0.062 C 
BRANCH  28  29
HETATM   29  C14 UNL     1      -4.964  -1.088  -0.270  1.00  0.00     0.044 C 
BRANCH  29  30
HETATM   30  C15 UNL     1      -5.160   0.264  -0.859  1.00  0.00     0.005 C 
BRANCH  30  31
HETATM   31  C16 UNL     1      -5.939   0.164  -2.142  1.00  0.00     0.000 C 
BRANCH  31  32
HETATM   32  C17 UNL     1      -7.319  -0.449  -1.942  1.00  0.00    -0.005 C 
HETATM   33  C18 UNL     1      -8.054  -0.516  -3.278  1.00  0.00     0.005 C 
ENDBRANCH  31  32
ENDBRANCH  30  31
ENDBRANCH  29  30
ENDBRANCH  28  29
ENDBRANCH  26  28
ENDBRANCH  12  26
TORSDOF 10
