REMARK  10 active torsions:
REMARK  status: ('A' for Active; 'I' for Inactive)
REMARK    1  A    between atoms: C2_2  and  C3_3 
REMARK    2  A    between atoms: C4_4  and  C5_5 
REMARK    3  A    between atoms: C5_5  and  C6_6 
REMARK    4  A    between atoms: C6_6  and  C7_7 
REMARK    5  A    between atoms: C7_7  and  C8_8 
REMARK    6  A    between atoms: C8_8  and  C9_9 
REMARK    7  A    between atoms: C9_9  and  N1_10 
REMARK    8  A    between atoms: C13_14  and  C14_15 
REMARK    9  A    between atoms: C15_18  and  N3_19 
REMARK   10  A    between atoms: N5_25  and  C17_27 
ROOT
HETATM    1  C14 UNL     1      -1.915  -1.627   0.010  1.00  0.00     0.148 A 
HETATM    2  N2  UNL     1      -2.467  -2.716   0.580  1.00  0.00    -0.175 N 
ATOM      3  H2  UNL     1      -1.900  -3.550   0.735  1.00  0.00     0.186 HD
HETATM    4  C15 UNL     1      -3.748  -2.709   0.942  1.00  0.00     0.692 A 
HETATM    5  N4  UNL     1      -4.484  -1.592   0.729  1.00  0.00    -0.023 N 
ATOM      6  H4  UNL     1      -5.465  -1.590   1.009  1.00  0.00     0.203 HD
HETATM    7  C16 UNL     1      -3.975  -0.493   0.167  1.00  0.00     0.694 A 
HETATM    8  N5  UNL     1      -4.670   0.558  -0.033  1.00  0.00    -0.221 N 
ATOM      9  H5  UNL     1      -4.236   1.373  -0.465  1.00  0.00     0.178 HD
HETATM   10  N7  UNL     1      -2.655  -0.534  -0.194  1.00  0.00    -0.175 N 
ATOM     11  H7  UNL     1      -2.229   0.285  -0.627  1.00  0.00     0.186 HD
ENDROOT
BRANCH   1  12
HETATM   12  C13 UNL     1      -0.510  -1.641  -0.385  1.00  0.00     0.025 A 
HETATM   13  C12 UNL     1       0.211  -2.826  -0.144  1.00  0.00     0.018 A 
HETATM   14  C11 UNL     1       1.539  -2.849  -0.514  1.00  0.00     0.018 A 
HETATM   15  C10 UNL     1       2.134  -1.746  -1.099  1.00  0.00     0.090 A 
HETATM   16  N1  UNL     1       1.474  -0.622  -1.333  1.00  0.00    -0.365 N 
HETATM   17  C22 UNL     1       0.147  -0.592  -0.967  1.00  0.00     0.105 A 
BRANCH  16  18
HETATM   18  C9  UNL     1       2.021   0.584  -1.928  1.00  0.00     0.128 C 
BRANCH  18  19
HETATM   19  C8  UNL     1       2.506   1.520  -0.867  1.00  0.00     0.020 C 
BRANCH  19  20
HETATM   20  C7  UNL     1       3.634   0.944  -0.071  1.00  0.00     0.002 C 
BRANCH  20  21
HETATM   21  C6  UNL     1       4.826   0.694  -0.952  1.00  0.00     0.004 C 
BRANCH  21  22
HETATM   22  C5  UNL     1       5.934   0.095  -0.104  1.00  0.00     0.027 C 
BRANCH  22  23
HETATM   23  C4  UNL     1       6.337   1.000   0.985  1.00  0.00    -0.031 C 
HETATM   24  C3  UNL     1       7.524   1.503   1.158  1.00  0.00    -0.031 C 
BRANCH  24  25
HETATM   25  C2  UNL     1       8.694   1.270   0.305  1.00  0.00     0.022 C 
HETATM   26  C1  UNL     1       9.837   0.638   1.082  1.00  0.00     0.009 C 
ENDBRANCH  24  25
ENDBRANCH  22  23
ENDBRANCH  21  22
ENDBRANCH  20  21
ENDBRANCH  19  20
ENDBRANCH  18  19
ENDBRANCH  16  18
ENDBRANCH   1  12
BRANCH   4  27
HETATM   27  N3  UNL     1      -4.253  -3.760   1.485  1.00  0.00    -0.234 N 
ATOM     28  H32 UNL     1      -3.699  -4.601   1.645  1.00  0.00     0.174 HD
ATOM     29  H31 UNL     1      -5.235  -3.755   1.762  1.00  0.00     0.174 HD
ENDBRANCH   4  27
BRANCH   8  30
HETATM   30  C17 UNL     1      -6.046   0.608   0.340  1.00  0.00     0.102 C 
HETATM   31  C18 UNL     1      -6.574   2.030   0.418  1.00  0.00     0.053 C 
HETATM   32  C19 UNL     1      -8.013   1.970   0.809  1.00  0.00     0.234 C 
HETATM   33  N6  UNL     1      -8.468   0.634   1.114  1.00  0.00    -0.075 N 
HETATM   34  C20 UNL     1      -8.269  -0.288   0.013  1.00  0.00     0.234 C 
ATOM     35  H62 UNL     1      -8.033   0.285   1.968  1.00  0.00     0.277 HD
ATOM     36  H61 UNL     1      -9.442   0.639   1.416  1.00  0.00     0.277 HD
HETATM   37  C21 UNL     1      -6.959  -0.092  -0.675  1.00  0.00     0.053 C 
ENDBRANCH   8  30
TORSDOF 10
