REMARK  10 active torsions:
REMARK  status: ('A' for Active; 'I' for Inactive)
REMARK    1  A    between atoms: C2_2  and  C5_5 
REMARK    2  A    between atoms: C6_6  and  C7_7 
REMARK    3  A    between atoms: C7_7  and  C8_8 
REMARK    4  A    between atoms: C8_8  and  C9_9 
REMARK    5  A    between atoms: C9_9  and  C10_10 
REMARK    6  A    between atoms: C10_10  and  C11_11 
REMARK    7  A    between atoms: C11_11  and  C12_12 
REMARK    8  A    between atoms: C14_19  and  C15_20 
REMARK    9  A    between atoms: C15_20  and  C16_21 
REMARK   10  A    between atoms: C16_21  and  N3_22 
ROOT
HETATM    1  C10 UNL     1      -0.301  -0.513  -1.541  1.00  0.00     0.098 C 
HETATM    2  N2  UNL     1      -0.133   0.310  -0.353  1.00  0.00    -0.343 N 
ATOM      3  H2  UNL     1      -0.726   0.170   0.465  1.00  0.00     0.163 HD
HETATM    4  C13 UNL     1       0.866   1.304  -0.355  1.00  0.00     0.241 C 
HETATM    5  O2  UNL     1       0.663   2.443   0.121  1.00  0.00    -0.271 OA
HETATM    6  C14 UNL     1       2.197   1.000  -0.932  1.00  0.00     0.176 C 
HETATM    7  N4  UNL     1       2.122   0.020  -1.971  1.00  0.00    -0.365 N 
ATOM      8  H4  UNL     1       2.972  -0.387  -2.360  1.00  0.00     0.161 HD
HETATM    9  C22 UNL     1       0.849  -0.377  -2.452  1.00  0.00     0.100 C 
HETATM   10  N5  UNL     1       0.680  -0.630  -3.731  1.00  0.00    -0.387 N 
ATOM     11  H51 UNL     1       1.476  -0.536  -4.362  1.00  0.00     0.157 HD
ATOM     12  H52 UNL     1      -0.236  -0.916  -4.077  1.00  0.00     0.157 HD
ENDROOT
BRANCH   1  13
HETATM   13  C9  UNL     1      -1.590  -0.050  -2.176  1.00  0.00     0.040 C 
BRANCH  13  14
HETATM   14  C8  UNL     1      -2.721  -0.021  -1.201  1.00  0.00     0.015 C 
BRANCH  14  15
HETATM   15  C7  UNL     1      -4.017   0.439  -1.851  1.00  0.00     0.094 C 
BRANCH  15  16
HETATM   16  C6  UNL     1      -5.037   0.425  -0.801  1.00  0.00    -0.106 C 
HETATM   17  C5  UNL     1      -5.866   0.422   0.081  1.00  0.00    -0.098 C 
BRANCH  17  18
HETATM   18  C2  UNL     1      -6.869   0.443   1.152  1.00  0.00     0.013 C 
HETATM   19  C1  UNL     1      -6.245   1.025   2.426  1.00  0.00     0.028 C 
HETATM   20  C3  UNL     1      -7.392  -0.946   1.415  1.00  0.00     0.028 C 
HETATM   21  C4  UNL     1      -8.065   1.290   0.737  1.00  0.00     0.028 C 
ENDBRANCH  17  18
ENDBRANCH  15  16
ENDBRANCH  14  15
ENDBRANCH  13  14
ENDBRANCH   1  13
BRANCH   1  22
HETATM   22  C11 UNL     1      -0.450  -1.929  -1.019  1.00  0.00     0.138 C 
BRANCH  22  23
HETATM   23  C12 UNL     1      -0.768  -2.932  -2.029  1.00  0.00     0.234 C 
HETATM   24  N1  UNL     1      -2.056  -3.446  -2.310  1.00  0.00    -0.062 NA
HETATM   25  O1  UNL     1       0.179  -3.411  -2.743  1.00  0.00    -0.277 OA
ENDBRANCH  22  23
ENDBRANCH   1  22
BRANCH   6  26
HETATM   26  C15 UNL     1       3.107   0.608   0.206  1.00  0.00     0.054 C 
BRANCH  26  27
HETATM   27  C16 UNL     1       4.491   0.272  -0.223  1.00  0.00     0.119 C 
BRANCH  27  28
HETATM   28  N3  UNL     1       5.278  -0.086   0.915  1.00  0.00    -0.412 N 
HETATM   29  C17 UNL     1       6.622  -0.443   0.620  1.00  0.00     0.117 C 
HETATM   30  C18 UNL     1       7.563   0.672   1.007  1.00  0.00     0.019 C 
HETATM   31  C19 UNL     1       7.537   0.933   2.497  1.00  0.00     0.003 C 
HETATM   32  C20 UNL     1       6.181   0.627   3.089  1.00  0.00     0.019 C 
HETATM   33  C21 UNL     1       5.078   0.721   2.065  1.00  0.00     0.117 C 
ENDBRANCH  27  28
ENDBRANCH  26  27
ENDBRANCH   6  26
TORSDOF 10
