REMARK  10 active torsions:
REMARK  status: ('A' for Active; 'I' for Inactive)
REMARK    1  A    between atoms: C2_2  and  C3_3 
REMARK    2  A    between atoms: C3_3  and  N1_4 
REMARK       I    between atoms: N1_4  and  C4_6 
REMARK       I    between atoms: C4_6  and  N2_8 
REMARK    3  A    between atoms: C8_17  and  N5_18 
REMARK    4  A    between atoms: N5_18  and  C9_20 
REMARK    5  A    between atoms: C9_20  and  C10_21 
REMARK    6  A    between atoms: C10_21  and  C11_22 
REMARK    7  A    between atoms: C11_22  and  N6_23 
REMARK    8  A    between atoms: N6_23  and  C13_25 
REMARK    9  A    between atoms: C13_25  and  C14_26 
REMARK   10  A    between atoms: C14_26  and  C15_27 
ROOT
HETATM    1  N1  UNL     1       7.108  -0.446   0.179  1.00  0.00    -0.343 N 
ATOM      2  H1  UNL     1       7.218  -0.062   1.117  1.00  0.00     0.164 HD
HETATM    3  C4  UNL     1       6.651   0.378  -0.866  1.00  0.00     0.321 C 
HETATM    4  O1  UNL     1       6.509  -0.125  -2.049  1.00  0.00    -0.247 OA
HETATM    5  N2  UNL     1       6.354   1.727  -0.645  1.00  0.00    -0.293 N 
ATOM      6  H2  UNL     1       7.136   2.375  -0.739  1.00  0.00     0.172 HD
HETATM    7  C5  UNL     1       5.235   2.250  -0.342  1.00  0.00     0.138 A 
HETATM    8  N3  UNL     1       5.047   3.598  -0.148  1.00  0.00    -0.284 N 
ATOM      9  H3  UNL     1       5.778   4.305  -0.229  1.00  0.00     0.188 HD
HETATM   10  N4  UNL     1       3.802   3.846   0.155  1.00  0.00    -0.298 N 
ATOM     11  H4  UNL     1       3.414   4.770   0.345  1.00  0.00     0.187 HD
HETATM   12  C6  UNL     1       3.111   2.692   0.177  1.00  0.00     0.067 A 
HETATM   13  C7  UNL     1       1.790   2.377   0.441  1.00  0.00     0.080 A 
HETATM   14  C8  UNL     1       1.323   1.056   0.405  1.00  0.00     0.102 A 
HETATM   15  N7  UNL     1       2.228   0.112   0.098  1.00  0.00    -0.351 N 
ATOM     16  H7  UNL     1       1.921  -0.860   0.063  1.00  0.00     0.166 HD
HETATM   17  C19 UNL     1       3.519   0.383  -0.165  1.00  0.00     0.107 A 
HETATM   18  C20 UNL     1       3.999   1.676  -0.134  1.00  0.00     0.053 A 
ENDROOT
BRANCH  14  19
HETATM   19  N5  UNL     1       0.083   0.823   0.663  1.00  0.00    -0.376 N 
ATOM     20  H5  UNL     1      -0.550   1.590   0.888  1.00  0.00     0.161 HD
BRANCH  19  21
HETATM   21  C9  UNL     1      -0.401  -0.538   0.630  1.00  0.00     0.123 C 
BRANCH  21  22
HETATM   22  C10 UNL     1      -1.854  -0.617   1.062  1.00  0.00     0.050 C 
BRANCH  22  23
HETATM   23  C11 UNL     1      -2.761   0.151   0.153  1.00  0.00     0.273 C 
BRANCH  23  24
HETATM   24  N6  UNL     1      -4.138   0.154   0.555  1.00  0.00     0.084 N 
HETATM   25  C12 UNL     1      -4.319   0.911   1.731  1.00  0.00     0.309 C 
BRANCH  24  26
HETATM   26  C13 UNL     1      -4.994   0.399  -0.554  1.00  0.00     0.274 C 
BRANCH  26  27
HETATM   27  C14 UNL     1      -6.435   0.587  -0.218  1.00  0.00     0.062 C 
BRANCH  27  28
HETATM   28  C15 UNL     1      -7.128  -0.510   0.487  1.00  0.00     0.123 C 
HETATM   29  C16 UNL     1      -7.198  -1.829  -0.167  1.00  0.00     0.034 C 
HETATM   30  C17 UNL     1      -8.473  -1.882  -0.928  1.00  0.00     0.029 C 
HETATM   31  C18 UNL     1      -9.103  -0.529  -0.576  1.00  0.00     0.168 C 
HETATM   32  O2  UNL     1      -8.488  -0.132   0.594  1.00  0.00    -0.386 OA
ENDBRANCH  27  28
ENDBRANCH  26  27
ENDBRANCH  24  26
ENDBRANCH  23  24
ENDBRANCH  22  23
ENDBRANCH  21  22
ENDBRANCH  19  21
ENDBRANCH  14  19
BRANCH   1  33
HETATM   33  C3  UNL     1       7.423  -1.841  -0.073  1.00  0.00     0.124 C 
BRANCH  33  34
HETATM   34  C2  UNL     1       8.536  -2.015  -1.078  1.00  0.00     0.015 C 
HETATM   35  C1  UNL     1       9.790  -1.316  -0.538  1.00  0.00     0.006 C 
ENDBRANCH  33  34
ENDBRANCH   1  33
TORSDOF 10
