REMARK  12 active torsions:
REMARK  status: ('A' for Active; 'I' for Inactive)
REMARK       I    between atoms: C1_2  and  N1_3 
REMARK       I    between atoms: C1_2  and  N3_11 
REMARK    1  A    between atoms: N1_3  and  C2_5 
REMARK    2  A    between atoms: N3_11  and  C5_13 
REMARK    3  A    between atoms: C5_13  and  C6_14 
REMARK    4  A    between atoms: C6_14  and  C7_15 
REMARK    5  A    between atoms: C7_15  and  C8_16 
REMARK    6  A    between atoms: C8_16  and  N4_17 
REMARK    7  A    between atoms: N4_17  and  C9_19 
REMARK    8  A    between atoms: C9_19  and  N5_21 
REMARK    9  A    between atoms: N5_21  and  C10_23 
REMARK   10  A    between atoms: C10_23  and  C11_24 
REMARK   11  A    between atoms: C11_24  and  C12_25 
REMARK   12  A    between atoms: C12_25  and  N6_26 
ROOT
HETATM    1  C8  UNL     1       1.781  -1.653  -1.591  1.00  0.00     0.122 C 
ENDROOT
BRANCH   1   2
HETATM    2  C7  UNL     1       2.824  -1.564  -0.508  1.00  0.00     0.021 C 
BRANCH   2   3
HETATM    3  C6  UNL     1       2.876  -0.147  -0.009  1.00  0.00     0.021 C 
BRANCH   3   4
HETATM    4  C5  UNL     1       3.915  -0.046   1.075  1.00  0.00     0.124 C 
BRANCH   4   5
HETATM    5  N3  UNL     1       5.222  -0.406   0.639  1.00  0.00    -0.343 N 
HETATM    6  C1  UNL     1       5.931   0.261  -0.389  1.00  0.00     0.322 C 
HETATM    7  O1  UNL     1       5.402   1.233  -0.964  1.00  0.00    -0.247 OA
HETATM    8  N1  UNL     1       7.233  -0.136  -0.793  1.00  0.00    -0.289 N 
ATOM      9  H1  UNL     1       7.398  -0.657  -1.654  1.00  0.00     0.172 HD
ATOM     10  H3  UNL     1       5.677  -1.196   1.097  1.00  0.00     0.164 HD
BRANCH   8  11
HETATM   11  C2  UNL     1       8.214   0.210   0.013  1.00  0.00     0.152 A 
HETATM   12  N2  UNL     1       9.511  -0.050  -0.156  1.00  0.00    -0.346 N 
HETATM   13  C3  UNL     1      10.353   0.369   0.744  1.00  0.00     0.097 A 
ATOM     14  H2  UNL     1       9.836  -0.566  -0.973  1.00  0.00     0.167 HD
HETATM   15  C4  UNL     1       9.854   1.057   1.818  1.00  0.00     0.070 A 
HETATM   16  S1  UNL     1       8.179   1.071   1.483  1.00  0.00    -0.064 SA
ENDBRANCH   8  11
ENDBRANCH   4   5
ENDBRANCH   3   4
ENDBRANCH   2   3
ENDBRANCH   1   2
BRANCH   1  17
HETATM   17  N4  UNL     1       0.492  -1.284  -1.050  1.00  0.00    -0.367 N 
ATOM     18  H4  UNL     1       0.393  -1.023  -0.069  1.00  0.00     0.161 HD
BRANCH  17  19
HETATM   19  C9  UNL     1      -0.632  -1.294  -1.917  1.00  0.00     0.167 C 
HETATM   20  S2  UNL     1      -0.476  -1.710  -3.487  1.00  0.00    -0.041 SA
BRANCH  19  21
HETATM   21  N5  UNL     1      -1.914  -0.942  -1.435  1.00  0.00    -0.367 N 
ATOM     22  H5  UNL     1      -2.719  -0.951  -2.062  1.00  0.00     0.161 HD
BRANCH  21  23
HETATM   23  C10 UNL     1      -2.075  -0.572  -0.055  1.00  0.00     0.123 C 
BRANCH  23  24
HETATM   24  C11 UNL     1      -3.501  -0.224   0.309  1.00  0.00     0.039 C 
BRANCH  24  25
HETATM   25  C12 UNL     1      -3.958   0.932  -0.518  1.00  0.00     0.123 C 
BRANCH  25  26
HETATM   26  N6  UNL     1      -5.316   1.297  -0.201  1.00  0.00    -0.393 N 
HETATM   27  C13 UNL     1      -5.536   1.851   1.066  1.00  0.00     0.058 C 
HETATM   28  C14 UNL     1      -6.863   1.546   1.710  1.00  0.00     0.044 C 
HETATM   29  C15 UNL     1      -7.918   1.775   0.618  1.00  0.00     0.007 C 
HETATM   30  C16 UNL     1      -7.701   0.710  -0.403  1.00  0.00     0.020 C 
HETATM   31  C17 UNL     1      -6.292   0.429  -0.753  1.00  0.00     0.122 C 
ENDBRANCH  25  26
ENDBRANCH  24  25
ENDBRANCH  23  24
ENDBRANCH  21  23
ENDBRANCH  19  21
ENDBRANCH  17  19
ENDBRANCH   1  17
TORSDOF 12
