REMARK  10 active torsions:
REMARK  status: ('A' for Active; 'I' for Inactive)
REMARK    1  A    between atoms: C2_2  and  N1_3 
REMARK       I    between atoms: N1_3  and  C3_5 
REMARK       I    between atoms: C3_5  and  N2_7 
REMARK    2  A    between atoms: N2_7  and  C4_9 
REMARK    3  A    between atoms: C4_9  and  C5_10 
REMARK    4  A    between atoms: C5_10  and  N3_11 
REMARK    5  A    between atoms: C8_17  and  C9_18 
REMARK    6  A    between atoms: C9_18  and  N4_19 
REMARK    7  A    between atoms: N4_19  and  S1_21 
REMARK    8  A    between atoms: S1_21  and  C10_24 
REMARK    9  A    between atoms: C10_24  and  C11_25 
REMARK   10  A    between atoms: C11_25  and  C12_26 
ROOT
HETATM    1  C5  UNL     1       2.431   0.267   0.840  1.00  0.00     0.139 C 
HETATM    2  C6  UNL     1       2.587  -1.248   1.034  1.00  0.00     0.041 C 
HETATM    3  C7  UNL     1       1.156  -1.778   1.196  1.00  0.00     0.009 C 
HETATM    4  C8  UNL     1       0.363  -1.545  -0.070  1.00  0.00     0.004 C 
HETATM    5  C18 UNL     1       0.362  -0.090  -0.408  1.00  0.00     0.009 C 
HETATM    6  C19 UNL     1       1.784   0.468  -0.500  1.00  0.00     0.041 C 
ENDROOT
BRANCH   4   7
HETATM    7  C9  UNL     1      -1.053  -2.005   0.182  1.00  0.00     0.136 C 
BRANCH   7   8
HETATM    8  N4  UNL     1      -1.698  -1.324   1.237  1.00  0.00    -0.319 N 
ATOM      9  H4  UNL     1      -1.217  -0.592   1.759  1.00  0.00     0.172 HD
BRANCH   8  10
HETATM   10  S1  UNL     1      -3.281  -1.753   1.609  1.00  0.00     0.227 S 
HETATM   11  O2  UNL     1      -3.646  -1.130   2.938  1.00  0.00    -0.206 OA
HETATM   12  O3  UNL     1      -3.256  -3.255   1.923  1.00  0.00    -0.206 OA
BRANCH  10  13
HETATM   13  C10 UNL     1      -4.479  -1.529   0.381  1.00  0.00     0.172 C 
BRANCH  13  14
HETATM   14  C11 UNL     1      -4.738  -0.183  -0.147  1.00  0.00    -0.026 C 
HETATM   15  C14 UNL     1      -3.612   0.529  -0.823  1.00  0.00     0.010 C 
HETATM   16  C15 UNL     1      -4.110   1.981  -0.949  1.00  0.00     0.001 C 
HETATM   17  C16 UNL     1      -5.064   2.177   0.214  1.00  0.00     0.001 C 
HETATM   18  C17 UNL     1      -5.185   0.825   0.895  1.00  0.00     0.010 C 
BRANCH  14  19
HETATM   19  C12 UNL     1      -5.836  -0.332  -1.212  1.00  0.00     0.006 C 
HETATM   20  C13 UNL     1      -7.103  -0.901  -0.669  1.00  0.00     0.006 C 
ENDBRANCH  14  19
ENDBRANCH  13  14
ENDBRANCH  10  13
ENDBRANCH   8  10
ENDBRANCH   7   8
ENDBRANCH   4   7
BRANCH   1  21
HETATM   21  C4  UNL     1       3.757   0.965   0.961  1.00  0.00     0.163 C 
BRANCH  21  22
HETATM   22  N2  UNL     1       4.733   0.513   0.031  1.00  0.00    -0.341 N 
HETATM   23  C3  UNL     1       6.031   1.097   0.045  1.00  0.00     0.316 C 
HETATM   24  N1  UNL     1       7.054   0.701  -0.849  1.00  0.00    -0.344 N 
HETATM   25  O1  UNL     1       6.319   2.017   0.884  1.00  0.00    -0.247 OA
ATOM     26  H1  UNL     1       6.872  -0.029  -1.537  1.00  0.00     0.164 HD
ATOM     27  H2  UNL     1       4.505  -0.222  -0.639  1.00  0.00     0.164 HD
BRANCH  24  28
HETATM   28  C2  UNL     1       8.348   1.324  -0.791  1.00  0.00     0.120 C 
HETATM   29  C1  UNL     1       9.262   0.735  -1.839  1.00  0.00     0.026 C 
ENDBRANCH  24  28
ENDBRANCH  21  22
ENDBRANCH   1  21
BRANCH   1  30
HETATM   30  N3  UNL     1       1.548   0.831   1.846  1.00  0.00    -0.069 N 
ATOM     31  H33 UNL     1       1.937   0.785   2.788  1.00  0.00     0.275 HD
ATOM     32  H32 UNL     1       1.470   1.846   1.783  1.00  0.00     0.275 HD
ATOM     33  H31 UNL     1       0.648   0.357   1.764  1.00  0.00     0.275 HD
ENDBRANCH   1  30
TORSDOF 10
