REMARK  4 active torsions:
REMARK  status: ('A' for Active; 'I' for Inactive)
REMARK    1  A    between atoms: N1_1  and  N2_4 
REMARK    2  A    between atoms: N2_4  and  C1_5 
REMARK    3  A    between atoms: C1_5  and  C2_6 
REMARK    4  A    between atoms: C2_6  and  C3_7 
ROOT
HETATM    1  C2  UNL     1       0.282  -0.911   0.155  1.00  0.00     0.096 C 
ENDROOT
BRANCH   1   2
HETATM    2  C1  UNL     1       1.694  -0.823  -0.236  1.00  0.00     0.183 C 
BRANCH   2   3
HETATM    3  N2  UNL     1       2.393   0.193  -0.165  1.00  0.00    -0.350 NA
BRANCH   3   4
HETATM    4  N1  UNL     1       3.133   1.149  -0.014  1.00  0.00    -0.281 N 
ATOM      5  H12 UNL     1       3.475   0.535   0.725  1.00  0.00     0.191 HD
ATOM      6  H11 UNL     1       3.710   1.988   0.045  1.00  0.00     0.191 HD
ENDBRANCH   3   4
ENDBRANCH   2   3
ENDBRANCH   1   2
BRANCH   1   7
HETATM    7  C3  UNL     1      -0.380   0.425   0.321  1.00  0.00     0.217 A 
HETATM    8  C4  UNL     1      -1.845   0.329   0.727  1.00  0.00     0.266 A 
HETATM    9  N3  UNL     1      -1.406   0.854  -0.586  1.00  0.00    -0.067 N 
ATOM     10  H32 UNL     1      -1.579   1.727  -1.084  1.00  0.00     0.277 HD
ATOM     11  H31 UNL     1      -1.635   0.610  -1.549  1.00  0.00     0.277 HD
ENDBRANCH   1   7
TORSDOF 4
