REMARK  4 active torsions:
REMARK  status: ('A' for Active; 'I' for Inactive)
REMARK    1  A    between atoms: C2_2  and  C3_3 
REMARK    2  A    between atoms: C3_3  and  N1_4 
REMARK    3  A    between atoms: N1_4  and  N2_6 
REMARK    4  A    between atoms: N2_6  and  O1_8 
ROOT
HETATM    1  N1  UNL     1       1.348  -0.255   0.017  1.00  0.00    -0.314 N 
ATOM      2  H1  UNL     1       1.254  -0.179  -0.996  1.00  0.00     0.182 HD
ENDROOT
BRANCH   1   3
HETATM    3  C3  UNL     1       0.193  -0.374   0.859  1.00  0.00     0.167 C 
BRANCH   3   4
HETATM    4  C2  UNL     1      -1.077  -0.370   0.084  1.00  0.00    -0.016 C 
HETATM    5  C1  UNL     1      -1.980   0.576   0.314  1.00  0.00     0.008 C 
ENDBRANCH   3   4
ENDBRANCH   1   3
BRANCH   1   6
HETATM    6  N2  UNL     1       2.605  -0.247   0.626  1.00  0.00    -0.214 N 
ATOM      7  H2  UNL     1       3.011  -1.131   0.931  1.00  0.00     0.215 HD
BRANCH   6   8
HETATM    8  O1  UNL     1       3.246   0.807   0.808  1.00  0.00    -0.275 OA
ATOM      9  H1  UNL     1       4.101   0.812   1.222  1.00  0.00     0.246 HD
ENDBRANCH   6   8
ENDBRANCH   1   6
TORSDOF 4
