REMARK  3 active torsions:
REMARK  status: ('A' for Active; 'I' for Inactive)
REMARK    1  A    between atoms: O1_1  and  N1_3 
REMARK    2  A    between atoms: N1_3  and  C1_5 
REMARK    3  A    between atoms: C1_5  and  C2_6 
ROOT
HETATM    1  C2  UNL     1      -0.198  -0.152   0.666  1.00  0.00     0.230 A 
HETATM    2  C3  UNL     1      -1.573   0.221   0.140  1.00  0.00     0.267 A 
HETATM    3  N2  UNL     1      -1.111  -1.149   0.221  1.00  0.00    -0.066 N 
ATOM      4  H21 UNL     1      -1.494  -1.985   0.663  1.00  0.00     0.277 HD
ATOM      5  H22 UNL     1      -1.038  -1.898  -0.468  1.00  0.00     0.277 HD
ENDROOT
BRANCH   1   6
HETATM    6  C1  UNL     1       0.916   0.332  -0.250  1.00  0.00     0.180 C 
BRANCH   6   7
HETATM    7  N1  UNL     1       2.208  -0.011   0.230  1.00  0.00    -0.303 N 
ATOM      8  H1  UNL     1       2.349  -0.210   1.220  1.00  0.00     0.187 HD
BRANCH   7   9
HETATM    9  O1  UNL     1       3.127  -0.066  -0.528  1.00  0.00    -0.294 OA
ATOM     10  H1  UNL     1       3.991  -0.295  -0.207  1.00  0.00     0.244 HD
ENDBRANCH   7   9
ENDBRANCH   6   7
ENDBRANCH   1   6
TORSDOF 3
