REMARK  2 active torsions:
REMARK  status: ('A' for Active; 'I' for Inactive)
REMARK    1  A    between atoms: C1_4  and  N2_5 
REMARK    2  A    between atoms: N2_5  and  N3_7 
ROOT
HETATM    1  N2  UNL     1       0.576   0.110  -0.679  1.00  0.00    -0.315 N 
ATOM      2  H2  UNL     1       0.656   1.036  -1.099  1.00  0.00     0.181 HD
ENDROOT
BRANCH   1   3
HETATM    3  C1  UNL     1       1.743  -0.595  -0.306  1.00  0.00     0.185 C 
HETATM    4  N1  UNL     1       2.936  -0.103  -0.503  1.00  0.00    -0.395 N 
ATOM      5  H12 UNL     1       3.010   0.816  -0.939  1.00  0.00     0.156 HD
ATOM      6  H11 UNL     1       3.778  -0.612  -0.234  1.00  0.00     0.156 HD
ENDBRANCH   1   3
BRANCH   1   7
HETATM    7  N3  UNL     1      -0.668  -0.444  -0.479  1.00  0.00    -0.228 NA
HETATM    8  C2  UNL     1      -1.242  -0.207   0.863  1.00  0.00     0.130 A 
HETATM    9  C3  UNL     1      -1.854   0.331  -0.380  1.00  0.00     0.130 A 
ENDBRANCH   1   7
TORSDOF 2
