REMARK  2 active torsions:
REMARK  status: ('A' for Active; 'I' for Inactive)
REMARK    1  A    between atoms: C3_3  and  O1_4 
REMARK    2  A    between atoms: C5_9  and  O2_11 
ROOT
HETATM    1  C1  UNL     1      -1.513  -1.290  -0.104  1.00  0.00     0.016 C 
HETATM    2  C2  UNL     1      -0.523  -0.295   0.361  1.00  0.00     0.057 C 
HETATM    3  C3  UNL     1       0.861  -0.874   0.480  1.00  0.00     0.150 C 
HETATM    4  C4  UNL     1       1.762   0.203   1.014  1.00  0.00     0.152 C 
HETATM    5  S1  UNL     1       3.448  -0.158   0.447  1.00  0.00    -0.078 SA
HETATM    6  S2  UNL     1       1.132   1.659   0.083  1.00  0.00    -0.112 SA
HETATM    7  C5  UNL     1      -0.453   0.943  -0.472  1.00  0.00     0.109 C 
HETATM    8  C6  UNL     1      -1.616   1.839  -0.062  1.00  0.00     0.058 C 
ENDROOT
BRANCH   7   9
HETATM    9  O2  UNL     1      -0.510   0.751  -1.819  1.00  0.00    -0.379 OA
ATOM     10  H2  UNL     1      -0.465   1.538  -2.349  1.00  0.00     0.211 HD
ENDBRANCH   7   9
BRANCH   3  11
HETATM   11  O1  UNL     1       1.373  -1.367  -0.685  1.00  0.00    -0.393 OA
ATOM     12  H1  UNL     1       2.247  -1.732  -0.610  1.00  0.00     0.210 HD
ENDBRANCH   3  11
TORSDOF 2
