REMARK  1 active torsions:
REMARK  status: ('A' for Active; 'I' for Inactive)
REMARK    1  A    between atoms: O1_1  and  C1_3 
ROOT
HETATM    1  C1  UNL     1      -2.616   0.638   0.036  1.00  0.00     0.321 C 
HETATM    2  C2  UNL     1      -2.239  -0.635  -0.732  1.00  0.00     0.065 C 
HETATM    3  C3  UNL     1      -0.841  -0.878  -0.180  1.00  0.00     0.076 C 
HETATM    4  C4  UNL     1      -0.357   0.503   0.086  1.00  0.00     0.313 C 
HETATM    5  C5  UNL     1       0.254   0.655   1.482  1.00  0.00     0.240 C 
HETATM    6  O2  UNL     1       1.372  -0.165   1.324  1.00  0.00    -0.350 OA
HETATM    7  C6  UNL     1       1.834   0.008   0.046  1.00  0.00     0.229 A 
HETATM    8  C7  UNL     1       2.502  -1.119  -0.643  1.00  0.00     0.073 A 
HETATM    9  C8  UNL     1       3.274   0.099  -0.235  1.00  0.00     0.073 A 
HETATM   10  N1  UNL     1       0.843   0.720  -0.713  1.00  0.00    -0.006 N 
ATOM     11  H11 UNL     1       1.064   1.697  -0.906  1.00  0.00     0.284 HD
ATOM     12  H12 UNL     1       0.767   0.445  -1.692  1.00  0.00     0.284 HD
HETATM   13  N2  UNL     1      -1.395   1.433  -0.171  1.00  0.00    -0.012 N 
ATOM     14  H21 UNL     1      -1.346   2.288   0.383  1.00  0.00     0.283 HD
ATOM     15  H22 UNL     1      -1.337   1.894  -1.079  1.00  0.00     0.283 HD
ENDROOT
BRANCH   1  16
HETATM   16  O1  UNL     1      -2.752   0.284   1.381  1.00  0.00    -0.370 OA
ATOM     17  H1  UNL     1      -2.986   1.072   1.857  1.00  0.00     0.212 HD
ENDBRANCH   1  16
TORSDOF 1
