REMARK  3 active torsions:
REMARK  status: ('A' for Active; 'I' for Inactive)
REMARK    1  A    between atoms: N1_1  and  S1_4 
REMARK    2  A    between atoms: C6_10  and  O1_11 
REMARK    3  A    between atoms: C7_13  and  N2_14 
ROOT
HETATM    1  S1  UNL     1       2.504  -0.342  -0.124  1.00  0.00    -0.121 SA
HETATM    2  C1  UNL     1       1.757   0.149  -1.551  1.00  0.00     0.108 A 
HETATM    3  C2  UNL     1       0.769  -0.258  -0.498  1.00  0.00     0.056 A 
HETATM    4  C3  UNL     1       0.082  -1.585  -0.579  1.00  0.00     0.024 C 
HETATM    5  C4  UNL     1      -1.402  -1.504  -0.721  1.00  0.00     0.004 C 
HETATM    6  C5  UNL     1      -2.069  -0.559   0.217  1.00  0.00     0.034 C 
HETATM    7  C6  UNL     1      -1.084   0.285   1.015  1.00  0.00     0.150 C 
HETATM    8  C7  UNL     1      -0.088   0.842   0.032  1.00  0.00     0.232 C 
ENDROOT
BRANCH   1   9
HETATM    9  N1  UNL     1       3.145   0.558   0.955  1.00  0.00    -0.382 NA
ATOM     10  H12 UNL     1       4.141   0.510   1.170  1.00  0.00     0.163 HD
ATOM     11  H11 UNL     1       3.597   0.261   1.819  1.00  0.00     0.163 HD
ENDBRANCH   1   9
BRANCH   8  12
HETATM   12  N2  UNL     1       0.719   1.911   0.606  1.00  0.00    -0.071 N 
ATOM     13  H23 UNL     1       1.357   1.557   1.318  1.00  0.00     0.274 HD
ATOM     14  H22 UNL     1       1.407   2.260  -0.061  1.00  0.00     0.274 HD
ATOM     15  H21 UNL     1       0.133   2.663   0.968  1.00  0.00     0.274 HD
ENDBRANCH   8  12
BRANCH   7  16
HETATM   16  O1  UNL     1      -1.815   1.309   1.615  1.00  0.00    -0.393 OA
ATOM     17  H1  UNL     1      -1.201   1.835   2.113  1.00  0.00     0.210 HD
ENDBRANCH   7  16
TORSDOF 3
