REMARK  1 active torsions:
REMARK  status: ('A' for Active; 'I' for Inactive)
REMARK    1  A    between atoms: C2_2  and  O1_3 
ROOT
HETATM    1  C1  UNL     1      -1.909   1.775  -0.072  1.00  0.00     0.104 C 
HETATM    2  C2  UNL     1      -1.551   0.364   0.401  1.00  0.00     0.298 C 
HETATM    3  N1  UNL     1      -2.097  -0.549  -0.561  1.00  0.00    -0.024 N 
ATOM      4  H11 UNL     1      -2.268  -0.111  -1.466  1.00  0.00     0.283 HD
ATOM      5  H12 UNL     1      -3.060  -0.812  -0.351  1.00  0.00     0.283 HD
HETATM    6  C3  UNL     1      -1.214  -1.692  -0.652  1.00  0.00     0.243 C 
HETATM    7  C4  UNL     1       0.056  -1.156  -1.330  1.00  0.00     0.088 C 
HETATM    8  C5  UNL     1       0.679  -0.214  -0.331  1.00  0.00     0.135 C 
HETATM    9  C6  UNL     1       1.920  -0.933   0.212  1.00  0.00     0.063 C 
HETATM   10  C7  UNL     1       2.876   0.182   0.510  1.00  0.00     0.031 C 
HETATM   11  C8  UNL     1       2.031   1.410   0.146  1.00  0.00     0.171 C 
HETATM   12  O2  UNL     1       1.259   0.898  -0.923  1.00  0.00    -0.361 OA
HETATM   13  N2  UNL     1      -0.188   0.199   0.707  1.00  0.00    -0.338 N 
ATOM     14  H2  UNL     1       0.164   0.372   1.649  1.00  0.00     0.161 HD
ENDROOT
BRANCH   2  15
HETATM   15  O1  UNL     1      -2.293   0.181   1.592  1.00  0.00    -0.349 OA
ATOM     16  H1  UNL     1      -2.071  -0.695   1.886  1.00  0.00     0.214 HD
ENDBRANCH   2  15
TORSDOF 1
