REMARK  2 active torsions:
REMARK  status: ('A' for Active; 'I' for Inactive)
REMARK    1  A    between atoms: O1_1  and  C1_3 
REMARK    2  A    between atoms: C7_11  and  O3_12 
ROOT
HETATM    1  C1  UNL     1       1.330  -0.469  -0.226  1.00  0.00     0.177 C 
HETATM    2  C2  UNL     1       0.161  -0.913  -1.087  1.00  0.00     0.153 C 
HETATM    3  C3  UNL     1      -0.922  -1.558  -0.248  1.00  0.00     0.037 C 
HETATM    4  C4  UNL     1      -1.902  -0.424  -0.098  1.00  0.00     0.036 C 
HETATM    5  C5  UNL     1      -1.142   0.751  -0.600  1.00  0.00     0.139 C 
HETATM    6  O2  UNL     1      -0.445   0.205  -1.697  1.00  0.00    -0.377 OA
HETATM    7  C6  UNL     1      -0.185   1.359   0.349  1.00  0.00     0.119 C 
HETATM    8  S1  UNL     1      -0.455   1.006   2.066  1.00  0.00    -0.087 SA
HETATM    9  C7  UNL     1       1.256   1.020  -0.059  1.00  0.00     0.166 C 
ENDROOT
BRANCH   1  10
HETATM   10  O1  UNL     1       1.278  -1.046   1.049  1.00  0.00    -0.390 OA
ATOM     11  H1  UNL     1       2.009  -0.768   1.588  1.00  0.00     0.210 HD
ENDBRANCH   1  10
BRANCH   9  12
HETATM   12  O3  UNL     1       2.173   1.517   0.845  1.00  0.00    -0.392 OA
ATOM     13  H3  UNL     1       2.126   2.460   0.951  1.00  0.00     0.210 HD
ENDBRANCH   9  12
TORSDOF 2
