REMARK  3 active torsions:
REMARK  status: ('A' for Active; 'I' for Inactive)
REMARK    1  A    between atoms: C4_4  and  C5_5 
REMARK    2  A    between atoms: C5_5  and  N1_6 
REMARK    3  A    between atoms: C5_5  and  N2_10 
ROOT
HETATM    1  C1  UNL     1       4.472   0.175   0.403  1.00  0.00     0.017 C 
HETATM    2  C2  UNL     1       3.303  -0.126   0.446  1.00  0.00    -0.090 C 
HETATM    3  C3  UNL     1       1.924  -0.497   0.548  1.00  0.00     0.063 C 
HETATM    4  C4  UNL     1       0.967   0.423   0.644  1.00  0.00     0.046 C 
ENDROOT
BRANCH   4   5
HETATM    5  C5  UNL     1      -0.450   0.060   0.759  1.00  0.00     0.441 C 
BRANCH   5   6
HETATM    6  N1  UNL     1      -0.591  -1.298   0.250  1.00  0.00    -0.044 N 
ATOM      7  H13 UNL     1      -0.226  -1.410  -0.696  1.00  0.00     0.277 HD
ATOM      8  H12 UNL     1       0.030  -1.963   0.710  1.00  0.00     0.277 HD
ATOM      9  H11 UNL     1      -1.576  -1.550   0.330  1.00  0.00     0.277 HD
ENDBRANCH   5   6
BRANCH   5  10
HETATM   10  N2  UNL     1      -1.268   0.903  -0.023  1.00  0.00     0.126 N 
HETATM   11  C6  UNL     1      -2.127   0.315  -1.062  1.00  0.00     0.305 A 
HETATM   12  C7  UNL     1      -2.691   0.930   0.140  1.00  0.00     0.305 A 
ENDBRANCH   5  10
ENDBRANCH   4   5
TORSDOF 3
