REMARK  2 active torsions:
REMARK  status: ('A' for Active; 'I' for Inactive)
REMARK    1  A    between atoms: C2_3  and  C3_4 
REMARK    2  A    between atoms: C3_4  and  N2_5 
ROOT
HETATM    1  N1  UNL     1       1.978   1.879   1.479  1.00  0.00    -0.197 NA
HETATM    2  C1  UNL     1       1.959   0.817   1.004  1.00  0.00     0.060 C 
HETATM    3  C2  UNL     1       1.950  -0.520   0.422  1.00  0.00     0.144 C 
ENDROOT
BRANCH   3   4
HETATM    4  C3  UNL     1       1.090  -0.524  -0.848  1.00  0.00     0.143 C 
BRANCH   4   5
HETATM    5  N2  UNL     1      -0.250  -0.127  -0.451  1.00  0.00    -0.351 N 
HETATM    6  C4  UNL     1      -1.224  -0.990  -0.059  1.00  0.00     0.108 A 
HETATM    7  C5  UNL     1      -2.367  -0.281   0.247  1.00  0.00     0.106 A 
HETATM    8  N3  UNL     1      -2.073   1.014   0.036  1.00  0.00    -0.361 N 
HETATM    9  C6  UNL     1      -0.792   1.089  -0.385  1.00  0.00     0.182 A 
ATOM     10  H3  UNL     1      -2.707   1.802   0.170  1.00  0.00     0.166 HD
ENDBRANCH   4   5
ENDBRANCH   3   4
TORSDOF 2
