REMARK  2 active torsions:
REMARK  status: ('A' for Active; 'I' for Inactive)
REMARK    1  A    between atoms: C2_2  and  N1_3 
REMARK    2  A    between atoms: N1_3  and  N2_5 
ROOT
HETATM    1  N2  UNL     1       0.193  -0.923   1.029  1.00  0.00    -0.245 N 
ATOM      2  H2  UNL     1       0.081  -1.902   1.293  1.00  0.00     0.208 HD
HETATM    3  N3  UNL     1      -0.819  -0.328   0.606  1.00  0.00    -0.307 N 
HETATM    4  C3  UNL     1      -0.906   1.036   0.179  1.00  0.00     0.171 C 
HETATM    5  C4  UNL     1      -1.878   0.964  -0.939  1.00  0.00    -0.008 C 
HETATM    6  C5  UNL     1      -2.589  -0.143  -0.779  1.00  0.00    -0.008 C 
HETATM    7  C6  UNL     1      -2.138  -0.878   0.450  1.00  0.00     0.171 C 
ENDROOT
BRANCH   1   8
HETATM    8  N1  UNL     1       1.452  -0.372   1.171  1.00  0.00    -0.298 N 
ATOM      9  H1  UNL     1       1.722  -0.021   2.090  1.00  0.00     0.187 HD
BRANCH   8  10
HETATM   10  C2  UNL     1       2.388  -0.266   0.117  1.00  0.00     0.098 C 
HETATM   11  C1  UNL     1       3.679  -0.227   0.354  1.00  0.00     0.031 C 
ENDBRANCH   8  10
ENDBRANCH   1   8
TORSDOF 2
