REMARK  13 active torsions:
REMARK  status: ('A' for Active; 'I' for Inactive)
REMARK    1  A    between atoms: N1_1  and  C1_4 
REMARK    2  A    between atoms: C2_7  and  N3_8 
REMARK    3  A    between atoms: N4_11  and  C3_12 
REMARK    4  A    between atoms: C4_14  and  C5_15 
REMARK    5  A    between atoms: C5_15  and  N5_16 
REMARK    6  A    between atoms: N5_16  and  C6_19 
REMARK    7  A    between atoms: C6_19  and  C7_20 
REMARK    8  A    between atoms: C8_21  and  C9_22 
REMARK    9  A    between atoms: C10_23  and  C11_24 
REMARK   10  A    between atoms: C11_24  and  C12_25 
REMARK   11  A    between atoms: C12_25  and  N6_26 
REMARK   12  A    between atoms: C13_30  and  O2_31 
REMARK   13  A    between atoms: C14_33  and  O3_34 
ROOT
HETATM    1  C3  UNL     1      -2.425   0.805  -0.038  1.00  0.00     0.282 C 
HETATM    2  O1  UNL     1      -1.624  -0.208  -0.532  1.00  0.00    -0.353 OA
HETATM    3  C4  UNL     1      -0.354  -0.001  -0.002  1.00  0.00     0.181 C 
HETATM    4  C13 UNL     1      -0.626   0.422   1.419  1.00  0.00     0.181 C 
HETATM    5  C14 UNL     1      -1.864   1.264   1.254  1.00  0.00     0.199 C 
ENDROOT
BRANCH   1   6
HETATM    6  N4  UNL     1      -3.819   0.367   0.066  1.00  0.00    -0.102 N 
HETATM    7  C2  UNL     1      -4.802   1.239  -0.189  1.00  0.00     0.699 A 
HETATM    8  N2  UNL     1      -6.072   0.813  -0.088  1.00  0.00    -0.022 N 
HETATM    9  C1  UNL     1      -6.343  -0.461   0.263  1.00  0.00     0.694 A 
ATOM     10  H2  UNL     1      -6.838   1.459  -0.278  1.00  0.00     0.203 HD
HETATM   11  N7  UNL     1      -5.325  -1.316   0.513  1.00  0.00    -0.140 N 
HETATM   12  C15 UNL     1      -4.051  -0.909   0.417  1.00  0.00     0.357 A 
ATOM     13  H7  UNL     1      -5.529  -2.280   0.777  1.00  0.00     0.189 HD
HETATM   14  O4  UNL     1      -3.079  -1.701   0.650  1.00  0.00    -0.245 OA
BRANCH   7  15
HETATM   15  N3  UNL     1      -4.516   2.465  -0.528  1.00  0.00    -0.234 N 
ATOM     16  H32 UNL     1      -5.265   3.129  -0.722  1.00  0.00     0.174 HD
ATOM     17  H31 UNL     1      -3.552   2.788  -0.605  1.00  0.00     0.174 HD
ENDBRANCH   7  15
BRANCH   9  18
HETATM   18  N1  UNL     1      -7.562  -0.862   0.358  1.00  0.00    -0.234 N 
ATOM     19  H12 UNL     1      -8.330  -0.217   0.169  1.00  0.00     0.174 HD
ATOM     20  H11 UNL     1      -7.767  -1.825   0.623  1.00  0.00     0.174 HD
ENDBRANCH   9  18
ENDBRANCH   1   6
BRANCH   5  21
HETATM   21  O3  UNL     1      -2.695   1.004   2.343  1.00  0.00    -0.388 OA
ATOM     22  H3  UNL     1      -2.335   1.298   3.172  1.00  0.00     0.210 HD
ENDBRANCH   5  21
BRANCH   3  23
HETATM   23  C5  UNL     1       0.487  -1.261  -0.060  1.00  0.00     0.267 C 
BRANCH  23  24
HETATM   24  N5  UNL     1       0.601  -1.645  -1.429  1.00  0.00    -0.070 N 
ATOM     25  H52 UNL     1      -0.324  -1.784  -1.836  1.00  0.00     0.277 HD
ATOM     26  H51 UNL     1       0.924  -0.858  -1.992  1.00  0.00     0.277 HD
BRANCH  24  27
HETATM   27  C6  UNL     1       1.424  -2.793  -1.662  1.00  0.00     0.259 C 
BRANCH  27  28
HETATM   28  C7  UNL     1       2.848  -2.494  -1.516  1.00  0.00     0.000 C 
HETATM   29  C8  UNL     1       3.316  -1.288  -1.291  1.00  0.00    -0.003 C 
BRANCH  29  30
HETATM   30  C9  UNL     1       4.756  -1.137  -1.164  1.00  0.00    -0.004 C 
HETATM   31  C10 UNL     1       5.346   0.010  -0.940  1.00  0.00    -0.025 C 
BRANCH  31  32
HETATM   32  C11 UNL     1       4.639   1.287  -0.789  1.00  0.00     0.054 C 
BRANCH  32  33
HETATM   33  C12 UNL     1       4.967   1.823   0.598  1.00  0.00     0.233 C 
BRANCH  33  34
HETATM   34  N6  UNL     1       6.402   1.997   0.660  1.00  0.00    -0.079 N 
ATOM     35  H63 UNL     1       6.918   1.149   0.427  1.00  0.00     0.274 HD
ATOM     36  H62 UNL     1       6.766   2.583  -0.091  1.00  0.00     0.274 HD
ATOM     37  H61 UNL     1       6.622   2.356   1.589  1.00  0.00     0.274 HD
ENDBRANCH  33  34
ENDBRANCH  32  33
ENDBRANCH  31  32
ENDBRANCH  29  30
ENDBRANCH  27  28
ENDBRANCH  24  27
ENDBRANCH  23  24
ENDBRANCH   3  23
BRANCH   4  38
HETATM   38  O2  UNL     1       0.433   1.146   1.961  1.00  0.00    -0.390 OA
ATOM     39  H2  UNL     1       0.262   1.413   2.857  1.00  0.00     0.210 HD
ENDBRANCH   4  38
TORSDOF 13
