REMARK  12 active torsions:
REMARK  status: ('A' for Active; 'I' for Inactive)
REMARK    1  A    between atoms: N2_3  and  C2_4 
REMARK    2  A    between atoms: N2_3  and  C11_28 
REMARK    3  A    between atoms: C2_4  and  C3_5 
REMARK    4  A    between atoms: C3_5  and  C4_6 
REMARK    5  A    between atoms: C4_6  and  O1_7 
REMARK    6  A    between atoms: C4_6  and  N3_9 
REMARK    7  A    between atoms: N3_9  and  C5_12 
REMARK    8  A    between atoms: C5_12  and  C6_13 
REMARK    9  A    between atoms: C6_13  and  C7_14 
REMARK   10  A    between atoms: C9_18  and  N5_19 
REMARK   11  A    between atoms: C10_24  and  N7_25 
REMARK   12  A    between atoms: C11_28  and  C12_29 
ROOT
HETATM    1  N1  UNL     1       3.564   0.769  -1.851  1.00  0.00    -0.172 NA
HETATM    2  C1  UNL     1       3.207   0.139  -0.918  1.00  0.00     0.179 C 
HETATM    3  N2  UNL     1       2.738  -0.617   0.184  1.00  0.00    -0.318 N 
ENDROOT
BRANCH   3   4
HETATM    4  C2  UNL     1       1.990  -1.796  -0.141  1.00  0.00     0.139 C 
BRANCH   4   5
HETATM    5  C3  UNL     1       0.517  -1.709   0.172  1.00  0.00     0.081 C 
BRANCH   5   6
HETATM    6  C4  UNL     1      -0.168  -0.598  -0.554  1.00  0.00     0.320 C 
BRANCH   6   7
HETATM    7  O1  UNL     1      -0.069  -0.725  -1.940  1.00  0.00    -0.370 OA
ATOM      8  H1  UNL     1      -0.505  -0.018  -2.402  1.00  0.00     0.212 HD
ENDBRANCH   6   7
BRANCH   6   9
HETATM    9  N3  UNL     1      -1.554  -0.509  -0.134  1.00  0.00    -0.049 N 
ATOM     10  H32 UNL     1      -1.632  -0.283   0.858  1.00  0.00     0.280 HD
ATOM     11  H31 UNL     1      -2.010   0.318  -0.519  1.00  0.00     0.280 HD
BRANCH   9  12
HETATM   12  C5  UNL     1      -2.281  -1.723  -0.464  1.00  0.00     0.240 C 
BRANCH  12  13
HETATM   13  C6  UNL     1      -3.748  -1.647  -0.107  1.00  0.00     0.071 C 
BRANCH  13  14
HETATM   14  C7  UNL     1      -4.453  -0.547  -0.808  1.00  0.00     0.004 A 
HETATM   15  C8  UNL     1      -4.680   0.596  -0.102  1.00  0.00     0.117 A 
HETATM   16  N4  UNL     1      -5.278   1.670  -0.643  1.00  0.00    -0.202 N 
HETATM   17  C9  UNL     1      -5.653   1.581  -1.923  1.00  0.00     0.677 A 
ATOM     18  H4  UNL     1      -5.439   2.518  -0.100  1.00  0.00     0.183 HD
HETATM   19  N6  UNL     1      -5.444   0.455  -2.662  1.00  0.00    -0.177 N 
HETATM   20  C10 UNL     1      -4.846  -0.621  -2.121  1.00  0.00     0.122 A 
ATOM     21  H6  UNL     1      -5.745   0.428  -3.636  1.00  0.00     0.185 HD
BRANCH  17  22
HETATM   22  N5  UNL     1      -6.237   2.570  -2.555  1.00  0.00    -0.234 N 
ATOM     23  H52 UNL     1      -6.393   3.413  -2.002  1.00  0.00     0.174 HD
ATOM     24  H51 UNL     1      -6.523   2.502  -3.532  1.00  0.00     0.174 HD
ENDBRANCH  17  22
BRANCH  20  25
HETATM   25  N7  UNL     1      -4.672  -1.688  -2.799  1.00  0.00    -0.385 N 
ATOM     26  H72 UNL     1      -4.218  -2.504  -2.389  1.00  0.00     0.157 HD
ATOM     27  H71 UNL     1      -4.964  -1.743  -3.775  1.00  0.00     0.157 HD
ENDBRANCH  20  25
ENDBRANCH  13  14
ENDBRANCH  12  13
ENDBRANCH   9  12
ENDBRANCH   6   9
ENDBRANCH   5   6
ENDBRANCH   4   5
ENDBRANCH   3   4
BRANCH   3  28
HETATM   28  C11 UNL     1       2.966  -0.132   1.511  1.00  0.00     0.161 C 
BRANCH  28  29
HETATM   29  C12 UNL     1       4.087   0.844   1.549  1.00  0.00     0.120 C 
HETATM   30  C13 UNL     1       5.422   0.261   1.156  1.00  0.00     0.149 C 
HETATM   31  N8  UNL     1       6.350   1.206   1.796  1.00  0.00    -0.363 N 
HETATM   32  C14 UNL     1       5.737   1.840   2.758  1.00  0.00     0.184 C 
ATOM     33  H8  UNL     1       7.324   1.345   1.529  1.00  0.00     0.162 HD
HETATM   34  N9  UNL     1       6.341   2.818   3.575  1.00  0.00    -0.064 NA
HETATM   35  N10 UNL     1       4.393   1.390   2.842  1.00  0.00    -0.357 N 
ATOM     36  H10 UNL     1       3.774   1.443   3.651  1.00  0.00     0.162 HD
ENDBRANCH  28  29
ENDBRANCH   3  28
TORSDOF 12
