REMARK  4 active torsions:
REMARK  status: ('A' for Active; 'I' for Inactive)
REMARK    1  A    between atoms: C2_2  and  C3_3 
REMARK    2  A    between atoms: C3_3  and  C4_4 
REMARK    3  A    between atoms: C4_4  and  C5_5 
REMARK    4  A    between atoms: C5_5  and  C6_6 
ROOT
HETATM    1  C6  UNL     1       1.097   0.510  -0.744  1.00  0.00    -0.056 A 
HETATM    2  C7  UNL     1       0.995   0.472  -2.121  1.00  0.00     0.033 A 
HETATM    3  C8  UNL     1      -0.206   0.117  -2.744  1.00  0.00     0.047 A 
HETATM    4  N1  UNL     1      -0.328   0.072  -4.162  1.00  0.00    -0.102 NA
HETATM    5  C9  UNL     1      -1.279  -0.191  -1.933  1.00  0.00     0.038 A 
HETATM    6  C10 UNL     1      -1.229  -0.168  -0.556  1.00  0.00    -0.023 A 
HETATM    7  C11 UNL     1      -2.350  -0.489   0.292  1.00  0.00    -0.015 A 
HETATM    8  C12 UNL     1      -2.176  -1.515   1.219  1.00  0.00     0.013 A 
HETATM    9  C13 UNL     1      -3.204  -1.916   2.047  1.00  0.00     0.002 A 
HETATM   10  C14 UNL     1      -4.442  -1.314   1.985  1.00  0.00     0.012 A 
HETATM   11  C15 UNL     1      -4.613  -0.296   1.067  1.00  0.00    -0.025 A 
HETATM   12  C16 UNL     1      -5.831   0.321   0.997  1.00  0.00     0.012 A 
HETATM   13  C17 UNL     1      -6.100   1.355   0.121  1.00  0.00     0.001 A 
HETATM   14  C18 UNL     1      -5.071   1.753  -0.702  1.00  0.00     0.001 A 
HETATM   15  C19 UNL     1      -3.835   1.150  -0.654  1.00  0.00     0.013 A 
HETATM   16  C20 UNL     1      -3.584   0.115   0.229  1.00  0.00    -0.015 A 
HETATM   17  C21 UNL     1      -0.002   0.194   0.017  1.00  0.00     0.019 A 
ENDROOT
BRANCH   1  18
HETATM   18  C5  UNL     1       2.368   0.885  -0.110  1.00  0.00     0.038 C 
BRANCH  18  19
HETATM   19  C4  UNL     1       3.270  -0.304   0.154  1.00  0.00     0.005 C 
BRANCH  19  20
HETATM   20  C3  UNL     1       4.532   0.258   0.809  1.00  0.00    -0.000 C 
BRANCH  20  21
HETATM   21  C2  UNL     1       5.514  -0.857   1.119  1.00  0.00    -0.005 C 
HETATM   22  C1  UNL     1       6.725  -0.211   1.761  1.00  0.00     0.005 C 
ENDBRANCH  20  21
ENDBRANCH  19  20
ENDBRANCH  18  19
ENDBRANCH   1  18
TORSDOF 4
