REMARK  5 active torsions:
REMARK  status: ('A' for Active; 'I' for Inactive)
REMARK    1  A    between atoms: C2_2  and  C3_3 
REMARK    2  A    between atoms: C6_6  and  C7_7 
REMARK    3  A    between atoms: C7_7  and  N1_8 
REMARK    4  A    between atoms: N1_8  and  C8_10 
REMARK    5  A    between atoms: C14_16  and  C15_17 
ROOT
HETATM    1  C3  UNL     1      -1.960   1.869  -0.273  1.00  0.00    -0.058 A 
HETATM    2  C4  UNL     1      -0.843   2.184   0.467  1.00  0.00     0.007 A 
HETATM    3  C5  UNL     1       0.083   1.235   0.855  1.00  0.00     0.010 A 
HETATM    4  C6  UNL     1      -0.054  -0.111   0.519  1.00  0.00    -0.029 A 
HETATM    5  C14 UNL     1      -1.168  -0.430  -0.219  1.00  0.00    -0.018 A 
HETATM    6  C21 UNL     1      -2.104   0.546  -0.608  1.00  0.00     0.020 A 
ENDROOT
BRANCH   4   7
HETATM    7  C7  UNL     1       0.943  -1.123   0.946  1.00  0.00     0.159 C 
BRANCH   7   8
HETATM    8  N1  UNL     1       2.078  -0.598   1.638  1.00  0.00    -0.386 N 
ATOM      9  H1  UNL     1       2.180  -0.740   2.643  1.00  0.00     0.160 HD
BRANCH   8  10
HETATM   10  C8  UNL     1       3.071   0.130   0.905  1.00  0.00     0.028 A 
HETATM   11  C9  UNL     1       4.148   0.720   1.551  1.00  0.00     0.029 A 
HETATM   12  C10 UNL     1       5.141   1.422   0.905  1.00  0.00     0.002 A 
HETATM   13  C11 UNL     1       5.059   1.544  -0.466  1.00  0.00     0.000 A 
HETATM   14  C12 UNL     1       4.015   0.981  -1.166  1.00  0.00     0.002 A 
HETATM   15  C13 UNL     1       3.028   0.277  -0.473  1.00  0.00     0.029 A 
ENDBRANCH   8  10
ENDBRANCH   7   8
ENDBRANCH   4   7
BRANCH   5  16
HETATM   16  C15 UNL     1      -1.438  -1.804  -0.612  1.00  0.00    -0.025 A 
HETATM   17  C16 UNL     1      -1.692  -2.821   0.272  1.00  0.00     0.012 A 
HETATM   18  C17 UNL     1      -1.927  -4.140  -0.136  1.00  0.00     0.001 A 
HETATM   19  C18 UNL     1      -1.902  -4.429  -1.487  1.00  0.00     0.000 A 
HETATM   20  C19 UNL     1      -1.652  -3.436  -2.410  1.00  0.00     0.001 A 
HETATM   21  C20 UNL     1      -1.428  -2.163  -1.961  1.00  0.00     0.012 A 
ENDBRANCH   5  16
BRANCH   1  22
HETATM   22  C2  UNL     1      -2.950   2.888  -0.688  1.00  0.00     0.034 C 
HETATM   23  C1  UNL     1      -4.059   3.069   0.321  1.00  0.00     0.010 C 
ENDBRANCH   1  22
TORSDOF 5
