REMARK  5 active torsions:
REMARK  status: ('A' for Active; 'I' for Inactive)
REMARK    1  A    between atoms: C2_2  and  N1_3 
REMARK    2  A    between atoms: N1_3  and  C3_5 
REMARK    3  A    between atoms: C3_5  and  C4_6 
REMARK    4  A    between atoms: C3_5  and  C10_12 
REMARK    5  A    between atoms: C3_5  and  C16_18 
ROOT
HETATM    1  C3  UNL     1      -0.028  -0.223   0.005  1.00  0.00     0.109 C 
ENDROOT
BRANCH   1   2
HETATM    2  N1  UNL     1       0.218  -1.443  -0.703  1.00  0.00    -0.402 N 
ATOM      3  H1  UNL     1       0.146  -2.338  -0.219  1.00  0.00     0.154 HD
BRANCH   2   4
HETATM    4  C2  UNL     1       0.557  -1.404  -2.060  1.00  0.00     0.111 C 
HETATM    5  C1  UNL     1       0.784  -2.873  -2.486  1.00  0.00     0.026 C 
ENDBRANCH   2   4
ENDBRANCH   1   2
BRANCH   1   6
HETATM    6  C4  UNL     1      -1.039   0.638  -0.633  1.00  0.00    -0.021 A 
HETATM    7  C5  UNL     1      -0.787   1.325  -1.802  1.00  0.00     0.010 A 
HETATM    8  C6  UNL     1      -1.720   2.134  -2.405  1.00  0.00     0.001 A 
HETATM    9  C7  UNL     1      -2.951   2.247  -1.797  1.00  0.00     0.000 A 
HETATM   10  C8  UNL     1      -3.262   1.588  -0.632  1.00  0.00     0.001 A 
HETATM   11  C9  UNL     1      -2.281   0.787  -0.069  1.00  0.00     0.010 A 
ENDBRANCH   1   6
BRANCH   1  12
HETATM   12  C10 UNL     1      -0.484  -0.633   1.357  1.00  0.00    -0.021 A 
HETATM   13  C11 UNL     1      -1.152  -1.828   1.475  1.00  0.00     0.010 A 
HETATM   14  C12 UNL     1      -1.610  -2.280   2.707  1.00  0.00     0.001 A 
HETATM   15  C13 UNL     1      -1.400  -1.536   3.824  1.00  0.00     0.000 A 
HETATM   16  C14 UNL     1      -0.733  -0.336   3.725  1.00  0.00     0.001 A 
HETATM   17  C15 UNL     1      -0.275   0.112   2.481  1.00  0.00     0.010 A 
ENDBRANCH   1  12
BRANCH   1  18
HETATM   18  C16 UNL     1       1.253   0.536   0.082  1.00  0.00    -0.021 A 
HETATM   19  C17 UNL     1       2.466  -0.117   0.024  1.00  0.00     0.010 A 
HETATM   20  C18 UNL     1       3.650   0.569   0.088  1.00  0.00     0.001 A 
HETATM   21  C19 UNL     1       3.629   1.939   0.212  1.00  0.00     0.000 A 
HETATM   22  C20 UNL     1       2.451   2.623   0.273  1.00  0.00     0.001 A 
HETATM   23  C21 UNL     1       1.270   1.888   0.205  1.00  0.00     0.010 A 
ENDBRANCH   1  18
TORSDOF 5
