REMARK  5 active torsions:
REMARK  status: ('A' for Active; 'I' for Inactive)
REMARK    1  A    between atoms: C2_2  and  C3_3 
REMARK    2  A    between atoms: C2_2  and  C10_12 
REMARK    3  A    between atoms: C3_3  and  N1_4 
REMARK    4  A    between atoms: N1_4  and  C4_6 
REMARK    5  A    between atoms: C13_15  and  C14_16 
ROOT
HETATM    1  C10 UNL     1      -0.143   0.176   1.511  1.00  0.00    -0.053 A 
HETATM    2  C11 UNL     1      -1.021   1.236   1.402  1.00  0.00     0.008 A 
HETATM    3  C12 UNL     1      -2.241   1.094   0.730  1.00  0.00     0.013 A 
HETATM    4  C13 UNL     1      -2.583  -0.122   0.161  1.00  0.00    -0.026 A 
HETATM    5  C20 UNL     1      -1.720  -1.172   0.265  1.00  0.00     0.013 A 
HETATM    6  C21 UNL     1      -0.528  -1.009   0.931  1.00  0.00     0.008 A 
ENDROOT
BRANCH   1   7
HETATM    7  C2  UNL     1       1.118   0.340   2.212  1.00  0.00     0.032 C 
HETATM    8  C1  UNL     1       1.076  -0.538   3.464  1.00  0.00     0.017 C 
BRANCH   7   9
HETATM    9  C3  UNL     1       2.343   0.003   1.423  1.00  0.00     0.129 C 
BRANCH   9  10
HETATM   10  N1  UNL     1       2.454   0.799   0.216  1.00  0.00    -0.389 N 
ATOM     11  H1  UNL     1       1.741   1.492  -0.010  1.00  0.00     0.159 HD
BRANCH  10  12
HETATM   12  C4  UNL     1       3.564   0.606  -0.650  1.00  0.00     0.027 A 
HETATM   13  C5  UNL     1       3.676   1.362  -1.797  1.00  0.00     0.029 A 
HETATM   14  C6  UNL     1       4.759   1.182  -2.652  1.00  0.00     0.002 A 
HETATM   15  C7  UNL     1       5.741   0.253  -2.382  1.00  0.00     0.000 A 
HETATM   16  C8  UNL     1       5.632  -0.503  -1.237  1.00  0.00     0.002 A 
HETATM   17  C9  UNL     1       4.548  -0.317  -0.390  1.00  0.00     0.029 A 
ENDBRANCH  10  12
ENDBRANCH   9  10
ENDBRANCH   7   9
ENDBRANCH   1   7
BRANCH   4  18
HETATM   18  C14 UNL     1      -3.855  -0.268  -0.539  1.00  0.00    -0.026 A 
HETATM   19  C15 UNL     1      -4.503  -1.492  -0.540  1.00  0.00     0.012 A 
HETATM   20  C16 UNL     1      -5.708  -1.667  -1.191  1.00  0.00     0.001 A 
HETATM   21  C17 UNL     1      -6.315  -0.630  -1.868  1.00  0.00     0.000 A 
HETATM   22  C18 UNL     1      -5.669   0.589  -1.865  1.00  0.00     0.001 A 
HETATM   23  C19 UNL     1      -4.460   0.768  -1.213  1.00  0.00     0.012 A 
ENDBRANCH   4  18
TORSDOF 5
