REMARK  6 active torsions:
REMARK  status: ('A' for Active; 'I' for Inactive)
REMARK    1  A    between atoms: C2_2  and  C3_3 
REMARK    2  A    between atoms: C3_3  and  C4_4 
REMARK    3  A    between atoms: C4_4  and  C5_5 
REMARK    4  A    between atoms: C5_5  and  C6_6 
REMARK    5  A    between atoms: C6_6  and  N1_7 
REMARK    6  A    between atoms: N1_7  and  C7_8 
ROOT
HETATM    1  C7  UNL     1      -1.155  -0.233  -0.405  1.00  0.00     0.125 A 
HETATM    2  C8  UNL     1      -2.073  -1.258  -0.142  1.00  0.00     0.032 A 
HETATM    3  C9  UNL     1      -1.721  -2.584  -0.221  1.00  0.00     0.017 A 
HETATM    4  C10 UNL     1      -2.622  -3.624   0.037  1.00  0.00     0.001 A 
HETATM    5  C11 UNL     1      -3.921  -3.327   0.385  1.00  0.00     0.002 A 
HETATM    6  C12 UNL     1      -4.284  -2.001   0.467  1.00  0.00     0.030 A 
HETATM    7  C13 UNL     1      -3.372  -0.968   0.207  1.00  0.00     0.046 A 
HETATM    8  N2  UNL     1      -3.747   0.321   0.292  1.00  0.00    -0.355 N 
ATOM      9  H2  UNL     1      -4.712   0.526   0.551  1.00  0.00     0.166 HD
HETATM   10  C14 UNL     1      -2.926   1.345   0.056  1.00  0.00     0.046 A 
HETATM   11  C15 UNL     1      -3.356   2.677   0.156  1.00  0.00     0.030 A 
HETATM   12  C16 UNL     1      -2.516   3.743  -0.085  1.00  0.00     0.002 A 
HETATM   13  C17 UNL     1      -1.204   3.479  -0.438  1.00  0.00     0.001 A 
HETATM   14  C18 UNL     1      -0.796   2.160  -0.532  1.00  0.00     0.017 A 
HETATM   15  C19 UNL     1      -1.631   1.100  -0.292  1.00  0.00     0.032 A 
ENDROOT
BRANCH   1  16
HETATM   16  N1  UNL     1      -0.007  -0.423  -0.714  1.00  0.00    -0.446 NA
BRANCH  16  17
HETATM   17  C6  UNL     1       1.136  -1.059  -1.017  1.00  0.00     0.218 C 
BRANCH  17  18
HETATM   18  C5  UNL     1       1.941  -1.448   0.233  1.00  0.00     0.033 C 
BRANCH  18  19
HETATM   19  C4  UNL     1       2.272  -0.213   1.012  1.00  0.00     0.002 C 
BRANCH  19  20
HETATM   20  C3  UNL     1       3.084   0.776   0.243  1.00  0.00    -0.000 C 
BRANCH  20  21
HETATM   21  C2  UNL     1       4.384   0.116  -0.177  1.00  0.00    -0.005 C 
HETATM   22  C1  UNL     1       5.198   1.146  -0.955  1.00  0.00     0.005 C 
ENDBRANCH  20  21
ENDBRANCH  19  20
ENDBRANCH  18  19
ENDBRANCH  17  18
ENDBRANCH  16  17
ENDBRANCH   1  16
TORSDOF 6
