REMARK  11 active torsions:
REMARK  status: ('A' for Active; 'I' for Inactive)
REMARK    1  A    between atoms: C2_2  and  C3_3 
REMARK    2  A    between atoms: C3_3  and  C6_6 
REMARK    3  A    between atoms: C6_6  and  O1_7 
REMARK    4  A    between atoms: C6_6  and  C12_15 
REMARK    5  A    between atoms: O1_7  and  C7_8 
REMARK    6  A    between atoms: C7_8  and  O3_10 
REMARK    7  A    between atoms: O3_10  and  C8_11 
REMARK    8  A    between atoms: C13_17  and  O5_18 
REMARK    9  A    between atoms: C15_20  and  O6_21 
REMARK   10  A    between atoms: O6_21  and  C16_22 
REMARK   11  A    between atoms: C23_29  and  N1_30 
ROOT
HETATM    1  C12 UNL     1      -0.403  -0.789  -0.575  1.00  0.00     0.178 C 
HETATM    2  O4  UNL     1       0.285  -0.746  -1.845  1.00  0.00    -0.349 OA
HETATM    3  C13 UNL     1       1.092   0.462  -1.775  1.00  0.00     0.288 C 
HETATM    4  C15 UNL     1       1.916   0.377  -0.523  1.00  0.00     0.179 C 
HETATM    5  C22 UNL     1       1.949  -1.115  -0.081  1.00  0.00     0.065 C 
HETATM    6  C23 UNL     1       0.506  -1.520   0.289  1.00  0.00     0.117 C 
ENDROOT
BRANCH   1   7
HETATM    7  C6  UNL     1      -1.828  -1.009  -0.698  1.00  0.00     0.176 C 
BRANCH   7   8
HETATM    8  C3  UNL     1      -2.543  -2.208  -1.093  1.00  0.00    -0.001 C 
HETATM    9  C4  UNL     1      -2.159  -2.712  -2.507  1.00  0.00     0.021 C 
HETATM   10  C5  UNL     1      -4.002  -1.835  -1.295  1.00  0.00     0.021 C 
BRANCH   8  11
HETATM   11  C2  UNL     1      -2.576  -3.352  -0.159  1.00  0.00    -0.026 C 
HETATM   12  C1  UNL     1      -3.243  -3.395   0.985  1.00  0.00     0.008 C 
ENDBRANCH   8  11
ENDBRANCH   7   8
BRANCH   7  13
HETATM   13  O1  UNL     1      -2.442  -0.604   0.552  1.00  0.00    -0.289 OA
BRANCH  13  14
HETATM   14  C7  UNL     1      -3.198   0.531   0.626  1.00  0.00     0.407 C 
HETATM   15  O2  UNL     1      -3.329   1.177  -0.480  1.00  0.00    -0.229 OA
BRANCH  14  16
HETATM   16  O3  UNL     1      -3.844   1.119   1.663  1.00  0.00    -0.288 OA
BRANCH  16  17
HETATM   17  C8  UNL     1      -4.603   2.287   1.621  1.00  0.00     0.062 C 
HETATM   18  C9  UNL     1      -5.801   2.055   0.730  1.00  0.00     0.046 C 
HETATM   19  C10 UNL     1      -5.081   2.695   2.984  1.00  0.00     0.046 C 
HETATM   20  C11 UNL     1      -3.859   3.462   1.012  1.00  0.00     0.046 C 
ENDBRANCH  16  17
ENDBRANCH  14  16
ENDBRANCH  13  14
ENDBRANCH   7  13
ENDBRANCH   1   7
BRANCH   6  21
HETATM   21  N1  UNL     1       0.608  -2.892   0.378  1.00  0.00    -0.386 N 
HETATM   22  C24 UNL     1       0.725  -3.381   1.717  1.00  0.00     0.123 C 
HETATM   23  C25 UNL     1       2.081  -4.054   1.720  1.00  0.00     0.025 C 
HETATM   24  C26 UNL     1       2.404  -4.335   0.263  1.00  0.00     0.046 C 
HETATM   25  C27 UNL     1       1.198  -3.770  -0.450  1.00  0.00     0.058 C 
ENDBRANCH   6  21
BRANCH   3  26
HETATM   26  O5  UNL     1       0.234   1.515  -1.706  1.00  0.00    -0.363 OA
HETATM   27  C14 UNL     1       0.365   2.360  -2.784  1.00  0.00     0.204 C 
ENDBRANCH   3  26
BRANCH   4  28
HETATM   28  O6  UNL     1       3.145   0.929  -0.660  1.00  0.00    -0.376 OA
BRANCH  28  29
HETATM   29  C16 UNL     1       3.529   1.843   0.267  1.00  0.00     0.122 C 
HETATM   30  C17 UNL     1       4.843   1.393   0.864  1.00  0.00     0.032 C 
HETATM   31  C18 UNL     1       5.971   1.761  -0.115  1.00  0.00     0.002 C 
HETATM   32  C19 UNL     1       6.281   3.237   0.075  1.00  0.00     0.000 C 
HETATM   33  C20 UNL     1       4.959   3.892   0.417  1.00  0.00     0.002 C 
HETATM   34  C21 UNL     1       3.824   3.205  -0.371  1.00  0.00     0.032 C 
ENDBRANCH  28  29
ENDBRANCH   4  28
TORSDOF 11
