REMARK  9 active torsions:
REMARK  status: ('A' for Active; 'I' for Inactive)
REMARK    1  A    between atoms: C2_2  and  C3_3 
REMARK    2  A    between atoms: C3_3  and  C4_4 
REMARK    3  A    between atoms: C4_4  and  C5_5 
REMARK    4  A    between atoms: C5_5  and  C6_6 
REMARK    5  A    between atoms: C13_14  and  C14_15 
REMARK    6  A    between atoms: C14_15  and  C16_17 
REMARK    7  A    between atoms: C16_17  and  O3_19 
REMARK    8  A    between atoms: O3_19  and  C17_20 
REMARK    9  A    between atoms: C26_30  and  O5_32 
ROOT
HETATM    1  C4  UNL     1      -2.157   0.082   0.296  1.00  0.00     0.128 C 
HETATM    2  O1  UNL     1      -0.823   0.251   0.214  1.00  0.00    -0.360 OA
HETATM    3  C10 UNL     1       0.069  -0.757   0.156  1.00  0.00     0.070 C 
HETATM    4  C11 UNL     1       0.559  -0.960   1.599  1.00  0.00     0.047 C 
HETATM    5  C12 UNL     1       1.244  -0.331  -0.700  1.00  0.00     0.033 C 
HETATM    6  C13 UNL     1       2.450   0.159   0.064  1.00  0.00     0.006 C 
HETATM    7  C19 UNL     1       3.520  -0.835  -0.330  1.00  0.00     0.007 C 
HETATM    8  C20 UNL     1       3.222  -1.008  -1.801  1.00  0.00     0.010 C 
HETATM    9  C21 UNL     1       1.708  -1.283  -1.732  1.00  0.00    -0.037 C 
HETATM   10  C22 UNL     1       1.230  -0.929  -3.150  1.00  0.00     0.015 C 
HETATM   11  C23 UNL     1       1.584  -2.731  -1.434  1.00  0.00     0.010 C 
HETATM   12  C24 UNL     1       0.562  -3.117  -0.421  1.00  0.00     0.012 C 
HETATM   13  C25 UNL     1      -0.466  -2.024  -0.411  1.00  0.00     0.062 C 
HETATM   14  C26 UNL     1      -1.783  -2.498   0.062  1.00  0.00     0.124 C 
HETATM   15  C27 UNL     1      -1.812  -3.309   1.311  1.00  0.00     0.055 C 
HETATM   16  C28 UNL     1      -2.670  -1.271   0.121  1.00  0.00     0.195 C 
HETATM   17  O6  UNL     1      -3.849  -1.560   0.005  1.00  0.00    -0.291 OA
ENDROOT
BRANCH   1  18
HETATM   18  C3  UNL     1      -2.774   1.151  -0.574  1.00  0.00     0.046 C 
BRANCH  18  19
HETATM   19  C2  UNL     1      -2.650   1.070  -2.026  1.00  0.00    -0.001 C 
HETATM   20  C1  UNL     1      -3.254  -0.136  -2.702  1.00  0.00     0.005 C 
ENDBRANCH  18  19
ENDBRANCH   1  18
BRANCH   1  21
HETATM   21  C5  UNL     1      -2.517   0.604   1.723  1.00  0.00     0.073 C 
BRANCH  21  22
HETATM   22  C6  UNL     1      -3.957   0.729   1.939  1.00  0.00    -0.021 C 
HETATM   23  C7  UNL     1      -4.582   1.864   2.230  1.00  0.00    -0.091 C 
HETATM   24  C8  UNL     1      -3.858   3.160   2.368  1.00  0.00     0.042 C 
HETATM   25  C9  UNL     1      -6.050   1.845   2.423  1.00  0.00     0.042 C 
ENDBRANCH  21  22
ENDBRANCH   1  21
BRANCH  14  26
HETATM   26  O5  UNL     1      -2.275  -3.387  -0.934  1.00  0.00    -0.382 OA
ATOM     27  H5  UNL     1      -3.122  -3.692  -0.630  1.00  0.00     0.211 HD
ENDBRANCH  14  26
BRANCH   6  28
HETATM   28  C14 UNL     1       2.900   1.519  -0.386  1.00  0.00     0.086 C 
HETATM   29  C15 UNL     1       1.783   2.550  -0.234  1.00  0.00     0.021 C 
BRANCH  28  30
HETATM   30  C16 UNL     1       4.009   1.986   0.475  1.00  0.00     0.270 C 
HETATM   31  O2  UNL     1       3.746   2.926   1.307  1.00  0.00    -0.264 OA
BRANCH  30  32
HETATM   32  O3  UNL     1       5.294   1.521   0.485  1.00  0.00    -0.245 OA
BRANCH  32  33
HETATM   33  C17 UNL     1       6.291   1.999   1.319  1.00  0.00     0.262 C 
HETATM   34  C18 UNL     1       7.636   1.407   1.224  1.00  0.00     0.126 C 
HETATM   35  O4  UNL     1       5.987   2.919   2.115  1.00  0.00    -0.265 OA
ENDBRANCH  32  33
ENDBRANCH  30  32
ENDBRANCH  28  30
ENDBRANCH   6  28
TORSDOF 9
