REMARK  8 active torsions:
REMARK  status: ('A' for Active; 'I' for Inactive)
REMARK    1  A    between atoms: C8_8  and  O1_9 
REMARK    2  A    between atoms: O1_9  and  C9_10 
REMARK    3  A    between atoms: C9_10  and  C10_12 
REMARK    4  A    between atoms: C10_12  and  S1_13 
REMARK    5  A    between atoms: S1_13  and  C11_14 
REMARK    6  A    between atoms: C11_14  and  C12_15 
REMARK    7  A    between atoms: C12_15  and  O3_18 
REMARK    8  A    between atoms: O3_18  and  N1_19 
ROOT
HETATM    1  C1  UNL     1      -3.555  -2.259   2.876  1.00  0.00     0.014 C 
HETATM    2  C2  UNL     1      -3.558  -2.478   1.577  1.00  0.00    -0.085 C 
HETATM    3  C3  UNL     1      -4.534  -3.299   0.827  1.00  0.00     0.034 C 
HETATM    4  C4  UNL     1      -4.613  -2.548  -0.507  1.00  0.00     0.010 C 
HETATM    5  C5  UNL     1      -3.588  -1.506  -0.526  1.00  0.00     0.003 C 
HETATM    6  C6  UNL     1      -2.617  -1.980   0.533  1.00  0.00     0.021 C 
HETATM    7  C7  UNL     1      -1.774  -0.910   1.123  1.00  0.00     0.042 C 
HETATM    8  C8  UNL     1      -0.873  -0.310   0.072  1.00  0.00     0.135 C 
HETATM    9  C18 UNL     1      -1.555   0.406  -1.008  1.00  0.00     0.065 C 
HETATM   10  C19 UNL     1      -2.935   0.873  -0.829  1.00  0.00     0.135 C 
HETATM   11  O4  UNL     1      -3.067   2.006   0.007  1.00  0.00    -0.350 OA
HETATM   12  C20 UNL     1      -4.367   2.464  -0.206  1.00  0.00     0.158 C 
HETATM   13  C21 UNL     1      -4.999   2.792   1.139  1.00  0.00     0.078 C 
HETATM   14  C22 UNL     1      -4.176   3.845  -0.872  1.00  0.00     0.078 C 
HETATM   15  O5  UNL     1      -5.135   1.749  -1.038  1.00  0.00    -0.345 OA
HETATM   16  C23 UNL     1      -5.260   0.386  -0.867  1.00  0.00     0.063 C 
HETATM   17  C24 UNL     1      -5.504  -0.188  -2.265  1.00  0.00     0.046 C 
HETATM   18  C25 UNL     1      -6.419   0.160   0.059  1.00  0.00     0.046 C 
HETATM   19  C26 UNL     1      -3.938  -0.114  -0.292  1.00  0.00     0.053 C 
ENDROOT
BRANCH   8  20
HETATM   20  O1  UNL     1       0.123   0.423   0.760  1.00  0.00    -0.315 OA
BRANCH  20  21
HETATM   21  C9  UNL     1       1.437   0.022   0.805  1.00  0.00     0.268 C 
HETATM   22  O2  UNL     1       1.733  -1.054   0.196  1.00  0.00    -0.264 OA
BRANCH  21  23
HETATM   23  C10 UNL     1       2.514   0.739   1.502  1.00  0.00     0.184 C 
BRANCH  23  24
HETATM   24  S1  UNL     1       4.095  -0.108   1.342  1.00  0.00    -0.156 SA
BRANCH  24  25
HETATM   25  C11 UNL     1       4.715  -0.135  -0.341  1.00  0.00     0.114 C 
BRANCH  25  26
HETATM   26  C12 UNL     1       6.042  -0.881  -0.333  1.00  0.00     0.090 C 
HETATM   27  C13 UNL     1       5.864  -2.298   0.167  1.00  0.00     0.049 C 
HETATM   28  C14 UNL     1       6.643  -0.974  -1.719  1.00  0.00     0.049 C 
BRANCH  26  29
HETATM   29  O3  UNL     1       6.900  -0.210   0.561  1.00  0.00    -0.269 OA
BRANCH  29  30
HETATM   30  N1  UNL     1       7.267   1.099   0.404  1.00  0.00    -0.275 N 
HETATM   31  C15 UNL     1       8.507   1.409   0.475  1.00  0.00     0.002 C 
HETATM   32  C16 UNL     1       9.525   0.384   0.719  1.00  0.00     0.065 C 
HETATM   33  C17 UNL     1       8.916   2.821   0.306  1.00  0.00     0.065 C 
ATOM     34  H1  UNL     1       6.563   1.817   0.233  1.00  0.00     0.193 HD
ENDBRANCH  29  30
ENDBRANCH  26  29
ENDBRANCH  25  26
ENDBRANCH  24  25
ENDBRANCH  23  24
ENDBRANCH  21  23
ENDBRANCH  20  21
ENDBRANCH   8  20
TORSDOF 8
