REMARK  10 active torsions:
REMARK  status: ('A' for Active; 'I' for Inactive)
REMARK    1  A    between atoms: C2_2  and  O1_4 
REMARK    2  A    between atoms: O1_4  and  C4_5 
REMARK    3  A    between atoms: C4_5  and  C5_7 
REMARK    4  A    between atoms: C5_7  and  C6_8 
REMARK    5  A    between atoms: C12_14  and  C13_15 
REMARK    6  A    between atoms: C17_19  and  O3_20 
REMARK    7  A    between atoms: O3_20  and  C18_21 
REMARK    8  A    between atoms: C18_21  and  C19_23 
REMARK    9  A    between atoms: C25_29  and  C27_31 
REMARK   10  A    between atoms: C27_31  and  O6_33 
ROOT
HETATM    1  C6  UNL     1       2.577  -0.872   0.377  1.00  0.00     0.013 C 
HETATM    2  C7  UNL     1       2.200  -2.387   0.471  1.00  0.00     0.007 C 
HETATM    3  C8  UNL     1       0.843  -2.452   1.040  1.00  0.00     0.010 C 
HETATM    4  C9  UNL     1      -0.106  -2.018  -0.054  1.00  0.00    -0.034 C 
HETATM    5  C10 UNL     1      -0.152  -3.086  -1.126  1.00  0.00     0.016 C 
HETATM    6  C11 UNL     1      -1.406  -1.557   0.496  1.00  0.00     0.007 C 
HETATM    7  C12 UNL     1      -2.678  -1.893  -0.190  1.00  0.00     0.021 C 
HETATM    8  C16 UNL     1      -3.739  -0.907   0.263  1.00  0.00     0.042 C 
HETATM    9  C17 UNL     1      -3.245   0.458   0.480  1.00  0.00     0.136 C 
HETATM   10  C21 UNL     1      -1.950   0.751  -0.319  1.00  0.00     0.016 C 
HETATM   11  C22 UNL     1      -2.218   0.781  -1.752  1.00  0.00     0.013 C 
HETATM   12  C23 UNL     1      -0.920  -0.139   0.253  1.00  0.00     0.003 C 
HETATM   13  C24 UNL     1       0.206  -0.640  -0.559  1.00  0.00     0.017 C 
HETATM   14  C25 UNL     1       1.578  -0.111  -0.369  1.00  0.00     0.053 C 
HETATM   15  C26 UNL     1       2.118   0.319  -1.748  1.00  0.00     0.027 C 
ENDROOT
BRANCH   1  16
HETATM   16  C5  UNL     1       3.993  -0.911  -0.005  1.00  0.00     0.117 C 
BRANCH  16  17
HETATM   17  C4  UNL     1       4.773   0.313  -0.173  1.00  0.00     0.264 C 
HETATM   18  O2  UNL     1       4.348   1.467  -0.052  1.00  0.00    -0.265 OA
BRANCH  17  19
HETATM   19  O1  UNL     1       6.145   0.236  -0.507  1.00  0.00    -0.284 OA
BRANCH  19  20
HETATM   20  C2  UNL     1       6.956   1.332  -0.715  1.00  0.00     0.043 C 
HETATM   21  C1  UNL     1       8.235   1.062  -0.893  1.00  0.00     0.046 C 
HETATM   22  C3  UNL     1       6.471   2.722  -0.748  1.00  0.00     0.076 C 
ENDBRANCH  19  20
ENDBRANCH  17  19
ENDBRANCH  16  17
ENDBRANCH   1  16
BRANCH  14  23
HETATM   23  C27 UNL     1       1.379   1.220   0.338  1.00  0.00     0.267 C 
HETATM   24  O5  UNL     1       1.131   2.278  -0.275  1.00  0.00    -0.264 OA
BRANCH  23  25
HETATM   25  O6  UNL     1       1.465   1.304   1.738  1.00  0.00    -0.326 OA
HETATM   26  C28 UNL     1       1.283   2.508   2.444  1.00  0.00     0.213 C 
ENDBRANCH  23  25
ENDBRANCH  14  23
BRANCH   7  27
HETATM   27  C13 UNL     1      -3.160  -3.222   0.261  1.00  0.00    -0.088 C 
HETATM   28  C14 UNL     1      -3.394  -4.187  -0.610  1.00  0.00     0.014 C 
HETATM   29  C15 UNL     1      -3.419  -3.558   1.689  1.00  0.00     0.043 C 
ENDBRANCH   7  27
BRANCH   9  30
HETATM   30  O3  UNL     1      -4.215   1.389   0.042  1.00  0.00    -0.316 OA
BRANCH  30  31
HETATM   31  C18 UNL     1      -4.612   2.462   0.825  1.00  0.00     0.258 C 
HETATM   32  O4  UNL     1      -4.085   2.602   1.946  1.00  0.00    -0.265 OA
BRANCH  31  33
HETATM   33  C19 UNL     1      -5.628   3.387   0.303  1.00  0.00     0.106 C 
HETATM   34  C20 UNL     1      -5.081   4.805   0.452  1.00  0.00     0.015 C 
ENDBRANCH  31  33
ENDBRANCH  30  31
ENDBRANCH   9  30
TORSDOF 10
