REMARK  9 active torsions:
REMARK  status: ('A' for Active; 'I' for Inactive)
REMARK    1  A    between atoms: C2_2  and  C3_3 
REMARK    2  A    between atoms: C3_3  and  C4_4 
REMARK    3  A    between atoms: C4_4  and  C5_5 
REMARK    4  A    between atoms: C5_5  and  C6_6 
REMARK    5  A    between atoms: C6_6  and  C7_8 
REMARK    6  A    between atoms: C14_16  and  O3_17 
REMARK    7  A    between atoms: O3_17  and  C15_18 
REMARK    8  A    between atoms: C21_25  and  O5_26 
REMARK    9  A    between atoms: O5_26  and  C22_27 
ROOT
HETATM    1  C7  UNL     1       1.595  -0.913   0.036  1.00  0.00    -0.009 C 
HETATM    2  C8  UNL     1       0.515  -1.056   0.792  1.00  0.00    -0.064 C 
HETATM    3  C9  UNL     1       0.621  -0.797   2.233  1.00  0.00     0.045 C 
HETATM    4  C10 UNL     1      -0.897  -1.473   0.440  1.00  0.00    -0.005 C 
HETATM    5  C11 UNL     1      -1.187  -2.736   1.232  1.00  0.00     0.021 C 
HETATM    6  C12 UNL     1      -0.733  -1.905  -1.025  1.00  0.00     0.075 C 
HETATM    7  C13 UNL     1      -1.891  -2.595  -1.559  1.00  0.00     0.162 C 
HETATM    8  O2  UNL     1      -1.847  -3.676  -2.091  1.00  0.00    -0.295 OA
HETATM    9  C14 UNL     1      -3.156  -1.861  -1.402  1.00  0.00     0.210 C 
HETATM   10  C17 UNL     1      -2.774  -0.494  -0.922  1.00  0.00    -0.002 C 
HETATM   11  C18 UNL     1      -4.023   0.278  -0.852  1.00  0.00     0.019 C 
HETATM   12  C19 UNL     1      -1.775   0.063  -1.966  1.00  0.00     0.004 C 
HETATM   13  C20 UNL     1      -1.902   1.567  -1.632  1.00  0.00     0.038 C 
HETATM   14  C21 UNL     1      -1.489   1.889  -0.245  1.00  0.00     0.132 C 
HETATM   15  C24 UNL     1      -1.875   0.890   0.823  1.00  0.00     0.039 C 
HETATM   16  C25 UNL     1      -1.985  -0.508   0.408  1.00  0.00     0.013 C 
HETATM   17  C26 UNL     1      -0.505  -0.523  -1.618  1.00  0.00     0.003 C 
HETATM   18  C27 UNL     1       0.701  -0.682  -2.386  1.00  0.00     0.010 C 
HETATM   19  C28 UNL     1       1.757  -1.187  -1.438  1.00  0.00     0.043 C 
ENDROOT
BRANCH   1  20
HETATM   20  C6  UNL     1       2.813  -0.500   0.706  1.00  0.00     0.155 C 
HETATM   21  O1  UNL     1       2.885  -0.290   1.921  1.00  0.00    -0.293 OA
BRANCH  20  22
HETATM   22  C5  UNL     1       4.070  -0.314  -0.119  1.00  0.00     0.083 C 
BRANCH  22  23
HETATM   23  C4  UNL     1       5.236   0.127   0.709  1.00  0.00     0.008 C 
BRANCH  23  24
HETATM   24  C3  UNL     1       5.113   1.450   1.372  1.00  0.00     0.000 C 
BRANCH  24  25
HETATM   25  C2  UNL     1       6.413   1.681   2.141  1.00  0.00    -0.005 C 
HETATM   26  C1  UNL     1       7.595   1.678   1.223  1.00  0.00     0.005 C 
ENDBRANCH  24  25
ENDBRANCH  23  24
ENDBRANCH  22  23
ENDBRANCH  20  22
ENDBRANCH   1  20
BRANCH   9  27
HETATM   27  O3  UNL     1      -4.128  -2.519  -0.673  1.00  0.00    -0.308 OA
BRANCH  27  28
HETATM   28  C15 UNL     1      -5.344  -2.892  -1.227  1.00  0.00     0.255 C 
HETATM   29  C16 UNL     1      -6.326  -3.591  -0.380  1.00  0.00     0.126 C 
HETATM   30  O4  UNL     1      -5.550  -2.614  -2.431  1.00  0.00    -0.266 OA
ENDBRANCH  27  28
ENDBRANCH   9  27
BRANCH  14  31
HETATM   31  O5  UNL     1      -2.051   3.139   0.130  1.00  0.00    -0.316 OA
BRANCH  31  32
HETATM   32  C22 UNL     1      -1.330   4.266   0.445  1.00  0.00     0.255 C 
HETATM   33  C23 UNL     1      -1.977   5.558   0.833  1.00  0.00     0.126 C 
HETATM   34  O6  UNL     1      -0.074   4.145   0.385  1.00  0.00    -0.266 OA
ENDBRANCH  31  32
ENDBRANCH  14  31
TORSDOF 9
