REMARK  8 active torsions:
REMARK  status: ('A' for Active; 'I' for Inactive)
REMARK    1  A    between atoms: C2_2  and  C3_3 
REMARK    2  A    between atoms: C3_3  and  C4_4 
REMARK    3  A    between atoms: C4_4  and  C5_5 
REMARK    4  A    between atoms: C6_6  and  C7_7 
REMARK    5  A    between atoms: C7_7  and  C8_8 
REMARK    6  A    between atoms: C10_12  and  C11_13 
REMARK    7  A    between atoms: C19_24  and  C20_25 
REMARK    8  A    between atoms: C20_25  and  C22_27 
ROOT
HETATM    1  C8  UNL     1       0.927   0.137   0.620  1.00  0.00     0.118 C 
HETATM    2  C9  UNL     1       0.530  -1.314   0.666  1.00  0.00     0.268 C 
HETATM    3  O1  UNL     1       0.823  -2.058   1.629  1.00  0.00    -0.265 OA
HETATM    4  O2  UNL     1      -0.174  -1.795  -0.400  1.00  0.00    -0.289 OA
HETATM    5  C10 UNL     1      -1.094  -1.013  -1.137  1.00  0.00     0.276 C 
HETATM    6  O5  UNL     1      -0.970   0.335  -0.852  1.00  0.00    -0.354 OA
HETATM    7  C19 UNL     1       0.353   0.711  -0.633  1.00  0.00     0.144 C 
ENDROOT
BRANCH   5   8
HETATM    8  C11 UNL     1      -2.518  -1.447  -0.888  1.00  0.00     0.076 C 
HETATM    9  C12 UNL     1      -2.958  -1.358   0.526  1.00  0.00     0.013 C 
HETATM   10  C13 UNL     1      -2.923  -2.609   1.325  1.00  0.00     0.015 C 
HETATM   11  C14 UNL     1      -3.442  -3.791   0.523  1.00  0.00     0.088 C 
HETATM   12  C15 UNL     1      -2.432  -3.958  -0.622  1.00  0.00     0.053 C 
HETATM   13  C18 UNL     1      -4.654  -3.422  -0.253  1.00  0.00     0.264 C 
HETATM   14  C16 UNL     1      -2.824  -2.795  -1.491  1.00  0.00     0.076 C 
HETATM   15  C17 UNL     1      -2.365  -2.908  -2.908  1.00  0.00     0.047 C 
HETATM   16  O3  UNL     1      -4.250  -2.919  -1.483  1.00  0.00    -0.310 OA
HETATM   17  O4  UNL     1      -5.860  -3.522   0.084  1.00  0.00    -0.265 OA
ENDBRANCH   5   8
BRANCH   7  18
HETATM   18  C20 UNL     1       0.527   2.150  -0.855  1.00  0.00     0.040 C 
HETATM   19  C21 UNL     1      -0.123   2.481  -2.243  1.00  0.00     0.015 C 
BRANCH  18  20
HETATM   20  C22 UNL     1      -0.051   3.147   0.051  1.00  0.00     0.128 C 
HETATM   21  C23 UNL     1       0.310   3.203   1.474  1.00  0.00     0.033 C 
HETATM   22  C24 UNL     1       0.048   4.648   1.929  1.00  0.00     0.009 C 
HETATM   23  C25 UNL     1      -0.882   5.364   1.027  1.00  0.00     0.010 C 
HETATM   24  C26 UNL     1      -1.751   6.294   1.889  1.00  0.00     0.012 C 
HETATM   25  C27 UNL     1      -1.810   4.556   0.202  1.00  0.00     0.121 C 
HETATM   26  C28 UNL     1      -3.260   4.681   0.646  1.00  0.00     0.040 C 
HETATM   27  O6  UNL     1      -1.452   3.237  -0.013  1.00  0.00    -0.380 OA
ENDBRANCH  18  20
ENDBRANCH   7  18
BRANCH   1  28
HETATM   28  C7  UNL     1       2.446   0.189   0.615  1.00  0.00     0.044 C 
BRANCH  28  29
HETATM   29  C6  UNL     1       3.090  -0.470  -0.495  1.00  0.00    -0.030 C 
HETATM   30  C5  UNL     1       3.938  -1.461  -0.411  1.00  0.00    -0.031 C 
BRANCH  30  31
HETATM   31  C4  UNL     1       4.391  -2.085   0.845  1.00  0.00     0.027 C 
BRANCH  31  32
HETATM   32  C3  UNL     1       4.044  -3.571   0.860  1.00  0.00     0.003 C 
BRANCH  32  33
HETATM   33  C2  UNL     1       4.720  -4.287  -0.296  1.00  0.00    -0.004 C 
HETATM   34  C1  UNL     1       6.215  -4.176  -0.248  1.00  0.00     0.005 C 
ENDBRANCH  32  33
ENDBRANCH  31  32
ENDBRANCH  30  31
ENDBRANCH  28  29
ENDBRANCH   1  28
TORSDOF 8
