REMARK  15 active torsions:
REMARK  status: ('A' for Active; 'I' for Inactive)
REMARK    1  A    between atoms: C2_2  and  C3_3 
REMARK    2  A    between atoms: C4_5  and  C6_7 
REMARK    3  A    between atoms: C6_7  and  C7_8 
REMARK    4  A    between atoms: C7_8  and  C8_9 
REMARK    5  A    between atoms: C8_9  and  O2_10 
REMARK    6  A    between atoms: C8_9  and  C9_12 
REMARK    7  A    between atoms: C15_18  and  O3_19 
REMARK    8  A    between atoms: C15_18  and  C16_21 
REMARK    9  A    between atoms: C17_22  and  C18_23 
REMARK   10  A    between atoms: C18_23  and  C20_25 
REMARK   11  A    between atoms: C20_25  and  C22_27 
REMARK   12  A    between atoms: C24_29  and  C25_30 
REMARK   13  A    between atoms: C25_30  and  C27_32 
REMARK   14  A    between atoms: C27_32  and  C28_33 
REMARK   15  A    between atoms: C31_38  and  C32_39 
ROOT
HETATM    1  C3  UNL     1       2.366  -1.949   0.054  1.00  0.00     0.119 C 
HETATM    2  O1  UNL     1       3.274  -1.544   1.036  1.00  0.00    -0.361 OA
HETATM    3  C4  UNL     1       2.916  -0.172   0.938  1.00  0.00     0.066 C 
HETATM    4  C5  UNL     1       2.207   0.210   2.201  1.00  0.00     0.046 C 
HETATM    5  C12 UNL     1       2.176  -0.564  -0.272  1.00  0.00     0.061 C 
HETATM    6  C13 UNL     1       0.875   0.068  -0.521  1.00  0.00     0.014 C 
HETATM    7  C14 UNL     1      -0.227  -0.009   0.427  1.00  0.00     0.043 C 
HETATM    8  C15 UNL     1      -1.642  -0.172  -0.203  1.00  0.00     0.088 C 
HETATM    9  C24 UNL     1      -1.927  -1.490  -0.737  1.00  0.00     0.127 C 
HETATM   10  C30 UNL     1      -0.713  -2.337  -1.088  1.00  0.00     0.267 C 
HETATM   11  O4  UNL     1      -0.618  -2.592  -2.346  1.00  0.00    -0.265 OA
HETATM   12  O5  UNL     1       0.041  -2.679  -0.090  1.00  0.00    -0.304 OA
HETATM   13  C31 UNL     1       1.239  -2.812   0.502  1.00  0.00     0.239 C 
ENDROOT
BRANCH   8  14
HETATM   14  O3  UNL     1      -2.481   0.163   0.879  1.00  0.00    -0.385 OA
ATOM     15  H3  UNL     1      -3.344   0.064   0.495  1.00  0.00     0.211 HD
ENDBRANCH   8  14
BRANCH   8  16
HETATM   16  C16 UNL     1      -1.790   0.921  -1.203  1.00  0.00     0.008 C 
HETATM   17  C17 UNL     1      -2.815   1.645  -1.512  1.00  0.00    -0.019 C 
BRANCH  17  18
HETATM   18  C18 UNL     1      -4.189   1.675  -1.018  1.00  0.00     0.032 C 
HETATM   19  C19 UNL     1      -5.208   1.514  -2.142  1.00  0.00     0.018 C 
BRANCH  18  20
HETATM   20  C20 UNL     1      -4.511   3.043  -0.435  1.00  0.00    -0.082 C 
HETATM   21  C21 UNL     1      -3.602   3.999  -0.426  1.00  0.00     0.015 C 
BRANCH  20  22
HETATM   22  C22 UNL     1      -5.857   3.252   0.111  1.00  0.00     0.029 C 
HETATM   23  C23 UNL     1      -6.008   4.654   0.647  1.00  0.00     0.010 C 
ENDBRANCH  20  22
ENDBRANCH  18  20
ENDBRANCH  17  18
ENDBRANCH   8  16
BRANCH   9  24
HETATM   24  C25 UNL     1      -2.795  -2.455   0.035  1.00  0.00    -0.002 C 
HETATM   25  C26 UNL     1      -2.784  -3.711  -0.894  1.00  0.00     0.011 C 
BRANCH  24  26
HETATM   26  C27 UNL     1      -4.217  -2.073   0.216  1.00  0.00     0.005 C 
BRANCH  26  27
HETATM   27  C28 UNL     1      -5.023  -3.115   1.012  1.00  0.00    -0.004 C 
HETATM   28  C29 UNL     1      -6.441  -2.516   1.089  1.00  0.00     0.005 C 
ENDBRANCH  26  27
ENDBRANCH  24  26
ENDBRANCH   9  24
BRANCH   1  29
HETATM   29  C2  UNL     1       3.163  -2.705  -0.966  1.00  0.00     0.004 C 
HETATM   30  C1  UNL     1       4.470  -2.748  -1.027  1.00  0.00     0.010 C 
ENDBRANCH   1  29
BRANCH   3  31
HETATM   31  C6  UNL     1       4.199   0.625   0.779  1.00  0.00     0.041 C 
BRANCH  31  32
HETATM   32  C7  UNL     1       4.045   2.062   0.664  1.00  0.00     0.035 C 
BRANCH  32  33
HETATM   33  C8  UNL     1       5.289   2.853   0.589  1.00  0.00     0.121 C 
BRANCH  33  34
HETATM   34  O2  UNL     1       5.006   4.245   0.483  1.00  0.00    -0.395 OA
ATOM     35  H2  UNL     1       5.807   4.754   0.435  1.00  0.00     0.210 HD
ENDBRANCH  33  34
BRANCH  33  36
HETATM   36  C9  UNL     1       6.287   2.569  -0.463  1.00  0.00     0.006 C 
HETATM   37  C10 UNL     1       7.417   3.619  -0.284  1.00  0.00     0.012 C 
HETATM   38  C11 UNL     1       6.994   1.256  -0.414  1.00  0.00     0.012 C 
ENDBRANCH  33  36
ENDBRANCH  32  33
ENDBRANCH  31  32
ENDBRANCH   3  31
BRANCH  13  39
HETATM   39  C32 UNL     1       1.583  -4.261   0.469  1.00  0.00     0.155 C 
HETATM   40  C33 UNL     1       2.807  -4.855   1.064  1.00  0.00     0.094 C 
HETATM   41  O6  UNL     1       0.821  -5.024  -0.076  1.00  0.00    -0.295 OA
ENDBRANCH  13  39
TORSDOF 15
