REMARK  6 active torsions:
REMARK  status: ('A' for Active; 'I' for Inactive)
REMARK    1  A    between atoms: C4_8  and  S1_9 
REMARK    2  A    between atoms: S1_9  and  C5_11 
REMARK    3  A    between atoms: C5_11  and  C6_12 
REMARK    4  A    between atoms: C6_12  and  C7_13 
REMARK    5  A    between atoms: C7_13  and  C8_14 
REMARK    6  A    between atoms: C12_20  and  C13_21 
ROOT
HETATM    1  C6  UNL     1      -2.243   1.297  -0.400  1.00  0.00     0.092 A 
HETATM    2  C9  UNL     1      -0.974   1.754   0.245  1.00  0.00     0.081 A 
HETATM    3  C10 UNL     1       0.024   0.765  -0.253  1.00  0.00    -0.020 A 
HETATM    4  C11 UNL     1       1.364   0.613   0.049  1.00  0.00     0.024 A 
HETATM    5  C12 UNL     1       2.167  -0.372  -0.507  1.00  0.00    -0.004 A 
HETATM    6  C20 UNL     1       1.526  -1.225  -1.415  1.00  0.00    -0.041 A 
HETATM    7  C21 UNL     1       2.287  -2.297  -2.054  1.00  0.00     0.050 C 
HETATM    8  C22 UNL     1       0.173  -1.075  -1.724  1.00  0.00    -0.021 A 
HETATM    9  C23 UNL     1      -0.467  -1.994  -2.687  1.00  0.00     0.052 C 
HETATM   10  C24 UNL     1      -0.567  -0.093  -1.149  1.00  0.00     0.082 A 
HETATM   11  O4  UNL     1      -1.904   0.269  -1.278  1.00  0.00    -0.337 OA
ENDROOT
BRANCH   1  12
HETATM   12  C5  UNL     1      -3.170   0.707   0.669  1.00  0.00     0.155 C 
BRANCH  12  13
HETATM   13  S1  UNL     1      -4.624   0.044  -0.119  1.00  0.00     0.071 S 
HETATM   14  O1  UNL     1      -4.211  -1.177  -1.191  1.00  0.00    -0.251 OA
BRANCH  13  15
HETATM   15  C4  UNL     1      -5.679  -0.627   1.096  1.00  0.00     0.123 A 
HETATM   16  C2  UNL     1      -7.047  -0.684   1.033  1.00  0.00     0.042 A 
HETATM   17  C1  UNL     1      -7.907  -0.196  -0.066  1.00  0.00     0.071 C 
HETATM   18  N1  UNL     1      -7.493  -1.273   2.164  1.00  0.00    -0.354 N 
HETATM   19  C3  UNL     1      -6.430  -1.579   2.920  1.00  0.00     0.181 A 
ATOM     20  H1  UNL     1      -8.469  -1.453   2.401  1.00  0.00     0.166 HD
HETATM   21  N2  UNL     1      -5.332  -1.188   2.275  1.00  0.00    -0.344 N 
ATOM     22  H2  UNL     1      -4.377  -1.295   2.618  1.00  0.00     0.167 HD
ENDBRANCH  13  15
ENDBRANCH  12  13
ENDBRANCH   1  12
BRANCH   1  23
HETATM   23  C7  UNL     1      -2.946   2.398  -1.152  1.00  0.00     0.152 C 
BRANCH  23  24
HETATM   24  C8  UNL     1      -2.115   3.014  -2.209  1.00  0.00     0.175 C 
HETATM   25  O2  UNL     1      -0.942   2.674  -2.493  1.00  0.00    -0.648 OA
HETATM   26  O3  UNL     1      -2.672   4.043  -2.940  1.00  0.00    -0.648 OA
ENDBRANCH  23  24
ENDBRANCH   1  23
BRANCH   5  27
HETATM   27  C13 UNL     1       3.581  -0.493  -0.177  1.00  0.00     0.043 C 
HETATM   28  N3  UNL     1       4.368  -1.355  -0.691  1.00  0.00    -0.306 N 
HETATM   29  N4  UNL     1       5.658  -1.295  -0.242  1.00  0.00    -0.130 NA
ATOM     30  H3  UNL     1       4.059  -2.037  -1.384  1.00  0.00     0.182 HD
HETATM   31  C14 UNL     1       5.659  -0.500   0.963  1.00  0.00     0.056 C 
HETATM   32  C15 UNL     1       5.519  -1.495   2.110  1.00  0.00     0.036 C 
HETATM   33  C16 UNL     1       6.859   0.370   1.113  1.00  0.00     0.036 C 
HETATM   34  C17 UNL     1       4.369   0.302   0.788  1.00  0.00     0.020 C 
HETATM   35  C18 UNL     1       4.660   1.658   0.181  1.00  0.00     0.024 C 
HETATM   36  C19 UNL     1       3.780   0.416   2.157  1.00  0.00     0.024 C 
ENDBRANCH   5  27
TORSDOF 6
