REMARK  11 active torsions:
REMARK  status: ('A' for Active; 'I' for Inactive)
REMARK    1  A    between atoms: C13_14  and  C14_15 
REMARK    2  A    between atoms: C14_15  and  C15_16 
REMARK    3  A    between atoms: C15_16  and  C17_18 
REMARK    4  A    between atoms: C17_18  and  O2_19 
REMARK    5  A    between atoms: C17_18  and  C20_23 
REMARK    6  A    between atoms: O2_19  and  C18_20 
REMARK    7  A    between atoms: C20_23  and  O4_24 
REMARK    8  A    between atoms: C20_23  and  C21_26 
REMARK    9  A    between atoms: C21_26  and  O5_27 
REMARK   10  A    between atoms: C22_29  and  O6_31 
REMARK   11  A    between atoms: C27_36  and  O7_37 
ROOT
HETATM    1  C1  UNL     1      -4.028   2.113  -2.622  1.00  0.00     0.017 C 
HETATM    2  C2  UNL     1      -3.611   1.785  -1.413  1.00  0.00    -0.060 C 
HETATM    3  C3  UNL     1      -4.496   2.191  -0.285  1.00  0.00     0.036 C 
HETATM    4  C4  UNL     1      -4.213   1.491   0.986  1.00  0.00     0.013 C 
HETATM    5  C5  UNL     1      -3.279   0.339   0.929  1.00  0.00     0.031 C 
HETATM    6  C6  UNL     1      -3.880  -0.974   0.618  1.00  0.00     0.058 C 
HETATM    7  C7  UNL     1      -4.438  -1.545   1.940  1.00  0.00     0.046 C 
HETATM    8  C8  UNL     1      -5.102  -0.953  -0.303  1.00  0.00     0.046 C 
HETATM    9  O1  UNL     1      -3.044  -1.865  -0.008  1.00  0.00    -0.375 OA
HETATM   10  C9  UNL     1      -1.736  -1.836   0.284  1.00  0.00     0.123 C 
HETATM   11  C10 UNL     1      -1.463  -2.414   1.655  1.00  0.00     0.040 C 
HETATM   12  C11 UNL     1      -1.048  -0.471   0.092  1.00  0.00     0.026 C 
HETATM   13  C12 UNL     1       0.126  -0.552   0.969  1.00  0.00     0.015 C 
HETATM   14  C13 UNL     1       1.216   0.456   0.887  1.00  0.00     0.020 C 
HETATM   15  C22 UNL     1       0.818   1.683   1.674  1.00  0.00     0.058 C 
HETATM   16  C23 UNL     1       1.549   1.797   2.995  1.00  0.00     0.046 C 
HETATM   17  C24 UNL     1      -0.661   1.729   2.004  1.00  0.00     0.038 C 
HETATM   18  C25 UNL     1      -1.402   1.931   0.752  1.00  0.00     0.016 C 
HETATM   19  C26 UNL     1      -1.993   0.654   0.148  1.00  0.00     0.002 C 
HETATM   20  C27 UNL     1      -2.355   1.072  -1.275  1.00  0.00     0.155 C 
ENDROOT
BRANCH  14  21
HETATM   21  C14 UNL     1       1.757   0.738  -0.447  1.00  0.00     0.014 C 
BRANCH  21  22
HETATM   22  C15 UNL     1       2.387  -0.408  -1.203  1.00  0.00     0.014 C 
HETATM   23  C16 UNL     1       2.820   0.179  -2.581  1.00  0.00     0.012 C 
BRANCH  22  24
HETATM   24  C17 UNL     1       3.600  -1.005  -0.543  1.00  0.00     0.166 C 
BRANCH  24  25
HETATM   25  O2  UNL     1       4.681  -0.183  -0.362  1.00  0.00    -0.313 OA
BRANCH  25  26
HETATM   26  C18 UNL     1       5.301   0.275   0.754  1.00  0.00     0.255 C 
HETATM   27  C19 UNL     1       6.485   1.187   0.742  1.00  0.00     0.126 C 
HETATM   28  O3  UNL     1       4.845  -0.095   1.838  1.00  0.00    -0.266 OA
ENDBRANCH  25  26
ENDBRANCH  24  25
BRANCH  24  29
HETATM   29  C20 UNL     1       3.918  -2.416  -0.988  1.00  0.00     0.171 C 
BRANCH  29  30
HETATM   30  O4  UNL     1       4.727  -3.040   0.008  1.00  0.00    -0.391 OA
ATOM     31  H4  UNL     1       4.927  -3.926  -0.271  1.00  0.00     0.210 HD
ENDBRANCH  29  30
BRANCH  29  32
HETATM   32  C21 UNL     1       4.558  -2.543  -2.328  1.00  0.00     0.198 C 
BRANCH  32  33
HETATM   33  O5  UNL     1       4.717  -3.936  -2.584  1.00  0.00    -0.398 OA
ATOM     34  H5  UNL     1       5.125  -4.017  -3.438  1.00  0.00     0.209 HD
ENDBRANCH  32  33
ENDBRANCH  29  32
ENDBRANCH  24  29
ENDBRANCH  22  24
ENDBRANCH  21  22
ENDBRANCH  14  21
BRANCH  15  35
HETATM   35  O6  UNL     1       1.111   2.849   0.953  1.00  0.00    -0.390 OA
ATOM     36  H6  UNL     1       0.861   3.620   1.448  1.00  0.00     0.210 HD
ENDBRANCH  15  35
BRANCH  20  37
HETATM   37  O7  UNL     1      -2.233  -0.045  -2.119  1.00  0.00    -0.390 OA
ATOM     38  H7  UNL     1      -1.411  -0.512  -2.029  1.00  0.00     0.210 HD
ENDBRANCH  20  37
TORSDOF 11
