REMARK  15 active torsions:
REMARK  status: ('A' for Active; 'I' for Inactive)
REMARK    1  A    between atoms: C2_2  and  C3_3 
REMARK    2  A    between atoms: C2_2  and  C25_28 
REMARK    3  A    between atoms: C3_3  and  N1_4 
REMARK    4  A    between atoms: N1_4  and  C4_5 
REMARK    5  A    between atoms: N1_4  and  C12_13 
REMARK    6  A    between atoms: C4_5  and  C5_6 
REMARK    7  A    between atoms: C5_6  and  C6_7 
REMARK    8  A    between atoms: C12_13  and  C13_14 
REMARK    9  A    between atoms: C16_17  and  C17_18 
REMARK   10  A    between atoms: C17_18  and  N2_19 
REMARK   11  A    between atoms: C25_28  and  O1_29 
REMARK   12  A    between atoms: C25_28  and  C26_31 
REMARK   13  A    between atoms: C26_31  and  O2_32 
REMARK   14  A    between atoms: O2_32  and  C27_33 
REMARK   15  A    between atoms: C32_38  and  C33_39 
ROOT
HETATM    1  N1  UNL     1       0.974   1.458  -1.472  1.00  0.00     0.093 N 
ENDROOT
BRANCH   1   2
HETATM    2  C3  UNL     1      -0.078   0.660  -0.902  1.00  0.00     0.279 C 
BRANCH   2   3
HETATM    3  C2  UNL     1      -1.071   0.186  -1.939  1.00  0.00     0.041 C 
HETATM    4  C1  UNL     1      -0.395  -0.660  -3.001  1.00  0.00     0.014 C 
BRANCH   3   5
HETATM    5  C25 UNL     1      -2.090  -0.683  -1.229  1.00  0.00     0.147 C 
BRANCH   5   6
HETATM    6  O1  UNL     1      -3.048  -1.161  -2.147  1.00  0.00    -0.393 OA
ATOM      7  H1  UNL     1      -3.687  -1.706  -1.702  1.00  0.00     0.210 HD
ENDBRANCH   5   6
BRANCH   5   8
HETATM    8  C26 UNL     1      -2.885   0.111  -0.199  1.00  0.00     0.207 C 
BRANCH   8   9
HETATM    9  O2  UNL     1      -3.842  -0.725   0.429  1.00  0.00    -0.348 OA
BRANCH   9  10
HETATM   10  C27 UNL     1      -4.659  -0.170   1.395  1.00  0.00     0.075 A 
HETATM   11  C28 UNL     1      -4.540   1.183   1.740  1.00  0.00     0.037 A 
HETATM   12  C29 UNL     1      -5.373   1.708   2.711  1.00  0.00     0.003 A 
HETATM   13  C30 UNL     1      -6.308   0.904   3.328  1.00  0.00     0.001 A 
HETATM   14  C31 UNL     1      -6.410  -0.445   2.968  1.00  0.00     0.011 A 
HETATM   15  C32 UNL     1      -5.587  -0.980   2.003  1.00  0.00    -0.017 A 
BRANCH  15  16
HETATM   16  C33 UNL     1      -5.679  -2.389   1.613  1.00  0.00    -0.021 C 
HETATM   17  C34 UNL     1      -6.008  -2.570   0.148  1.00  0.00     0.019 C 
HETATM   18  C35 UNL     1      -6.788  -3.091   2.403  1.00  0.00     0.019 C 
HETATM   19  C36 UNL     1      -4.412  -3.165   1.890  1.00  0.00     0.019 C 
ENDBRANCH  15  16
ENDBRANCH   9  10
ENDBRANCH   8   9
ENDBRANCH   5   8
ENDBRANCH   3   5
ENDBRANCH   2   3
ENDBRANCH   1   2
BRANCH   1  20
HETATM   20  C4  UNL     1       0.436   2.696  -1.932  1.00  0.00     0.277 C 
BRANCH  20  21
HETATM   21  C5  UNL     1       1.462   3.621  -2.543  1.00  0.00     0.068 C 
BRANCH  21  22
HETATM   22  C6  UNL     1       0.740   4.860  -2.970  1.00  0.00    -0.057 A 
HETATM   23  C7  UNL     1       0.196   4.980  -4.232  1.00  0.00     0.007 A 
HETATM   24  C8  UNL     1      -0.469   6.119  -4.631  1.00  0.00     0.001 A 
HETATM   25  C9  UNL     1      -0.610   7.171  -3.781  1.00  0.00     0.000 A 
HETATM   26  C10 UNL     1      -0.076   7.082  -2.508  1.00  0.00     0.001 A 
HETATM   27  C11 UNL     1       0.590   5.934  -2.118  1.00  0.00     0.007 A 
ENDBRANCH  21  22
ENDBRANCH  20  21
ENDBRANCH   1  20
BRANCH   1  28
HETATM   28  C12 UNL     1       2.002   1.647  -0.477  1.00  0.00     0.311 C 
BRANCH  28  29
HETATM   29  C13 UNL     1       2.581   0.358  -0.046  1.00  0.00    -0.030 A 
HETATM   30  C14 UNL     1       3.349  -0.339  -0.958  1.00  0.00     0.009 A 
HETATM   31  C15 UNL     1       3.895  -1.535  -0.542  1.00  0.00     0.009 A 
HETATM   32  C16 UNL     1       3.707  -2.051   0.724  1.00  0.00    -0.040 A 
HETATM   33  C23 UNL     1       2.939  -1.362   1.642  1.00  0.00     0.009 A 
HETATM   34  C24 UNL     1       2.393  -0.166   1.229  1.00  0.00     0.009 A 
BRANCH  32  35
HETATM   35  C17 UNL     1       4.353  -3.346   1.034  1.00  0.00     0.166 C 
BRANCH  35  36
HETATM   36  N2  UNL     1       5.695  -3.178   1.547  1.00  0.00    -0.362 N 
HETATM   37  C18 UNL     1       6.691  -3.160   0.649  1.00  0.00     0.092 A 
HETATM   38  C19 UNL     1       8.014  -3.005   0.997  1.00  0.00     0.043 A 
HETATM   39  C20 UNL     1       8.366  -2.860   2.324  1.00  0.00     0.049 A 
HETATM   40  N3  UNL     1       9.708  -2.697   2.746  1.00  0.00    -0.102 NA
HETATM   41  C21 UNL     1       7.307  -2.884   3.217  1.00  0.00     0.043 A 
HETATM   42  C22 UNL     1       5.995  -3.040   2.840  1.00  0.00     0.092 A 
ENDBRANCH  35  36
ENDBRANCH  32  35
ENDBRANCH  28  29
ENDBRANCH   1  28
TORSDOF 15
