REMARK  13 active torsions:
REMARK  status: ('A' for Active; 'I' for Inactive)
REMARK    1  A    between atoms: C2_2  and  C3_3 
REMARK    2  A    between atoms: C3_3  and  N1_4 
REMARK    3  A    between atoms: C5_7  and  N2_8 
REMARK    4  A    between atoms: N2_8  and  C6_10 
REMARK    5  A    between atoms: C6_10  and  C7_11 
REMARK    6  A    between atoms: C6_10  and  C17_24 
REMARK    7  A    between atoms: C7_11  and  N3_12 
REMARK    8  A    between atoms: N3_12  and  C8_15 
REMARK    9  A    between atoms: C8_15  and  C10_17 
REMARK   10  A    between atoms: C10_17  and  C11_18 
REMARK   11  A    between atoms: C20_27  and  O2_28 
REMARK   12  A    between atoms: O2_28  and  C21_29 
REMARK   13  A    between atoms: C21_29  and  C22_30 
ROOT
HETATM    1  C6  UNL     1      -0.446   0.257  -0.176  1.00  0.00     0.154 C 
ENDROOT
BRANCH   1   2
HETATM    2  N2  UNL     1      -1.441  -0.232  -1.020  1.00  0.00    -0.390 N 
ATOM      3  H2  UNL     1      -1.533   0.127  -1.970  1.00  0.00     0.155 HD
BRANCH   2   4
HETATM    4  C5  UNL     1      -2.332  -1.242  -0.541  1.00  0.00     0.239 C 
HETATM    5  C4  UNL     1      -3.287  -0.781   0.527  1.00  0.00     0.258 C 
HETATM    6  N1  UNL     1      -4.752  -0.953   0.537  1.00  0.00    -0.311 N 
HETATM    7  O1  UNL     1      -2.900  -0.195   1.530  1.00  0.00    -0.270 OA
HETATM    8  C36 UNL     1      -5.640  -1.140  -0.585  1.00  0.00     0.044 A 
HETATM    9  C31 UNL     1      -5.420  -1.738  -1.814  1.00  0.00    -0.021 A 
HETATM   10  C35 UNL     1      -6.903  -0.626  -0.336  1.00  0.00     0.030 A 
HETATM   11  C30 UNL     1      -4.138  -2.358  -2.374  1.00  0.00     0.123 C 
HETATM   12  C32 UNL     1      -6.397  -1.825  -2.750  1.00  0.00     0.010 A 
HETATM   13  C29 UNL     1      -3.087  -1.889  -1.559  1.00  0.00    -0.144 C 
HETATM   14  C33 UNL     1      -7.640  -1.312  -2.489  1.00  0.00     0.001 A 
HETATM   15  C34 UNL     1      -7.912  -0.710  -1.289  1.00  0.00     0.002 A 
BRANCH   6  16
HETATM   16  C3  UNL     1      -5.379  -0.977   1.815  1.00  0.00     0.158 C 
BRANCH  16  17
HETATM   17  C2  UNL     1      -5.509  -2.356   2.385  1.00  0.00    -0.017 C 
HETATM   18  C1  UNL     1      -4.981  -2.754   3.518  1.00  0.00     0.008 C 
ENDBRANCH  16  17
ENDBRANCH   6  16
ENDBRANCH   2   4
ENDBRANCH   1   2
BRANCH   1  19
HETATM   19  C7  UNL     1      -0.115   1.690  -0.514  1.00  0.00     0.263 C 
BRANCH  19  20
HETATM   20  N3  UNL     1       0.890   2.263   0.342  1.00  0.00    -0.069 N 
ATOM     21  H32 UNL     1       0.696   2.122   1.333  1.00  0.00     0.277 HD
ATOM     22  H31 UNL     1       1.776   1.759   0.308  1.00  0.00     0.277 HD
BRANCH  20  23
HETATM   23  C8  UNL     1       1.022   3.685  -0.022  1.00  0.00     0.186 C 
HETATM   24  C9  UNL     1      -0.287   4.369   0.219  1.00  0.00     0.040 C 
BRANCH  23  25
HETATM   25  C10 UNL     1       2.123   4.263   0.803  1.00  0.00     0.071 C 
BRANCH  25  26
HETATM   26  C11 UNL     1       2.420   5.674   0.613  1.00  0.00    -0.056 A 
HETATM   27  C12 UNL     1       3.285   6.170  -0.367  1.00  0.00     0.007 A 
HETATM   28  C13 UNL     1       3.557   7.517  -0.512  1.00  0.00     0.001 A 
HETATM   29  C14 UNL     1       2.979   8.446   0.314  1.00  0.00     0.000 A 
HETATM   30  C15 UNL     1       2.119   7.996   1.293  1.00  0.00     0.001 A 
HETATM   31  C16 UNL     1       1.854   6.653   1.432  1.00  0.00     0.007 A 
ENDBRANCH  25  26
ENDBRANCH  23  25
ENDBRANCH  20  23
ENDBRANCH  19  20
ENDBRANCH   1  19
BRANCH   1  32
HETATM   32  C17 UNL     1       0.802  -0.558  -0.268  1.00  0.00     0.033 A 
HETATM   33  C18 UNL     1       1.130  -1.235  -1.425  1.00  0.00     0.030 A 
HETATM   34  C19 UNL     1       2.250  -2.029  -1.488  1.00  0.00     0.040 A 
HETATM   35  C20 UNL     1       3.036  -2.119  -0.332  1.00  0.00     0.084 A 
HETATM   36  C28 UNL     1       2.705  -1.443   0.806  1.00  0.00     0.124 A 
HETATM   37  N4  UNL     1       1.585  -0.678   0.795  1.00  0.00    -0.365 N 
ATOM     38  H4  UNL     1       1.334  -0.172   1.644  1.00  0.00     0.165 HD
BRANCH  35  39
HETATM   39  O2  UNL     1       4.170  -2.942  -0.408  1.00  0.00    -0.345 OA
BRANCH  39  40
HETATM   40  C21 UNL     1       5.003  -3.068   0.717  1.00  0.00     0.214 C 
BRANCH  40  41
HETATM   41  C22 UNL     1       6.069  -4.052   0.420  1.00  0.00    -0.034 A 
HETATM   42  C23 UNL     1       6.139  -5.182   1.231  1.00  0.00     0.009 A 
HETATM   43  C24 UNL     1       7.070  -6.172   1.037  1.00  0.00     0.001 A 
HETATM   44  C25 UNL     1       7.971  -6.055   0.009  1.00  0.00     0.000 A 
HETATM   45  C26 UNL     1       7.925  -4.947  -0.808  1.00  0.00     0.001 A 
HETATM   46  C27 UNL     1       6.981  -3.969  -0.590  1.00  0.00     0.009 A 
ENDBRANCH  40  41
ENDBRANCH  39  40
ENDBRANCH  35  39
ENDBRANCH   1  32
TORSDOF 13
