REMARK  11 active torsions:
REMARK  status: ('A' for Active; 'I' for Inactive)
REMARK    1  A    between atoms: C2_2  and  C3_3 
REMARK    2  A    between atoms: C3_3  and  C4_4 
REMARK    3  A    between atoms: C4_4  and  C5_5 
REMARK    4  A    between atoms: C7_10  and  C8_11 
REMARK    5  A    between atoms: C8_11  and  C9_12 
REMARK    6  A    between atoms: C9_12  and  C10_13 
REMARK    7  A    between atoms: C13_19  and  C14_20 
REMARK    8  A    between atoms: C14_20  and  C15_21 
REMARK    9  A    between atoms: C21_33  and  C22_34 
REMARK   10  A    between atoms: C22_34  and  C23_35 
REMARK   11  A    between atoms: C27_42  and  C28_43 
ROOT
HETATM    1  C5  UNL     1      -1.790  -2.235  -1.021  1.00  0.00     0.177 C 
HETATM    2  N1  UNL     1      -1.515  -1.793   0.317  1.00  0.00    -0.346 N 
ATOM      3  H1  UNL     1      -0.850  -2.348   0.856  1.00  0.00     0.163 HD
HETATM    4  C6  UNL     1      -2.075  -0.661   0.965  1.00  0.00     0.241 C 
HETATM    5  O1  UNL     1      -1.412  -0.277   1.993  1.00  0.00    -0.271 OA
HETATM    6  C7  UNL     1      -3.268   0.080   0.608  1.00  0.00     0.176 C 
HETATM    7  N2  UNL     1      -3.160   1.080  -0.425  1.00  0.00    -0.346 N 
ATOM      8  H2  UNL     1      -4.052   1.511  -0.669  1.00  0.00     0.163 HD
HETATM    9  C12 UNL     1      -2.097   1.571  -1.148  1.00  0.00     0.241 C 
HETATM   10  O2  UNL     1      -2.116   1.395  -2.432  1.00  0.00    -0.271 OA
HETATM   11  C13 UNL     1      -0.875   2.297  -0.723  1.00  0.00     0.177 C 
HETATM   12  N3  UNL     1      -0.904   2.881   0.569  1.00  0.00    -0.348 N 
ATOM     13  H3  UNL     1      -1.786   3.254   0.919  1.00  0.00     0.163 HD
HETATM   14  C18 UNL     1       0.257   2.967   1.400  1.00  0.00     0.219 C 
HETATM   15  O3  UNL     1       0.331   3.946   2.194  1.00  0.00    -0.274 OA
HETATM   16  C19 UNL     1       1.366   2.006   1.399  1.00  0.00     0.130 C 
HETATM   17  C20 UNL     1       2.524   2.369   0.539  1.00  0.00     0.242 C 
HETATM   18  N4  UNL     1       3.528   1.308   0.677  1.00  0.00    -0.062 N 
ATOM     19  H41 UNL     1       3.148   0.516   1.196  1.00  0.00     0.278 HD
ATOM     20  H42 UNL     1       4.268   1.592   1.319  1.00  0.00     0.278 HD
HETATM   21  C21 UNL     1       4.068   0.886  -0.550  1.00  0.00     0.277 C 
HETATM   22  C26 UNL     1       3.296  -0.073  -1.358  1.00  0.00     0.249 C 
HETATM   23  O4  UNL     1       2.860   0.376  -2.483  1.00  0.00    -0.271 OA
HETATM   24  N5  UNL     1       2.973  -1.406  -1.078  1.00  0.00    -0.346 N 
ATOM     25  H5  UNL     1       3.340  -2.091  -1.739  1.00  0.00     0.163 HD
HETATM   26  C27 UNL     1       2.190  -1.957   0.019  1.00  0.00     0.176 C 
HETATM   27  C30 UNL     1       1.437  -3.168  -0.434  1.00  0.00     0.247 C 
HETATM   28  O5  UNL     1       1.608  -4.261   0.213  1.00  0.00    -0.271 OA
HETATM   29  N6  UNL     1       0.543  -3.252  -1.512  1.00  0.00    -0.294 N 
ATOM     30  H6  UNL     1       0.737  -4.006  -2.171  1.00  0.00     0.171 HD
HETATM   31  C31 UNL     1      -0.574  -2.467  -1.830  1.00  0.00     0.247 C 
HETATM   32  O6  UNL     1      -0.550  -1.869  -2.969  1.00  0.00    -0.271 OA
ENDROOT
BRANCH   1  33
HETATM   33  C4  UNL     1      -2.638  -3.516  -0.984  1.00  0.00     0.035 C 
BRANCH  33  34
HETATM   34  C3  UNL     1      -2.888  -3.940  -2.402  1.00  0.00     0.002 C 
BRANCH  34  35
HETATM   35  C2  UNL     1      -3.732  -5.209  -2.386  1.00  0.00    -0.004 C 
HETATM   36  C1  UNL     1      -3.952  -5.607  -3.838  1.00  0.00     0.005 C 
ENDBRANCH  34  35
ENDBRANCH  33  34
ENDBRANCH   1  33
BRANCH   6  37
HETATM   37  C8  UNL     1      -3.917   0.681   1.869  1.00  0.00     0.035 C 
BRANCH  37  38
HETATM   38  C9  UNL     1      -4.302  -0.421   2.820  1.00  0.00     0.002 C 
BRANCH  38  39
HETATM   39  C10 UNL     1      -4.937   0.241   4.027  1.00  0.00    -0.004 C 
HETATM   40  C11 UNL     1      -5.356  -0.817   5.047  1.00  0.00     0.005 C 
ENDBRANCH  38  39
ENDBRANCH  37  38
ENDBRANCH   6  37
BRANCH  26  41
HETATM   41  C28 UNL     1       3.220  -2.446   1.038  1.00  0.00     0.030 C 
HETATM   42  C29 UNL     1       2.487  -3.024   2.222  1.00  0.00     0.007 C 
ENDBRANCH  26  41
BRANCH  11  43
HETATM   43  C14 UNL     1      -0.475   3.330  -1.761  1.00  0.00     0.038 C 
BRANCH  43  44
HETATM   44  C15 UNL     1      -1.486   4.370  -2.055  1.00  0.00    -0.020 C 
HETATM   45  C16 UNL     1      -0.920   5.326  -3.122  1.00  0.00     0.009 C 
HETATM   46  C17 UNL     1      -1.860   5.265  -0.897  1.00  0.00     0.009 C 
ENDBRANCH  43  44
ENDBRANCH  11  43
BRANCH  21  47
HETATM   47  C22 UNL     1       5.507   0.449  -0.380  1.00  0.00     0.046 C 
BRANCH  47  48
HETATM   48  C23 UNL     1       6.383   1.537   0.132  1.00  0.00    -0.020 C 
HETATM   49  C24 UNL     1       7.800   0.919   0.214  1.00  0.00     0.009 C 
HETATM   50  C25 UNL     1       6.059   1.911   1.577  1.00  0.00     0.009 C 
ENDBRANCH  47  48
ENDBRANCH  21  47
TORSDOF 11
