REMARK  14 active torsions:
REMARK  status: ('A' for Active; 'I' for Inactive)
REMARK    1  A    between atoms: C2_2  and  C3_3 
REMARK    2  A    between atoms: C3_3  and  C5_5 
REMARK    3  A    between atoms: C6_6  and  O1_7 
REMARK    4  A    between atoms: C7_11  and  C8_12 
REMARK    5  A    between atoms: C8_12  and  C9_13 
REMARK    6  A    between atoms: C13_20  and  C14_21 
REMARK    7  A    between atoms: C14_21  and  C15_22 
REMARK    8  A    between atoms: C19_29  and  C20_30 
REMARK    9  A    between atoms: C20_30  and  C21_31 
REMARK   10  A    between atoms: C25_38  and  C26_39 
REMARK   11  A    between atoms: C26_39  and  C27_40 
REMARK   12  A    between atoms: C27_40  and  C28_41 
REMARK   13  A    between atoms: C28_41  and  N5_42 
REMARK   14  A    between atoms: C30_47  and  O5_48 
ROOT
HETATM    1  C5  UNL     1       1.054  -2.812  -1.033  1.00  0.00     0.067 C 
HETATM    2  C6  UNL     1      -0.209  -2.570  -1.728  1.00  0.00     0.160 C 
HETATM    3  N1  UNL     1      -1.229  -1.658  -1.603  1.00  0.00    -0.356 N 
ATOM      4  H1  UNL     1      -1.397  -1.103  -2.442  1.00  0.00     0.162 HD
HETATM    5  C7  UNL     1      -2.112  -1.340  -0.493  1.00  0.00     0.176 C 
HETATM    6  C12 UNL     1      -3.011  -0.205  -0.887  1.00  0.00     0.241 C 
HETATM    7  O2  UNL     1      -3.873  -0.519  -1.752  1.00  0.00    -0.271 OA
HETATM    8  N2  UNL     1      -2.977   1.112  -0.405  1.00  0.00    -0.346 N 
ATOM      9  H2  UNL     1      -2.906   1.830  -1.126  1.00  0.00     0.163 HD
HETATM   10  C13 UNL     1      -3.026   1.609   0.931  1.00  0.00     0.177 C 
HETATM   11  C18 UNL     1      -1.721   1.758   1.618  1.00  0.00     0.241 C 
HETATM   12  O3  UNL     1      -1.896   2.060   2.867  1.00  0.00    -0.271 OA
HETATM   13  N3  UNL     1      -0.420   1.637   1.181  1.00  0.00    -0.346 N 
ATOM     14  H3  UNL     1       0.100   0.911   1.675  1.00  0.00     0.163 HD
HETATM   15  C19 UNL     1       0.361   2.305   0.188  1.00  0.00     0.177 C 
HETATM   16  C24 UNL     1       0.715   1.486  -0.995  1.00  0.00     0.241 C 
HETATM   17  O4  UNL     1       0.064   1.690  -2.064  1.00  0.00    -0.271 OA
HETATM   18  N4  UNL     1       1.726   0.485  -1.049  1.00  0.00    -0.347 N 
ATOM     19  H4  UNL     1       1.921   0.083  -1.966  1.00  0.00     0.163 HD
HETATM   20  C25 UNL     1       2.485  -0.008   0.031  1.00  0.00     0.159 C 
HETATM   21  C30 UNL     1       2.158  -1.280   0.646  1.00  0.00     0.141 C 
HETATM   22  N8  UNL     1       1.267  -2.320   0.274  1.00  0.00    -0.334 N 
HETATM   23  C31 UNL     1       0.548  -2.941   1.398  1.00  0.00     0.158 C 
ENDROOT
BRANCH  20  24
HETATM   24  C26 UNL     1       3.993   0.066  -0.186  1.00  0.00     0.035 C 
BRANCH  24  25
HETATM   25  C27 UNL     1       4.486  -0.693  -1.361  1.00  0.00     0.022 C 
BRANCH  25  26
HETATM   26  C28 UNL     1       5.984  -0.533  -1.457  1.00  0.00     0.122 C 
BRANCH  26  27
HETATM   27  N5  UNL     1       6.375   0.852  -1.611  1.00  0.00    -0.367 N 
HETATM   28  C29 UNL     1       7.152   1.454  -0.778  1.00  0.00     0.196 C 
HETATM   29  N6  UNL     1       7.474   2.815  -1.021  1.00  0.00    -0.067 NA
HETATM   30  N7  UNL     1       7.653   0.750   0.338  1.00  0.00    -0.067 NA
ATOM     31  H5  UNL     1       6.020   1.373  -2.413  1.00  0.00     0.161 HD
ENDBRANCH  26  27
ENDBRANCH  25  26
ENDBRANCH  24  25
ENDBRANCH  20  24
BRANCH  21  32
HETATM   32  O5  UNL     1       2.845  -1.445   1.748  1.00  0.00    -0.348 OA
ATOM     33  H5  UNL     1       2.631  -2.278   2.151  1.00  0.00     0.219 HD
ENDBRANCH  21  32
BRANCH  15  34
HETATM   34  C20 UNL     1      -0.116   3.669  -0.225  1.00  0.00     0.038 C 
BRANCH  34  35
HETATM   35  C21 UNL     1      -0.167   4.676   0.867  1.00  0.00    -0.020 C 
HETATM   36  C22 UNL     1       1.237   4.826   1.423  1.00  0.00     0.009 C 
HETATM   37  C23 UNL     1      -0.575   6.008   0.267  1.00  0.00     0.009 C 
ENDBRANCH  34  35
ENDBRANCH  15  34
BRANCH   1  38
HETATM   38  C3  UNL     1       1.500  -4.254  -1.227  1.00  0.00     0.036 C 
HETATM   39  C4  UNL     1       2.898  -4.532  -0.793  1.00  0.00     0.016 C 
BRANCH  38  40
HETATM   40  C2  UNL     1       0.557  -5.288  -0.729  1.00  0.00     0.006 C 
HETATM   41  C1  UNL     1       0.913  -6.682  -1.257  1.00  0.00     0.006 C 
ENDBRANCH  38  40
ENDBRANCH   1  38
BRANCH   2  42
HETATM   42  O1  UNL     1      -0.379  -3.439  -2.692  1.00  0.00    -0.345 OA
ATOM     43  H1  UNL     1      -1.200  -3.282  -3.144  1.00  0.00     0.219 HD
ENDBRANCH   2  42
BRANCH  10  44
HETATM   44  C14 UNL     1      -3.720   2.951   1.057  1.00  0.00     0.038 C 
BRANCH  44  45
HETATM   45  C15 UNL     1      -5.138   2.993   0.636  1.00  0.00    -0.020 C 
HETATM   46  C16 UNL     1      -5.599   4.450   0.880  1.00  0.00     0.009 C 
HETATM   47  C17 UNL     1      -5.425   2.731  -0.806  1.00  0.00     0.009 C 
ENDBRANCH  44  45
ENDBRANCH  10  44
BRANCH   5  48
HETATM   48  C8  UNL     1      -3.082  -2.494  -0.234  1.00  0.00     0.038 C 
BRANCH  48  49
HETATM   49  C9  UNL     1      -4.014  -2.278   0.895  1.00  0.00    -0.020 C 
HETATM   50  C10 UNL     1      -3.320  -2.081   2.225  1.00  0.00     0.009 C 
HETATM   51  C11 UNL     1      -4.876  -3.522   1.040  1.00  0.00     0.009 C 
ENDBRANCH  48  49
ENDBRANCH   5  48
TORSDOF 14
