REMARK  14 active torsions:
REMARK  status: ('A' for Active; 'I' for Inactive)
REMARK    1  A    between atoms: C2_2  and  C4_4 
REMARK    2  A    between atoms: C4_4  and  C5_5 
REMARK    3  A    between atoms: C6_8  and  O1_9 
REMARK    4  A    between atoms: C10_17  and  C11_18 
REMARK    5  A    between atoms: C11_18  and  C12_19 
REMARK    6  A    between atoms: C12_19  and  C13_20 
REMARK    7  A    between atoms: C13_20  and  C14_21 
REMARK    8  A    between atoms: C14_21  and  N3_22 
REMARK    9  A    between atoms: C16_30  and  C17_31 
REMARK   10  A    between atoms: C21_36  and  C22_37 
REMARK   11  A    between atoms: C22_37  and  C23_38 
REMARK   12  A    between atoms: C26_43  and  O5_44 
REMARK   13  A    between atoms: C27_46  and  C28_47 
REMARK   14  A    between atoms: C28_47  and  C29_48 
ROOT
HETATM    1  C5  UNL     1      -2.651  -2.109   0.229  1.00  0.00     0.199 C 
HETATM    2  N1  UNL     1      -1.927  -2.435  -0.963  1.00  0.00    -0.356 N 
ATOM      3  H1  UNL     1      -2.401  -2.165  -1.825  1.00  0.00     0.162 HD
HETATM    4  C6  UNL     1      -0.710  -3.045  -1.159  1.00  0.00     0.135 C 
HETATM    5  C7  UNL     1       0.570  -3.056  -0.484  1.00  0.00     0.155 C 
HETATM    6  C8  UNL     1       0.987  -4.544  -0.365  1.00  0.00     0.041 C 
HETATM    7  N2  UNL     1       0.706  -2.523   0.810  1.00  0.00    -0.348 N 
ATOM      8  H2  UNL     1      -0.029  -2.705   1.493  1.00  0.00     0.163 HD
HETATM    9  C9  UNL     1       1.817  -1.746   1.205  1.00  0.00     0.241 C 
HETATM   10  O2  UNL     1       2.189  -1.679   2.426  1.00  0.00    -0.271 OA
HETATM   11  C10 UNL     1       2.669  -0.929   0.259  1.00  0.00     0.176 C 
HETATM   12  N4  UNL     1       3.169   0.223   0.971  1.00  0.00    -0.347 N 
ATOM     13  H4  UNL     1       3.372   0.056   1.957  1.00  0.00     0.163 HD
HETATM   14  C15 UNL     1       3.420   1.514   0.546  1.00  0.00     0.230 C 
HETATM   15  O3  UNL     1       4.475   2.077   1.046  1.00  0.00    -0.273 OA
HETATM   16  C16 UNL     1       2.683   2.376  -0.392  1.00  0.00     0.152 C 
HETATM   17  C20 UNL     1       1.275   2.103  -0.583  1.00  0.00     0.162 C 
HETATM   18  O4  UNL     1       0.808   1.961  -1.692  1.00  0.00    -0.295 OA
HETATM   19  C21 UNL     1       0.284   1.974   0.604  1.00  0.00     0.154 C 
HETATM   20  N5  UNL     1      -0.768   1.150   0.119  1.00  0.00    -0.361 N 
ATOM     21  H5  UNL     1      -0.435   0.200  -0.042  1.00  0.00     0.162 HD
HETATM   22  C26 UNL     1      -2.116   1.257  -0.200  1.00  0.00     0.139 C 
HETATM   23  C27 UNL     1      -3.350   1.316   0.545  1.00  0.00     0.182 C 
HETATM   24  N6  UNL     1      -4.106   0.040   0.498  1.00  0.00    -0.344 N 
ATOM     25  H6  UNL     1      -5.010   0.054   0.970  1.00  0.00     0.163 HD
HETATM   26  C32 UNL     1      -3.771  -1.153  -0.084  1.00  0.00     0.245 C 
HETATM   27  O6  UNL     1      -4.515  -1.549  -1.061  1.00  0.00    -0.271 OA
ENDROOT
BRANCH  11  28
HETATM   28  C11 UNL     1       3.902  -1.843   0.019  1.00  0.00     0.035 C 
BRANCH  28  29
HETATM   29  C12 UNL     1       4.864  -1.201  -0.910  1.00  0.00     0.004 C 
BRANCH  29  30
HETATM   30  C13 UNL     1       6.065  -2.007  -1.262  1.00  0.00     0.027 C 
BRANCH  30  31
HETATM   31  C14 UNL     1       6.980  -2.426  -0.178  1.00  0.00     0.229 C 
BRANCH  31  32
HETATM   32  N3  UNL     1       6.429  -3.293   0.831  1.00  0.00    -0.079 N 
ATOM     33  H33 UNL     1       5.595  -2.865   1.233  1.00  0.00     0.274 HD
ATOM     34  H32 UNL     1       6.021  -4.117   0.389  1.00  0.00     0.274 HD
ATOM     35  H31 UNL     1       7.060  -3.582   1.579  1.00  0.00     0.274 HD
ENDBRANCH  31  32
ENDBRANCH  30  31
ENDBRANCH  29  30
ENDBRANCH  28  29
ENDBRANCH  11  28
BRANCH  16  36
HETATM   36  C17 UNL     1       3.467   2.430  -1.685  1.00  0.00    -0.002 C 
HETATM   37  C18 UNL     1       4.826   2.999  -1.400  1.00  0.00     0.011 C 
HETATM   38  C19 UNL     1       2.766   3.258  -2.739  1.00  0.00     0.011 C 
ENDBRANCH  16  36
BRANCH   4  39
HETATM   39  O1  UNL     1      -0.675  -3.813  -2.216  1.00  0.00    -0.348 OA
ATOM     40  H1  UNL     1       0.166  -4.234  -2.351  1.00  0.00     0.219 HD
ENDBRANCH   4  39
BRANCH  19  41
HETATM   41  C22 UNL     1       0.048   3.356   1.025  1.00  0.00     0.037 C 
BRANCH  41  42
HETATM   42  C23 UNL     1      -0.791   3.651   2.203  1.00  0.00    -0.020 C 
HETATM   43  C24 UNL     1      -0.877   5.177   2.437  1.00  0.00     0.009 C 
HETATM   44  C25 UNL     1      -0.305   2.976   3.471  1.00  0.00     0.009 C 
ENDBRANCH  41  42
ENDBRANCH  19  41
BRANCH   1  45
HETATM   45  C4  UNL     1      -3.079  -3.220   1.095  1.00  0.00     0.009 C 
BRANCH  45  46
HETATM   46  C2  UNL     1      -3.970  -4.285   0.669  1.00  0.00    -0.089 C 
HETATM   47  C1  UNL     1      -3.555  -5.140  -0.488  1.00  0.00     0.042 C 
HETATM   48  C3  UNL     1      -5.454  -3.961   0.612  1.00  0.00     0.042 C 
ENDBRANCH  45  46
ENDBRANCH   1  45
BRANCH  22  49
HETATM   49  O5  UNL     1      -2.312   1.311  -1.495  1.00  0.00    -0.348 OA
ATOM     50  H5  UNL     1      -3.234   1.384  -1.713  1.00  0.00     0.219 HD
ENDBRANCH  22  49
BRANCH  23  51
HETATM   51  C28 UNL     1      -4.274   2.443   0.390  1.00  0.00     0.008 C 
BRANCH  51  52
HETATM   52  C29 UNL     1      -4.918   2.844  -0.844  1.00  0.00    -0.089 C 
HETATM   53  C30 UNL     1      -5.790   1.841  -1.545  1.00  0.00     0.042 C 
HETATM   54  C31 UNL     1      -4.161   3.663  -1.845  1.00  0.00     0.042 C 
ENDBRANCH  51  52
ENDBRANCH  23  51
TORSDOF 14
