REMARK  15 active torsions:
REMARK  status: ('A' for Active; 'I' for Inactive)
REMARK       I    between atoms: N1_2  and  C2_4 
REMARK    1  A    between atoms: C2_4  and  C3_6 
REMARK    2  A    between atoms: C3_6  and  C4_7 
REMARK    3  A    between atoms: C4_7  and  C5_8 
REMARK    4  A    between atoms: C5_8  and  C6_9 
REMARK    5  A    between atoms: C6_9  and  C7_10 
REMARK    6  A    between atoms: C9_15  and  C10_16 
REMARK    7  A    between atoms: C10_16  and  C11_17 
REMARK    8  A    between atoms: C14_22  and  O3_23 
REMARK    9  A    between atoms: C15_25  and  C16_26 
REMARK   10  A    between atoms: C19_31  and  O4_32 
REMARK   11  A    between atoms: C20_34  and  C21_35 
REMARK   12  A    between atoms: C21_35  and  C22_36 
REMARK   13  A    between atoms: C25_41  and  O5_42 
REMARK   14  A    between atoms: C26_44  and  C27_45 
REMARK   15  A    between atoms: C30_50  and  O6_51 
ROOT
HETATM    1  C7  UNL     1       2.405  -0.312   1.128  1.00  0.00     0.096 C 
HETATM    2  N2  UNL     1       2.489   1.091   0.953  1.00  0.00    -0.354 N 
ATOM      3  H2  UNL     1       3.396   1.408   0.612  1.00  0.00     0.162 HD
HETATM    4  C8  UNL     1       1.573   2.126   1.156  1.00  0.00     0.240 C 
HETATM    5  O2  UNL     1       1.717   3.014   2.072  1.00  0.00    -0.271 OA
HETATM    6  C9  UNL     1       0.303   2.365   0.341  1.00  0.00     0.175 C 
HETATM    7  N3  UNL     1      -0.723   2.829   1.262  1.00  0.00    -0.359 N 
ATOM      8  H3  UNL     1      -0.561   3.761   1.645  1.00  0.00     0.162 HD
HETATM    9  C14 UNL     1      -1.884   2.216   1.706  1.00  0.00     0.135 C 
HETATM   10  C15 UNL     1      -3.109   1.857   0.947  1.00  0.00     0.161 C 
HETATM   11  N4  UNL     1      -2.929   1.065  -0.217  1.00  0.00    -0.360 N 
ATOM     12  H4  UNL     1      -3.099   1.544  -1.102  1.00  0.00     0.162 HD
HETATM   13  C19 UNL     1      -2.550  -0.286  -0.326  1.00  0.00     0.135 C 
HETATM   14  C20 UNL     1      -2.899  -1.393   0.503  1.00  0.00     0.158 C 
HETATM   15  N5  UNL     1      -2.332  -2.702   0.178  1.00  0.00    -0.357 N 
ATOM     16  H5  UNL     1      -2.519  -3.368   0.927  1.00  0.00     0.162 HD
HETATM   17  C25 UNL     1      -1.631  -3.296  -0.822  1.00  0.00     0.160 C 
HETATM   18  C26 UNL     1      -0.224  -3.624  -1.147  1.00  0.00     0.065 C 
HETATM   19  N6  UNL     1       0.747  -3.323  -0.173  1.00  0.00    -0.340 N 
ATOM     20  H6  UNL     1       0.624  -3.882   0.671  1.00  0.00     0.167 HD
HETATM   21  C30 UNL     1       1.841  -2.451  -0.066  1.00  0.00     0.121 C 
HETATM   22  C31 UNL     1       1.901  -0.978  -0.123  1.00  0.00     0.079 C 
HETATM   23  C32 UNL     1       2.582  -0.419  -1.356  1.00  0.00     0.020 C 
ENDROOT
BRANCH   1  24
HETATM   24  C6  UNL     1       3.720  -0.796   1.671  1.00  0.00     0.026 C 
BRANCH  24  25
HETATM   25  C5  UNL     1       4.922  -0.554   0.840  1.00  0.00     0.002 C 
BRANCH  25  26
HETATM   26  C4  UNL     1       6.139  -1.131   1.549  1.00  0.00     0.009 C 
BRANCH  26  27
HETATM   27  C3  UNL     1       6.406  -0.477   2.862  1.00  0.00     0.103 C 
BRANCH  27  28
HETATM   28  C2  UNL     1       7.649  -1.093   3.462  1.00  0.00     0.220 C 
HETATM   29  N1  UNL     1       8.353  -0.325   4.439  1.00  0.00    -0.347 N 
HETATM   30  C1  UNL     1       9.616  -0.484   4.580  1.00  0.00     0.121 C 
ATOM     31  H1  UNL     1       7.853   0.346   5.021  1.00  0.00     0.167 HD
HETATM   32  O1  UNL     1       7.999  -2.219   3.088  1.00  0.00    -0.273 OA
ENDBRANCH  27  28
ENDBRANCH  26  27
ENDBRANCH  25  26
ENDBRANCH  24  25
ENDBRANCH   1  24
BRANCH  21  33
HETATM   33  O6  UNL     1       3.032  -2.955   0.118  1.00  0.00    -0.349 OA
ATOM     34  H6  UNL     1       3.773  -2.365   0.190  1.00  0.00     0.219 HD
ENDBRANCH  21  33
BRANCH   6  35
HETATM   35  C10 UNL     1       0.690   3.526  -0.580  1.00  0.00     0.038 C 
BRANCH  35  36
HETATM   36  C11 UNL     1      -0.373   3.959  -1.528  1.00  0.00    -0.020 C 
HETATM   37  C12 UNL     1       0.198   5.128  -2.323  1.00  0.00     0.009 C 
HETATM   38  C13 UNL     1      -0.616   2.859  -2.558  1.00  0.00     0.009 C 
ENDBRANCH  35  36
ENDBRANCH   6  35
BRANCH  18  39
HETATM   39  C27 UNL     1       0.152  -3.382  -2.595  1.00  0.00     0.032 C 
HETATM   40  C28 UNL     1       1.600  -3.850  -2.760  1.00  0.00     0.016 C 
HETATM   41  C29 UNL     1      -0.662  -4.186  -3.548  1.00  0.00     0.016 C 
ENDBRANCH  18  39
BRANCH   9  42
HETATM   42  O3  UNL     1      -1.870   1.923   2.981  1.00  0.00    -0.348 OA
ATOM     43  H3  UNL     1      -2.666   1.503   3.285  1.00  0.00     0.219 HD
ENDBRANCH   9  42
BRANCH  17  44
HETATM   44  O5  UNL     1      -2.399  -3.729  -1.814  1.00  0.00    -0.345 OA
ATOM     45  H5  UNL     1      -1.909  -4.145  -2.514  1.00  0.00     0.219 HD
ENDBRANCH  17  44
BRANCH  10  46
HETATM   46  C16 UNL     1      -3.852   3.170   0.700  1.00  0.00     0.008 C 
HETATM   47  C17 UNL     1      -5.132   2.983  -0.073  1.00  0.00     0.012 C 
HETATM   48  C18 UNL     1      -4.272   3.705   2.065  1.00  0.00     0.012 C 
ENDBRANCH  10  46
BRANCH  14  49
HETATM   49  C21 UNL     1      -4.395  -1.551   0.642  1.00  0.00     0.037 C 
BRANCH  49  50
HETATM   50  C22 UNL     1      -5.213  -1.841  -0.532  1.00  0.00    -0.020 C 
HETATM   51  C23 UNL     1      -6.671  -1.968  -0.008  1.00  0.00     0.009 C 
HETATM   52  C24 UNL     1      -5.326  -0.753  -1.573  1.00  0.00     0.009 C 
ENDBRANCH  49  50
ENDBRANCH  14  49
BRANCH  13  53
HETATM   53  O4  UNL     1      -1.759  -0.589  -1.321  1.00  0.00    -0.348 OA
ATOM     54  H4  UNL     1      -1.503  -1.501  -1.395  1.00  0.00     0.219 HD
ENDBRANCH  13  53
TORSDOF 15
