REMARK  6 active torsions:
REMARK  status: ('A' for Active; 'I' for Inactive)
REMARK    1  A    between atoms: C1_4  and  C2_6 
REMARK    2  A    between atoms: C5_9  and  C6_10 
REMARK    3  A    between atoms: C10_14  and  C11_15 
REMARK    4  A    between atoms: C14_18  and  O1_19 
REMARK    5  A    between atoms: O1_19  and  C15_20 
REMARK    6  A    between atoms: C15_20  and  C16_21 
ROOT
HETATM    1  C11 UNL     1      -0.894  -0.059   1.895  1.00  0.00    -0.026 A 
HETATM    2  C12 UNL     1       0.204   0.147   1.077  1.00  0.00     0.015 A 
HETATM    3  C13 UNL     1       1.425  -0.439   1.336  1.00  0.00     0.037 A 
HETATM    4  C14 UNL     1       1.604  -1.260   2.428  1.00  0.00     0.069 A 
HETATM    5  C23 UNL     1       0.520  -1.470   3.246  1.00  0.00     0.037 A 
HETATM    6  C24 UNL     1      -0.711  -0.881   2.987  1.00  0.00     0.015 A 
ENDROOT
BRANCH   1   7
HETATM    7  C10 UNL     1      -2.185   0.565   1.621  1.00  0.00    -0.025 A 
HETATM    8  C9  UNL     1      -3.085   0.927   2.601  1.00  0.00     0.012 A 
HETATM    9  C8  UNL     1      -4.304   1.525   2.285  1.00  0.00     0.002 A 
HETATM   10  C7  UNL     1      -4.645   1.774   0.972  1.00  0.00     0.012 A 
HETATM   11  C6  UNL     1      -3.757   1.418  -0.022  1.00  0.00    -0.025 A 
HETATM   12  C25 UNL     1      -2.544   0.822   0.312  1.00  0.00     0.024 A 
BRANCH  11  13
HETATM   13  C5  UNL     1      -4.101   1.678  -1.431  1.00  0.00    -0.026 A 
HETATM   14  C4  UNL     1      -3.652   0.859  -2.445  1.00  0.00     0.013 A 
HETATM   15  C3  UNL     1      -3.962   1.091  -3.755  1.00  0.00     0.015 A 
HETATM   16  C2  UNL     1      -4.751   2.178  -4.120  1.00  0.00     0.004 A 
HETATM   17  C27 UNL     1      -5.209   3.009  -3.114  1.00  0.00     0.015 A 
HETATM   18  C26 UNL     1      -4.885   2.756  -1.799  1.00  0.00     0.013 A 
BRANCH  16  19
HETATM   19  C1  UNL     1      -5.086   2.438  -5.505  1.00  0.00     0.120 C 
HETATM   20  N1  UNL     1      -4.654   1.659  -6.418  1.00  0.00    -0.387 N 
ATOM     21  H12 UNL     1      -4.890   1.842  -7.393  1.00  0.00     0.157 HD
ATOM     22  H11 UNL     1      -4.075   0.854  -6.177  1.00  0.00     0.157 HD
HETATM   23  N2  UNL     1      -5.884   3.548  -5.837  1.00  0.00    -0.082 NA
ENDBRANCH  16  19
ENDBRANCH  11  13
ENDBRANCH   1   7
BRANCH   4  24
HETATM   24  O1  UNL     1       2.864  -1.835   2.653  1.00  0.00    -0.347 OA
BRANCH  24  25
HETATM   25  C15 UNL     1       3.942  -1.597   1.798  1.00  0.00     0.215 C 
BRANCH  25  26
HETATM   26  C16 UNL     1       5.131  -2.324   2.276  1.00  0.00    -0.019 A 
HETATM   27  C17 UNL     1       5.094  -3.101   3.413  1.00  0.00     0.027 A 
HETATM   28  C18 UNL     1       6.251  -3.749   3.793  1.00  0.00     0.090 A 
HETATM   29  N3  UNL     1       7.406  -3.643   3.086  1.00  0.00    -0.352 N 
HETATM   30  C19 UNL     1       7.419  -2.886   1.989  1.00  0.00     0.116 A 
ATOM     31  H3  UNL     1       8.247  -4.133   3.389  1.00  0.00     0.166 HD
HETATM   32  N4  UNL     1       8.412  -2.602   1.105  1.00  0.00    -0.352 N 
HETATM   33  C22 UNL     1       6.306  -2.209   1.547  1.00  0.00     0.018 A 
HETATM   34  C20 UNL     1       7.938  -1.776   0.142  1.00  0.00     0.090 A 
ATOM     35  H4  UNL     1       9.367  -2.956   1.159  1.00  0.00     0.166 HD
HETATM   36  C21 UNL     1       6.611  -1.510   0.394  1.00  0.00     0.033 A 
ENDBRANCH  25  26
ENDBRANCH  24  25
ENDBRANCH   4  24
TORSDOF 6
