REMARK  6 active torsions:
REMARK  status: ('A' for Active; 'I' for Inactive)
REMARK    1  A    between atoms: C1_2  and  C14_19 
REMARK    2  A    between atoms: N2_3  and  C2_5 
REMARK    3  A    between atoms: C6_9  and  O1_10 
REMARK    4  A    between atoms: C7_12  and  C8_13 
REMARK    5  A    between atoms: C17_22  and  N3_23 
REMARK       I    between atoms: N3_23  and  C18_25 
REMARK    6  A    between atoms: C18_25  and  C19_27 
ROOT
HETATM    1  N1  UNL     1      -1.683  -2.658   0.663  1.00  0.00    -0.082 NA
HETATM    2  C1  UNL     1      -1.425  -1.512  -0.175  1.00  0.00     0.127 C 
HETATM    3  N2  UNL     1      -2.365  -0.980  -0.891  1.00  0.00    -0.343 N 
ATOM      4  H2  UNL     1      -2.183  -0.170  -1.483  1.00  0.00     0.167 HD
ENDROOT
BRANCH   2   5
HETATM    5  C14 UNL     1      -0.072  -1.001  -0.172  1.00  0.00     0.005 A 
HETATM    6  C15 UNL     1       0.936  -1.549   0.581  1.00  0.00     0.017 A 
HETATM    7  C16 UNL     1       2.247  -1.038   0.565  1.00  0.00     0.030 A 
HETATM    8  C17 UNL     1       2.552   0.022  -0.206  1.00  0.00     0.035 A 
HETATM    9  C25 UNL     1       1.531   0.580  -0.971  1.00  0.00     0.030 A 
HETATM   10  C26 UNL     1       0.242   0.088  -0.963  1.00  0.00     0.017 A 
BRANCH   8  11
HETATM   11  N3  UNL     1       3.840   0.573  -0.290  1.00  0.00    -0.323 N 
HETATM   12  C18 UNL     1       5.057   0.027   0.143  1.00  0.00     0.256 C 
HETATM   13  O2  UNL     1       5.111  -1.116   0.690  1.00  0.00    -0.267 OA
ATOM     14  H3  UNL     1       3.899   1.494  -0.724  1.00  0.00     0.169 HD
BRANCH  12  15
HETATM   15  C19 UNL     1       6.311   0.769  -0.028  1.00  0.00     0.032 A 
HETATM   16  C20 UNL     1       7.521   0.101   0.009  1.00  0.00     0.017 A 
HETATM   17  C21 UNL     1       8.724   0.759  -0.139  1.00  0.00     0.001 A 
HETATM   18  C22 UNL     1       8.745   2.121  -0.330  1.00  0.00     0.000 A 
HETATM   19  C23 UNL     1       7.549   2.797  -0.368  1.00  0.00     0.001 A 
HETATM   20  C24 UNL     1       6.335   2.120  -0.217  1.00  0.00     0.017 A 
ENDBRANCH  12  15
ENDBRANCH   8  11
ENDBRANCH   2   5
BRANCH   3  21
HETATM   21  C2  UNL     1      -3.652  -1.563  -0.822  1.00  0.00     0.047 A 
HETATM   22  C3  UNL     1      -3.883  -2.863  -1.225  1.00  0.00     0.030 A 
HETATM   23  C4  UNL     1      -5.130  -3.445  -1.163  1.00  0.00     0.005 A 
HETATM   24  C5  UNL     1      -6.185  -2.696  -0.678  1.00  0.00     0.037 A 
HETATM   25  C6  UNL     1      -5.954  -1.377  -0.268  1.00  0.00     0.079 A 
HETATM   26  C7  UNL     1      -4.697  -0.820  -0.341  1.00  0.00     0.034 A 
BRANCH  25  27
HETATM   27  O1  UNL     1      -6.970  -0.572   0.229  1.00  0.00    -0.360 OA
ATOM     28  H1  UNL     1      -6.813   0.323   0.507  1.00  0.00     0.217 HD
ENDBRANCH  25  27
BRANCH  26  29
HETATM   29  C8  UNL     1      -4.460   0.545   0.083  1.00  0.00    -0.021 A 
HETATM   30  C9  UNL     1      -4.410   1.534  -0.873  1.00  0.00     0.012 A 
HETATM   31  C10 UNL     1      -4.190   2.863  -0.548  1.00  0.00     0.001 A 
HETATM   32  C11 UNL     1      -4.013   3.225   0.776  1.00  0.00     0.000 A 
HETATM   33  C12 UNL     1      -4.060   2.255   1.727  1.00  0.00     0.001 A 
HETATM   34  C13 UNL     1      -4.282   0.920   1.397  1.00  0.00     0.012 A 
ENDBRANCH  26  29
ENDBRANCH   3  21
TORSDOF 6
