REMARK  7 active torsions:
REMARK  status: ('A' for Active; 'I' for Inactive)
REMARK       I    between atoms: C1_2  and  N1_3 
REMARK       I    between atoms: C1_2  and  N2_11 
REMARK    1  A    between atoms: N1_3  and  C2_5 
REMARK    2  A    between atoms: N2_11  and  C8_13 
REMARK    3  A    between atoms: C11_16  and  N3_17 
REMARK    4  A    between atoms: N3_17  and  C12_18 
REMARK    5  A    between atoms: C12_18  and  O2_19 
REMARK    6  A    between atoms: C12_18  and  C13_21 
REMARK    7  A    between atoms: C16_24  and  C17_25 
ROOT
HETATM    1  C8  UNL     1      -2.731   0.457  -0.150  1.00  0.00     0.108 A 
HETATM    2  C9  UNL     1      -1.518   1.035  -0.450  1.00  0.00     0.052 A 
HETATM    3  C10 UNL     1      -0.362   0.324  -0.520  1.00  0.00     0.050 A 
HETATM    4  C11 UNL     1      -0.381  -1.086  -0.277  1.00  0.00     0.125 A 
HETATM    5  C25 UNL     1      -1.620  -1.596   0.017  1.00  0.00     0.134 A 
HETATM    6  N4  UNL     1      -2.745  -0.867   0.079  1.00  0.00    -0.349 N 
ATOM      7  H4  UNL     1      -3.627  -1.327   0.304  1.00  0.00     0.167 HD
ENDROOT
BRANCH   4   8
HETATM    8  N3  UNL     1       0.838  -1.730  -0.337  1.00  0.00    -0.379 NA
BRANCH   8   9
HETATM    9  C12 UNL     1       2.013  -2.351  -0.394  1.00  0.00     0.225 C 
BRANCH   9  10
HETATM   10  O2  UNL     1       2.237  -3.622  -0.633  1.00  0.00    -0.335 OA
ATOM     11  H2  UNL     1       3.076  -4.065  -0.674  1.00  0.00     0.220 HD
ENDBRANCH   9  10
BRANCH   9  12
HETATM   12  C13 UNL     1       3.328  -1.679  -0.190  1.00  0.00     0.029 A 
HETATM   13  C14 UNL     1       3.536  -0.465  -0.751  1.00  0.00     0.018 A 
HETATM   14  C15 UNL     1       4.736   0.189  -0.600  1.00  0.00     0.013 A 
HETATM   15  C16 UNL     1       5.734  -0.412   0.136  1.00  0.00    -0.026 A 
HETATM   16  C23 UNL     1       5.524  -1.644   0.707  1.00  0.00     0.013 A 
HETATM   17  C24 UNL     1       4.302  -2.292   0.544  1.00  0.00     0.018 A 
BRANCH  15  18
HETATM   18  C17 UNL     1       7.043   0.266   0.289  1.00  0.00    -0.026 A 
HETATM   19  C18 UNL     1       7.795   0.110   1.413  1.00  0.00     0.012 A 
HETATM   20  C19 UNL     1       9.032   0.726   1.571  1.00  0.00     0.001 A 
HETATM   21  C20 UNL     1       9.478   1.521   0.515  1.00  0.00     0.000 A 
HETATM   22  C21 UNL     1       8.738   1.701  -0.643  1.00  0.00     0.001 A 
HETATM   23  C22 UNL     1       7.530   1.070  -0.736  1.00  0.00     0.012 A 
ENDBRANCH  15  18
ENDBRANCH   9  12
ENDBRANCH   8   9
ENDBRANCH   4   8
BRANCH   1  24
HETATM   24  N2  UNL     1      -3.913   1.234  -0.108  1.00  0.00    -0.294 N 
HETATM   25  C1  UNL     1      -5.176   0.631   0.176  1.00  0.00     0.326 C 
HETATM   26  O1  UNL     1      -5.168  -0.600   0.399  1.00  0.00    -0.247 OA
HETATM   27  N1  UNL     1      -6.355   1.394   0.196  1.00  0.00    -0.309 N 
ATOM     28  H1  UNL     1      -6.276   2.393   0.005  1.00  0.00     0.170 HD
ATOM     29  H2  UNL     1      -3.862   2.238  -0.283  1.00  0.00     0.172 HD
BRANCH  27  30
HETATM   30  C2  UNL     1      -7.635   0.879   0.461  1.00  0.00     0.036 A 
HETATM   31  C3  UNL     1      -7.948  -0.271   1.107  1.00  0.00     0.029 A 
HETATM   32  C4  UNL     1      -9.264  -0.709   1.277  1.00  0.00     0.002 A 
HETATM   33  C5  UNL     1     -10.302   0.036   0.781  1.00  0.00     0.000 A 
HETATM   34  C6  UNL     1      -9.989   1.197   0.129  1.00  0.00     0.002 A 
HETATM   35  C7  UNL     1      -8.703   1.639  -0.044  1.00  0.00     0.029 A 
ENDBRANCH  27  30
ENDBRANCH   1  24
TORSDOF 7
