REMARK  6 active torsions:
REMARK  status: ('A' for Active; 'I' for Inactive)
REMARK    1  A    between atoms: C1_4  and  C2_6 
REMARK    2  A    between atoms: C5_9  and  C6_10 
REMARK    3  A    between atoms: C6_10  and  O1_11 
REMARK    4  A    between atoms: O1_11  and  C7_12 
REMARK    5  A    between atoms: C10_15  and  C11_16 
REMARK    6  A    between atoms: C17_24  and  C18_25 
ROOT
HETATM    1  C7  UNL     1       0.407  -1.043  -0.148  1.00  0.00     0.080 A 
HETATM    2  C8  UNL     1       0.775  -2.383  -0.006  1.00  0.00     0.038 A 
HETATM    3  C9  UNL     1       2.090  -2.714  -0.034  1.00  0.00     0.016 A 
HETATM    4  C10 UNL     1       3.080  -1.740  -0.202  1.00  0.00    -0.009 A 
HETATM    5  C16 UNL     1       2.703  -0.433  -0.341  1.00  0.00     0.029 A 
HETATM    6  C17 UNL     1       1.354  -0.061  -0.316  1.00  0.00     0.011 A 
ENDROOT
BRANCH   1   7
HETATM    7  O1  UNL     1      -0.950  -0.727  -0.112  1.00  0.00    -0.346 OA
BRANCH   7   8
HETATM    8  C6  UNL     1      -1.897  -1.763   0.061  1.00  0.00     0.214 C 
BRANCH   8   9
HETATM    9  C5  UNL     1      -3.252  -1.162   0.087  1.00  0.00    -0.034 A 
HETATM   10  C4  UNL     1      -3.463   0.196   0.076  1.00  0.00     0.010 A 
HETATM   11  C3  UNL     1      -4.745   0.759   0.107  1.00  0.00     0.015 A 
HETATM   12  C2  UNL     1      -5.866  -0.034   0.152  1.00  0.00     0.004 A 
HETATM   13  C27 UNL     1      -5.644  -1.416   0.163  1.00  0.00     0.015 A 
HETATM   14  C26 UNL     1      -4.388  -1.976   0.132  1.00  0.00     0.010 A 
BRANCH  12  15
HETATM   15  C1  UNL     1      -7.232   0.464   0.190  1.00  0.00     0.120 C 
HETATM   16  N1  UNL     1      -7.480   1.717   0.184  1.00  0.00    -0.387 N 
ATOM     17  H12 UNL     1      -8.438   2.066   0.211  1.00  0.00     0.157 HD
ATOM     18  H11 UNL     1      -6.682   2.351   0.152  1.00  0.00     0.157 HD
HETATM   19  N2  UNL     1      -8.346  -0.421   0.235  1.00  0.00    -0.082 NA
ENDBRANCH  12  15
ENDBRANCH   8   9
ENDBRANCH   7   8
ENDBRANCH   1   7
BRANCH   6  20
HETATM   20  C18 UNL     1       0.995   1.350  -0.479  1.00  0.00     0.005 A 
HETATM   21  C19 UNL     1       0.021   1.848  -1.331  1.00  0.00     0.101 A 
HETATM   22  N4  UNL     1      -0.044   3.182  -1.239  1.00  0.00    -0.364 N 
HETATM   23  C20 UNL     1       0.876   3.560  -0.338  1.00  0.00     0.043 A 
ATOM     24  H4  UNL     1      -0.674   3.795  -1.756  1.00  0.00     0.165 HD
HETATM   25  C21 UNL     1       1.226   4.807   0.131  1.00  0.00     0.030 A 
HETATM   26  C25 UNL     1       1.530   2.452   0.146  1.00  0.00     0.003 A 
HETATM   27  C22 UNL     1       2.218   4.953   1.072  1.00  0.00     0.002 A 
HETATM   28  C23 UNL     1       2.881   3.841   1.565  1.00  0.00     0.001 A 
HETATM   29  C24 UNL     1       2.525   2.591   1.091  1.00  0.00     0.014 A 
ENDBRANCH   6  20
BRANCH   4  30
HETATM   30  C11 UNL     1       4.465  -2.195  -0.207  1.00  0.00     0.042 A 
HETATM   31  C12 UNL     1       5.505  -1.317  -0.350  1.00  0.00     0.030 A 
HETATM   32  C13 UNL     1       6.835  -1.718  -0.349  1.00  0.00     0.004 A 
HETATM   33  C14 UNL     1       7.110  -3.065  -0.198  1.00  0.00     0.017 A 
HETATM   34  C15 UNL     1       6.049  -3.938  -0.056  1.00  0.00     0.088 A 
HETATM   35  N3  UNL     1       4.765  -3.503  -0.062  1.00  0.00    -0.365 N 
ATOM     36  H3  UNL     1       4.009  -4.179   0.045  1.00  0.00     0.165 HD
ENDBRANCH   4  30
TORSDOF 6
