REMARK  7 active torsions:
REMARK  status: ('A' for Active; 'I' for Inactive)
REMARK    1  A    between atoms: C1_4  and  O1_6 
REMARK    2  A    between atoms: O1_6  and  C2_7 
REMARK    3  A    between atoms: C6_11  and  N3_12 
REMARK    4  A    between atoms: N3_12  and  C7_15 
REMARK    5  A    between atoms: C7_15  and  C8_16 
REMARK    6  A    between atoms: C8_16  and  C9_17 
REMARK    7  A    between atoms: C9_17  and  N4_18 
ROOT
HETATM    1  C2  UNL     1      -1.907  -0.411   0.153  1.00  0.00     0.162 C 
HETATM    2  C3  UNL     1      -2.991  -0.957   1.079  1.00  0.00     0.035 C 
HETATM    3  C4  UNL     1      -3.074  -0.031   2.263  1.00  0.00     0.005 C 
HETATM    4  C5  UNL     1      -2.304   1.202   1.768  1.00  0.00     0.036 C 
HETATM    5  C6  UNL     1      -1.136   0.508   1.093  1.00  0.00     0.215 C 
ENDROOT
BRANCH   5   6
HETATM    6  N3  UNL     1      -0.276   1.416   0.410  1.00  0.00    -0.068 N 
ATOM      7  H32 UNL     1      -0.818   2.045  -0.183  1.00  0.00     0.277 HD
ATOM      8  H31 UNL     1       0.120   2.093   1.062  1.00  0.00     0.277 HD
BRANCH   6   9
HETATM    9  C7  UNL     1       0.765   0.779  -0.350  1.00  0.00     0.234 C 
BRANCH   9  10
HETATM   10  C8  UNL     1       1.732   0.132   0.573  1.00  0.00     0.047 C 
BRANCH  10  11
HETATM   11  C9  UNL     1       2.877  -0.572  -0.078  1.00  0.00     0.123 C 
BRANCH  11  12
HETATM   12  N4  UNL     1       3.726   0.228  -0.889  1.00  0.00    -0.367 N 
HETATM   13  C10 UNL     1       4.971  -0.058  -0.981  1.00  0.00     0.196 C 
HETATM   14  N5  UNL     1       5.498  -1.167  -0.278  1.00  0.00    -0.067 NA
HETATM   15  N6  UNL     1       5.852   0.711  -1.777  1.00  0.00    -0.067 NA
ATOM     16  H4  UNL     1       3.345   1.027  -1.396  1.00  0.00     0.161 HD
ENDBRANCH  11  12
ENDBRANCH  10  11
ENDBRANCH   9  10
ENDBRANCH   6   9
ENDBRANCH   5   6
BRANCH   1  17
HETATM   17  O1  UNL     1      -2.577   0.338  -0.846  1.00  0.00    -0.317 OA
BRANCH  17  18
HETATM   18  C1  UNL     1      -3.516  -0.218  -1.697  1.00  0.00     0.225 C 
HETATM   19  N1  UNL     1      -3.364  -1.448  -2.020  1.00  0.00    -0.368 N 
ATOM     20  H12 UNL     1      -4.056  -1.858  -2.647  1.00  0.00     0.159 HD
ATOM     21  H11 UNL     1      -2.570  -1.967  -1.645  1.00  0.00     0.159 HD
HETATM   22  N2  UNL     1      -4.617   0.501  -2.217  1.00  0.00    -0.057 NA
ENDBRANCH  17  18
ENDBRANCH   1  17
TORSDOF 7
