REMARK  8 active torsions:
REMARK  status: ('A' for Active; 'I' for Inactive)
REMARK    1  A    between atoms: N1_2  and  C2_5 
REMARK    2  A    between atoms: C2_5  and  C3_6 
REMARK    3  A    between atoms: C3_6  and  O1_7 
REMARK    4  A    between atoms: O1_7  and  C4_8 
REMARK    5  A    between atoms: C4_8  and  C5_9 
REMARK    6  A    between atoms: C5_9  and  N2_10 
REMARK    7  A    between atoms: N2_10  and  C6_12 
REMARK    8  A    between atoms: C7_15  and  N4_16 
ROOT
HETATM    1  C6  UNL     1       2.347  -0.024  -0.058  1.00  0.00     0.149 A 
HETATM    2  N3  UNL     1       2.569   1.102   0.602  1.00  0.00    -0.175 N 
ATOM      3  H3  UNL     1       1.760   1.656   0.882  1.00  0.00     0.186 HD
HETATM    4  C7  UNL     1       3.801   1.569   0.932  1.00  0.00     0.679 A 
HETATM    5  N5  UNL     1       4.853   0.828   0.558  1.00  0.00    -0.173 N 
ATOM      6  H5  UNL     1       5.796   1.143   0.786  1.00  0.00     0.186 HD
HETATM    7  C8  UNL     1       4.682  -0.331  -0.117  1.00  0.00     0.167 A 
HETATM    8  N6  UNL     1       5.200  -1.413  -0.712  1.00  0.00    -0.282 N 
ATOM      9  H6  UNL     1       6.152  -1.750  -0.858  1.00  0.00     0.188 HD
HETATM   10  N7  UNL     1       4.012  -1.876  -1.037  1.00  0.00    -0.292 N 
ATOM     11  H7  UNL     1       3.669  -2.702  -1.528  1.00  0.00     0.187 HD
HETATM   12  C9  UNL     1       3.433  -0.802  -0.449  1.00  0.00     0.138 A 
ENDROOT
BRANCH   1  13
HETATM   13  N2  UNL     1       1.173  -0.464  -0.389  1.00  0.00    -0.372 N 
ATOM     14  H2  UNL     1       1.126  -1.348  -0.896  1.00  0.00     0.161 HD
BRANCH  13  15
HETATM   15  C5  UNL     1      -0.065   0.199  -0.095  1.00  0.00     0.147 C 
BRANCH  15  16
HETATM   16  C4  UNL     1      -0.852  -0.640   0.889  1.00  0.00     0.187 C 
BRANCH  16  17
HETATM   17  O1  UNL     1      -2.041  -0.091   1.250  1.00  0.00    -0.388 OA
BRANCH  17  18
HETATM   18  C3  UNL     1      -2.971   0.180   0.308  1.00  0.00     0.195 C 
BRANCH  18  19
HETATM   19  C2  UNL     1      -3.503  -0.949  -0.502  1.00  0.00     0.258 C 
BRANCH  19  20
HETATM   20  N1  UNL     1      -4.488  -0.345  -1.424  1.00  0.00    -0.077 N 
HETATM   21  C1  UNL     1      -5.638   0.119  -0.658  1.00  0.00     0.267 C 
ATOM     22  H12 UNL     1      -4.754  -0.980  -2.177  1.00  0.00     0.276 HD
ATOM     23  H11 UNL     1      -4.080   0.394  -1.997  1.00  0.00     0.276 HD
ENDBRANCH  19  20
ENDBRANCH  18  19
ENDBRANCH  17  18
ENDBRANCH  16  17
ENDBRANCH  15  16
ENDBRANCH  13  15
ENDBRANCH   1  13
BRANCH   4  24
HETATM   24  N4  UNL     1       3.950   2.673   1.579  1.00  0.00    -0.234 N 
ATOM     25  H42 UNL     1       3.149   3.237   1.864  1.00  0.00     0.174 HD
ATOM     26  H41 UNL     1       4.875   3.024   1.827  1.00  0.00     0.174 HD
ENDBRANCH   4  24
TORSDOF 8
