REMARK  8 active torsions:
REMARK  status: ('A' for Active; 'I' for Inactive)
REMARK    1  A    between atoms: N1_1  and  C1_5 
REMARK    2  A    between atoms: C1_5  and  C2_6 
REMARK    3  A    between atoms: C2_6  and  C3_7 
REMARK    4  A    between atoms: C2_6  and  C9_14 
REMARK    5  A    between atoms: C3_7  and  C4_8 
REMARK       I    between atoms: C9_14  and  N2_16 
REMARK    6  A    between atoms: N2_16  and  C10_18 
REMARK    7  A    between atoms: C10_18  and  C11_19 
REMARK    8  A    between atoms: C11_19  and  N3_20 
ROOT
HETATM    1  C2  UNL     1      -1.458  -1.046   0.413  1.00  0.00     0.103 C 
ENDROOT
BRANCH   1   2
HETATM    2  C1  UNL     1      -1.892  -1.420   1.814  1.00  0.00     0.243 C 
BRANCH   2   3
HETATM    3  N1  UNL     1      -1.154  -2.625   2.178  1.00  0.00    -0.079 N 
ATOM      4  H13 UNL     1      -1.268  -3.384   1.506  1.00  0.00     0.274 HD
ATOM      5  H12 UNL     1      -0.144  -2.521   2.085  1.00  0.00     0.274 HD
ATOM      6  H11 UNL     1      -1.446  -2.877   3.122  1.00  0.00     0.274 HD
ENDBRANCH   2   3
ENDBRANCH   1   2
BRANCH   1   7
HETATM    7  C3  UNL     1      -2.142   0.183  -0.092  1.00  0.00     0.020 C 
BRANCH   7   8
HETATM    8  C4  UNL     1      -3.645   0.005  -0.132  1.00  0.00    -0.012 C 
HETATM    9  C5  UNL     1      -4.339   1.245  -0.642  1.00  0.00     0.015 C 
HETATM   10  C6  UNL     1      -3.900   1.645  -2.015  1.00  0.00     0.074 C 
HETATM   11  S1  UNL     1      -4.294   0.280  -3.143  1.00  0.00    -0.169 SA
HETATM   12  C7  UNL     1      -3.698  -1.240  -2.310  1.00  0.00     0.074 C 
HETATM   13  C8  UNL     1      -4.072  -1.237  -0.855  1.00  0.00     0.015 C 
ENDBRANCH   7   8
ENDBRANCH   1   7
BRANCH   1  14
HETATM   14  C9  UNL     1       0.007  -0.729   0.515  1.00  0.00     0.223 C 
HETATM   15  O1  UNL     1       0.837  -1.394  -0.154  1.00  0.00    -0.273 OA
HETATM   16  N2  UNL     1       0.488   0.307   1.348  1.00  0.00    -0.359 N 
ATOM     17  H2  UNL     1      -0.199   0.837   1.885  1.00  0.00     0.162 HD
BRANCH  16  18
HETATM   18  C10 UNL     1       1.872   0.671   1.496  1.00  0.00     0.152 C 
BRANCH  18  19
HETATM   19  C11 UNL     1       2.534   1.124   0.233  1.00  0.00     0.292 C 
BRANCH  19  20
HETATM   20  N3  UNL     1       3.921   1.481   0.427  1.00  0.00     0.094 N 
HETATM   21  C12 UNL     1       4.449   1.897  -0.843  1.00  0.00     0.298 C 
HETATM   22  C13 UNL     1       4.736   0.730  -1.745  1.00  0.00     0.198 C 
HETATM   23  O2  UNL     1       5.528  -0.243  -1.147  1.00  0.00    -0.388 OA
HETATM   24  C14 UNL     1       4.773  -0.748  -0.067  1.00  0.00     0.198 C 
HETATM   25  C15 UNL     1       4.715   0.405   0.944  1.00  0.00     0.298 C 
ENDBRANCH  19  20
ENDBRANCH  18  19
ENDBRANCH  16  18
ENDBRANCH   1  14
TORSDOF 8
