REMARK  7 active torsions:
REMARK  status: ('A' for Active; 'I' for Inactive)
REMARK       I    between atoms: N1_1  and  C1_5 
REMARK       I    between atoms: C1_5  and  N2_6 
REMARK       I    between atoms: C1_5  and  N3_10 
REMARK    1  A    between atoms: N3_10  and  C2_12 
REMARK    2  A    between atoms: C4_14  and  N4_15 
REMARK    3  A    between atoms: N5_17  and  N6_19 
REMARK    4  A    between atoms: N6_19  and  C5_21 
REMARK    5  A    between atoms: C7_25  and  O1_26 
REMARK    6  A    between atoms: C8_31  and  N9_32 
REMARK    7  A    between atoms: N9_32  and  C9_34 
ROOT
HETATM    1  C2  UNL     1      -0.905  -2.029  -0.025  1.00  0.00     0.123 A 
HETATM    2  C3  UNL     1       0.187  -1.162   0.079  1.00  0.00     0.099 A 
HETATM    3  C4  UNL     1      -0.022   0.190  -0.012  1.00  0.00     0.140 A 
HETATM    4  N8  UNL     1      -1.251   0.681  -0.198  1.00  0.00    -0.175 N 
ATOM      5  H8  UNL     1      -1.386   1.690  -0.263  1.00  0.00     0.186 HD
HETATM    6  C8  UNL     1      -2.309  -0.137  -0.300  1.00  0.00     0.688 A 
HETATM    7  N12 UNL     1      -2.109  -1.462  -0.212  1.00  0.00    -0.176 N 
ATOM      8  H12 UNL     1      -2.920  -2.075  -0.292  1.00  0.00     0.186 HD
ENDROOT
BRANCH   3   9
HETATM    9  N4  UNL     1       1.121   1.056   0.099  1.00  0.00    -0.270 N 
HETATM   10  N5  UNL     1       1.948   0.777   1.016  1.00  0.00    -0.238 N 
ATOM     11  H5  UNL     1       1.770  -0.028   1.617  1.00  0.00     0.208 HD
ATOM     12  H4  UNL     1       1.258   1.850  -0.526  1.00  0.00     0.190 HD
BRANCH  10  13
HETATM   13  N6  UNL     1       3.087   1.534   1.225  1.00  0.00    -0.251 N 
ATOM     14  H6  UNL     1       3.069   2.292   1.908  1.00  0.00     0.192 HD
BRANCH  13  15
HETATM   15  C5  UNL     1       4.297   1.267   0.492  1.00  0.00     0.237 C 
HETATM   16  N7  UNL     1       5.175   2.114   0.124  1.00  0.00    -0.350 N 
HETATM   17  C6  UNL     1       6.231   1.429  -0.586  1.00  0.00     0.184 C 
ATOM     18  H7  UNL     1       5.138   3.118   0.302  1.00  0.00     0.163 HD
HETATM   19  C7  UNL     1       6.065   0.002  -0.165  1.00  0.00     0.284 C 
HETATM   20  O2  UNL     1       4.651  -0.034   0.086  1.00  0.00    -0.288 OA
BRANCH  19  21
HETATM   21  O1  UNL     1       6.672  -0.286   1.054  1.00  0.00    -0.369 OA
ATOM     22  H1  UNL     1       6.567  -1.192   1.321  1.00  0.00     0.212 HD
ENDBRANCH  19  21
ENDBRANCH  13  15
ENDBRANCH  10  13
ENDBRANCH   3   9
BRANCH   1  23
HETATM   23  N3  UNL     1      -0.705  -3.300   0.061  1.00  0.00    -0.327 N 
HETATM   24  C1  UNL     1      -1.807  -4.218  -0.043  1.00  0.00     0.481 C 
HETATM   25  N1  UNL     1      -2.546  -4.187   1.207  1.00  0.00    -0.033 N 
HETATM   26  N2  UNL     1      -1.318  -5.573  -0.241  1.00  0.00    -0.033 N 
ATOM     27  H13 UNL     1      -3.289  -4.884   1.244  1.00  0.00     0.278 HD
ATOM     28  H12 UNL     1      -1.999  -4.529   1.997  1.00  0.00     0.278 HD
ATOM     29  H11 UNL     1      -2.889  -3.237   1.346  1.00  0.00     0.278 HD
ATOM     30  H23 UNL     1      -0.771  -5.915   0.549  1.00  0.00     0.278 HD
ATOM     31  H22 UNL     1      -2.061  -6.270  -0.204  1.00  0.00     0.278 HD
ATOM     32  H21 UNL     1      -0.799  -5.595  -1.119  1.00  0.00     0.278 HD
ATOM     33  H3  UNL     1       0.240  -3.656   0.204  1.00  0.00     0.164 HD
ENDBRANCH   1  23
BRANCH   6  34
HETATM   34  N9  UNL     1      -3.469   0.386  -0.479  1.00  0.00    -0.161 N 
ATOM     35  H9  UNL     1      -4.284  -0.223  -0.559  1.00  0.00     0.187 HD
BRANCH  34  36
HETATM   36  C9  UNL     1      -3.641   1.789  -0.567  1.00  0.00     0.190 C 
HETATM   37  N10 UNL     1      -3.643   2.499  -1.656  1.00  0.00    -0.360 N 
HETATM   38  C10 UNL     1      -3.847   3.897  -1.357  1.00  0.00     0.142 C 
ATOM     39  H10 UNL     1      -3.517   2.120  -2.595  1.00  0.00     0.162 HD
HETATM   40  C11 UNL     1      -4.422   3.864   0.030  1.00  0.00     0.142 C 
HETATM   41  N11 UNL     1      -3.844   2.638   0.566  1.00  0.00    -0.360 N 
ATOM     42  H11 UNL     1      -3.630   2.430   1.541  1.00  0.00     0.162 HD
ENDBRANCH  34  36
ENDBRANCH   6  34
TORSDOF 7
