REMARK  11 active torsions:
REMARK  status: ('A' for Active; 'I' for Inactive)
REMARK    1  A    between atoms: N1_1  and  C1_5 
REMARK    2  A    between atoms: C1_5  and  N2_6 
REMARK    3  A    between atoms: C1_5  and  C7_26 
REMARK    4  A    between atoms: N2_6  and  C2_8 
REMARK    5  A    between atoms: C3_11  and  C4_12 
REMARK    6  A    between atoms: C4_12  and  N4_13 
REMARK    7  A    between atoms: C4_12  and  C5_17 
REMARK    8  A    between atoms: C5_17  and  N5_18 
REMARK    9  A    between atoms: C5_17  and  O1_22 
REMARK       I    between atoms: C7_26  and  N6_28 
REMARK   10  A    between atoms: N6_28  and  N7_30 
REMARK   11  A    between atoms: N7_30  and  C8_32 
ROOT
HETATM    1  C1  UNL     1       0.452  -2.203  -0.279  1.00  0.00     0.378 C 
ENDROOT
BRANCH   1   2
HETATM    2  N1  UNL     1       0.159  -1.919   1.103  1.00  0.00    -0.049 N 
ATOM      3  H13 UNL     1      -0.464  -1.114   1.164  1.00  0.00     0.277 HD
ATOM      4  H12 UNL     1      -0.443  -2.649   1.484  1.00  0.00     0.277 HD
ATOM      5  H11 UNL     1       0.962  -1.780   1.717  1.00  0.00     0.277 HD
ENDBRANCH   1   2
BRANCH   1   6
HETATM    6  N2  UNL     1      -0.642  -2.392  -1.116  1.00  0.00    -0.336 N 
ATOM      7  H2  UNL     1      -0.452  -3.039  -1.881  1.00  0.00     0.164 HD
BRANCH   6   8
HETATM    8  C2  UNL     1      -1.839  -1.929  -1.135  1.00  0.00     0.146 A 
HETATM    9  N3  UNL     1      -2.481  -1.079  -0.339  1.00  0.00    -0.338 N 
HETATM   10  C3  UNL     1      -3.723  -0.781  -0.587  1.00  0.00     0.052 A 
ATOM     11  H3  UNL     1      -2.003  -0.663   0.461  1.00  0.00     0.168 HD
HETATM   12  C6  UNL     1      -4.326  -1.357  -1.668  1.00  0.00     0.080 A 
HETATM   13  S1  UNL     1      -3.072  -2.320  -2.297  1.00  0.00    -0.064 SA
BRANCH  10  14
HETATM   14  C4  UNL     1      -4.514   0.176   0.288  1.00  0.00     0.289 C 
BRANCH  14  15
HETATM   15  N4  UNL     1      -4.295  -0.108   1.684  1.00  0.00    -0.065 N 
ATOM     16  H43 UNL     1      -4.500  -1.082   1.908  1.00  0.00     0.275 HD
ATOM     17  H42 UNL     1      -3.303  -0.102   1.919  1.00  0.00     0.275 HD
ATOM     18  H41 UNL     1      -4.826   0.535   2.272  1.00  0.00     0.275 HD
ENDBRANCH  14  15
BRANCH  14  19
HETATM   19  C5  UNL     1      -4.145   1.595  -0.082  1.00  0.00     0.352 C 
BRANCH  19  20
HETATM   20  N5  UNL     1      -4.933   2.539   0.683  1.00  0.00    -0.051 N 
ATOM     21  H53 UNL     1      -5.933   2.368   0.581  1.00  0.00     0.277 HD
ATOM     22  H52 UNL     1      -4.852   2.375   1.687  1.00  0.00     0.277 HD
ATOM     23  H51 UNL     1      -4.684   3.496   0.433  1.00  0.00     0.277 HD
ENDBRANCH  19  20
BRANCH  19  24
HETATM   24  O1  UNL     1      -4.387   1.772  -1.440  1.00  0.00    -0.368 OA
ATOM     25  H1  UNL     1      -4.155   2.663  -1.672  1.00  0.00     0.212 HD
ENDBRANCH  19  24
ENDBRANCH  14  19
ENDBRANCH  10  14
ENDBRANCH   6   8
ENDBRANCH   1   6
BRANCH   1  26
HETATM   26  C7  UNL     1       1.420  -1.248  -0.860  1.00  0.00     0.286 C 
HETATM   27  O2  UNL     1       1.753  -1.328  -2.065  1.00  0.00    -0.267 OA
HETATM   28  N6  UNL     1       1.993  -0.221  -0.073  1.00  0.00    -0.252 N 
ATOM     29  H6  UNL     1       1.734  -0.144   0.911  1.00  0.00     0.190 HD
BRANCH  28  30
HETATM   30  N7  UNL     1       2.903   0.688  -0.610  1.00  0.00    -0.128 N 
ATOM     31  H7  UNL     1       2.572   1.340  -1.321  1.00  0.00     0.205 HD
BRANCH  30  32
HETATM   32  C8  UNL     1       4.262   0.753  -0.220  1.00  0.00     0.707 A 
HETATM   33  N8  UNL     1       5.169   1.307  -0.938  1.00  0.00    -0.222 N 
HETATM   34  C9  UNL     1       6.553   1.433  -0.656  1.00  0.00     0.159 A 
ATOM     35  H8  UNL     1       4.856   1.707  -1.822  1.00  0.00     0.177 HD
HETATM   36  C10 UNL     1       6.985   0.851   0.646  1.00  0.00     0.160 A 
HETATM   37  N9  UNL     1       5.925   0.261   1.372  1.00  0.00    -0.321 N 
HETATM   38  N10 UNL     1       4.741   0.207   1.017  1.00  0.00    -0.135 N 
ATOM     39  H9  UNL     1       6.158  -0.159   2.272  1.00  0.00     0.180 HD
ATOM     40  H10 UNL     1       4.071  -0.249   1.636  1.00  0.00     0.205 HD
ENDBRANCH  30  32
ENDBRANCH  28  30
ENDBRANCH   1  26
TORSDOF 11
