REMARK  6 active torsions:
REMARK  status: ('A' for Active; 'I' for Inactive)
REMARK    1  A    between atoms: O1_2  and  N1_3 
REMARK       I    between atoms: N1_3  and  C2_5 
REMARK    2  A    between atoms: C2_5  and  C3_7 
REMARK    3  A    between atoms: N2_9  and  N3_11 
REMARK    4  A    between atoms: N3_11  and  C5_13 
REMARK    5  A    between atoms: C6_17  and  C7_18 
REMARK       I    between atoms: C7_18  and  N5_20 
REMARK       I    between atoms: N5_20  and  C8_22 
REMARK    6  A    between atoms: N8_28  and  O4_30 
ROOT
HETATM    1  C5  UNL     1      -0.472  -1.015   0.139  1.00  0.00     0.369 C 
HETATM    2  N4  UNL     1      -1.454  -1.464   1.072  1.00  0.00    -0.025 N 
ATOM      3  H41 UNL     1      -1.353  -1.000   1.975  1.00  0.00     0.282 HD
ATOM      4  H42 UNL     1      -1.277  -2.424   1.369  1.00  0.00     0.282 HD
HETATM    5  C6  UNL     1      -2.776  -1.311   0.548  1.00  0.00     0.339 C 
HETATM    6  C9  UNL     1      -2.819  -1.831  -0.818  1.00  0.00     0.112 C 
HETATM    7  N8  UNL     1      -3.826  -2.190  -1.469  1.00  0.00    -0.264 N 
ATOM      8  H8  UNL     1      -4.727  -2.113  -0.997  1.00  0.00     0.194 HD
HETATM    9  S1  UNL     1      -1.133  -1.850  -1.370  1.00  0.00    -0.057 SA
ENDROOT
BRANCH   1  10
HETATM   10  N3  UNL     1       0.825  -1.497   0.466  1.00  0.00    -0.297 N 
ATOM     11  H3  UNL     1       0.941  -2.074   1.299  1.00  0.00     0.183 HD
BRANCH  10  12
HETATM   12  N2  UNL     1       1.939  -1.209  -0.310  1.00  0.00    -0.301 N 
HETATM   13  C3  UNL     1       2.845  -0.336  -0.033  1.00  0.00     0.091 C 
HETATM   14  C4  UNL     1       2.823   0.504   1.185  1.00  0.00     0.076 C 
ATOM     15  H2  UNL     1       2.050  -1.735  -1.177  1.00  0.00     0.186 HD
BRANCH  13  16
HETATM   16  C2  UNL     1       3.936  -0.184  -0.979  1.00  0.00     0.288 C 
HETATM   17  N1  UNL     1       4.950   0.751  -0.731  1.00  0.00    -0.230 N 
ATOM     18  H1  UNL     1       4.890   1.306   0.122  1.00  0.00     0.197 HD
HETATM   19  O2  UNL     1       4.007  -0.868  -2.024  1.00  0.00    -0.264 OA
BRANCH  17  20
HETATM   20  O1  UNL     1       6.003   0.963  -1.552  1.00  0.00    -0.282 OA
HETATM   21  C1  UNL     1       7.190   0.838  -0.839  1.00  0.00     0.237 C 
ENDBRANCH  17  20
ENDBRANCH  13  16
ENDBRANCH  10  12
ENDBRANCH   1  10
BRANCH   5  22
HETATM   22  C7  UNL     1      -3.304   0.039   0.728  1.00  0.00     0.261 C 
HETATM   23  O3  UNL     1      -2.625   0.914   1.289  1.00  0.00    -0.270 OA
HETATM   24  N5  UNL     1      -4.603   0.361   0.260  1.00  0.00    -0.299 N 
HETATM   25  C8  UNL     1      -5.147   1.653   0.418  1.00  0.00     0.188 C 
ATOM     26  H5  UNL     1      -5.158  -0.359  -0.202  1.00  0.00     0.171 HD
HETATM   27  N6  UNL     1      -6.319   1.940  -0.005  1.00  0.00    -0.373 N 
HETATM   28  N7  UNL     1      -4.380   2.646   1.059  1.00  0.00    -0.064 NA
ATOM     29  H62 UNL     1      -6.874   1.221  -0.469  1.00  0.00     0.158 HD
ATOM     30  H61 UNL     1      -6.712   2.874   0.109  1.00  0.00     0.158 HD
ENDBRANCH   5  22
BRANCH   7  31
HETATM   31  O4  UNL     1      -3.842  -2.673  -2.744  1.00  0.00    -0.289 OA
ATOM     32  H4  UNL     1      -4.606  -2.945  -3.238  1.00  0.00     0.244 HD
ENDBRANCH   7  31
TORSDOF 6
