REMARK  9 active torsions:
REMARK  status: ('A' for Active; 'I' for Inactive)
REMARK    1  A    between atoms: N1_2  and  C2_4 
REMARK    2  A    between atoms: C2_4  and  C3_5 
REMARK    3  A    between atoms: C2_4  and  C12_31 
REMARK    4  A    between atoms: C4_8  and  N3_9 
REMARK    5  A    between atoms: C7_14  and  N5_15 
REMARK    6  A    between atoms: N5_15  and  C8_17 
REMARK    7  A    between atoms: C11_23  and  N8_24 
REMARK    8  A    between atoms: C12_31  and  O1_32 
REMARK    9  A    between atoms: C12_31  and  O2_34 
ROOT
HETATM    1  C3  UNL     1      -1.449   0.435   0.297  1.00  0.00     0.140 A 
HETATM    2  N2  UNL     1      -2.192  -0.678   0.181  1.00  0.00    -0.177 N 
ATOM      3  H2  UNL     1      -3.203  -0.622   0.305  1.00  0.00     0.185 HD
HETATM    4  C4  UNL     1      -1.618  -1.875  -0.099  1.00  0.00     0.695 A 
HETATM    5  N4  UNL     1      -0.295  -1.881  -0.249  1.00  0.00    -0.022 N 
ATOM      6  H4  UNL     1       0.148  -2.775  -0.460  1.00  0.00     0.203 HD
HETATM    7  C7  UNL     1       0.512  -0.796  -0.144  1.00  0.00     0.699 A 
HETATM    8  N10 UNL     1      -0.099   0.364   0.133  1.00  0.00    -0.177 N 
ATOM      9  H10 UNL     1       0.460   1.213   0.223  1.00  0.00     0.185 HD
ENDROOT
BRANCH   7  10
HETATM   10  N5  UNL     1       1.765  -0.957  -0.311  1.00  0.00    -0.174 N 
ATOM     11  H5  UNL     1       2.043  -1.917  -0.512  1.00  0.00     0.186 HD
BRANCH  10  12
HETATM   12  C8  UNL     1       2.812  -0.057  -0.267  1.00  0.00     0.138 A 
HETATM   13  C9  UNL     1       2.789   1.277  -0.590  1.00  0.00     0.138 A 
HETATM   14  N6  UNL     1       3.894   2.048  -0.497  1.00  0.00    -0.348 N 
HETATM   15  C10 UNL     1       5.079   1.549  -0.083  1.00  0.00     0.160 A 
ATOM     16  H6  UNL     1       3.832   3.035  -0.746  1.00  0.00     0.166 HD
HETATM   17  N7  UNL     1       6.232   2.384  -0.002  1.00  0.00    -0.079 NA
HETATM   18  C11 UNL     1       5.117   0.215   0.245  1.00  0.00     0.142 A 
HETATM   19  N9  UNL     1       4.018  -0.549   0.151  1.00  0.00    -0.325 N 
ATOM     20  H9  UNL     1       4.084  -1.536   0.401  1.00  0.00     0.169 HD
BRANCH  18  21
HETATM   21  N8  UNL     1       6.252  -0.256   0.667  1.00  0.00    -0.383 N 
ATOM     22  H82 UNL     1       7.087   0.325   0.738  1.00  0.00     0.157 HD
ATOM     23  H81 UNL     1       6.280  -1.246   0.910  1.00  0.00     0.157 HD
ENDBRANCH  18  21
ENDBRANCH  10  12
ENDBRANCH   7  10
BRANCH   4  24
HETATM   24  N3  UNL     1      -2.408  -3.048  -0.217  1.00  0.00    -0.226 N 
HETATM   25  C5  UNL     1      -3.207  -3.310  -1.389  1.00  0.00     0.168 C 
HETATM   26  C6  UNL     1      -2.382  -3.995   0.868  1.00  0.00     0.168 C 
ENDBRANCH   4  24
BRANCH   1  27
HETATM   27  C2  UNL     1      -2.025   1.767   0.593  1.00  0.00     0.201 C 
BRANCH  27  28
HETATM   28  N1  UNL     1      -1.526   2.811  -0.236  1.00  0.00    -0.411 N 
HETATM   29  C1  UNL     1      -1.887   2.754  -1.615  1.00  0.00     0.141 C 
ATOM     30  H1  UNL     1      -0.942   3.560   0.136  1.00  0.00     0.153 HD
ENDBRANCH  27  28
BRANCH  27  31
HETATM   31  C12 UNL     1      -3.537   1.742   0.661  1.00  0.00     0.283 C 
BRANCH  31  32
HETATM   32  O1  UNL     1      -4.106   1.609  -0.606  1.00  0.00    -0.369 OA
ATOM     33  H1  UNL     1      -5.055   1.593  -0.563  1.00  0.00     0.212 HD
ENDBRANCH  31  32
BRANCH  31  34
HETATM   34  O2  UNL     1      -4.031   2.937   1.172  1.00  0.00    -0.369 OA
ATOM     35  H2  UNL     1      -4.980   2.921   1.215  1.00  0.00     0.212 HD
ENDBRANCH  31  34
ENDBRANCH  27  31
ENDBRANCH   1  27
TORSDOF 9
