REMARK  8 active torsions:
REMARK  status: ('A' for Active; 'I' for Inactive)
REMARK    1  A    between atoms: N1_2  and  O1_3 
REMARK       I    between atoms: N1_2  and  C4_13 
REMARK    2  A    between atoms: O1_3  and  C2_4 
REMARK    3  A    between atoms: C2_4  and  C3_6 
REMARK    4  A    between atoms: C3_6  and  N2_7 
REMARK    5  A    between atoms: C3_6  and  O3_11 
REMARK       I    between atoms: C4_13  and  N4_17 
REMARK       I    between atoms: N4_17  and  C5_19 
REMARK    6  A    between atoms: C5_19  and  C6_21 
REMARK    7  A    between atoms: C9_30  and  C10_31 
REMARK    8  A    between atoms: C10_31  and  O6_33 
ROOT
HETATM    1  C1  UNL     1       2.161  -0.726  -2.783  1.00  0.00     0.206 C 
HETATM    2  N1  UNL     1       2.195  -0.846  -1.342  1.00  0.00    -0.084 N 
HETATM    3  C4  UNL     1       1.433  -1.869  -0.733  1.00  0.00     0.700 C 
HETATM    4  N3  UNL     1       1.952  -3.040  -0.644  1.00  0.00    -0.233 N 
ATOM      5  H31 UNL     1       1.402  -3.778  -0.205  1.00  0.00     0.174 HD
ATOM      6  H32 UNL     1       2.891  -3.182  -1.015  1.00  0.00     0.174 HD
HETATM    7  N4  UNL     1       0.131  -1.672  -0.219  1.00  0.00    -0.153 N 
ATOM      8  H4  UNL     1      -0.352  -2.462   0.209  1.00  0.00     0.187 HD
HETATM    9  C5  UNL     1      -0.540  -0.397  -0.277  1.00  0.00     0.287 C 
HETATM   10  O4  UNL     1       0.111   0.504  -0.808  1.00  0.00    -0.265 OA
ENDROOT
BRANCH   9  11
HETATM   11  C6  UNL     1      -1.870  -0.370   0.291  1.00  0.00     0.123 A 
HETATM   12  N5  UNL     1      -2.088  -1.211   1.357  1.00  0.00    -0.303 N 
HETATM   13  C7  UNL     1      -3.254  -1.299   1.970  1.00  0.00     0.326 A 
ATOM     14  H5  UNL     1      -1.317  -1.791   1.688  1.00  0.00     0.171 HD
HETATM   15  O5  UNL     1      -3.347  -2.108   2.946  1.00  0.00    -0.247 OA
HETATM   16  N6  UNL     1      -4.312  -0.573   1.597  1.00  0.00    -0.296 N 
HETATM   17  C8  UNL     1      -4.139   0.252   0.565  1.00  0.00     0.136 A 
ATOM     18  H6  UNL     1      -5.208  -0.647   2.079  1.00  0.00     0.171 HD
HETATM   19  N7  UNL     1      -5.264   1.039   0.151  1.00  0.00    -0.081 NA
HETATM   20  C9  UNL     1      -2.913   0.390  -0.135  1.00  0.00     0.085 A 
BRANCH  20  21
HETATM   21  C10 UNL     1      -2.917   1.292  -1.267  1.00  0.00     0.165 C 
HETATM   22  N8  UNL     1      -1.904   1.607  -2.168  1.00  0.00    -0.074 NA
BRANCH  21  23
HETATM   23  O6  UNL     1      -4.028   1.923  -1.514  1.00  0.00    -0.348 OA
ATOM     24  H6  UNL     1      -4.031   2.515  -2.257  1.00  0.00     0.219 HD
ENDBRANCH  21  23
ENDBRANCH  20  21
ENDBRANCH   9  11
BRANCH   2  25
HETATM   25  O1  UNL     1       2.955   0.027  -0.639  1.00  0.00    -0.179 OA
BRANCH  25  26
HETATM   26  C2  UNL     1       3.389  -0.077   0.651  1.00  0.00     0.338 C 
HETATM   27  O2  UNL     1       3.079  -1.077   1.314  1.00  0.00    -0.258 OA
BRANCH  26  28
HETATM   28  C3  UNL     1       4.231   1.021   1.235  1.00  0.00     0.419 C 
BRANCH  28  29
HETATM   29  N2  UNL     1       3.514   2.268   1.181  1.00  0.00    -0.043 N 
ATOM     30  H23 UNL     1       3.199   2.488   0.236  1.00  0.00     0.278 HD
ATOM     31  H22 UNL     1       2.601   2.205   1.631  1.00  0.00     0.278 HD
ATOM     32  H21 UNL     1       4.086   3.014   1.578  1.00  0.00     0.278 HD
ENDBRANCH  28  29
BRANCH  28  33
HETATM   33  O3  UNL     1       4.539   0.677   2.549  1.00  0.00    -0.362 OA
ATOM     34  H3  UNL     1       5.072   1.372   2.918  1.00  0.00     0.212 HD
ENDBRANCH  28  33
ENDBRANCH  26  28
ENDBRANCH  25  26
ENDBRANCH   2  25
TORSDOF 8
