REMARK  9 active torsions:
REMARK  status: ('A' for Active; 'I' for Inactive)
REMARK    1  A    between atoms: C2_2  and  N1_3 
REMARK    2  A    between atoms: C2_2  and  N2_7 
REMARK    3  A    between atoms: C2_2  and  C3_11 
REMARK    4  A    between atoms: C3_11  and  O2_13 
REMARK    5  A    between atoms: O2_13  and  C4_14 
REMARK    6  A    between atoms: C9_29  and  N8_30 
REMARK    7  A    between atoms: N8_30  and  C10_32 
REMARK    8  A    between atoms: C10_32  and  C11_33 
REMARK    9  A    between atoms: C11_33  and  N9_34 
ROOT
HETATM    1  C4  UNL     1       1.295  -1.215  -0.176  1.00  0.00     0.286 A 
HETATM    2  N3  UNL     1       1.101  -2.300   0.684  1.00  0.00    -0.332 N 
ATOM      3  H3  UNL     1       1.925  -2.824   0.980  1.00  0.00     0.165 HD
HETATM    4  C5  UNL     1      -0.032  -2.680   1.124  1.00  0.00     0.191 A 
HETATM    5  N4  UNL     1      -0.145  -3.804   2.004  1.00  0.00    -0.063 NA
HETATM    6  N5  UNL     1      -1.254  -2.027   0.780  1.00  0.00    -0.326 N 
ATOM      7  H5  UNL     1      -2.151  -2.348   1.143  1.00  0.00     0.169 HD
HETATM    8  C6  UNL     1      -1.161  -0.897  -0.101  1.00  0.00     0.106 A 
HETATM    9  C7  UNL     1       0.068  -0.521  -0.550  1.00  0.00     0.093 A 
HETATM   10  N6  UNL     1       0.090   0.556  -1.382  1.00  0.00    -0.306 N 
ATOM     11  H6  UNL     1       0.980   0.888  -1.753  1.00  0.00     0.170 HD
HETATM   12  C8  UNL     1      -1.038   1.182  -1.717  1.00  0.00     0.326 A 
HETATM   13  O3  UNL     1      -0.973   2.180  -2.493  1.00  0.00    -0.247 OA
HETATM   14  N7  UNL     1      -2.253   0.819  -1.279  1.00  0.00    -0.293 N 
ATOM     15  H7  UNL     1      -3.086   1.333  -1.565  1.00  0.00     0.172 HD
HETATM   16  C9  UNL     1      -2.345  -0.230  -0.460  1.00  0.00     0.134 A 
ENDROOT
BRANCH   1  17
HETATM   17  O2  UNL     1       2.316  -0.319   0.248  1.00  0.00    -0.286 OA
BRANCH  17  18
HETATM   18  C3  UNL     1       3.490  -0.085  -0.405  1.00  0.00     0.326 C 
HETATM   19  O1  UNL     1       3.706  -0.711  -1.481  1.00  0.00    -0.260 OA
BRANCH  18  20
HETATM   20  C2  UNL     1       4.461   0.888   0.169  1.00  0.00     0.364 C 
HETATM   21  C1  UNL     1       4.836   0.480   1.592  1.00  0.00     0.090 C 
BRANCH  20  22
HETATM   22  N1  UNL     1       5.647   1.003  -0.664  1.00  0.00    -0.036 N 
ATOM     23  H13 UNL     1       6.334   1.638  -0.258  1.00  0.00     0.278 HD
ATOM     24  H12 UNL     1       6.202   0.148  -0.650  1.00  0.00     0.278 HD
ATOM     25  H11 UNL     1       5.397   1.276  -1.614  1.00  0.00     0.278 HD
ENDBRANCH  20  22
BRANCH  20  26
HETATM   26  N2  UNL     1       3.886   2.218   0.258  1.00  0.00    -0.036 N 
ATOM     27  H23 UNL     1       3.107   2.278   0.913  1.00  0.00     0.278 HD
ATOM     28  H22 UNL     1       4.495   2.891   0.723  1.00  0.00     0.278 HD
ATOM     29  H21 UNL     1       3.636   2.491  -0.692  1.00  0.00     0.278 HD
ENDBRANCH  20  26
ENDBRANCH  18  20
ENDBRANCH  17  18
ENDBRANCH   1  17
BRANCH  16  30
HETATM   30  N8  UNL     1      -3.449  -0.642   0.001  1.00  0.00    -0.373 N 
ATOM     31  H8  UNL     1      -3.403  -1.452   0.619  1.00  0.00     0.161 HD
BRANCH  30  32
HETATM   32  C10 UNL     1      -4.742  -0.113  -0.238  1.00  0.00     0.148 C 
BRANCH  32  33
HETATM   33  C11 UNL     1      -5.077   1.110   0.569  1.00  0.00     0.249 C 
BRANCH  33  34
HETATM   34  N9  UNL     1      -6.441   1.508   0.189  1.00  0.00    -0.078 N 
ATOM     35  H93 UNL     1      -6.555   1.645  -0.815  1.00  0.00     0.274 HD
ATOM     36  H92 UNL     1      -7.123   0.757   0.294  1.00  0.00     0.274 HD
ATOM     37  H91 UNL     1      -6.668   2.338   0.737  1.00  0.00     0.274 HD
ENDBRANCH  33  34
ENDBRANCH  32  33
ENDBRANCH  30  32
ENDBRANCH  16  30
TORSDOF 9
