REMARK  5 active torsions:
REMARK  status: ('A' for Active; 'I' for Inactive)
REMARK    1  A    between atoms: N1_1  and  C1_4 
REMARK    2  A    between atoms: C4_13  and  N5_14 
REMARK    3  A    between atoms: C4_13  and  C5_18 
REMARK       I    between atoms: C5_18  and  N6_20 
REMARK    4  A    between atoms: N6_20  and  C6_22 
REMARK    5  A    between atoms: C8_29  and  N10_30 
ROOT
HETATM    1  C1  UNL     1      -3.892   0.705  -1.194  1.00  0.00     0.690 A 
HETATM    2  N2  UNL     1      -3.824  -0.257  -0.297  1.00  0.00    -0.189 N 
ATOM      3  H2  UNL     1      -4.600  -0.916  -0.240  1.00  0.00     0.184 HD
HETATM    4  C2  UNL     1      -2.766  -0.424   0.568  1.00  0.00     0.094 A 
HETATM    5  C3  UNL     1      -1.755   0.472   0.460  1.00  0.00     0.109 A 
HETATM    6  N3  UNL     1      -1.884   1.452  -0.493  1.00  0.00    -0.285 N 
ATOM      7  H3  UNL     1      -1.128   2.131  -0.580  1.00  0.00     0.187 HD
HETATM    8  N4  UNL     1      -2.898   1.576  -1.290  1.00  0.00    -0.132 N 
ATOM      9  H4  UNL     1      -2.930   2.329  -1.977  1.00  0.00     0.205 HD
HETATM   10  C4  UNL     1      -0.509   0.540   1.237  1.00  0.00     0.305 C 
HETATM   11  S1  UNL     1      -0.672  -0.024   2.963  1.00  0.00    -0.039 SA
HETATM   12  S2  UNL     1      -1.806  -1.786   2.799  1.00  0.00    -0.056 SA
HETATM   13  C8  UNL     1      -2.925  -1.557   1.459  1.00  0.00     0.280 C 
ENDROOT
BRANCH  10  14
HETATM   14  N5  UNL     1      -0.156   1.934   1.393  1.00  0.00    -0.045 N 
ATOM     15  H53 UNL     1      -0.093   2.427   0.502  1.00  0.00     0.277 HD
ATOM     16  H52 UNL     1      -0.908   2.488   1.803  1.00  0.00     0.277 HD
ATOM     17  H51 UNL     1       0.709   1.981   1.932  1.00  0.00     0.277 HD
ENDBRANCH  10  14
BRANCH  10  18
HETATM   18  C5  UNL     1       0.579  -0.238   0.598  1.00  0.00     0.273 C 
HETATM   19  O1  UNL     1       0.416  -1.466   0.398  1.00  0.00    -0.269 OA
HETATM   20  N6  UNL     1       1.775   0.378   0.219  1.00  0.00    -0.337 N 
ATOM     21  H6  UNL     1       1.874   1.378   0.397  1.00  0.00     0.164 HD
BRANCH  20  22
HETATM   22  C6  UNL     1       2.883  -0.310  -0.409  1.00  0.00     0.212 C 
HETATM   23  C7  UNL     1       4.106  -0.061   0.426  1.00  0.00     0.175 C 
HETATM   24  N7  UNL     1       5.157  -0.020  -0.543  1.00  0.00    -0.127 NA
HETATM   25  N8  UNL     1       4.618   0.241  -1.783  1.00  0.00    -0.038 NA
HETATM   26  N9  UNL     1       3.243   0.254  -1.687  1.00  0.00    -0.103 NA
ENDBRANCH  20  22
ENDBRANCH  10  18
BRANCH  13  27
HETATM   27  N10 UNL     1      -2.877  -2.762   0.626  1.00  0.00    -0.133 N 
HETATM   28  O2  UNL     1      -2.726  -2.753  -0.604  1.00  0.00    -0.535 OA
HETATM   29  O3  UNL     1      -3.006  -3.980   1.240  1.00  0.00    -0.535 OA
ENDBRANCH  13  27
BRANCH   1  30
HETATM   30  N1  UNL     1      -4.901   0.855  -2.010  1.00  0.00    -0.233 N 
ATOM     31  H12 UNL     1      -5.666   0.185  -1.936  1.00  0.00     0.174 HD
ATOM     32  H11 UNL     1      -4.954   1.600  -2.705  1.00  0.00     0.174 HD
ENDBRANCH   1  30
TORSDOF 5
