REMARK  6 active torsions:
REMARK  status: ('A' for Active; 'I' for Inactive)
REMARK    1  A    between atoms: C2_2  and  C11_32 
REMARK    2  A    between atoms: N1_3  and  N2_5 
REMARK       I    between atoms: N2_5  and  C3_7 
REMARK    3  A    between atoms: C3_7  and  C4_9 
REMARK    4  A    between atoms: C5_12  and  N4_13 
REMARK    5  A    between atoms: C6_18  and  C7_19 
REMARK    6  A    between atoms: C9_24  and  N8_25 
REMARK       I    between atoms: C11_32  and  N11_34 
ROOT
HETATM    1  C4  UNL     1      -0.288  -0.289   0.863  1.00  0.00     0.145 A 
HETATM    2  N3  UNL     1      -0.130  -0.925   2.016  1.00  0.00    -0.184 N 
ATOM      3  H3  UNL     1      -0.931  -1.156   2.604  1.00  0.00     0.184 HD
HETATM    4  C5  UNL     1       1.125  -1.257   2.387  1.00  0.00     0.677 A 
HETATM    5  N5  UNL     1       2.195  -0.967   1.634  1.00  0.00    -0.186 N 
ATOM      6  H5  UNL     1       3.117  -1.246   1.970  1.00  0.00     0.184 HD
HETATM    7  C6  UNL     1       2.107  -0.310   0.428  1.00  0.00     0.121 A 
HETATM    8  C10 UNL     1       0.820   0.015   0.079  1.00  0.00     0.110 A 
HETATM    9  N10 UNL     1       0.609   0.691  -1.139  1.00  0.00    -0.097 NA
ENDROOT
BRANCH   1  10
HETATM   10  C3  UNL     1      -1.603   0.098   0.402  1.00  0.00     0.289 C 
HETATM   11  N2  UNL     1      -2.748  -0.213   1.210  1.00  0.00    -0.264 N 
ATOM     12  H2  UNL     1      -2.633  -0.701   2.098  1.00  0.00     0.190 HD
HETATM   13  O1  UNL     1      -1.731   0.691  -0.675  1.00  0.00    -0.264 OA
BRANCH  11  14
HETATM   14  N1  UNL     1      -4.004   0.152   0.777  1.00  0.00    -0.297 N 
HETATM   15  C2  UNL     1      -4.679  -0.514  -0.081  1.00  0.00     0.093 C 
HETATM   16  C1  UNL     1      -4.060  -1.748  -0.630  1.00  0.00     0.076 C 
ATOM     17  H1  UNL     1      -4.419   1.001   1.162  1.00  0.00     0.187 HD
BRANCH  15  18
HETATM   18  C11 UNL     1      -6.001  -0.055  -0.483  1.00  0.00     0.307 C 
HETATM   19  O2  UNL     1      -6.626  -0.739  -1.325  1.00  0.00    -0.262 OA
HETATM   20  N11 UNL     1      -6.549   1.127   0.068  1.00  0.00    -0.123 N 
HETATM   21  N12 UNL     1      -7.710   1.762  -0.117  1.00  0.00    -0.201 N 
HETATM   22  N14 UNL     1      -6.204   2.055   0.932  1.00  0.00    -0.201 N 
HETATM   23  N13 UNL     1      -7.364   2.687   0.745  1.00  0.00    -0.210 N 
ATOM     24  H12 UNL     1      -8.533   1.595  -0.695  1.00  0.00     0.212 HD
ATOM     25  H13 UNL     1      -7.798   3.532   1.116  1.00  0.00     0.211 HD
ATOM     26  H14 UNL     1      -5.382   2.224   1.511  1.00  0.00     0.212 HD
ENDBRANCH  15  18
ENDBRANCH  11  14
ENDBRANCH   1  10
BRANCH   4  27
HETATM   27  N4  UNL     1       1.250  -1.872   3.506  1.00  0.00    -0.234 N 
ATOM     28  H42 UNL     1       0.436  -2.093   4.079  1.00  0.00     0.174 HD
ATOM     29  H41 UNL     1       2.198  -2.123   3.786  1.00  0.00     0.174 HD
ENDBRANCH   4  27
BRANCH   7  30
HETATM   30  C7  UNL     1       3.287  -0.031  -0.325  1.00  0.00     0.165 A 
HETATM   31  N6  UNL     1       4.534  -0.399   0.113  1.00  0.00    -0.267 N 
HETATM   32  N7  UNL     1       5.454  -0.032  -0.750  1.00  0.00    -0.127 N 
ATOM     33  H6  UNL     1       4.721  -0.890   0.988  1.00  0.00     0.189 HD
HETATM   34  C8  UNL     1       6.896  -0.246  -0.638  1.00  0.00     0.197 C 
HETATM   35  C9  UNL     1       4.842   0.582  -1.773  1.00  0.00     0.694 A 
HETATM   36  N9  UNL     1       3.525   0.564  -1.479  1.00  0.00    -0.172 N 
ATOM     37  H9  UNL     1       2.801   0.962  -2.077  1.00  0.00     0.186 HD
BRANCH  35  38
HETATM   38  N8  UNL     1       5.394   1.087  -2.822  1.00  0.00    -0.233 N 
ATOM     39  H82 UNL     1       6.389   1.101  -3.044  1.00  0.00     0.174 HD
ATOM     40  H81 UNL     1       4.928   1.554  -3.600  1.00  0.00     0.174 HD
ENDBRANCH  35  38
ENDBRANCH   7  30
TORSDOF 6
