REMARK  8 active torsions:
REMARK  status: ('A' for Active; 'I' for Inactive)
REMARK    1  A    between atoms: N1_1  and  C1_4 
REMARK    2  A    between atoms: C2_7  and  S1_8 
REMARK    3  A    between atoms: S1_8  and  C3_9 
REMARK    4  A    between atoms: C5_18  and  N7_19 
REMARK    5  A    between atoms: C6_24  and  O1_25 
REMARK    6  A    between atoms: O1_25  and  S2_26 
REMARK    7  A    between atoms: S2_26  and  N9_29 
REMARK    8  A    between atoms: N9_29  and  O4_31 
ROOT
HETATM    1  C1  UNL     1      -0.739   0.845   2.737  1.00  0.00     0.678 A 
HETATM    2  N2  UNL     1      -1.785   0.105   2.344  1.00  0.00    -0.184 N 
ATOM      3  H2  UNL     1      -2.613   0.028   2.935  1.00  0.00     0.185 HD
HETATM    4  C2  UNL     1      -1.730  -0.547   1.140  1.00  0.00     0.111 A 
HETATM    5  C4  UNL     1      -0.612  -0.445   0.349  1.00  0.00     0.087 A 
HETATM    6  C5  UNL     1      -0.500  -1.099  -0.851  1.00  0.00     0.118 A 
HETATM    7  N8  UNL     1       0.630  -0.958  -1.555  1.00  0.00    -0.307 N 
ATOM      8  H8  UNL     1       0.711  -1.443  -2.449  1.00  0.00     0.171 HD
HETATM    9  C6  UNL     1       1.675  -0.196  -1.131  1.00  0.00     0.244 A 
HETATM   10  N10 UNL     1       1.572   0.434   0.031  1.00  0.00    -0.306 N 
ATOM     11  H10 UNL     1       2.353   1.005   0.355  1.00  0.00     0.171 HD
HETATM   12  C7  UNL     1       0.459   0.342   0.802  1.00  0.00     0.141 A 
HETATM   13  N11 UNL     1       0.367   0.967   1.984  1.00  0.00    -0.176 N 
ATOM     14  H11 UNL     1       1.143   1.540   2.315  1.00  0.00     0.186 HD
ENDROOT
BRANCH   4  15
HETATM   15  S1  UNL     1      -3.119  -1.531   0.607  1.00  0.00    -0.032 SA
BRANCH  15  16
HETATM   16  C3  UNL     1      -4.387  -0.557  -0.186  1.00  0.00     0.179 A 
HETATM   17  N3  UNL     1      -4.559  -0.231  -1.463  1.00  0.00    -0.261 N 
HETATM   18  N4  UNL     1      -5.634   0.516  -1.634  1.00  0.00    -0.005 NA
ATOM     19  H3  UNL     1      -3.937  -0.522  -2.218  1.00  0.00     0.186 HD
HETATM   20  N5  UNL     1      -6.187   0.685  -0.438  1.00  0.00    -0.224 N 
HETATM   21  N6  UNL     1      -5.450   0.046   0.449  1.00  0.00    -0.266 N 
ATOM     22  H5  UNL     1      -7.035   1.217  -0.240  1.00  0.00     0.205 HD
ATOM     23  H6  UNL     1      -5.638   0.005   1.451  1.00  0.00     0.190 HD
ENDBRANCH  15  16
ENDBRANCH   4  15
BRANCH   1  24
HETATM   24  N1  UNL     1      -0.832   1.454   3.891  1.00  0.00    -0.234 N 
ATOM     25  H12 UNL     1      -1.672   1.361   4.463  1.00  0.00     0.174 HD
ATOM     26  H11 UNL     1      -0.036   2.017   4.190  1.00  0.00     0.174 HD
ENDBRANCH   1  24
BRANCH   6  27
HETATM   27  N7  UNL     1      -1.453  -1.871  -1.290  1.00  0.00    -0.385 N 
ATOM     28  H72 UNL     1      -2.314  -1.978  -0.754  1.00  0.00     0.157 HD
ATOM     29  H71 UNL     1      -1.370  -2.357  -2.183  1.00  0.00     0.157 HD
ENDBRANCH   6  27
BRANCH   9  30
HETATM   30  O1  UNL     1       2.757  -0.130  -1.925  1.00  0.00    -0.180 OA
BRANCH  30  31
HETATM   31  S2  UNL     1       4.206   0.664  -1.793  1.00  0.00     0.387 S 
HETATM   32  O2  UNL     1       4.624   1.224  -3.155  1.00  0.00    -0.173 OA
HETATM   33  O3  UNL     1       4.239   1.829  -0.864  1.00  0.00    -0.173 OA
BRANCH  31  34
HETATM   34  N9  UNL     1       5.413  -0.521  -1.344  1.00  0.00    -0.171 N 
ATOM     35  H9  UNL     1       5.960  -1.055  -2.019  1.00  0.00     0.209 HD
BRANCH  34  36
HETATM   36  O4  UNL     1       5.540  -0.649  -0.021  1.00  0.00    -0.278 OA
ATOM     37  H4  UNL     1       6.195  -1.292   0.223  1.00  0.00     0.245 HD
ENDBRANCH  34  36
ENDBRANCH  31  34
ENDBRANCH  30  31
ENDBRANCH   9  30
TORSDOF 8
