REMARK  5 active torsions:
REMARK  status: ('A' for Active; 'I' for Inactive)
REMARK    1  A    between atoms: C2_2  and  C10_15 
REMARK       I    between atoms: N1_3  and  C3_5 
REMARK       I    between atoms: C3_5  and  N2_7 
REMARK    2  A    between atoms: N2_7  and  C4_9 
REMARK    3  A    between atoms: C4_9  and  C5_10 
REMARK    4  A    between atoms: C5_10  and  C6_11 
REMARK    5  A    between atoms: C10_15  and  C11_17 
ROOT
HETATM    1  C1  UNL     1      -2.107  -0.815   0.034  1.00  0.00     0.072 C 
HETATM    2  C2  UNL     1      -2.205   0.493  -0.603  1.00  0.00     0.062 C 
HETATM    3  N1  UNL     1      -1.099   1.092  -0.984  1.00  0.00    -0.309 N 
ATOM      4  H1  UNL     1      -1.130   2.007  -1.433  1.00  0.00     0.170 HD
HETATM    5  C3  UNL     1       0.131   0.441  -0.758  1.00  0.00     0.320 C 
HETATM    6  O1  UNL     1       0.516  -0.343  -1.654  1.00  0.00    -0.247 OA
HETATM    7  N2  UNL     1       0.856   0.692   0.432  1.00  0.00    -0.343 N 
ATOM      8  H2  UNL     1       0.464   1.344   1.112  1.00  0.00     0.164 HD
ENDROOT
BRANCH   2   9
HETATM    9  C10 UNL     1      -3.484   1.169  -0.837  1.00  0.00     0.220 C 
HETATM   10  O2  UNL     1      -3.473   2.280  -1.384  1.00  0.00    -0.284 OA
BRANCH   9  11
HETATM   11  C11 UNL     1      -4.732   0.557  -0.440  1.00  0.00     0.084 A 
HETATM   12  C12 UNL     1      -5.926   1.250  -0.689  1.00  0.00     0.034 A 
HETATM   13  C13 UNL     1      -7.143   0.724  -0.336  1.00  0.00     0.004 A 
HETATM   14  C14 UNL     1      -7.231  -0.514   0.279  1.00  0.00     0.017 A 
HETATM   15  C15 UNL     1      -6.047  -1.185   0.517  1.00  0.00     0.088 A 
HETATM   16  N3  UNL     1      -4.887  -0.624   0.152  1.00  0.00    -0.363 N 
ATOM     17  H3  UNL     1      -4.038  -1.155   0.347  1.00  0.00     0.165 HD
ENDBRANCH   9  11
ENDBRANCH   2   9
BRANCH   7  18
HETATM   18  C4  UNL     1       2.120   0.070   0.726  1.00  0.00     0.125 C 
BRANCH  18  19
HETATM   19  C5  UNL     1       3.134   0.454  -0.290  1.00  0.00     0.028 C 
BRANCH  19  20
HETATM   20  C6  UNL     1       4.493  -0.168  -0.030  1.00  0.00    -0.050 C 
HETATM   21  C7  UNL     1       5.022   0.258   1.304  1.00  0.00     0.014 C 
HETATM   22  C8  UNL     1       4.445  -1.671  -0.104  1.00  0.00     0.014 C 
HETATM   23  C9  UNL     1       5.400   0.306  -1.165  1.00  0.00     0.014 C 
ENDBRANCH  19  20
ENDBRANCH  18  19
ENDBRANCH   7  18
TORSDOF 5
