REMARK  13 active torsions:
REMARK  status: ('A' for Active; 'I' for Inactive)
REMARK    1  A    between atoms: C3_3  and  C4_4 
REMARK       I    between atoms: C4_4  and  N1_6 
REMARK    2  A    between atoms: N1_6  and  C5_8 
REMARK    3  A    between atoms: C7_10  and  N2_11 
REMARK    4  A    between atoms: C9_15  and  C10_16 
REMARK    5  A    between atoms: N3_17  and  O4_19 
REMARK    6  A    between atoms: O4_19  and  C11_20 
REMARK    7  A    between atoms: C12_22  and  C13_23 
REMARK    8  A    between atoms: C13_23  and  O6_24 
REMARK    9  A    between atoms: C14_26  and  O7_27 
REMARK   10  A    between atoms: C15_29  and  O8_30 
REMARK   11  A    between atoms: C16_32  and  O9_33 
REMARK   12  A    between atoms: C17_35  and  N4_36 
REMARK   13  A    between atoms: N4_36  and  O10_38 
ROOT
HETATM    1  C5  UNL     1       3.400   0.186  -0.620  1.00  0.00     0.067 A 
HETATM    2  C6  UNL     1       3.357   0.949  -1.756  1.00  0.00     0.068 A 
HETATM    3  C7  UNL     1       2.163   1.324  -2.364  1.00  0.00     0.106 A 
HETATM    4  C8  UNL     1       0.989   0.892  -1.773  1.00  0.00     0.051 A 
HETATM    5  C9  UNL     1       0.999   0.126  -0.633  1.00  0.00     0.014 A 
HETATM    6  C17 UNL     1       2.176  -0.232  -0.050  1.00  0.00     0.092 A 
ENDROOT
BRANCH   5   7
HETATM    7  C10 UNL     1      -0.249  -0.308  -0.041  1.00  0.00     0.128 C 
HETATM    8  N3  UNL     1      -1.358   0.020  -0.575  1.00  0.00    -0.274 N 
ATOM      9  H3  UNL     1      -1.328   0.590  -1.420  1.00  0.00     0.193 HD
BRANCH   8  10
HETATM   10  O4  UNL     1      -2.588  -0.341  -0.092  1.00  0.00    -0.245 OA
BRANCH  10  11
HETATM   11  C11 UNL     1      -3.309   0.574   0.663  1.00  0.00     0.320 C 
HETATM   12  O5  UNL     1      -4.540   0.905   0.138  1.00  0.00    -0.346 OA
HETATM   13  C12 UNL     1      -5.436  -0.104   0.015  1.00  0.00     0.179 C 
HETATM   14  C14 UNL     1      -5.165  -1.362   0.735  1.00  0.00     0.180 C 
HETATM   15  C15 UNL     1      -4.322  -1.247   1.960  1.00  0.00     0.183 C 
HETATM   16  C16 UNL     1      -3.505  -0.006   2.043  1.00  0.00     0.206 C 
BRANCH  13  17
HETATM   17  C13 UNL     1      -6.815   0.446   0.396  1.00  0.00     0.198 C 
BRANCH  17  18
HETATM   18  O6  UNL     1      -7.177   1.507  -0.449  1.00  0.00    -0.398 OA
ATOM     19  H6  UNL     1      -8.032   1.848  -0.213  1.00  0.00     0.209 HD
ENDBRANCH  17  18
ENDBRANCH  13  17
BRANCH  14  20
HETATM   20  O7  UNL     1      -4.669  -2.343  -0.155  1.00  0.00    -0.390 OA
ATOM     21  H7  UNL     1      -4.494  -3.153   0.309  1.00  0.00     0.210 HD
ENDBRANCH  14  20
BRANCH  15  22
HETATM   22  O8  UNL     1      -5.063  -1.361   3.149  1.00  0.00    -0.390 OA
ATOM     23  H8  UNL     1      -4.526  -1.288   3.929  1.00  0.00     0.210 HD
ENDBRANCH  15  22
BRANCH  16  24
HETATM   24  O9  UNL     1      -4.105   0.989   2.820  1.00  0.00    -0.388 OA
ATOM     25  H9  UNL     1      -4.228   0.624   3.688  1.00  0.00     0.210 HD
ENDBRANCH  16  24
ENDBRANCH  10  11
ENDBRANCH   8  10
ENDBRANCH   5   7
BRANCH   6  26
HETATM   26  N4  UNL     1       2.192  -1.025   1.130  1.00  0.00    -0.266 N 
ATOM     27  H4  UNL     1       2.486  -1.999   1.051  1.00  0.00     0.194 HD
BRANCH  26  28
HETATM   28  O10 UNL     1       1.869  -0.600   2.249  1.00  0.00    -0.289 OA
ATOM     29  H10 UNL     1       1.880  -1.130   3.037  1.00  0.00     0.244 HD
ENDBRANCH  26  28
ENDBRANCH   6  26
BRANCH   3  30
HETATM   30  N2  UNL     1       2.113   2.103  -3.525  1.00  0.00    -0.116 N 
HETATM   31  O2  UNL     1       3.158   2.494  -4.062  1.00  0.00    -0.532 OA
HETATM   32  O3  UNL     1       0.910   2.441  -4.078  1.00  0.00    -0.532 OA
ENDBRANCH   3  30
BRANCH   1  33
HETATM   33  N1  UNL     1       4.597  -0.197   0.001  1.00  0.00    -0.322 N 
HETATM   34  C4  UNL     1       5.903   0.095  -0.378  1.00  0.00     0.245 C 
HETATM   35  O1  UNL     1       6.174   0.773  -1.377  1.00  0.00    -0.268 OA
ATOM     36  H1  UNL     1       4.497  -0.765   0.842  1.00  0.00     0.169 HD
BRANCH  34  37
HETATM   37  C3  UNL     1       7.046  -0.405   0.413  1.00  0.00     0.070 C 
HETATM   38  C2  UNL     1       8.289  -0.159   0.099  1.00  0.00    -0.026 C 
HETATM   39  C1  UNL     1       8.707   0.630  -1.058  1.00  0.00     0.036 C 
ENDBRANCH  34  37
ENDBRANCH   1  33
TORSDOF 13
