REMARK  14 active torsions:
REMARK  status: ('A' for Active; 'I' for Inactive)
REMARK    1  A    between atoms: O1_2  and  C2_3 
REMARK    2  A    between atoms: C4_6  and  O3_7 
REMARK    3  A    between atoms: C5_9  and  O4_10 
REMARK    4  A    between atoms: O4_10  and  C6_11 
REMARK       I    between atoms: C6_11  and  N1_13 
REMARK    5  A    between atoms: N1_13  and  C7_15 
REMARK    6  A    between atoms: C7_15  and  C8_16 
REMARK    7  A    between atoms: C8_16  and  O6_20 
REMARK    8  A    between atoms: O6_20  and  C9_21 
REMARK    9  A    between atoms: C10_24  and  O8_25 
REMARK   10  A    between atoms: O8_25  and  C11_26 
REMARK   11  A    between atoms: C11_26  and  C12_28 
REMARK   12  A    between atoms: C13_29  and  C14_30 
REMARK   13  A    between atoms: C15_32  and  O11_33 
REMARK   14  A    between atoms: C17_36  and  O12_37 
ROOT
HETATM    1  C2  UNL     1      -0.288  -3.498  -0.469  1.00  0.00     0.291 C 
HETATM    2  O2  UNL     1       0.686  -3.973   0.392  1.00  0.00    -0.356 OA
HETATM    3  C3  UNL     1       0.622  -3.313   1.598  1.00  0.00     0.205 C 
HETATM    4  C4  UNL     1       1.035  -1.860   1.488  1.00  0.00     0.174 C 
HETATM    5  C5  UNL     1       1.256  -1.579  -0.003  1.00  0.00     0.198 C 
HETATM    6  C10 UNL     1      -0.014  -2.020  -0.699  1.00  0.00     0.219 C 
ENDROOT
BRANCH   5   7
HETATM    7  O4  UNL     1       1.391  -0.189  -0.231  1.00  0.00    -0.293 OA
BRANCH   7   8
HETATM    8  C6  UNL     1       2.485   0.386  -0.871  1.00  0.00     0.361 C 
HETATM    9  O5  UNL     1       3.382  -0.405  -1.253  1.00  0.00    -0.238 OA
HETATM   10  N1  UNL     1       2.589   1.789  -1.083  1.00  0.00    -0.329 N 
ATOM     11  H1  UNL     1       1.854   2.423  -0.769  1.00  0.00     0.165 HD
BRANCH  10  12
HETATM   12  C7  UNL     1       3.767   2.291  -1.756  1.00  0.00     0.209 C 
BRANCH  12  13
HETATM   13  C8  UNL     1       4.975   1.930  -0.972  1.00  0.00     0.140 C 
HETATM   14  N2  UNL     1       5.909   1.217  -1.497  1.00  0.00    -0.382 N 
ATOM     15  H22 UNL     1       5.781   0.918  -2.464  1.00  0.00     0.158 HD
ATOM     16  H21 UNL     1       6.739   0.969  -0.958  1.00  0.00     0.158 HD
BRANCH  13  17
HETATM   17  O6  UNL     1       5.149   2.337   0.344  1.00  0.00    -0.249 OA
BRANCH  17  18
HETATM   18  C9  UNL     1       6.276   1.994   1.070  1.00  0.00     0.379 C 
HETATM   19  N3  UNL     1       6.507   2.379   2.411  1.00  0.00    -0.032 NA
HETATM   20  O7  UNL     1       7.141   1.288   0.470  1.00  0.00    -0.242 OA
ENDBRANCH  17  18
ENDBRANCH  13  17
ENDBRANCH  12  13
ENDBRANCH  10  12
ENDBRANCH   7   8
ENDBRANCH   5   7
BRANCH   4  21
HETATM   21  O3  UNL     1       2.223  -1.695   2.199  1.00  0.00    -0.391 OA
ATOM     22  H3  UNL     1       2.482  -0.784   2.130  1.00  0.00     0.210 HD
ENDBRANCH   4  21
BRANCH   6  23
HETATM   23  O8  UNL     1      -1.067  -1.252  -0.094  1.00  0.00    -0.305 OA
BRANCH  23  24
HETATM   24  C11 UNL     1      -1.842  -0.403  -0.829  1.00  0.00     0.283 C 
HETATM   25  O9  UNL     1      -1.623  -0.298  -2.063  1.00  0.00    -0.260 OA
BRANCH  24  26
HETATM   26  C12 UNL     1      -2.925   0.388  -0.195  1.00  0.00     0.085 C 
HETATM   27  C13 UNL     1      -3.669   1.200  -0.889  1.00  0.00     0.046 C 
BRANCH  27  28
HETATM   28  C14 UNL     1      -4.745   2.005  -0.339  1.00  0.00     0.111 A 
HETATM   29  O10 UNL     1      -5.484   2.821  -1.072  1.00  0.00    -0.285 OA
HETATM   30  C15 UNL     1      -6.380   3.434  -0.376  1.00  0.00     0.186 A 
HETATM   31  C16 UNL     1      -6.246   3.008   0.933  1.00  0.00     0.103 A 
HETATM   32  C17 UNL     1      -5.209   2.107   0.930  1.00  0.00     0.104 A 
BRANCH  30  33
HETATM   33  O11 UNL     1      -7.347   4.362  -0.747  1.00  0.00    -0.341 OA
ATOM     34  H11 UNL     1      -8.007   4.814  -0.234  1.00  0.00     0.220 HD
ENDBRANCH  30  33
BRANCH  32  35
HETATM   35  O12 UNL     1      -4.766   1.455   2.058  1.00  0.00    -0.358 OA
ATOM     36  H12 UNL     1      -5.091   1.527   2.948  1.00  0.00     0.217 HD
ENDBRANCH  32  35
ENDBRANCH  27  28
ENDBRANCH  24  26
ENDBRANCH  23  24
ENDBRANCH   6  23
BRANCH   1  37
HETATM   37  O1  UNL     1      -1.544  -3.712   0.092  1.00  0.00    -0.363 OA
HETATM   38  C1  UNL     1      -2.315  -4.476  -0.786  1.00  0.00     0.204 C 
ENDBRANCH   1  37
TORSDOF 14
