REMARK  11 active torsions:
REMARK  status: ('A' for Active; 'I' for Inactive)
REMARK    1  A    between atoms: C2_2  and  O2_4 
REMARK    2  A    between atoms: O2_4  and  C3_5 
REMARK    3  A    between atoms: C4_6  and  N1_7 
REMARK    4  A    between atoms: N1_7  and  C5_9 
REMARK    5  A    between atoms: C7_11  and  S1_12 
REMARK    6  A    between atoms: S1_12  and  C8_13 
REMARK    7  A    between atoms: C9_18  and  N4_19 
REMARK    8  A    between atoms: C11_23  and  N5_24 
REMARK    9  A    between atoms: C12_29  and  O8_30 
REMARK   10  A    between atoms: C13_32  and  C14_33 
REMARK   11  A    between atoms: C14_33  and  O9_34 
ROOT
HETATM    1  C5  UNL     1       1.129  -1.150  -0.340  1.00  0.00     0.064 A 
HETATM    2  C6  UNL     1       1.328   0.132   0.174  1.00  0.00     0.053 A 
HETATM    3  C7  UNL     1       2.471   0.869  -0.046  1.00  0.00     0.043 A 
HETATM    4  C9  UNL     1       3.486   0.331  -0.812  1.00  0.00     0.122 A 
HETATM    5  C10 UNL     1       3.295  -0.923  -1.317  1.00  0.00     0.075 A 
HETATM    6  C11 UNL     1       2.136  -1.692  -1.105  1.00  0.00     0.131 A 
ENDROOT
BRANCH   1   7
HETATM    7  N1  UNL     1      -0.055  -1.850   0.005  1.00  0.00    -0.366 N 
ATOM      8  H1  UNL     1      -0.082  -2.849  -0.198  1.00  0.00     0.161 HD
BRANCH   7   9
HETATM    9  C4  UNL     1      -1.220  -1.273   0.616  1.00  0.00     0.234 C 
HETATM   10  C3  UNL     1      -2.081  -0.441  -0.276  1.00  0.00     0.183 C 
HETATM   11  C13 UNL     1      -3.048   0.293   0.638  1.00  0.00     0.099 C 
HETATM   12  C12 UNL     1      -3.327  -0.515   1.889  1.00  0.00     0.289 C 
HETATM   13  O7  UNL     1      -3.180  -1.863   1.729  1.00  0.00    -0.252 OA
HETATM   14  N6  UNL     1      -2.078  -2.308   1.152  1.00  0.00    -0.070 NA
BRANCH  10  15
HETATM   15  O2  UNL     1      -1.416   0.402  -1.175  1.00  0.00    -0.312 OA
BRANCH  15  16
HETATM   16  C2  UNL     1      -1.560   0.316  -2.540  1.00  0.00     0.255 C 
HETATM   17  C1  UNL     1      -0.859   1.205  -3.500  1.00  0.00     0.126 C 
HETATM   18  O1  UNL     1      -2.336  -0.575  -2.991  1.00  0.00    -0.266 OA
ENDBRANCH  15  16
ENDBRANCH  10  15
BRANCH  11  19
HETATM   19  C14 UNL     1      -4.314   0.674  -0.081  1.00  0.00     0.176 C 
BRANCH  19  20
HETATM   20  O9  UNL     1      -4.942  -0.484  -0.553  1.00  0.00    -0.400 OA
ATOM     21  H9  UNL     1      -5.741  -0.243  -1.007  1.00  0.00     0.209 HD
ENDBRANCH  19  20
ENDBRANCH  11  19
BRANCH  12  22
HETATM   22  O8  UNL     1      -2.647   0.000   2.997  1.00  0.00    -0.369 OA
ATOM     23  H8  UNL     1      -2.749   0.938   3.108  1.00  0.00     0.212 HD
ENDBRANCH  12  22
ENDBRANCH   7   9
ENDBRANCH   1   7
BRANCH   6  24
HETATM   24  N5  UNL     1       2.074  -2.980  -1.694  1.00  0.00    -0.113 N 
HETATM   25  O5  UNL     1       1.011  -3.426  -2.117  1.00  0.00    -0.532 OA
HETATM   26  O6  UNL     1       3.195  -3.769  -1.855  1.00  0.00    -0.532 OA
ENDBRANCH   6  24
BRANCH   3  27
HETATM   27  S1  UNL     1       2.684   2.496   0.625  1.00  0.00    -0.056 SA
BRANCH  27  28
HETATM   28  C8  UNL     1       3.416   2.463   2.247  1.00  0.00     0.152 C 
HETATM   29  N2  UNL     1       3.641   3.558   2.848  1.00  0.00    -0.382 N 
ATOM     30  H22 UNL     1       3.395   4.431   2.381  1.00  0.00     0.157 HD
ATOM     31  H21 UNL     1       4.061   3.539   3.778  1.00  0.00     0.157 HD
HETATM   32  N3  UNL     1       3.760   1.245   2.899  1.00  0.00    -0.075 NA
ENDBRANCH  27  28
ENDBRANCH   3  27
BRANCH   4  33
HETATM   33  N4  UNL     1       4.689   1.074  -1.066  1.00  0.00    -0.114 N 
HETATM   34  O3  UNL     1       5.182   1.886  -0.274  1.00  0.00    -0.532 OA
HETATM   35  O4  UNL     1       5.313   0.858  -2.264  1.00  0.00    -0.532 OA
ENDBRANCH   4  33
TORSDOF 11
