REMARK  10 active torsions:
REMARK  status: ('A' for Active; 'I' for Inactive)
REMARK    1  A    between atoms: C1_2  and  C2_4 
REMARK    2  A    between atoms: C4_6  and  C5_7 
REMARK    3  A    between atoms: N2_8  and  N3_10 
REMARK       I    between atoms: N3_10  and  C6_12 
REMARK       I    between atoms: C6_12  and  N4_14 
REMARK    4  A    between atoms: N4_14  and  N5_16 
REMARK    5  A    between atoms: C7_18  and  C8_19 
REMARK    6  A    between atoms: C10_21  and  N6_22 
REMARK    7  A    between atoms: C11_26  and  N7_27 
REMARK    8  A    between atoms: C12_30  and  O8_31 
REMARK    9  A    between atoms: C13_33  and  O9_34 
REMARK   10  A    between atoms: C14_36  and  O10_37 
ROOT
HETATM    1  N3  UNL     1      -0.025   1.297   0.470  1.00  0.00    -0.251 N 
ATOM      2  H3  UNL     1       0.102   2.151   1.013  1.00  0.00     0.191 HD
HETATM    3  C6  UNL     1       1.149   0.638  -0.017  1.00  0.00     0.353 C 
HETATM    4  O2  UNL     1       0.981  -0.402  -0.694  1.00  0.00    -0.244 OA
HETATM    5  N4  UNL     1       2.425   1.167   0.277  1.00  0.00    -0.251 N 
ATOM      6  H4  UNL     1       2.529   2.016   0.832  1.00  0.00     0.191 HD
ENDROOT
BRANCH   1   7
HETATM    7  N2  UNL     1      -1.250   0.881   0.268  1.00  0.00    -0.307 N 
HETATM    8  C5  UNL     1      -2.071   0.380  -0.458  1.00  0.00     0.121 C 
ATOM      9  H2  UNL     1      -1.744   1.072   1.140  1.00  0.00     0.186 HD
BRANCH   8  10
HETATM   10  C4  UNL     1      -3.444   0.184   0.049  1.00  0.00     0.018 A 
HETATM   11  C3  UNL     1      -4.385  -0.429  -0.713  1.00  0.00     0.035 A 
HETATM   12  C2  UNL     1      -5.651  -0.629  -0.191  1.00  0.00     0.066 A 
HETATM   13  C14 UNL     1      -5.925  -0.205   1.077  1.00  0.00     0.117 A 
HETATM   14  C13 UNL     1      -4.969   0.418   1.850  1.00  0.00     0.134 A 
HETATM   15  C12 UNL     1      -3.728   0.620   1.349  1.00  0.00     0.113 A 
BRANCH  12  16
HETATM   16  C1  UNL     1      -6.645  -1.306  -1.015  1.00  0.00     0.267 C 
HETATM   17  N1  UNL     1      -7.921  -1.533  -0.469  1.00  0.00    -0.057 NA
HETATM   18  O1  UNL     1      -6.357  -1.670  -2.176  1.00  0.00    -0.271 OA
ENDBRANCH  12  16
BRANCH  13  19
HETATM   19  O10 UNL     1      -7.205  -0.417   1.588  1.00  0.00    -0.357 OA
ATOM     20  H10 UNL     1      -7.396  -0.122   2.471  1.00  0.00     0.217 HD
ENDBRANCH  13  19
BRANCH  14  21
HETATM   21  O9  UNL     1      -5.315   0.834   3.147  1.00  0.00    -0.356 OA
ATOM     22  H9  UNL     1      -6.186   0.692   3.499  1.00  0.00     0.218 HD
ENDBRANCH  14  21
BRANCH  15  23
HETATM   23  O8  UNL     1      -2.723   1.247   2.095  1.00  0.00    -0.357 OA
ATOM     24  H8  UNL     1      -2.916   1.543   2.977  1.00  0.00     0.217 HD
ENDBRANCH  15  23
ENDBRANCH   8  10
ENDBRANCH   1   7
BRANCH   5  25
HETATM   25  N5  UNL     1       3.534   0.490  -0.216  1.00  0.00    -0.307 N 
HETATM   26  C7  UNL     1       4.726   0.892   0.052  1.00  0.00     0.123 C 
ATOM     27  H5  UNL     1       3.401  -0.337  -0.798  1.00  0.00     0.186 HD
BRANCH  26  28
HETATM   28  C8  UNL     1       5.861   0.160  -0.477  1.00  0.00     0.043 A 
HETATM   29  C9  UNL     1       5.767  -1.003  -1.274  1.00  0.00     0.080 A 
HETATM   30  C10 UNL     1       7.043  -1.411  -1.580  1.00  0.00     0.217 A 
HETATM   31  O5  UNL     1       7.868  -0.573  -1.022  1.00  0.00    -0.265 OA
HETATM   32  C11 UNL     1       7.218   0.379  -0.355  1.00  0.00     0.228 A 
BRANCH  30  33
HETATM   33  N6  UNL     1       7.354  -2.563  -2.378  1.00  0.00    -0.090 N 
HETATM   34  O3  UNL     1       8.543  -2.829  -2.581  1.00  0.00    -0.530 OA
HETATM   35  O4  UNL     1       6.366  -3.353  -2.905  1.00  0.00    -0.530 OA
ENDBRANCH  30  33
BRANCH  32  36
HETATM   36  N7  UNL     1       7.825   1.442   0.366  1.00  0.00    -0.089 N 
HETATM   37  O6  UNL     1       9.083   1.566   0.434  1.00  0.00    -0.530 OA
HETATM   38  O7  UNL     1       7.113   2.397   1.036  1.00  0.00    -0.530 OA
ENDBRANCH  32  36
ENDBRANCH  26  28
ENDBRANCH   5  25
TORSDOF 10
