REMARK  13 active torsions:
REMARK  status: ('A' for Active; 'I' for Inactive)
REMARK    1  A    between atoms: S1_2  and  C2_3 
REMARK    2  A    between atoms: C3_6  and  S2_7 
REMARK    3  A    between atoms: S2_7  and  C4_8 
REMARK    4  A    between atoms: C4_8  and  C5_9 
REMARK    5  A    between atoms: C5_9  and  N2_10 
REMARK    6  A    between atoms: C5_9  and  N4_15 
REMARK    7  A    between atoms: N2_10  and  N3_12 
REMARK    8  A    between atoms: N3_12  and  O1_13 
REMARK    9  A    between atoms: N4_15  and  N5_17 
REMARK   10  A    between atoms: N5_17  and  C6_19 
REMARK   11  A    between atoms: C9_27  and  N8_28 
REMARK   12  A    between atoms: C11_34  and  N10_35 
REMARK   13  A    between atoms: C12_38  and  N11_39 
ROOT
HETATM    1  C5  UNL     1      -1.196  -1.287   2.103  1.00  0.00     0.119 C 
ENDROOT
BRANCH   1   2
HETATM    2  C4  UNL     1       0.138  -1.606   1.539  1.00  0.00     0.161 C 
BRANCH   2   3
HETATM    3  S2  UNL     1       1.141  -0.113   1.639  1.00  0.00    -0.086 SA
BRANCH   3   4
HETATM    4  C3  UNL     1       2.791  -0.374   0.981  1.00  0.00     0.147 A 
HETATM    5  N1  UNL     1       3.014  -0.143  -0.325  1.00  0.00    -0.329 N 
HETATM    6  C2  UNL     1       4.231  -0.315  -0.902  1.00  0.00     0.108 A 
ATOM      7  H1  UNL     1       2.238   0.174  -0.905  1.00  0.00     0.168 HD
HETATM    8  C12 UNL     1       5.276  -0.743  -0.116  1.00  0.00     0.179 A 
HETATM    9  C11 UNL     1       5.052  -0.983   1.227  1.00  0.00     0.137 A 
HETATM   10  N9  UNL     1       3.806  -0.791   1.747  1.00  0.00    -0.321 N 
ATOM     11  H9  UNL     1       3.645  -0.969   2.738  1.00  0.00     0.169 HD
BRANCH   6  12
HETATM   12  S1  UNL     1       4.509  -0.003  -2.639  1.00  0.00    -0.114 SA
HETATM   13  C1  UNL     1       4.999   1.758  -2.780  1.00  0.00     0.097 C 
ENDBRANCH   6  12
BRANCH   8  14
HETATM   14  N11 UNL     1       6.541  -0.922  -0.715  1.00  0.00    -0.109 N 
HETATM   15  O4  UNL     1       6.753  -1.879  -1.463  1.00  0.00    -0.532 OA
HETATM   16  O5  UNL     1       7.535  -0.024  -0.460  1.00  0.00    -0.532 OA
ENDBRANCH   8  14
BRANCH   9  17
HETATM   17  N10 UNL     1       6.026  -1.379   1.947  1.00  0.00    -0.383 N 
ATOM     18 2H10 UNL     1       5.861  -1.556   2.938  1.00  0.00     0.157 HD
ATOM     19 1H10 UNL     1       6.958  -1.523   1.558  1.00  0.00     0.157 HD
ENDBRANCH   9  17
ENDBRANCH   3   4
ENDBRANCH   2   3
ENDBRANCH   1   2
BRANCH   1  20
HETATM   20  N2  UNL     1      -1.591  -1.959   3.126  1.00  0.00    -0.265 N 
ATOM     21  H2  UNL     1      -2.507  -1.746   3.520  1.00  0.00     0.186 HD
BRANCH  20  22
HETATM   22  N3  UNL     1      -0.832  -2.964   3.724  1.00  0.00     0.020 NA
BRANCH  22  23
HETATM   23  O1  UNL     1      -0.290  -2.419   4.864  1.00  0.00    -0.277 OA
ATOM     24  H1  UNL     1       0.227  -3.104   5.271  1.00  0.00     0.240 HD
ENDBRANCH  22  23
ENDBRANCH  20  22
ENDBRANCH   1  20
BRANCH   1  25
HETATM   25  N4  UNL     1      -2.017  -0.280   1.549  1.00  0.00    -0.287 N 
ATOM     26  H4  UNL     1      -2.388   0.461   2.143  1.00  0.00     0.188 HD
BRANCH  25  27
HETATM   27  N5  UNL     1      -2.318  -0.301   0.193  1.00  0.00    -0.298 N 
ATOM     28  H5  UNL     1      -1.650  -0.745  -0.437  1.00  0.00     0.187 HD
BRANCH  27  29
HETATM   29  C6  UNL     1      -3.492   0.254  -0.370  1.00  0.00     0.066 A 
HETATM   30  C7  UNL     1      -3.740   0.207  -1.724  1.00  0.00     0.120 A 
HETATM   31  N6  UNL     1      -4.865   0.740  -2.255  1.00  0.00    -0.348 N 
HETATM   32  C8  UNL     1      -5.807   1.345  -1.493  1.00  0.00     0.132 A 
ATOM     33  H6  UNL     1      -5.008   0.684  -3.263  1.00  0.00     0.167 HD
HETATM   34  N7  UNL     1      -6.865   1.838  -2.052  1.00  0.00    -0.383 N 
HETATM   35  C9  UNL     1      -5.601   1.414  -0.136  1.00  0.00     0.148 A 
ATOM     36  H72 UNL     1      -7.018   1.787  -3.059  1.00  0.00     0.157 HD
ATOM     37  H71 UNL     1      -7.574   2.294  -1.478  1.00  0.00     0.157 HD
HETATM   38  C10 UNL     1      -4.456   0.872   0.399  1.00  0.00     0.072 A 
BRANCH  35  39
HETATM   39  N8  UNL     1      -6.536   2.029   0.721  1.00  0.00    -0.112 N 
HETATM   40  O2  UNL     1      -7.239   2.986   0.359  1.00  0.00    -0.532 OA
HETATM   41  O3  UNL     1      -6.685   1.563   2.001  1.00  0.00    -0.532 OA
ENDBRANCH  35  39
ENDBRANCH  27  29
ENDBRANCH  25  27
ENDBRANCH   1  25
TORSDOF 13
