REMARK  16 active torsions:
REMARK  status: ('A' for Active; 'I' for Inactive)
REMARK    1  A    between atoms: N1_2  and  N2_4 
REMARK    2  A    between atoms: N2_4  and  C2_6 
REMARK    3  A    between atoms: C2_6  and  N3_7 
REMARK    4  A    between atoms: C2_6  and  C3_11 
REMARK    5  A    between atoms: N3_7  and  O1_9 
REMARK    6  A    between atoms: C4_16  and  N6_17 
REMARK    7  A    between atoms: N6_17  and  N7_19 
REMARK    8  A    between atoms: N7_19  and  C5_21 
REMARK    9  A    between atoms: C5_21  and  C6_22 
REMARK   10  A    between atoms: C6_22  and  O2_23 
REMARK   11  A    between atoms: C6_22  and  C8_25 
REMARK   12  A    between atoms: C10_29  and  N9_30 
REMARK   13  A    between atoms: N9_30  and  N10_32 
REMARK   14  A    between atoms: N10_32  and  C11_34 
REMARK   15  A    between atoms: C11_34  and  C12_35 
REMARK   16  A    between atoms: C16_43  and  O5_44 
ROOT
HETATM    1  N6  UNL     1      -1.615  -0.401   0.630  1.00  0.00    -0.131 N 
ATOM      2  H6  UNL     1      -0.962  -0.828  -0.027  1.00  0.00     0.205 HD
ENDROOT
BRANCH   1   3
HETATM    3  C4  UNL     1      -2.858  -0.295   0.297  1.00  0.00     0.713 A 
HETATM    4  N5  UNL     1      -3.797   0.250   1.092  1.00  0.00    -0.130 N 
HETATM    5  N4  UNL     1      -5.069   0.341   0.712  1.00  0.00    -0.279 N 
ATOM      6  H5  UNL     1      -3.527   0.603   2.010  1.00  0.00     0.205 HD
HETATM    7  C3  UNL     1      -5.507  -0.101  -0.481  1.00  0.00     0.147 A 
ATOM      8  H4  UNL     1      -5.741   0.764   1.353  1.00  0.00     0.188 HD
HETATM    9  C16 UNL     1      -4.556  -0.665  -1.311  1.00  0.00     0.187 A 
HETATM   10  N11 UNL     1      -3.265  -0.747  -0.903  1.00  0.00    -0.166 N 
ATOM     11  H11 UNL     1      -2.578  -1.167  -1.529  1.00  0.00     0.186 HD
BRANCH   7  12
HETATM   12  C2  UNL     1      -6.894  -0.010  -0.913  1.00  0.00     0.172 C 
BRANCH  12  13
HETATM   13  N2  UNL     1      -7.467  -0.961  -1.799  1.00  0.00    -0.283 N 
ATOM     14  H2  UNL     1      -7.440  -0.811  -2.808  1.00  0.00     0.188 HD
BRANCH  13  15
HETATM   15  N1  UNL     1      -8.063  -2.094  -1.274  1.00  0.00    -0.320 N 
HETATM   16  C1  UNL     1      -8.823  -2.098  -0.245  1.00  0.00     0.139 C 
ATOM     17  H1  UNL     1      -7.885  -2.985  -1.738  1.00  0.00     0.185 HD
ENDBRANCH  13  15
ENDBRANCH  12  13
BRANCH  12  18
HETATM   18  N3  UNL     1      -7.659   0.942  -0.506  1.00  0.00    -0.250 N 
ATOM     19  H3  UNL     1      -8.623   0.963  -0.837  1.00  0.00     0.196 HD
BRANCH  18  20
HETATM   20  O1  UNL     1      -7.244   1.928   0.349  1.00  0.00    -0.288 OA
ATOM     21  H1  UNL     1      -7.809   2.631   0.649  1.00  0.00     0.244 HD
ENDBRANCH  18  20
ENDBRANCH  12  18
ENDBRANCH   7  12
BRANCH   9  22
HETATM   22  O5  UNL     1      -4.958  -1.132  -2.544  1.00  0.00    -0.344 OA
ATOM     23  H5  UNL     1      -4.305  -1.520  -3.114  1.00  0.00     0.219 HD
ENDBRANCH   9  22
ENDBRANCH   1   3
BRANCH   1  24
HETATM   24  N7  UNL     1      -1.141   0.047   1.852  1.00  0.00    -0.298 N 
ATOM     25  H7  UNL     1      -1.746   0.040   2.673  1.00  0.00     0.186 HD
BRANCH  24  26
HETATM   26  C5  UNL     1       0.061   0.469   1.940  1.00  0.00     0.119 C 
BRANCH  26  27
HETATM   27  C6  UNL     1       0.943   0.484   0.759  1.00  0.00     0.219 C 
BRANCH  27  28
HETATM   28  O2  UNL     1       1.173   1.768   0.274  1.00  0.00    -0.379 OA
HETATM   29  C7  UNL     1       0.730   1.952  -1.023  1.00  0.00     0.202 C 
ENDBRANCH  27  28
BRANCH  27  30
HETATM   30  C8  UNL     1       2.250  -0.157   1.031  1.00  0.00     0.106 A 
HETATM   31  C9  UNL     1       2.584  -1.452   0.672  1.00  0.00     0.127 A 
HETATM   32  N8  UNL     1       3.828  -1.669   1.080  1.00  0.00    -0.328 N 
HETATM   33  C10 UNL     1       4.280  -0.555   1.679  1.00  0.00     0.243 A 
ATOM     34  H8  UNL     1       4.352  -2.535   0.959  1.00  0.00     0.168 HD
HETATM   35  O4  UNL     1       3.309   0.327   1.631  1.00  0.00    -0.278 OA
BRANCH  33  36
HETATM   36  N9  UNL     1       5.451  -0.353   2.216  1.00  0.00    -0.265 N 
ATOM     37  H9  UNL     1       5.679   0.544   2.645  1.00  0.00     0.190 HD
BRANCH  36  38
HETATM   38  N10 UNL     1       6.384  -1.388   2.192  1.00  0.00    -0.306 N 
ATOM     39  H10 UNL     1       6.278  -2.200   2.800  1.00  0.00     0.186 HD
BRANCH  38  40
HETATM   40  C11 UNL     1       7.377  -1.296   1.390  1.00  0.00     0.144 C 
BRANCH  40  41
HETATM   41  C12 UNL     1       7.553  -0.145   0.511  1.00  0.00     0.091 A 
HETATM   42  C13 UNL     1       8.581   0.050  -0.383  1.00  0.00     0.040 A 
HETATM   43  C14 UNL     1       8.321   1.272  -0.981  1.00  0.00     0.027 A 
HETATM   44  C15 UNL     1       7.158   1.764  -0.434  1.00  0.00     0.142 A 
HETATM   45  O3  UNL     1       6.732   0.894   0.449  1.00  0.00    -0.321 OA
ENDBRANCH  40  41
ENDBRANCH  38  40
ENDBRANCH  36  38
ENDBRANCH  33  36
ENDBRANCH  27  30
ENDBRANCH  26  27
ENDBRANCH  24  26
ENDBRANCH   1  24
TORSDOF 16
