REMARK  2 active torsions:
REMARK  status: ('A' for Active; 'I' for Inactive)
REMARK    1  A    between atoms: N1_1  and  C1_4 
REMARK    2  A    between atoms: N3_9  and  N4_10 
REMARK       I    between atoms: N4_10  and  C3_12 
ROOT
HETATM    1  C1  UNL     1      -2.626  -0.081   0.507  1.00  0.00     0.684 A 
HETATM    2  N2  UNL     1      -1.850   0.989   0.717  1.00  0.00    -0.140 N 
ATOM      3  H2  UNL     1      -2.295   1.853   1.025  1.00  0.00     0.189 HD
HETATM    4  C2  UNL     1      -0.499   0.988   0.542  1.00  0.00     0.364 A 
HETATM    5  O1  UNL     1       0.117   2.034   0.766  1.00  0.00    -0.244 OA
HETATM    6  N3  UNL     1       0.105  -0.130   0.140  1.00  0.00    -0.148 N 
HETATM    7  C4  UNL     1      -0.679  -1.245  -0.082  1.00  0.00     0.364 A 
HETATM    8  O3  UNL     1      -0.142  -2.294  -0.456  1.00  0.00    -0.244 OA
HETATM    9  N6  UNL     1      -2.000  -1.207   0.099  1.00  0.00    -0.140 N 
ATOM     10  H6  UNL     1      -2.551  -2.048  -0.075  1.00  0.00     0.189 HD
ENDROOT
BRANCH   6  11
HETATM   11  N4  UNL     1       1.453  -0.252  -0.070  1.00  0.00    -0.239 N 
HETATM   12  C3  UNL     1       2.547   0.570   0.027  1.00  0.00     0.347 C 
HETATM   13  N5  UNL     1       3.855   0.038  -0.296  1.00  0.00    -0.038 NA
HETATM   14  O2  UNL     1       2.563   1.752   0.368  1.00  0.00    -0.249 OA
ATOM     15  H4  UNL     1       1.708  -1.191  -0.376  1.00  0.00     0.192 HD
ENDBRANCH   6  11
BRANCH   1  16
HETATM   16  N1  UNL     1      -3.885  -0.095   0.666  1.00  0.00    -0.234 N 
ATOM     17  H12 UNL     1      -4.357   0.755   0.974  1.00  0.00     0.174 HD
ATOM     18  H11 UNL     1      -4.476  -0.910   0.506  1.00  0.00     0.174 HD
ENDBRANCH   1  16
TORSDOF 2
