REMARK  1 active torsions:
REMARK  status: ('A' for Active; 'I' for Inactive)
REMARK    1  A    between atoms: N1_1  and  C1_4 
ROOT
HETATM    1  C1  UNL     1      -1.856  -0.574   0.138  1.00  0.00     0.679 A 
HETATM    2  N2  UNL     1      -2.116   0.737   0.061  1.00  0.00    -0.154 N 
ATOM      3  H2  UNL     1      -3.091   1.036   0.092  1.00  0.00     0.187 HD
HETATM    4  C2  UNL     1      -1.172   1.678  -0.054  1.00  0.00     0.290 A 
HETATM    5  O1  UNL     1      -1.413   2.912  -0.126  1.00  0.00    -0.265 OA
HETATM    6  C3  UNL     1       0.143   1.282  -0.096  1.00  0.00     0.149 A 
HETATM    7  N3  UNL     1       1.159   2.154  -0.209  1.00  0.00    -0.279 N 
ATOM      8  H3  UNL     1       0.958   3.152  -0.267  1.00  0.00     0.189 HD
HETATM    9  N4  UNL     1       2.416   1.740  -0.247  1.00  0.00    -0.240 N 
ATOM     10  H4  UNL     1       3.155   2.438  -0.333  1.00  0.00     0.208 HD
HETATM   11  N5  UNL     1       2.757   0.477  -0.179  1.00  0.00    -0.269 N 
ATOM     12  H5  UNL     1       3.736   0.193  -0.212  1.00  0.00     0.190 HD
HETATM   13  C4  UNL     1       1.758  -0.447  -0.062  1.00  0.00     0.145 A 
HETATM   14  N6  UNL     1       2.086  -1.677   0.005  1.00  0.00    -0.382 N 
ATOM     15  H61 UNL     1       1.340  -2.367   0.092  1.00  0.00     0.157 HD
ATOM     16  H62 UNL     1       3.070  -1.942  -0.029  1.00  0.00     0.157 HD
HETATM   17  C5  UNL     1       0.414  -0.085  -0.016  1.00  0.00     0.127 A 
HETATM   18  N7  UNL     1      -0.581  -0.981   0.098  1.00  0.00    -0.186 N 
ATOM     19  H7  UNL     1      -0.364  -1.976   0.154  1.00  0.00     0.184 HD
ENDROOT
BRANCH   1  20
HETATM   20  N1  UNL     1      -2.824  -1.453   0.249  1.00  0.00    -0.234 N 
ATOM     21  H12 UNL     1      -3.795  -1.143   0.279  1.00  0.00     0.174 HD
ATOM     22  H11 UNL     1      -2.626  -2.452   0.308  1.00  0.00     0.174 HD
ENDBRANCH   1  20
TORSDOF 1
