REMARK  2 active torsions:
REMARK  status: ('A' for Active; 'I' for Inactive)
REMARK    1  A    between atoms: N3_6  and  N4_8 
REMARK       I    between atoms: N4_8  and  C3_10 
REMARK    2  A    between atoms: N7_17  and  N8_18 
ROOT
HETATM    1  C1  UNL     1      -3.330   1.395  -0.389  1.00  0.00     0.202 C 
HETATM    2  N1  UNL     1      -2.060   0.705  -0.169  1.00  0.00    -0.213 N 
HETATM    3  N2  UNL     1      -0.960   1.292   0.270  1.00  0.00    -0.262 N 
ATOM      4  H2  UNL     1      -0.860   2.279   0.505  1.00  0.00     0.190 HD
HETATM    5  C2  UNL     1       0.005   0.357   0.352  1.00  0.00     0.209 A 
HETATM    6  N3  UNL     1       1.229   0.522   0.739  1.00  0.00    -0.277 N 
ATOM      7  H3  UNL     1       1.548   1.448   1.025  1.00  0.00     0.189 HD
HETATM    8  C4  UNL     1      -0.540  -0.841  -0.055  1.00  0.00     0.329 A 
HETATM    9  O1  UNL     1       0.057  -1.970  -0.119  1.00  0.00    -0.260 OA
HETATM   10  N7  UNL     1      -1.817  -0.578  -0.367  1.00  0.00    -0.144 N 
ENDROOT
BRANCH   6  11
HETATM   11  N4  UNL     1       2.120  -0.558   0.769  1.00  0.00    -0.272 N 
HETATM   12  C3  UNL     1       3.259  -0.470  -0.050  1.00  0.00     0.200 C 
HETATM   13  N5  UNL     1       3.438  -1.319  -0.979  1.00  0.00    -0.372 N 
HETATM   14  N6  UNL     1       4.183   0.556   0.170  1.00  0.00    -0.062 NA
ATOM     15  H52 UNL     1       2.764  -2.067  -1.139  1.00  0.00     0.158 HD
ATOM     16  H51 UNL     1       4.265  -1.255  -1.573  1.00  0.00     0.158 HD
ATOM     17  H4  UNL     1       1.950  -1.372   1.359  1.00  0.00     0.189 HD
ENDBRANCH   6  11
BRANCH  10  18
HETATM   18  N8  UNL     1      -2.741  -1.516  -0.829  1.00  0.00    -0.319 N 
ATOM     19  H82 UNL     1      -3.713  -1.316  -1.066  1.00  0.00     0.179 HD
ATOM     20  H81 UNL     1      -2.553  -2.507  -0.982  1.00  0.00     0.179 HD
ENDBRANCH  10  18
TORSDOF 2
