REMARK  2 active torsions:
REMARK  status: ('A' for Active; 'I' for Inactive)
REMARK    1  A    between atoms: C3_9  and  C4_10 
REMARK    2  A    between atoms: N5_13  and  N6_14 
ROOT
HETATM    1  N1  UNL     1      -3.560   0.181  -0.161  1.00  0.00    -0.381 N 
ATOM      2  H11 UNL     1      -3.995   1.101  -0.088  1.00  0.00     0.157 HD
ATOM      3  H12 UNL     1      -4.199  -0.606  -0.273  1.00  0.00     0.157 HD
HETATM    4  C1  UNL     1      -2.283   0.010  -0.116  1.00  0.00     0.171 A 
HETATM    5  N2  UNL     1      -1.708  -1.206  -0.212  1.00  0.00    -0.325 N 
ATOM      6  H2  UNL     1      -2.307  -2.024  -0.325  1.00  0.00     0.169 HD
HETATM    7  C2  UNL     1      -0.376  -1.381  -0.164  1.00  0.00     0.152 A 
HETATM    8  N3  UNL     1       0.241  -2.660  -0.265  1.00  0.00    -0.080 NA
HETATM    9  C3  UNL     1       0.443  -0.281  -0.012  1.00  0.00     0.165 A 
HETATM   10  N5  UNL     1      -0.080   0.950   0.089  1.00  0.00    -0.215 N 
HETATM   11  C5  UNL     1      -1.418   1.075   0.036  1.00  0.00     0.310 A 
HETATM   12  O2  UNL     1      -1.946   2.216   0.127  1.00  0.00    -0.262 OA
ENDROOT
BRANCH  10  13
HETATM   13  N6  UNL     1       0.728   2.094   0.245  1.00  0.00    -0.335 N 
ATOM     14  H62 UNL     1       1.743   1.999   0.285  1.00  0.00     0.177 HD
ATOM     15  H61 UNL     1       0.330   3.030   0.322  1.00  0.00     0.177 HD
ENDBRANCH  10  13
BRANCH   9  16
HETATM   16  C4  UNL     1       1.897  -0.410   0.046  1.00  0.00     0.286 C 
HETATM   17  N4  UNL     1       2.735   0.724   0.203  1.00  0.00    -0.056 NA
HETATM   18  O1  UNL     1       2.473  -1.534  -0.041  1.00  0.00    -0.269 OA
ENDBRANCH   9  16
TORSDOF 2
