REMARK  3 active torsions:
REMARK  status: ('A' for Active; 'I' for Inactive)
REMARK    1  A    between atoms: N1_1  and  N2_4 
REMARK    2  A    between atoms: N2_4  and  N3_5 
REMARK       I    between atoms: N3_5  and  C1_7 
REMARK    3  A    between atoms: C1_7  and  C2_9 
ROOT
HETATM    1  C2  UNL     1       0.299  -0.162  -0.061  1.00  0.00     0.180 A 
HETATM    2  N4  UNL     1       1.409  -0.467   0.631  1.00  0.00    -0.326 N 
ATOM      3  H4  UNL     1       1.339  -1.139   1.395  1.00  0.00     0.168 HD
HETATM    4  C3  UNL     1       2.604   0.075   0.359  1.00  0.00     0.123 A 
HETATM    5  N5  UNL     1       3.754  -0.264   1.102  1.00  0.00    -0.083 NA
HETATM    6  C4  UNL     1       2.659   0.984  -0.687  1.00  0.00     0.119 A 
HETATM    7  C5  UNL     1       1.531   1.302  -1.398  1.00  0.00     0.250 A 
HETATM    8  O2  UNL     1       1.539   2.123  -2.356  1.00  0.00    -0.268 OA
HETATM    9  N6  UNL     1       0.366   0.727  -1.079  1.00  0.00    -0.305 N 
ATOM     10  H6  UNL     1      -0.476   0.960  -1.606  1.00  0.00     0.170 HD
ENDROOT
BRANCH   1  11
HETATM   11  C1  UNL     1      -0.961  -0.799   0.304  1.00  0.00     0.302 C 
HETATM   12  N3  UNL     1      -2.185  -0.575  -0.327  1.00  0.00    -0.247 N 
ATOM     13  H3  UNL     1      -2.236   0.080  -1.108  1.00  0.00     0.187 HD
HETATM   14  O1  UNL     1      -0.926  -1.626   1.280  1.00  0.00    -0.263 OA
BRANCH  12  15
HETATM   15  N2  UNL     1      -3.340  -1.234   0.095  1.00  0.00    -0.027 NA
BRANCH  15  16
HETATM   16  N1  UNL     1      -4.233  -0.281   0.539  1.00  0.00    -0.329 N 
ATOM     17  H12 UNL     1      -4.064   0.725   0.550  1.00  0.00     0.174 HD
ATOM     18  H11 UNL     1      -5.077  -0.763   0.848  1.00  0.00     0.174 HD
ENDBRANCH  15  16
ENDBRANCH  12  15
ENDBRANCH   1  11
TORSDOF 3
