REMARK  3 active torsions:
REMARK  status: ('A' for Active; 'I' for Inactive)
REMARK    1  A    between atoms: N1_1  and  C1_4 
REMARK    2  A    between atoms: N3_7  and  N4_8 
REMARK    3  A    between atoms: C3_13  and  C4_14 
ROOT
HETATM    1  C1  UNL     1      -0.384   1.910   0.337  1.00  0.00     0.167 A 
HETATM    2  N2  UNL     1      -1.564   1.311   0.133  1.00  0.00    -0.260 N 
ATOM      3  H2  UNL     1      -2.429   1.851   0.172  1.00  0.00     0.191 HD
HETATM    4  N3  UNL     1      -1.598   0.024  -0.118  1.00  0.00    -0.186 N 
HETATM    5  C2  UNL     1      -0.521  -0.763  -0.191  1.00  0.00     0.175 A 
HETATM    6  N5  UNL     1      -0.584  -2.154  -0.465  1.00  0.00    -0.078 NA
HETATM    7  C3  UNL     1       0.707  -0.172   0.014  1.00  0.00     0.127 A 
HETATM    8  C5  UNL     1       0.773   1.172   0.279  1.00  0.00     0.235 A 
HETATM    9  O2  UNL     1       1.916   1.696   0.465  1.00  0.00    -0.283 OA
ENDROOT
BRANCH   1  10
HETATM   10  N1  UNL     1      -0.289   3.168   0.587  1.00  0.00    -0.381 N 
ATOM     11  H12 UNL     1      -1.148   3.716   0.630  1.00  0.00     0.157 HD
ATOM     12  H11 UNL     1       0.610   3.624   0.742  1.00  0.00     0.157 HD
ENDBRANCH   1  10
BRANCH   4  13
HETATM   13  N4  UNL     1      -2.859  -0.597  -0.332  1.00  0.00    -0.323 N 
ATOM     14  H42 UNL     1      -3.681   0.004  -0.276  1.00  0.00     0.179 HD
ATOM     15  H41 UNL     1      -2.885  -1.598  -0.527  1.00  0.00     0.179 HD
ENDBRANCH   4  13
BRANCH   7  16
HETATM   16  C4  UNL     1       1.893  -1.008  -0.060  1.00  0.00     0.272 C 
HETATM   17  N6  UNL     1       3.156  -0.399   0.152  1.00  0.00    -0.057 NA
HETATM   18  O1  UNL     1       1.878  -2.229  -0.297  1.00  0.00    -0.271 OA
ENDBRANCH   7  16
TORSDOF 3
