REMARK  1 active torsions:
REMARK  status: ('A' for Active; 'I' for Inactive)
REMARK       I    between atoms: N5_10  and  C3_11 
REMARK       I    between atoms: C3_11  and  N6_13 
REMARK    1  A    between atoms: N6_13  and  N7_15 
ROOT
HETATM    1  C1  UNL     1      -2.761  -0.267  -1.124  1.00  0.00     0.180 C 
HETATM    2  N1  UNL     1      -1.656  -0.297  -0.189  1.00  0.00    -0.135 N 
HETATM    3  C2  UNL     1      -1.887  -0.199   1.206  1.00  0.00     0.694 C 
HETATM    4  N2  UNL     1      -3.062  -0.079   1.723  1.00  0.00    -0.233 N 
ATOM      5  H21 UNL     1      -3.228  -0.008   2.727  1.00  0.00     0.174 HD
ATOM      6  H22 UNL     1      -3.884  -0.050   1.120  1.00  0.00     0.174 HD
HETATM    7  N3  UNL     1      -0.727  -0.240   2.057  1.00  0.00    -0.115 N 
ATOM      8  H3  UNL     1      -0.703   0.239   2.957  1.00  0.00     0.203 HD
HETATM    9  N4  UNL     1       0.384  -0.984   1.575  1.00  0.00     0.008 NA
HETATM   10  N5  UNL     1       0.751  -0.447   0.294  1.00  0.00    -0.135 N 
HETATM   11  C3  UNL     1       2.069  -0.021   0.095  1.00  0.00     0.362 C 
HETATM   12  O1  UNL     1       2.888  -0.150   1.060  1.00  0.00    -0.243 OA
HETATM   13  N6  UNL     1       2.582   0.541  -1.073  1.00  0.00    -0.257 N 
ATOM     14  H6  UNL     1       1.951   0.661  -1.866  1.00  0.00     0.191 HD
HETATM   15  C4  UNL     1      -0.311  -0.423  -0.635  1.00  0.00     0.364 C 
HETATM   16  O2  UNL     1      -0.015  -0.519  -1.858  1.00  0.00    -0.244 OA
ENDROOT
BRANCH  13  17
HETATM   17  N7  UNL     1       3.917   0.952  -1.222  1.00  0.00    -0.341 N 
ATOM     18  H72 UNL     1       4.533   0.825  -0.419  1.00  0.00     0.177 HD
ATOM     19  H71 UNL     1       4.292   1.363  -2.077  1.00  0.00     0.177 HD
ENDBRANCH  13  17
TORSDOF 1
