REMARK  2 active torsions:
REMARK  status: ('A' for Active; 'I' for Inactive)
REMARK    1  A    between atoms: C2_2  and  C3_3 
REMARK    2  A    between atoms: C5_6  and  N1_7 
ROOT
HETATM    1  C3  UNL     1       0.051  -0.438  -0.054  1.00  0.00     0.034 A 
HETATM    2  C4  UNL     1       0.742  -1.126   0.920  1.00  0.00     0.170 A 
HETATM    3  O1  UNL     1       2.019  -0.751   0.893  1.00  0.00    -0.290 OA
HETATM    4  C5  UNL     1       2.185   0.139  -0.044  1.00  0.00     0.221 A 
HETATM    5  N2  UNL     1       1.000   0.350  -0.639  1.00  0.00    -0.324 N 
ATOM      6  H2  UNL     1       0.834   0.998  -1.409  1.00  0.00     0.169 HD
ENDROOT
BRANCH   4   7
HETATM    7  N1  UNL     1       3.305   0.710  -0.337  1.00  0.00    -0.365 N 
ATOM      8  H12 UNL     1       4.205   0.550   0.115  1.00  0.00     0.159 HD
ATOM      9  H11 UNL     1       3.435   1.407  -1.071  1.00  0.00     0.159 HD
ENDBRANCH   4   7
BRANCH   1  10
HETATM   10  C2  UNL     1      -1.387  -0.500  -0.423  1.00  0.00     0.054 C 
HETATM   11  C1  UNL     1      -2.179   0.510   0.376  1.00  0.00     0.011 C 
ENDBRANCH   1  10
TORSDOF 2
