REMARK  1 active torsions:
REMARK  status: ('A' for Active; 'I' for Inactive)
REMARK       I    between atoms: C1_4  and  N3_6 
REMARK    1  A    between atoms: N3_6  and  N4_8 
ROOT
HETATM    1  N1  UNL     1      -1.980   0.055  -1.667  1.00  0.00    -0.372 N 
ATOM      2  H11 UNL     1      -1.327  -0.259  -2.385  1.00  0.00     0.158 HD
ATOM      3  H12 UNL     1      -2.809   0.618  -1.858  1.00  0.00     0.158 HD
HETATM    4  C1  UNL     1      -1.767  -0.264  -0.444  1.00  0.00     0.201 C 
HETATM    5  N2  UNL     1      -2.670   0.170   0.550  1.00  0.00    -0.062 NA
HETATM    6  N3  UNL     1      -0.618  -1.044  -0.179  1.00  0.00    -0.268 N 
ATOM      7  H3  UNL     1      -0.690  -2.060  -0.129  1.00  0.00     0.190 HD
ENDROOT
BRANCH   6   8
HETATM    8  N4  UNL     1       0.608  -0.422   0.013  1.00  0.00    -0.276 N 
HETATM    9  C2  UNL     1       0.832   0.925  -0.030  1.00  0.00     0.116 A 
HETATM   10  C3  UNL     1       2.172   1.151   0.208  1.00  0.00     0.021 A 
HETATM   11  C4  UNL     1       2.745  -0.081   0.393  1.00  0.00     0.021 A 
HETATM   12  C5  UNL     1       1.789  -1.051   0.274  1.00  0.00     0.116 A 
ENDBRANCH   6   8
TORSDOF 1
