REMARK  1 active torsions:
REMARK  status: ('A' for Active; 'I' for Inactive)
REMARK    1  A    between atoms: N1_1  and  C1_4 
ROOT
HETATM    1  C1  UNL     1       1.585   0.343   0.024  1.00  0.00     0.143 A 
HETATM    2  N2  UNL     1       0.519  -0.433  -0.170  1.00  0.00    -0.325 N 
ATOM      3  H2  UNL     1       0.630  -1.394  -0.494  1.00  0.00     0.169 HD
HETATM    4  C2  UNL     1      -0.666   0.054   0.061  1.00  0.00     0.124 A 
HETATM    5  N3  UNL     1      -1.881  -0.725  -0.125  1.00  0.00    -0.082 NA
HETATM    6  C3  UNL     1      -0.756   1.347   0.496  1.00  0.00     0.098 A 
HETATM    7  S1  UNL     1       0.886   1.806   0.551  1.00  0.00    -0.063 SA
ENDROOT
BRANCH   1   8
HETATM    8  N1  UNL     1       2.854   0.041  -0.151  1.00  0.00    -0.380 N 
ATOM      9  H12 UNL     1       3.272  -0.834  -0.466  1.00  0.00     0.158 HD
ATOM     10  H11 UNL     1       3.670   0.635  -0.003  1.00  0.00     0.158 HD
ENDBRANCH   1   8
TORSDOF 1
