REMARK  1 active torsions:
REMARK  status: ('A' for Active; 'I' for Inactive)
REMARK    1  A    between atoms: C4_8  and  N3_9 
ROOT
HETATM    1  C1  UNL     1       2.089  -0.180   0.372  1.00  0.00     0.072 C 
HETATM    2  C2  UNL     1       0.653  -0.618   0.304  1.00  0.00     0.052 A 
HETATM    3  N1  UNL     1       0.168  -1.844   0.370  1.00  0.00    -0.353 N 
ATOM      4  H1  UNL     1       0.706  -2.703   0.480  1.00  0.00     0.166 HD
HETATM    5  C3  UNL     1      -1.167  -1.747   0.265  1.00  0.00     0.182 A 
HETATM    6  N2  UNL     1      -1.524  -0.473   0.135  1.00  0.00    -0.336 N 
ATOM      7  H2  UNL     1      -2.475  -0.116   0.038  1.00  0.00     0.168 HD
HETATM    8  C4  UNL     1      -0.401   0.252   0.156  1.00  0.00     0.143 A 
ENDROOT
BRANCH   8   9
HETATM    9  N3  UNL     1      -0.309   1.648   0.048  1.00  0.00    -0.290 N 
HETATM   10  N4  UNL     1      -1.273   2.326  -0.408  1.00  0.00    -0.344 N 
ATOM     11  H42 UNL     1      -2.121   1.837  -0.696  1.00  0.00     0.176 HD
ATOM     12  H41 UNL     1      -1.206   3.341  -0.487  1.00  0.00     0.176 HD
ATOM     13  H3  UNL     1       0.546   2.121   0.341  1.00  0.00     0.188 HD
ENDBRANCH   8   9
TORSDOF 1
