REMARK  2 active torsions:
REMARK  status: ('A' for Active; 'I' for Inactive)
REMARK    1  A    between atoms: N1_1  and  N2_4 
REMARK    2  A    between atoms: N2_4  and  C1_6 
ROOT
HETATM    1  C1  UNL     1       0.218   0.104   0.468  1.00  0.00     0.088 A 
HETATM    2  C2  UNL     1      -0.547   0.496  -0.588  1.00  0.00     0.039 A 
HETATM    3  C3  UNL     1      -1.858   0.196  -0.558  1.00  0.00     0.010 A 
HETATM    4  C4  UNL     1      -2.315  -0.483   0.547  1.00  0.00     0.052 A 
HETATM    5  S1  UNL     1      -0.904  -0.677   1.495  1.00  0.00    -0.083 SA
ENDROOT
BRANCH   1   6
HETATM    6  N2  UNL     1       1.646   0.283   0.650  1.00  0.00    -0.300 N 
ATOM      7  H2  UNL     1       2.003   0.614   1.546  1.00  0.00     0.187 HD
BRANCH   6   8
HETATM    8  N1  UNL     1       2.547   0.003  -0.402  1.00  0.00    -0.344 N 
ATOM      9  H12 UNL     1       2.173  -0.327  -1.292  1.00  0.00     0.176 HD
ATOM     10  H11 UNL     1       3.551   0.129  -0.274  1.00  0.00     0.176 HD
ENDBRANCH   6   8
ENDBRANCH   1   6
TORSDOF 2
