REMARK  0 active torsions:
REMARK  status: ('A' for Active; 'I' for Inactive)
ROOT
HETATM    1  C1  UNL     1       2.686   0.441  -0.066  1.00  0.00     0.068 C 
HETATM    2  C2  UNL     1       1.206   0.209  -0.034  1.00  0.00     0.008 A 
HETATM    3  C3  UNL     1       0.238   1.184   0.076  1.00  0.00     0.054 A 
HETATM    4  C4  UNL     1      -0.990   0.538   0.067  1.00  0.00     0.089 A 
HETATM    5  N1  UNL     1      -2.254   1.167   0.160  1.00  0.00    -0.099 NA
HETATM    6  C5  UNL     1      -0.759  -0.824  -0.047  1.00  0.00     0.141 A 
HETATM    7  N2  UNL     1      -1.738  -1.877  -0.095  1.00  0.00    -0.081 NA
HETATM    8  N3  UNL     1       0.574  -0.966  -0.103  1.00  0.00    -0.347 N 
ATOM      9  H3  UNL     1       1.049  -1.865  -0.188  1.00  0.00     0.167 HD
ENDROOT
TORSDOF 0
