REMARK  4 active torsions:
REMARK  status: ('A' for Active; 'I' for Inactive)
REMARK    1  A    between atoms: N1_1  and  C1_5 
REMARK    2  A    between atoms: C1_5  and  C2_6 
REMARK    3  A    between atoms: C2_6  and  N2_7 
REMARK       I    between atoms: N2_7  and  C3_9 
REMARK       I    between atoms: C3_9  and  N5_15 
REMARK    4  A    between atoms: N3_10  and  N4_12 
ROOT
HETATM    1  N2  UNL     1       2.947   0.249  -0.065  1.00  0.00    -0.223 N 
ATOM      2  H2  UNL     1       2.631   1.143  -0.440  1.00  0.00     0.177 HD
HETATM    3  C3  UNL     1       1.986  -0.804   0.285  1.00  0.00     0.690 C 
HETATM    4  N3  UNL     1       2.394  -1.961   0.066  1.00  0.00    -0.139 N 
ATOM      5  H3  UNL     1       3.336  -1.897  -0.320  1.00  0.00     0.205 HD
HETATM    6  N5  UNL     1       0.743  -0.376   0.812  1.00  0.00    -0.214 N 
HETATM    7  C4  UNL     1       0.340   1.000   0.603  1.00  0.00     0.160 C 
HETATM    8  C5  UNL     1      -0.080   1.335  -0.777  1.00  0.00     0.134 C 
HETATM    9  N6  UNL     1      -1.479   1.340  -1.042  1.00  0.00    -0.418 N 
ATOM     10  H6  UNL     1      -1.865   0.912  -1.883  1.00  0.00     0.153 HD
HETATM   11  C6  UNL     1      -2.312   1.971  -0.076  1.00  0.00     0.141 C 
HETATM   12  C7  UNL     1      -3.755   1.921  -0.607  1.00  0.00     0.251 C 
HETATM   13  N7  UNL     1      -4.093   0.594  -1.037  1.00  0.00    -0.072 N 
ATOM     14  H71 UNL     1      -3.403   0.247  -1.703  1.00  0.00     0.277 HD
ATOM     15  H72 UNL     1      -4.918   0.611  -1.637  1.00  0.00     0.277 HD
HETATM   16  C8  UNL     1      -4.271  -0.343   0.039  1.00  0.00     0.259 C 
HETATM   17  C9  UNL     1      -3.334  -1.528  -0.075  1.00  0.00     0.259 C 
HETATM   18  N8  UNL     1      -2.471  -1.627   1.066  1.00  0.00    -0.072 N 
ATOM     19  H81 UNL     1      -2.812  -2.304   1.749  1.00  0.00     0.277 HD
ATOM     20  H82 UNL     1      -2.511  -0.794   1.653  1.00  0.00     0.277 HD
HETATM   21  C10 UNL     1      -1.141  -1.919   0.635  1.00  0.00     0.252 C 
HETATM   22  C11 UNL     1      -0.093  -1.291   1.541  1.00  0.00     0.168 C 
ENDROOT
BRANCH   1  23
HETATM   23  C2  UNL     1       4.344  -0.015   0.135  1.00  0.00     0.165 C 
BRANCH  23  24
HETATM   24  C1  UNL     1       5.216   1.145  -0.249  1.00  0.00     0.249 C 
BRANCH  24  25
HETATM   25  N1  UNL     1       5.021   1.453  -1.636  1.00  0.00    -0.078 N 
ATOM     26  H13 UNL     1       5.173   0.642  -2.236  1.00  0.00     0.274 HD
ATOM     27  H12 UNL     1       4.040   1.618  -1.860  1.00  0.00     0.274 HD
ATOM     28  H11 UNL     1       5.614   2.241  -1.897  1.00  0.00     0.274 HD
ENDBRANCH  24  25
ENDBRANCH  23  24
ENDBRANCH   1  23
BRANCH   4  29
HETATM   29  N4  UNL     1       2.068  -3.237   0.145  1.00  0.00    -0.331 N 
ATOM     30  H42 UNL     1       1.125  -3.270   0.533  1.00  0.00     0.177 HD
ATOM     31  H41 UNL     1       2.402  -4.184  -0.034  1.00  0.00     0.177 HD
ENDBRANCH   4  29
TORSDOF 4
