REMARK  6 active torsions:
REMARK  status: ('A' for Active; 'I' for Inactive)
REMARK    1  A    between atoms: N1_1  and  N2_4 
REMARK    2  A    between atoms: N2_4  and  C1_6 
REMARK    3  A    between atoms: C1_6  and  N3_8 
REMARK    4  A    between atoms: N3_8  and  N4_10 
REMARK       I    between atoms: N4_10  and  C2_12 
REMARK    5  A    between atoms: C2_12  and  C3_14 
REMARK    6  A    between atoms: C3_14  and  N5_15 
ROOT
HETATM    1  N4  UNL     1       1.735  -0.713   0.397  1.00  0.00    -0.263 N 
ATOM      2  H4  UNL     1       1.775  -1.705   0.632  1.00  0.00     0.190 HD
HETATM    3  C2  UNL     1       0.497  -0.076  -0.021  1.00  0.00     0.276 C 
HETATM    4  O1  UNL     1       0.478   1.127  -0.308  1.00  0.00    -0.265 OA
ENDROOT
BRANCH   1   5
HETATM    5  N3  UNL     1       2.856   0.095   0.459  1.00  0.00    -0.272 N 
ATOM      6  H3  UNL     1       2.755   1.093   0.646  1.00  0.00     0.189 HD
BRANCH   5   7
HETATM    7  C1  UNL     1       4.143  -0.462   0.263  1.00  0.00     0.205 C 
HETATM    8  S1  UNL     1       4.293  -2.042  -0.036  1.00  0.00    -0.038 SA
BRANCH   7   9
HETATM    9  N2  UNL     1       5.266   0.394   0.333  1.00  0.00    -0.282 N 
ATOM     10  H2  UNL     1       5.152   1.390   0.519  1.00  0.00     0.189 HD
BRANCH   9  11
HETATM   11  N1  UNL     1       6.541  -0.160   0.140  1.00  0.00    -0.343 N 
ATOM     12  H12 UNL     1       6.638  -1.158  -0.045  1.00  0.00     0.176 HD
ATOM     13  H11 UNL     1       7.351   0.458   0.191  1.00  0.00     0.176 HD
ENDBRANCH   9  11
ENDBRANCH   7   9
ENDBRANCH   5   7
ENDBRANCH   1   5
BRANCH   3  14
HETATM   14  C3  UNL     1      -0.732  -0.888  -0.097  1.00  0.00     0.181 C 
BRANCH  14  15
HETATM   15  N5  UNL     1      -1.848  -0.130  -0.502  1.00  0.00    -0.300 N 
HETATM   16  C4  UNL     1      -2.320   0.801   0.440  1.00  0.00     0.157 C 
HETATM   17  C5  UNL     1      -3.223   1.869  -0.186  1.00  0.00     0.131 C 
HETATM   18  S2  UNL     1      -4.717   0.935  -0.578  1.00  0.00     0.033 S 
HETATM   19  O2  UNL     1      -5.777   1.008   0.747  1.00  0.00    -0.257 OA
HETATM   20  C6  UNL     1      -4.135  -0.771  -0.615  1.00  0.00     0.243 C 
HETATM   21  N6  UNL     1      -2.818  -0.837  -1.194  1.00  0.00    -0.127 NA
ENDBRANCH  14  15
ENDBRANCH   3  14
TORSDOF 6
