REMARK  3 active torsions:
REMARK  status: ('A' for Active; 'I' for Inactive)
REMARK       I    between atoms: C2_4  and  N2_5 
REMARK       I    between atoms: C2_4  and  N5_10 
REMARK    1  A    between atoms: N5_10  and  N6_12 
REMARK    2  A    between atoms: C4_14  and  C5_15 
REMARK    3  A    between atoms: C7_17  and  N7_18 
REMARK       I    between atoms: N8_23  and  C9_24 
ROOT
HETATM    1  C5  UNL     1      -1.384   0.973  -0.555  1.00  0.00     0.129 C 
HETATM    2  C6  UNL     1      -1.681   2.196   0.312  1.00  0.00     0.065 C 
HETATM    3  C7  UNL     1      -3.116   2.095   0.722  1.00  0.00     0.203 C 
HETATM    4  C8  UNL     1      -3.653   0.991  -0.151  1.00  0.00     0.159 C 
HETATM    5  N8  UNL     1      -2.486   0.113  -0.265  1.00  0.00    -0.344 N 
HETATM    6  C9  UNL     1      -2.575  -1.292  -0.097  1.00  0.00     0.184 C 
HETATM    7  N9  UNL     1      -2.694  -1.763   1.094  1.00  0.00    -0.374 N 
ATOM      8  H91 UNL     1      -2.758  -2.774   1.215  1.00  0.00     0.158 HD
ATOM      9  H92 UNL     1      -2.718  -1.089   1.859  1.00  0.00     0.158 HD
HETATM   10  N10 UNL     1      -2.541  -2.229  -1.161  1.00  0.00    -0.064 NA
ENDROOT
BRANCH   1  11
HETATM   11  C4  UNL     1      -0.075   0.442  -0.123  1.00  0.00     0.106 C 
HETATM   12  N6  UNL     1       0.198  -0.806  -0.030  1.00  0.00    -0.299 N 
ATOM     13  H6  UNL     1      -0.508  -1.506  -0.260  1.00  0.00     0.186 HD
BRANCH  12  14
HETATM   14  N5  UNL     1       1.466  -1.198   0.387  1.00  0.00    -0.133 N 
HETATM   15  C2  UNL     1       2.566  -1.357  -0.475  1.00  0.00     0.694 C 
HETATM   16  N1  UNL     1       3.070  -2.528  -0.631  1.00  0.00    -0.229 N 
HETATM   17  N2  UNL     1       3.140  -0.236  -1.185  1.00  0.00    -0.165 N 
HETATM   18  C1  UNL     1       2.496  -3.647   0.078  1.00  0.00     0.165 C 
ATOM     19  H1  UNL     1       3.869  -2.666  -1.250  1.00  0.00     0.177 HD
HETATM   20  C3  UNL     1       4.113   0.392  -0.640  1.00  0.00     0.215 C 
ATOM     21  H2  UNL     1       2.779   0.047  -2.096  1.00  0.00     0.186 HD
HETATM   22  N3  UNL     1       4.641   0.024   0.632  1.00  0.00    -0.066 NA
HETATM   23  N4  UNL     1       4.683   1.502  -1.342  1.00  0.00    -0.066 NA
ATOM     24  H5  UNL     1       1.607  -1.382   1.380  1.00  0.00     0.205 HD
ENDBRANCH  12  14
ENDBRANCH   1  11
BRANCH   3  25
HETATM   25  N7  UNL     1      -3.793   3.355   0.488  1.00  0.00    -0.073 N 
ATOM     26  H73 UNL     1      -3.319   4.133   0.947  1.00  0.00     0.274 HD
ATOM     27  H72 UNL     1      -3.694   3.667  -0.478  1.00  0.00     0.274 HD
ATOM     28  H71 UNL     1      -4.772   3.286   0.768  1.00  0.00     0.274 HD
ENDBRANCH   3  25
TORSDOF 3
