REMARK  3 active torsions:
REMARK  status: ('A' for Active; 'I' for Inactive)
REMARK    1  A    between atoms: C3_3  and  N1_4 
REMARK    2  A    between atoms: C3_3  and  C4_8 
REMARK       I    between atoms: C4_8  and  N2_10 
REMARK    3  A    between atoms: N2_10  and  C5_12 
ROOT
HETATM    1  C1  UNL     1       5.441   1.856  -1.566  1.00  0.00     0.015 C 
HETATM    2  C2  UNL     1       4.996   0.817  -1.160  1.00  0.00    -0.075 C 
HETATM    3  C3  UNL     1       4.461  -0.449  -0.641  1.00  0.00     0.352 C 
ENDROOT
BRANCH   3   4
HETATM    4  N1  UNL     1       4.954  -0.599   0.707  1.00  0.00    -0.056 N 
ATOM      5  H13 UNL     1       5.970  -0.539   0.770  1.00  0.00     0.276 HD
ATOM      6  H12 UNL     1       4.738   0.200   1.303  1.00  0.00     0.276 HD
ATOM      7  H11 UNL     1       4.583  -1.478   1.067  1.00  0.00     0.276 HD
ENDBRANCH   3   4
BRANCH   3   8
HETATM    8  C4  UNL     1       2.984  -0.490  -0.718  1.00  0.00     0.262 C 
HETATM    9  O1  UNL     1       2.476  -0.365  -1.860  1.00  0.00    -0.270 OA
HETATM   10  N2  UNL     1       2.131  -0.655   0.381  1.00  0.00    -0.336 N 
ATOM     11  H2  UNL     1       2.544  -0.755   1.308  1.00  0.00     0.164 HD
BRANCH  10  12
HETATM   12  C5  UNL     1       0.666  -0.690   0.255  1.00  0.00     0.205 C 
HETATM   13  C6  UNL     1       0.239  -2.014   0.808  1.00  0.00     0.278 C 
HETATM   14  N3  UNL     1      -0.961  -2.567   0.147  1.00  0.00    -0.070 N 
HETATM   15  C7  UNL     1      -1.893  -1.505   0.104  1.00  0.00     0.251 C 
ATOM     16  H32 UNL     1      -0.772  -2.983  -0.765  1.00  0.00     0.277 HD
ATOM     17  H31 UNL     1      -1.322  -3.411   0.592  1.00  0.00     0.277 HD
HETATM   18  C8  UNL     1      -3.343  -1.817  -0.160  1.00  0.00     0.146 C 
HETATM   19  N4  UNL     1      -4.005  -0.521  -0.005  1.00  0.00    -0.399 N 
HETATM   20  C9  UNL     1      -3.837   0.381  -1.053  1.00  0.00     0.075 C 
ATOM     21  H4  UNL     1      -4.557  -0.292   0.822  1.00  0.00     0.158 HD
HETATM   22  C10 UNL     1      -2.863   1.497  -0.911  1.00  0.00     0.162 C 
HETATM   23  N5  UNL     1      -2.474   1.844   0.408  1.00  0.00    -0.396 N 
HETATM   24  C11 UNL     1      -1.214   2.422   0.597  1.00  0.00     0.075 C 
ATOM     25  H5  UNL     1      -3.097   1.677   1.198  1.00  0.00     0.159 HD
HETATM   26  C12 UNL     1      -0.001   1.645   0.306  1.00  0.00     0.160 C 
HETATM   27  N6  UNL     1       0.203   0.452   1.046  1.00  0.00    -0.396 N 
ATOM     28  H6  UNL     1       0.040   0.394   2.051  1.00  0.00     0.155 HD
ENDBRANCH  10  12
ENDBRANCH   3   8
TORSDOF 3
