REMARK  5 active torsions:
REMARK  status: ('A' for Active; 'I' for Inactive)
REMARK       I    between atoms: C2_2  and  N1_4 
REMARK    1  A    between atoms: N1_4  and  C3_6 
REMARK    2  A    between atoms: C3_6  and  O2_7 
REMARK    3  A    between atoms: C3_6  and  C4_9 
REMARK       I    between atoms: C4_9  and  N2_11 
REMARK    4  A    between atoms: N2_11  and  N3_13 
REMARK       I    between atoms: N3_13  and  C5_15 
REMARK       I    between atoms: C5_15  and  N4_17 
REMARK    5  A    between atoms: N4_17  and  C6_19 
ROOT
HETATM    1  N3  UNL     1       0.641   1.752   0.158  1.00  0.00    -0.249 N 
ATOM      2  H3  UNL     1       0.264   2.698   0.218  1.00  0.00     0.192 HD
HETATM    3  C5  UNL     1      -0.330   0.747   0.156  1.00  0.00     0.335 C 
HETATM    4  O4  UNL     1      -0.091  -0.454   0.106  1.00  0.00    -0.246 OA
HETATM    5  N4  UNL     1      -1.696   1.137   0.216  1.00  0.00    -0.336 N 
ATOM      6  H4  UNL     1      -1.935   2.128   0.260  1.00  0.00     0.164 HD
ENDROOT
BRANCH   1   7
HETATM    7  N2  UNL     1       2.004   1.696   0.094  1.00  0.00    -0.259 N 
HETATM    8  C4  UNL     1       2.904   0.595   0.071  1.00  0.00     0.311 C 
HETATM    9  O3  UNL     1       2.530  -0.585   0.116  1.00  0.00    -0.262 OA
ATOM     10  H2  UNL     1       2.459   2.608   0.056  1.00  0.00     0.190 HD
BRANCH   8  11
HETATM   11  C3  UNL     1       4.316   0.905  -0.011  1.00  0.00     0.214 C 
BRANCH  11  12
HETATM   12  N1  UNL     1       5.408   0.073  -0.073  1.00  0.00    -0.303 N 
HETATM   13  C2  UNL     1       5.500  -1.315  -0.093  1.00  0.00     0.219 C 
HETATM   14  C1  UNL     1       6.893  -1.918  -0.196  1.00  0.00     0.117 C 
HETATM   15  O1  UNL     1       4.559  -2.113  -0.035  1.00  0.00    -0.274 OA
ATOM     16  H1  UNL     1       6.305   0.556  -0.111  1.00  0.00     0.171 HD
ENDBRANCH  11  12
BRANCH  11  17
HETATM   17  O2  UNL     1       4.560   2.204  -0.027  1.00  0.00    -0.342 OA
ATOM     18  H2  UNL     1       3.805   2.779   0.016  1.00  0.00     0.219 HD
ENDBRANCH  11  17
ENDBRANCH   8  11
ENDBRANCH   1   7
BRANCH   5  19
HETATM   19  C6  UNL     1      -2.733   0.163   0.216  1.00  0.00     0.112 C 
HETATM   20  C7  UNL     1      -3.715   0.334   1.322  1.00  0.00     0.028 C 
HETATM   21  C8  UNL     1      -5.072  -0.071   0.800  1.00  0.00     0.029 C 
HETATM   22  C9  UNL     1      -4.984  -1.240  -0.157  1.00  0.00     0.232 C 
HETATM   23  N5  UNL     1      -4.171  -0.982  -1.307  1.00  0.00    -0.073 N 
HETATM   24  C10 UNL     1      -3.437   0.265  -1.146  1.00  0.00     0.257 C 
ATOM     25  H52 UNL     1      -3.549  -1.763  -1.514  1.00  0.00     0.277 HD
ATOM     26  H51 UNL     1      -4.719  -0.991  -2.168  1.00  0.00     0.277 HD
ENDBRANCH   5  19
TORSDOF 5
