REMARK  12 active torsions:
REMARK  status: ('A' for Active; 'I' for Inactive)
REMARK    1  A    between atoms: O1_2  and  C2_3 
REMARK    2  A    between atoms: C2_3  and  C3_5 
REMARK    3  A    between atoms: C3_5  and  C4_6 
REMARK    4  A    between atoms: C4_6  and  C5_7 
REMARK    5  A    between atoms: C6_9  and  O4_10 
REMARK    6  A    between atoms: C7_12  and  C8_13 
REMARK    7  A    between atoms: C18_25  and  C19_26 
REMARK    8  A    between atoms: C19_26  and  O7_27 
REMARK    9  A    between atoms: O7_27  and  C20_28 
REMARK   10  A    between atoms: C23_32  and  O9_33 
REMARK   11  A    between atoms: C24_35  and  O10_36 
REMARK   12  A    between atoms: C25_38  and  O11_39 
ROOT
HETATM    1  C5  UNL     1      -0.436   1.997   0.293  1.00  0.00     0.065 A 
HETATM    2  O3  UNL     1      -1.647   2.326   0.759  1.00  0.00    -0.291 OA
HETATM    3  C6  UNL     1      -2.459   1.319   0.684  1.00  0.00     0.191 A 
HETATM    4  C7  UNL     1      -1.763   0.265   0.137  1.00  0.00     0.020 A 
HETATM    5  C18 UNL     1      -0.509   0.679  -0.105  1.00  0.00     0.007 A 
ENDROOT
BRANCH   5   6
HETATM    6  C19 UNL     1       0.732   0.037  -0.693  1.00  0.00     0.213 C 
BRANCH   6   7
HETATM    7  O7  UNL     1       1.163  -1.049   0.117  1.00  0.00    -0.354 OA
BRANCH   7   8
HETATM    8  C20 UNL     1       2.516  -1.272  -0.154  1.00  0.00     0.291 C 
HETATM    9  O8  UNL     1       2.986  -2.497  -0.206  1.00  0.00    -0.351 OA
HETATM   10  C21 UNL     1       4.243  -2.746   0.304  1.00  0.00     0.152 C 
HETATM   11  C22 UNL     1       4.831  -3.842  -0.569  1.00  0.00     0.042 C 
HETATM   12  C23 UNL     1       5.221  -1.641   0.332  1.00  0.00     0.178 C 
HETATM   13  C24 UNL     1       4.656  -0.266   0.357  1.00  0.00     0.183 C 
HETATM   14  C25 UNL     1       3.247  -0.403   0.932  1.00  0.00     0.204 C 
BRANCH  12  15
HETATM   15  O9  UNL     1       6.019  -1.772   1.494  1.00  0.00    -0.390 OA
ATOM     16  H9  UNL     1       6.649  -1.061   1.512  1.00  0.00     0.210 HD
ENDBRANCH  12  15
BRANCH  13  17
HETATM   17  O10 UNL     1       4.576   0.237  -0.923  1.00  0.00    -0.390 OA
ATOM     18  H10 UNL     1       4.215   1.116  -0.907  1.00  0.00     0.210 HD
ENDBRANCH  13  17
BRANCH  14  19
HETATM   19  O11 UNL     1       3.247  -0.982   2.161  1.00  0.00    -0.388 OA
ATOM     20  H11 UNL     1       3.689  -0.457   2.818  1.00  0.00     0.210 HD
ENDBRANCH  14  19
ENDBRANCH   7   8
ENDBRANCH   6   7
ENDBRANCH   5   6
BRANCH   1  21
HETATM   21  C4  UNL     1       0.628   3.046   0.288  1.00  0.00     0.075 C 
BRANCH  21  22
HETATM   22  C3  UNL     1       0.114   4.027  -0.754  1.00  0.00     0.117 C 
BRANCH  22  23
HETATM   23  C2  UNL     1       0.791   5.338  -0.706  1.00  0.00     0.258 C 
HETATM   24  O2  UNL     1       1.343   5.850  -1.699  1.00  0.00    -0.265 OA
BRANCH  23  25
HETATM   25  O1  UNL     1       0.805   6.020   0.496  1.00  0.00    -0.326 OA
HETATM   26  C1  UNL     1       1.386   7.280   0.713  1.00  0.00     0.213 C 
ENDBRANCH  23  25
ENDBRANCH  22  23
ENDBRANCH  21  22
ENDBRANCH   1  21
BRANCH   4  27
HETATM   27  C8  UNL     1      -2.403  -1.055  -0.093  1.00  0.00     0.065 C 
HETATM   28  C9  UNL     1      -2.268  -1.828   1.166  1.00  0.00     0.052 C 
HETATM   29  C10 UNL     1      -3.502  -2.668   1.480  1.00  0.00     0.063 C 
HETATM   30  C11 UNL     1      -3.557  -3.745   0.459  1.00  0.00     0.046 C 
HETATM   31  C12 UNL     1      -3.301  -3.165   2.886  1.00  0.00     0.046 C 
HETATM   32  O5  UNL     1      -4.629  -1.796   1.497  1.00  0.00    -0.319 OA
HETATM   33  C13 UNL     1      -4.874  -1.143   0.272  1.00  0.00     0.193 A 
HETATM   34  O6  UNL     1      -6.001  -0.762  -0.316  1.00  0.00    -0.299 OA
HETATM   35  C17 UNL     1      -3.812  -0.798  -0.538  1.00  0.00     0.017 A 
HETATM   36  C14 UNL     1      -5.742  -0.192  -1.455  1.00  0.00     0.152 A 
HETATM   37  C15 UNL     1      -4.349  -0.202  -1.621  1.00  0.00    -0.028 A 
HETATM   38  C16 UNL     1      -3.759   0.370  -2.866  1.00  0.00     0.050 C 
ENDBRANCH   4  27
BRANCH   3  39
HETATM   39  O4  UNL     1      -3.796   1.390   1.106  1.00  0.00    -0.340 OA
ATOM     40  H4  UNL     1      -4.391   0.652   1.051  1.00  0.00     0.220 HD
ENDBRANCH   3  39
TORSDOF 12
