REMARK  11 active torsions:
REMARK  status: ('A' for Active; 'I' for Inactive)
REMARK    1  A    between atoms: O1_2  and  C2_3 
REMARK    2  A    between atoms: C3_4  and  C4_5 
REMARK    3  A    between atoms: C8_9  and  C9_10 
REMARK    4  A    between atoms: C14_17  and  O2_18 
REMARK    5  A    between atoms: O2_18  and  C15_19 
REMARK    6  A    between atoms: C16_21  and  C17_22 
REMARK    7  A    between atoms: C17_22  and  O4_23 
REMARK    8  A    between atoms: C18_25  and  O5_26 
REMARK    9  A    between atoms: C19_28  and  O6_29 
REMARK   10  A    between atoms: C20_31  and  O7_32 
REMARK   11  A    between atoms: C21_34  and  O8_35 
ROOT
HETATM    1  C9  UNL     1       0.106  -1.857   0.878  1.00  0.00     0.053 C 
HETATM    2  C10 UNL     1       0.313  -2.983  -0.121  1.00  0.00     0.012 C 
HETATM    3  C11 UNL     1      -0.562  -4.178   0.117  1.00  0.00     0.003 C 
HETATM    4  C12 UNL     1      -1.155  -4.078   1.478  1.00  0.00     0.036 C 
HETATM    5  C13 UNL     1      -1.980  -2.830   1.535  1.00  0.00     0.103 A 
HETATM    6  S1  UNL     1      -3.498  -2.776   2.463  1.00  0.00    -0.071 SA
HETATM    7  S2  UNL     1      -2.148  -2.336   3.488  1.00  0.00    -0.071 SA
HETATM    8  C14 UNL     1      -1.331  -1.635   0.899  1.00  0.00     0.163 C 
ENDROOT
BRANCH   8   9
HETATM    9  O2  UNL     1      -1.881  -0.549   1.469  1.00  0.00    -0.350 OA
BRANCH   9  10
HETATM   10  C15 UNL     1      -2.628   0.222   0.552  1.00  0.00     0.292 C 
HETATM   11  O3  UNL     1      -1.931   1.450   0.427  1.00  0.00    -0.348 OA
HETATM   12  C16 UNL     1      -2.334   2.209  -0.634  1.00  0.00     0.179 C 
HETATM   13  C18 UNL     1      -3.812   2.046  -0.889  1.00  0.00     0.180 C 
HETATM   14  C19 UNL     1      -4.535   1.803   0.438  1.00  0.00     0.183 C 
HETATM   15  C20 UNL     1      -3.970   0.568   1.117  1.00  0.00     0.204 C 
BRANCH  12  16
HETATM   16  C17 UNL     1      -1.494   2.037  -1.859  1.00  0.00     0.198 C 
BRANCH  16  17
HETATM   17  O4  UNL     1      -1.452   0.761  -2.365  1.00  0.00    -0.398 OA
ATOM     18  H4  UNL     1      -0.918   0.652  -3.143  1.00  0.00     0.209 HD
ENDBRANCH  16  17
ENDBRANCH  12  16
BRANCH  13  19
HETATM   19  O5  UNL     1      -4.378   3.218  -1.421  1.00  0.00    -0.390 OA
ATOM     20  H5  UNL     1      -5.309   3.115  -1.582  1.00  0.00     0.210 HD
ENDBRANCH  13  19
BRANCH  14  21
HETATM   21  O6  UNL     1      -5.872   1.586   0.124  1.00  0.00    -0.390 OA
ATOM     22  H6  UNL     1      -6.321   1.435   0.948  1.00  0.00     0.210 HD
ENDBRANCH  14  21
BRANCH  15  23
HETATM   23  O7  UNL     1      -3.813   0.905   2.464  1.00  0.00    -0.388 OA
ATOM     24  H7  UNL     1      -4.665   1.125   2.823  1.00  0.00     0.210 HD
ENDBRANCH  15  23
ENDBRANCH   9  10
ENDBRANCH   8   9
BRANCH   1  25
HETATM   25  C8  UNL     1       1.082  -0.853   0.606  1.00  0.00    -0.017 A 
HETATM   26  C7  UNL     1       1.831  -0.929  -0.555  1.00  0.00     0.020 A 
HETATM   27  C3  UNL     1       2.792   0.023  -0.907  1.00  0.00    -0.020 A 
HETATM   28  C2  UNL     1       3.035   1.087  -0.106  1.00  0.00     0.083 A 
HETATM   29  C23 UNL     1       2.301   1.186   1.058  1.00  0.00     0.006 A 
HETATM   30  C21 UNL     1       1.361   0.246   1.394  1.00  0.00     0.083 A 
HETATM   31  C24 UNL     1       2.543   2.337   1.955  1.00  0.00     0.054 C 
BRANCH  27  32
HETATM   32  C4  UNL     1       3.588  -0.080  -2.163  1.00  0.00     0.013 C 
HETATM   33  C5  UNL     1       3.225  -1.325  -2.954  1.00  0.00     0.015 C 
HETATM   34  C6  UNL     1       3.354   1.100  -3.071  1.00  0.00     0.015 C 
ENDBRANCH  27  32
BRANCH  28  35
HETATM   35  O1  UNL     1       3.984   2.046  -0.433  1.00  0.00    -0.355 OA
HETATM   36  C1  UNL     1       5.318   1.855   0.016  1.00  0.00     0.210 C 
ENDBRANCH  28  35
BRANCH  30  37
HETATM   37  O8  UNL     1       0.654   0.359   2.541  1.00  0.00    -0.355 OA
HETATM   38  C22 UNL     1       1.093  -0.186   3.796  1.00  0.00     0.210 C 
ENDBRANCH  30  37
ENDBRANCH   1  25
TORSDOF 11
