REMARK  14 active torsions:
REMARK  status: ('A' for Active; 'I' for Inactive)
REMARK    1  A    between atoms: C2_2  and  C4_4 
REMARK    2  A    between atoms: C5_5  and  C6_6 
REMARK    3  A    between atoms: C6_6  and  O1_8 
REMARK    4  A    between atoms: C6_6  and  C8_10 
REMARK    5  A    between atoms: C9_11  and  O2_12 
REMARK    6  A    between atoms: C10_15  and  C11_16 
REMARK    7  A    between atoms: C13_18  and  O4_19 
REMARK    8  A    between atoms: C15_22  and  O6_23 
REMARK    9  A    between atoms: O6_23  and  C16_24 
REMARK   10  A    between atoms: C16_24  and  C17_26 
REMARK   11  A    between atoms: C21_31  and  C22_32 
REMARK   12  A    between atoms: C22_32  and  C24_34 
REMARK   13  A    between atoms: C24_34  and  O9_35 
REMARK   14  A    between atoms: C26_37  and  O10_38 
ROOT
HETATM    1  C11 UNL     1       0.801   0.002   0.519  1.00  0.00     0.067 C 
HETATM    2  C12 UNL     1       0.930   1.436   0.814  1.00  0.00     0.028 C 
HETATM    3  C13 UNL     1       0.890  -0.596   1.988  1.00  0.00     0.277 C 
HETATM    4  O5  UNL     1       2.268  -0.612   2.216  1.00  0.00    -0.329 OA
HETATM    5  C15 UNL     1       2.948  -0.563   1.018  1.00  0.00     0.278 C 
HETATM    6  C21 UNL     1       1.857  -0.810  -0.059  1.00  0.00     0.067 C 
ENDROOT
BRANCH   1   7
HETATM    7  C10 UNL     1      -0.600  -0.393   0.145  1.00  0.00     0.103 A 
HETATM    8  O3  UNL     1      -1.221  -1.395   0.737  1.00  0.00    -0.288 OA
HETATM    9  C9  UNL     1      -2.419  -1.555   0.224  1.00  0.00     0.196 A 
HETATM   10  C8  UNL     1      -2.598  -0.614  -0.753  1.00  0.00     0.082 A 
HETATM   11  C26 UNL     1      -1.442   0.130  -0.806  1.00  0.00     0.111 A 
BRANCH   9  12
HETATM   12  O2  UNL     1      -3.288  -2.550   0.670  1.00  0.00    -0.340 OA
ATOM     13  H2  UNL     1      -3.164  -3.203   1.348  1.00  0.00     0.220 HD
ENDBRANCH   9  12
BRANCH  10  14
HETATM   14  C6  UNL     1      -3.822  -0.452  -1.583  1.00  0.00     0.152 C 
HETATM   15  C7  UNL     1      -4.184  -1.721  -2.319  1.00  0.00     0.066 C 
BRANCH  14  16
HETATM   16  C5  UNL     1      -4.924  -0.141  -0.650  1.00  0.00    -0.058 C 
HETATM   17  C4  UNL     1      -5.818   0.131   0.113  1.00  0.00    -0.069 C 
BRANCH  17  18
HETATM   18  C2  UNL     1      -6.889   0.472   1.011  1.00  0.00    -0.018 C 
HETATM   19  C1  UNL     1      -7.164  -0.359   2.003  1.00  0.00     0.028 C 
HETATM   20  C3  UNL     1      -7.657   1.729   0.818  1.00  0.00     0.057 C 
ENDBRANCH  17  18
ENDBRANCH  14  16
BRANCH  14  21
HETATM   21  O1  UNL     1      -3.689   0.588  -2.479  1.00  0.00    -0.373 OA
ATOM     22  H1  UNL     1      -2.980   0.388  -3.079  1.00  0.00     0.212 HD
ENDBRANCH  14  21
ENDBRANCH  10  14
BRANCH  11  23
HETATM   23  O10 UNL     1      -1.215   1.176  -1.641  1.00  0.00    -0.357 OA
ATOM     24  H10 UNL     1      -0.417   1.690  -1.678  1.00  0.00     0.217 HD
ENDBRANCH  11  23
ENDBRANCH   1   7
BRANCH   3  25
HETATM   25  O4  UNL     1       0.295   0.305   2.817  1.00  0.00    -0.365 OA
HETATM   26  C14 UNL     1      -0.697  -0.037   3.650  1.00  0.00     0.204 C 
ENDBRANCH   3  25
BRANCH   6  27
HETATM   27  C22 UNL     1       2.475  -0.611  -1.362  1.00  0.00     0.015 C 
HETATM   28  C23 UNL     1       1.541  -0.608  -2.573  1.00  0.00     0.012 C 
BRANCH  27  29
HETATM   29  C24 UNL     1       3.297  -1.890  -1.686  1.00  0.00     0.171 C 
BRANCH  29  30
HETATM   30  O9  UNL     1       4.285  -2.228  -0.872  1.00  0.00    -0.396 OA
HETATM   31  C25 UNL     1       4.886  -3.394  -1.340  1.00  0.00     0.201 C 
ENDBRANCH  29  30
ENDBRANCH  27  29
ENDBRANCH   6  27
BRANCH   5  32
HETATM   32  O6  UNL     1       3.392   0.760   0.816  1.00  0.00    -0.285 OA
BRANCH  32  33
HETATM   33  C16 UNL     1       4.668   1.201   0.667  1.00  0.00     0.297 C 
HETATM   34  O7  UNL     1       5.607   0.357   0.713  1.00  0.00    -0.259 OA
BRANCH  33  35
HETATM   35  C17 UNL     1       5.024   2.613   0.455  1.00  0.00     0.063 A 
HETATM   36  C18 UNL     1       4.176   3.693   0.377  1.00  0.00     0.044 A 
HETATM   37  C19 UNL     1       4.948   4.824   0.168  1.00  0.00     0.142 A 
HETATM   38  O8  UNL     1       6.202   4.431   0.124  1.00  0.00    -0.334 OA
HETATM   39  C20 UNL     1       6.287   3.133   0.289  1.00  0.00     0.159 A 
ENDBRANCH  33  35
ENDBRANCH  32  33
ENDBRANCH   5  32
TORSDOF 14
