REMARK  9 active torsions:
REMARK  status: ('A' for Active; 'I' for Inactive)
REMARK    1  A    between atoms: C2_2  and  N1_3 
REMARK    2  A    between atoms: N1_3  and  C3_6 
REMARK    3  A    between atoms: C3_6  and  O1_7 
REMARK    4  A    between atoms: C3_6  and  N2_9 
REMARK    5  A    between atoms: N2_9  and  C4_11 
REMARK    6  A    between atoms: N5_21  and  C10_22 
REMARK    7  A    between atoms: N6_33  and  C21_34 
REMARK    8  A    between atoms: C21_34  and  C22_35 
REMARK    9  A    between atoms: C22_35  and  O2_36 
ROOT
HETATM    1  C10 UNL     1       1.192  -1.998  -0.313  1.00  0.00     0.092 C 
HETATM    2  C11 UNL     1       1.285  -1.569   1.101  1.00  0.00     0.026 C 
HETATM    3  C12 UNL     1       1.004  -0.177   1.451  1.00  0.00     0.005 C 
HETATM    4  C13 UNL     1      -0.225   0.472   0.992  1.00  0.00     0.041 C 
HETATM    5  C14 UNL     1      -1.375  -0.411   0.581  1.00  0.00     0.096 C 
HETATM    6  C15 UNL     1      -1.860  -1.330   1.648  1.00  0.00     0.041 C 
HETATM    7  C16 UNL     1      -3.349  -1.148   1.971  1.00  0.00     0.006 C 
HETATM    8  C17 UNL     1      -4.247  -1.503   0.833  1.00  0.00     0.041 C 
HETATM    9  C18 UNL     1      -4.497  -0.287  -0.038  1.00  0.00     0.099 C 
HETATM   10  C19 UNL     1      -5.178   0.771   0.776  1.00  0.00     0.071 C 
HETATM   11  C20 UNL     1      -6.020   1.714  -0.091  1.00  0.00     0.275 C 
HETATM   12  N6  UNL     1      -7.097   1.023  -0.734  1.00  0.00     0.090 N 
HETATM   13  C23 UNL     1      -6.818  -0.399  -0.801  1.00  0.00     0.275 C 
HETATM   14  C24 UNL     1      -5.377  -0.609  -1.210  1.00  0.00     0.071 C 
HETATM   15  O3  UNL     1      -3.260   0.102  -0.535  1.00  0.00    -0.229 OA
HETATM   16  O4  UNL     1      -2.438   0.514   0.371  1.00  0.00    -0.229 OA
HETATM   17  C25 UNL     1      -1.114  -1.030  -0.748  1.00  0.00     0.043 C 
HETATM   18  C26 UNL     1      -0.214  -2.192  -0.796  1.00  0.00     0.029 C 
ENDROOT
BRANCH   1  19
HETATM   19  N5  UNL     1       2.024  -1.314  -1.259  1.00  0.00    -0.323 N 
HETATM   20  C6  UNL     1       3.289  -0.922  -1.087  1.00  0.00     0.136 A 
HETATM   21  N3  UNL     1       4.190  -0.999  -0.077  1.00  0.00    -0.348 N 
HETATM   22  C7  UNL     1       3.738  -0.301  -2.237  1.00  0.00     0.080 A 
HETATM   23  C5  UNL     1       5.444  -0.516  -0.148  1.00  0.00     0.119 A 
ATOM     24  H3  UNL     1       3.900  -1.451   0.790  1.00  0.00     0.167 HD
HETATM   25  C4  UNL     1       5.919   0.107  -1.278  1.00  0.00     0.049 A 
HETATM   26  C8  UNL     1       5.031   0.204  -2.328  1.00  0.00     0.064 A 
HETATM   27  N4  UNL     1       2.692  -0.351  -3.069  1.00  0.00    -0.349 N 
HETATM   28  C9  UNL     1       1.649  -0.961  -2.492  1.00  0.00     0.185 A 
ATOM     29  H4  UNL     1       2.689   0.025  -4.017  1.00  0.00     0.166 HD
BRANCH  25  30
HETATM   30  N2  UNL     1       7.242   0.620  -1.356  1.00  0.00    -0.340 N 
ATOM     31  H2  UNL     1       7.534   1.046  -2.236  1.00  0.00     0.164 HD
BRANCH  30  32
HETATM   32  C3  UNL     1       8.197   0.582  -0.286  1.00  0.00     0.426 C 
BRANCH  32  33
HETATM   33  N1  UNL     1       9.467   1.168  -0.734  1.00  0.00    -0.031 N 
ATOM     34  H12 UNL     1       9.361   2.120  -1.086  1.00  0.00     0.282 HD
ATOM     35  H11 UNL     1       9.816   0.744  -1.593  1.00  0.00     0.282 HD
BRANCH  33  36
HETATM   36  C2  UNL     1      10.410   1.077   0.359  1.00  0.00     0.233 C 
HETATM   37  C1  UNL     1       9.923   2.031   1.441  1.00  0.00     0.034 C 
ENDBRANCH  33  36
ENDBRANCH  32  33
BRANCH  32  38
HETATM   38  O1  UNL     1       8.459  -0.750   0.026  1.00  0.00    -0.354 OA
ATOM     39  H1  UNL     1       7.638  -1.129   0.316  1.00  0.00     0.214 HD
ENDBRANCH  32  38
ENDBRANCH  30  32
ENDBRANCH  25  30
ENDBRANCH   1  19
BRANCH  12  40
HETATM   40  C21 UNL     1      -8.379   1.303  -0.162  1.00  0.00     0.298 C 
BRANCH  40  41
HETATM   41  C22 UNL     1      -8.770   2.724  -0.430  1.00  0.00     0.194 C 
BRANCH  41  42
HETATM   42  O2  UNL     1     -10.034   2.986   0.140  1.00  0.00    -0.399 OA
ATOM     43  H2  UNL     1     -10.282   3.887  -0.030  1.00  0.00     0.209 HD
ENDBRANCH  41  42
ENDBRANCH  40  41
ENDBRANCH  12  40
TORSDOF 9
