REMARK  13 active torsions:
REMARK  status: ('A' for Active; 'I' for Inactive)
REMARK    1  A    between atoms: O1_2  and  C2_3 
REMARK    2  A    between atoms: C4_5  and  C5_6 
REMARK    3  A    between atoms: C5_6  and  N1_7 
REMARK    4  A    between atoms: C6_9  and  N2_10 
REMARK    5  A    between atoms: C6_9  and  S1_15 
REMARK    6  A    between atoms: N2_10  and  N3_12 
REMARK    7  A    between atoms: S1_15  and  S2_16 
REMARK    8  A    between atoms: S2_16  and  C7_17 
REMARK    9  A    between atoms: C7_17  and  N5_21 
REMARK   10  A    between atoms: N5_21  and  C8_23 
REMARK   11  A    between atoms: C17_32  and  O4_33 
REMARK   12  A    between atoms: O4_33  and  C18_34 
REMARK   13  A    between atoms: C18_34  and  C20_36 
ROOT
HETATM    1  N1  UNL     1       0.999   2.331   1.672  1.00  0.00    -0.365 N 
ATOM      2  H1  UNL     1       1.948   2.696   1.588  1.00  0.00     0.162 HD
HETATM    3  C6  UNL     1       0.191   3.054   2.314  1.00  0.00     0.171 C 
ENDROOT
BRANCH   3   4
HETATM    4  N2  UNL     1       0.738   4.296   2.836  1.00  0.00    -0.219 N 
ATOM      5  H2  UNL     1       0.946   4.370   3.832  1.00  0.00     0.195 HD
BRANCH   4   6
HETATM    6  N3  UNL     1       0.984   5.388   2.004  1.00  0.00    -0.037 N 
HETATM    7  O2  UNL     1       2.143   5.673   1.641  1.00  0.00    -0.516 OA
HETATM    8  O3  UNL     1      -0.087   6.145   1.591  1.00  0.00    -0.516 OA
ENDBRANCH   4   6
ENDBRANCH   3   4
BRANCH   3   9
HETATM    9  S1  UNL     1      -1.509   2.747   2.668  1.00  0.00    -0.012 SA
BRANCH   9  10
HETATM   10  S2  UNL     1      -2.290   0.998   1.811  1.00  0.00    -0.014 SA
BRANCH  10  11
HETATM   11  C7  UNL     1      -2.974   1.329   0.199  1.00  0.00     0.145 C 
HETATM   12  N4  UNL     1      -2.925   2.533  -0.244  1.00  0.00    -0.379 N 
ATOM     13  H42 UNL     1      -2.495   3.241   0.351  1.00  0.00     0.158 HD
ATOM     14  H41 UNL     1      -3.316   2.722  -1.167  1.00  0.00     0.158 HD
BRANCH  11  15
HETATM   15  N5  UNL     1      -3.569   0.348  -0.625  1.00  0.00    -0.365 N 
ATOM     16  H5  UNL     1      -2.996  -0.300  -1.165  1.00  0.00     0.162 HD
BRANCH  15  17
HETATM   17  C8  UNL     1      -5.013   0.288  -0.682  1.00  0.00     0.087 C 
HETATM   18  C9  UNL     1      -5.540   0.011   0.685  1.00  0.00     0.025 C 
HETATM   19  C10 UNL     1      -5.299  -1.392   1.126  1.00  0.00     0.002 C 
HETATM   20  C11 UNL     1      -5.607  -2.445   0.112  1.00  0.00     0.001 C 
HETATM   21  C12 UNL     1      -5.130  -2.091  -1.275  1.00  0.00     0.006 C 
HETATM   22  C13 UNL     1      -5.500  -0.704  -1.686  1.00  0.00     0.004 C 
HETATM   23  C14 UNL     1      -6.988  -0.536  -1.901  1.00  0.00     0.012 C 
ENDBRANCH  15  17
ENDBRANCH  11  15
ENDBRANCH  10  11
ENDBRANCH   9  10
ENDBRANCH   3   9
BRANCH   1  24
HETATM   24  C5  UNL     1       0.765   1.074   1.049  1.00  0.00     0.160 C 
BRANCH  24  25
HETATM   25  C4  UNL     1       2.064   0.471   0.606  1.00  0.00    -0.038 A 
HETATM   26  C3  UNL     1       2.765  -0.340   1.465  1.00  0.00     0.048 A 
HETATM   27  C2  UNL     1       3.947  -0.876   1.033  1.00  0.00     0.102 A 
HETATM   28  C17 UNL     1       4.483  -0.638  -0.249  1.00  0.00     0.103 A 
HETATM   29  C16 UNL     1       3.736   0.179  -1.056  1.00  0.00     0.040 A 
HETATM   30  C15 UNL     1       2.530   0.747  -0.661  1.00  0.00     0.012 A 
BRANCH  27  31
HETATM   31  O1  UNL     1       4.655  -1.686   1.878  1.00  0.00    -0.353 OA
HETATM   32  C1  UNL     1       4.272  -2.028   3.181  1.00  0.00     0.210 C 
ENDBRANCH  27  31
BRANCH  28  33
HETATM   33  O4  UNL     1       5.685  -1.226  -0.591  1.00  0.00    -0.333 OA
BRANCH  33  34
HETATM   34  C18 UNL     1       6.295  -1.055  -1.821  1.00  0.00     0.225 C 
HETATM   35  C19 UNL     1       7.698  -0.459  -1.694  1.00  0.00     0.052 C 
BRANCH  34  36
HETATM   36  C20 UNL     1       6.445  -2.402  -2.499  1.00  0.00     0.203 C 
HETATM   37  O5  UNL     1       6.040  -3.449  -1.934  1.00  0.00    -0.646 OA
HETATM   38  O6  UNL     1       7.038  -2.433  -3.747  1.00  0.00    -0.646 OA
ENDBRANCH  34  36
ENDBRANCH  33  34
ENDBRANCH  28  33
ENDBRANCH  24  25
ENDBRANCH   1  24
TORSDOF 13
