REMARK  12 active torsions:
REMARK  status: ('A' for Active; 'I' for Inactive)
REMARK    1  A    between atoms: C2_2  and  O1_3 
REMARK    2  A    between atoms: C2_2  and  C7_8 
REMARK    3  A    between atoms: O1_3  and  C3_4 
REMARK    4  A    between atoms: C7_8  and  C8_10 
REMARK    5  A    between atoms: C7_8  and  C23_34 
REMARK    6  A    between atoms: C8_10  and  O2_11 
REMARK    7  A    between atoms: C8_10  and  C10_13 
REMARK    8  A    between atoms: C10_13  and  O4_15 
REMARK    9  A    between atoms: O4_15  and  C11_16 
REMARK   10  A    between atoms: C17_23  and  O6_24 
REMARK   11  A    between atoms: C20_28  and  O7_29 
REMARK   12  A    between atoms: C23_34  and  O9_37 
ROOT
HETATM    1  C10 UNL     1       0.304   0.099   0.843  1.00  0.00     0.295 C 
HETATM    2  O3  UNL     1       0.935   0.594   1.858  1.00  0.00    -0.262 OA
ENDROOT
BRANCH   1   3
HETATM    3  C8  UNL     1      -1.027   0.623   0.480  1.00  0.00     0.249 C 
BRANCH   3   4
HETATM    4  C7  UNL     1      -2.185  -0.195   1.035  1.00  0.00     0.131 C 
HETATM    5  S1  UNL     1      -1.984  -0.399   2.798  1.00  0.00    -0.073 SA
BRANCH   4   6
HETATM    6  C2  UNL     1      -3.472   0.518   0.772  1.00  0.00     0.064 C 
HETATM    7  C1  UNL     1      -3.958   1.517   1.314  1.00  0.00     0.048 C 
BRANCH   6   8
HETATM    8  O1  UNL     1      -4.260  -0.052  -0.282  1.00  0.00    -0.345 OA
BRANCH   8   9
HETATM    9  C3  UNL     1      -5.600   0.335  -0.503  1.00  0.00     0.056 C 
HETATM   10  C4  UNL     1      -5.782   1.774  -0.866  1.00  0.00     0.045 C 
HETATM   11  C5  UNL     1      -6.463   0.100   0.729  1.00  0.00     0.045 C 
HETATM   12  C6  UNL     1      -6.164  -0.542  -1.595  1.00  0.00     0.045 C 
ENDBRANCH   8   9
ENDBRANCH   6   8
ENDBRANCH   4   6
BRANCH   4  13
HETATM   13  C23 UNL     1      -2.206  -1.545   0.350  1.00  0.00     0.077 C 
HETATM   14  C24 UNL     1      -2.300  -1.461  -1.151  1.00  0.00     0.047 C 
HETATM   15  C25 UNL     1      -3.453  -2.326   0.861  1.00  0.00     0.047 C 
BRANCH  13  16
HETATM   16  O9  UNL     1      -1.148  -2.302   0.732  1.00  0.00    -0.388 OA
ATOM     17  H9  UNL     1      -1.161  -3.149   0.302  1.00  0.00     0.210 HD
ENDBRANCH  13  16
ENDBRANCH   4  13
ENDBRANCH   3   4
BRANCH   3  18
HETATM   18  O2  UNL     1      -1.068   1.904   1.115  1.00  0.00    -0.379 OA
HETATM   19  C9  UNL     1      -1.076   2.851   0.117  1.00  0.00     0.202 C 
ENDBRANCH   3  18
ENDBRANCH   1   3
BRANCH   1  20
HETATM   20  O4  UNL     1       1.019  -0.894   0.211  1.00  0.00    -0.281 OA
BRANCH  20  21
HETATM   21  C11 UNL     1       2.265  -1.341   0.585  1.00  0.00     0.071 C 
HETATM   22  C12 UNL     1       2.416  -2.472   1.547  1.00  0.00     0.078 C 
HETATM   23  C13 UNL     1       3.346  -0.781   0.104  1.00  0.00     0.095 A 
HETATM   24  C14 UNL     1       3.419   0.349  -0.853  1.00  0.00     0.200 A 
HETATM   25  C22 UNL     1       4.709  -1.177   0.431  1.00  0.00     0.202 A 
HETATM   26  O5  UNL     1       2.436   0.924  -1.334  1.00  0.00    -0.286 OA
HETATM   27  C15 UNL     1       4.849   0.573  -1.051  1.00  0.00     0.035 A 
HETATM   28  C16 UNL     1       5.457   1.535  -1.865  1.00  0.00     0.053 A 
HETATM   29  C21 UNL     1       5.598  -0.306  -0.313  1.00  0.00     0.063 A 
HETATM   30  C17 UNL     1       6.828   1.592  -1.919  1.00  0.00     0.075 A 
HETATM   31  C18 UNL     1       7.572   0.697  -1.166  1.00  0.00     0.005 A 
HETATM   32  C19 UNL     1       9.065   0.716  -1.183  1.00  0.00     0.054 C 
HETATM   33  C20 UNL     1       6.987  -0.273  -0.347  1.00  0.00     0.089 A 
HETATM   34  O8  UNL     1       5.045  -2.115   1.223  1.00  0.00    -0.286 OA
BRANCH  30  35
HETATM   35  O6  UNL     1       7.538   2.494  -2.684  1.00  0.00    -0.360 OA
ATOM     36  H6  UNL     1       8.486   2.533  -2.721  1.00  0.00     0.217 HD
ENDBRANCH  30  35
BRANCH  33  37
HETATM   37  O7  UNL     1       7.760  -1.142   0.385  1.00  0.00    -0.359 OA
ATOM     38  H7  UNL     1       7.362  -1.801   0.942  1.00  0.00     0.217 HD
ENDBRANCH  33  37
ENDBRANCH  20  21
ENDBRANCH   1  20
TORSDOF 12
