REMARK  0 active torsions:
REMARK  status: ('A' for Active; 'I' for Inactive)
ROOT
HETATM    1  C1  UNL     1      -2.550   0.195   0.594  1.00  0.00     0.042 C 
HETATM    2  C2  UNL     1      -1.345   0.334  -0.328  1.00  0.00     0.210 C 
HETATM    3  C3  UNL     1      -0.126   0.820   0.407  1.00  0.00     0.272 C 
HETATM    4  N1  UNL     1       0.957  -0.018  -0.012  1.00  0.00    -0.038 N 
HETATM    5  C4  UNL     1       2.229   0.518  -0.364  1.00  0.00     0.267 A 
HETATM    6  C5  UNL     1       2.014  -0.194   0.929  1.00  0.00     0.267 A 
HETATM    7  C6  UNL     1       0.426  -1.098  -0.779  1.00  0.00     0.468 C 
HETATM    8  N2  UNL     1      -1.007  -1.000  -0.781  1.00  0.00    -0.045 N 
ATOM      9  H21 UNL     1      -1.422  -1.233  -1.683  1.00  0.00     0.279 HD
ATOM     10  H22 UNL     1      -1.459  -1.734  -0.235  1.00  0.00     0.279 HD
ENDROOT
TORSDOF 0
