REMARK  5 active torsions:
REMARK  status: ('A' for Active; 'I' for Inactive)
REMARK    1  A    between atoms: C2_2  and  C3_3 
REMARK    2  A    between atoms: C3_3  and  N1_4 
REMARK    3  A    between atoms: C10_18  and  C11_19 
REMARK    4  A    between atoms: C13_21  and  O1_22 
REMARK    5  A    between atoms: O1_22  and  C14_23 
ROOT
HETATM    1  N1  UNL     1       1.567   0.856  -0.247  1.00  0.00    -0.345 N 
HETATM    2  C4  UNL     1       2.075   1.588  -1.360  1.00  0.00     0.194 C 
HETATM    3  C5  UNL     1       0.965   2.259  -2.031  1.00  0.00     0.084 C 
HETATM    4  N2  UNL     1       0.093   2.789  -2.564  1.00  0.00    -0.195 NA
HETATM    5  C6  UNL     1       2.584   0.475  -2.315  1.00  0.00     0.050 C 
HETATM    6  C7  UNL     1       1.460  -0.499  -2.087  1.00  0.00     0.053 C 
HETATM    7  C8  UNL     1       1.582  -1.793  -2.762  1.00  0.00     0.091 C 
HETATM    8  S1  UNL     1       2.805  -2.896  -2.023  1.00  0.00    -0.094 SA
HETATM    9  C9  UNL     1       2.869  -2.404  -0.291  1.00  0.00     0.135 C 
HETATM   10  N3  UNL     1       3.739  -2.965   0.483  1.00  0.00    -0.380 N 
ATOM     11  H31 UNL     1       3.775  -2.686   1.464  1.00  0.00     0.158 HD
ATOM     12  H32 UNL     1       4.391  -3.677   0.155  1.00  0.00     0.158 HD
HETATM   13  N4  UNL     1       1.961  -1.413   0.166  1.00  0.00    -0.340 N 
ATOM     14  H4  UNL     1       1.798  -1.382   1.172  1.00  0.00     0.164 HD
HETATM   15  C10 UNL     1       1.252  -0.459  -0.612  1.00  0.00     0.148 C 
ENDROOT
BRANCH   1  16
HETATM   16  C3  UNL     1       1.885   1.240   1.049  1.00  0.00     0.062 C 
BRANCH  16  17
HETATM   17  C2  UNL     1       3.317   1.113   1.493  1.00  0.00     0.040 C 
HETATM   18  C1  UNL     1       3.531   1.583   2.928  1.00  0.00     0.010 C 
ENDBRANCH  16  17
ENDBRANCH   1  16
BRANCH  15  19
HETATM   19  C11 UNL     1      -0.209  -0.792  -0.402  1.00  0.00     0.037 A 
HETATM   20  C12 UNL     1      -1.219   0.028  -0.032  1.00  0.00     0.059 A 
HETATM   21  C13 UNL     1      -2.461  -0.518   0.102  1.00  0.00     0.116 A 
HETATM   22  C17 UNL     1      -2.569  -1.844  -0.153  1.00  0.00     0.191 A 
HETATM   23  F1  UNL     1      -3.612  -2.731  -0.124  1.00  0.00    -0.195 F 
HETATM   24  S2  UNL     1      -0.956  -2.309  -0.570  1.00  0.00    -0.057 SA
BRANCH  21  25
HETATM   25  O1  UNL     1      -3.561   0.279   0.487  1.00  0.00    -0.343 OA
BRANCH  25  26
HETATM   26  C14 UNL     1      -4.871  -0.040   0.649  1.00  0.00     0.121 C 
HETATM   27  C15 UNL     1      -5.284  -0.108   2.128  1.00  0.00     0.040 C 
HETATM   28  C16 UNL     1      -5.829   0.942  -0.020  1.00  0.00     0.040 C 
ENDBRANCH  25  26
ENDBRANCH  21  25
ENDBRANCH  15  19
TORSDOF 5
