REMARK  2 active torsions:
REMARK  status: ('A' for Active; 'I' for Inactive)
REMARK    1  A    between atoms: C5_9  and  C6_10 
REMARK    2  A    between atoms: C7_15  and  C8_16 
ROOT
HETATM    1  C6  UNL     1      -1.250   0.117  -0.112  1.00  0.00     0.135 A 
HETATM    2  N3  UNL     1      -0.803   1.251  -0.681  1.00  0.00    -0.283 N 
ATOM      3  H3  UNL     1      -1.391   1.977  -1.090  1.00  0.00     0.188 HD
HETATM    4  N4  UNL     1       0.524   1.278  -0.628  1.00  0.00    -0.287 N 
ATOM      5  H4  UNL     1       1.115   2.027  -0.989  1.00  0.00     0.188 HD
HETATM    6  C7  UNL     1       0.958   0.177  -0.031  1.00  0.00     0.103 A 
HETATM    7  N6  UNL     1      -0.131  -0.539   0.287  1.00  0.00    -0.329 N 
ATOM      8  H6  UNL     1      -0.120  -1.443   0.759  1.00  0.00     0.168 HD
ENDROOT
BRANCH   1   9
HETATM    9  C5  UNL     1      -2.645  -0.292   0.031  1.00  0.00     0.057 A 
HETATM   10  C2  UNL     1      -3.500  -0.031   1.070  1.00  0.00     0.038 A 
HETATM   11  C1  UNL     1      -3.140   0.752   2.288  1.00  0.00     0.070 C 
HETATM   12  N1  UNL     1      -4.680  -0.599   0.779  1.00  0.00    -0.304 N 
HETATM   13  N2  UNL     1      -4.634  -1.214  -0.390  1.00  0.00    -0.304 N 
ATOM     14  H1  UNL     1      -5.503  -0.561   1.380  1.00  0.00     0.186 HD
HETATM   15  C3  UNL     1      -3.394  -1.044  -0.878  1.00  0.00     0.038 A 
ATOM     16  H2  UNL     1      -5.397  -1.722  -0.838  1.00  0.00     0.186 HD
HETATM   17  C4  UNL     1      -2.810  -1.530  -2.155  1.00  0.00     0.070 C 
ENDBRANCH   1   9
BRANCH   6  18
HETATM   18  C8  UNL     1       2.384  -0.160   0.217  1.00  0.00     0.082 C 
HETATM   19  C9  UNL     1       3.181  -0.228  -1.057  1.00  0.00     0.041 C 
HETATM   20  C10 UNL     1       4.588  -0.017  -0.535  1.00  0.00     0.233 C 
HETATM   21  N5  UNL     1       4.493   0.831   0.619  1.00  0.00    -0.074 N 
HETATM   22  C11 UNL     1       3.099   0.953   0.967  1.00  0.00     0.244 C 
ATOM     23  H52 UNL     1       5.067   0.505   1.397  1.00  0.00     0.277 HD
ATOM     24  H51 UNL     1       4.947   1.734   0.484  1.00  0.00     0.277 HD
ENDBRANCH   6  18
TORSDOF 2
