REMARK  5 active torsions:
REMARK  status: ('A' for Active; 'I' for Inactive)
REMARK    1  A    between atoms: O1_1  and  C1_3 
REMARK    2  A    between atoms: C1_3  and  C2_4 
REMARK    3  A    between atoms: C2_4  and  C3_5 
REMARK    4  A    between atoms: C9_12  and  O3_13 
REMARK    5  A    between atoms: C10_15  and  O4_16 
ROOT
HETATM    1  C3  UNL     1      -1.786  -0.223  -0.725  1.00  0.00    -0.008 C 
HETATM    2  C4  UNL     1      -1.918  -1.417   0.174  1.00  0.00     0.031 C 
HETATM    3  C5  UNL     1      -0.695  -2.298  -0.036  1.00  0.00     0.169 C 
HETATM    4  O2  UNL     1       0.338  -1.621  -0.640  1.00  0.00    -0.380 OA
HETATM    5  C6  UNL     1       0.584  -0.348  -0.138  1.00  0.00     0.064 C 
HETATM    6  C7  UNL     1       1.017  -0.385   1.289  1.00  0.00     0.041 C 
HETATM    7  C8  UNL     1       2.484  -0.658   1.470  1.00  0.00     0.037 C 
HETATM    8  C9  UNL     1       3.351   0.354   0.769  1.00  0.00     0.147 C 
HETATM    9  C10 UNL     1       2.609   1.123  -0.299  1.00  0.00     0.149 C 
HETATM   10  C11 UNL     1       1.666   0.224  -1.056  1.00  0.00     0.072 C 
HETATM   11  C12 UNL     1      -0.606   0.581  -0.231  1.00  0.00     0.043 C 
ENDROOT
BRANCH   9  12
HETATM   12  O4  UNL     1       1.979   2.245   0.189  1.00  0.00    -0.393 OA
ATOM     13  H4  UNL     1       1.512   2.729  -0.483  1.00  0.00     0.210 HD
ENDBRANCH   9  12
BRANCH   1  14
HETATM   14  C2  UNL     1      -3.015   0.603  -0.873  1.00  0.00     0.031 C 
BRANCH  14  15
HETATM   15  C1  UNL     1      -3.536   1.189   0.409  1.00  0.00     0.164 C 
BRANCH  15  16
HETATM   16  O1  UNL     1      -3.879   0.265   1.363  1.00  0.00    -0.401 OA
ATOM     17  H1  UNL     1      -4.208   0.635   2.173  1.00  0.00     0.209 HD
ENDBRANCH  15  16
ENDBRANCH  14  15
ENDBRANCH   1  14
BRANCH   8  18
HETATM   18  O3  UNL     1       4.387  -0.354   0.152  1.00  0.00    -0.393 OA
ATOM     19  H3  UNL     1       4.934   0.284  -0.290  1.00  0.00     0.210 HD
ENDBRANCH   8  18
TORSDOF 5
