REMARK  4 active torsions:
REMARK  status: ('A' for Active; 'I' for Inactive)
REMARK    1  A    between atoms: C2_4  and  C3_5 
REMARK    2  A    between atoms: C4_6  and  C5_7 
REMARK    3  A    between atoms: C5_7  and  O1_8 
REMARK    4  A    between atoms: C8_13  and  O3_14 
ROOT
HETATM    1  C3  UNL     1       1.090   0.114   0.057  1.00  0.00     0.065 C 
HETATM    2  C4  UNL     1       1.218   1.591  -0.116  1.00  0.00     0.155 C 
HETATM    3  O2  UNL     1      -0.036   2.126  -0.292  1.00  0.00    -0.377 OA
HETATM    4  C6  UNL     1      -0.951   1.101  -0.385  1.00  0.00     0.133 C 
HETATM    5  C7  UNL     1      -1.639   0.833   0.938  1.00  0.00     0.064 C 
HETATM    6  C8  UNL     1      -3.075   0.387   0.752  1.00  0.00     0.120 C 
HETATM    7  C9  UNL     1      -3.131  -1.057   0.320  1.00  0.00     0.032 C 
HETATM    8  C10 UNL     1      -2.289  -1.331  -0.894  1.00  0.00     0.003 C 
HETATM    9  C11 UNL     1      -0.844  -1.408  -0.447  1.00  0.00     0.012 C 
HETATM   10  C12 UNL     1      -0.175  -0.133  -0.774  1.00  0.00    -0.007 C 
HETATM   11  C13 UNL     1       0.166  -0.073  -2.230  1.00  0.00     0.018 C 
ENDROOT
BRANCH   1  12
HETATM   12  C2  UNL     1       2.222  -0.672  -0.391  1.00  0.00     0.063 C 
HETATM   13  N1  UNL     1       3.155  -0.996   0.412  1.00  0.00    -0.406 N 
HETATM   14  C1  UNL     1       4.303  -1.764   0.063  1.00  0.00     0.145 C 
ATOM     15  H1  UNL     1       3.075  -0.682   1.379  1.00  0.00     0.158 HD
ENDBRANCH   1  12
BRANCH   2  16
HETATM   16  C5  UNL     1       1.932   2.248   1.057  1.00  0.00     0.196 C 
BRANCH  16  17
HETATM   17  O1  UNL     1       1.216   2.063   2.225  1.00  0.00    -0.398 OA
ATOM     18  H1  UNL     1       1.662   2.473   2.957  1.00  0.00     0.209 HD
ENDBRANCH  16  17
ENDBRANCH   2  16
BRANCH   6  19
HETATM   19  O3  UNL     1      -3.656   0.421   2.042  1.00  0.00    -0.395 OA
ATOM     20  H3  UNL     1      -4.556   0.141   1.925  1.00  0.00     0.210 HD
ENDBRANCH   6  19
TORSDOF 4
