REMARK  4 active torsions:
REMARK  status: ('A' for Active; 'I' for Inactive)
REMARK    1  A    between atoms: C5_5  and  N1_6 
REMARK    2  A    between atoms: C8_11  and  C9_12 
REMARK    3  A    between atoms: C9_12  and  O1_13 
REMARK    4  A    between atoms: N3_15  and  O2_17 
ROOT
HETATM    1  N1  UNL     1      -0.422  -0.051  -0.202  1.00  0.00    -0.365 N 
HETATM    2  C6  UNL     1      -0.915  -1.072  -1.028  1.00  0.00     0.083 C 
HETATM    3  C7  UNL     1      -2.231  -1.668  -0.651  1.00  0.00     0.160 C 
HETATM    4  N2  UNL     1      -2.826  -1.057   0.500  1.00  0.00    -0.402 N 
ATOM      5  H2  UNL     1      -3.280  -1.599   1.235  1.00  0.00     0.154 HD
HETATM    6  C8  UNL     1      -2.736   0.375   0.542  1.00  0.00     0.193 C 
HETATM    7  C10 UNL     1      -1.341   0.883   0.253  1.00  0.00     0.096 C 
ENDROOT
BRANCH   1   8
HETATM    8  C5  UNL     1       0.788  -0.321   0.409  1.00  0.00     0.088 C 
HETATM    9  C4  UNL     1       1.873  -0.486  -0.641  1.00  0.00     0.026 C 
HETATM   10  C3  UNL     1       2.642   0.843  -0.656  1.00  0.00     0.006 C 
HETATM   11  C2  UNL     1       3.542   0.861   0.542  1.00  0.00    -0.019 C 
HETATM   12  C1  UNL     1       4.716  -0.044   0.248  1.00  0.00     0.010 C 
HETATM   13  C12 UNL     1       2.732   0.343   1.740  1.00  0.00     0.006 C 
HETATM   14  C11 UNL     1       1.261   0.612   1.474  1.00  0.00     0.026 C 
ENDBRANCH   1   8
BRANCH   6  15
HETATM   15  C9  UNL     1      -3.696   0.918  -0.453  1.00  0.00     0.163 C 
HETATM   16  N3  UNL     1      -4.680   1.683  -0.122  1.00  0.00    -0.249 N 
ATOM     17  H3  UNL     1      -4.796   1.919   0.863  1.00  0.00     0.196 HD
BRANCH  15  18
HETATM   18  O1  UNL     1      -3.564   0.610  -1.806  1.00  0.00    -0.346 OA
ATOM     19  H1  UNL     1      -4.178   0.957  -2.442  1.00  0.00     0.219 HD
ENDBRANCH  15  18
BRANCH  16  20
HETATM   20  O2  UNL     1      -5.574   2.194  -1.017  1.00  0.00    -0.288 OA
ATOM     21  H2  UNL     1      -6.299   2.758  -0.773  1.00  0.00     0.244 HD
ENDBRANCH  16  20
ENDBRANCH   6  15
TORSDOF 4
