REMARK  5 active torsions:
REMARK  status: ('A' for Active; 'I' for Inactive)
REMARK    1  A    between atoms: C9_10  and  N2_11 
REMARK       I    between atoms: N2_11  and  C10_13 
REMARK    2  A    between atoms: C10_13  and  C11_15 
REMARK    3  A    between atoms: C14_18  and  N3_19 
REMARK       I    between atoms: N3_19  and  C15_21 
REMARK       I    between atoms: C15_21  and  N4_23 
REMARK    4  A    between atoms: N4_23  and  C16_25 
REMARK    5  A    between atoms: C16_25  and  C17_26 
ROOT
HETATM    1  N1  UNL     1      -7.282  -2.905   1.577  1.00  0.00    -0.191 NA
HETATM    2  C1  UNL     1      -7.544  -1.975   0.922  1.00  0.00     0.100 C 
HETATM    3  C2  UNL     1      -7.874  -0.842   0.096  1.00  0.00     0.055 A 
HETATM    4  C3  UNL     1      -9.188  -0.503  -0.132  1.00  0.00     0.023 A 
HETATM    5  C4  UNL     1      -9.564   0.583  -0.924  1.00  0.00     0.002 A 
HETATM    6  C5  UNL     1      -8.561   1.334  -1.492  1.00  0.00     0.012 A 
HETATM    7  C6  UNL     1      -7.238   1.016  -1.280  1.00  0.00    -0.024 A 
HETATM    8  C7  UNL     1      -6.231   1.763  -1.845  1.00  0.00     0.014 A 
HETATM    9  C8  UNL     1      -4.888   1.445  -1.633  1.00  0.00     0.030 A 
HETATM   10  C9  UNL     1      -4.515   0.389  -0.863  1.00  0.00     0.035 A 
HETATM   11  C25 UNL     1      -5.558  -0.360  -0.296  1.00  0.00     0.043 A 
HETATM   12  C26 UNL     1      -6.880  -0.064  -0.492  1.00  0.00    -0.003 A 
ENDROOT
BRANCH  10  13
HETATM   13  N2  UNL     1      -3.200  -0.003  -0.569  1.00  0.00    -0.323 N 
HETATM   14  C10 UNL     1      -2.043   0.782  -0.722  1.00  0.00     0.256 C 
HETATM   15  O1  UNL     1      -2.090   1.961  -1.148  1.00  0.00    -0.267 OA
ATOM     16  H2  UNL     1      -3.071  -0.949  -0.210  1.00  0.00     0.169 HD
BRANCH  14  17
HETATM   17  C11 UNL     1      -0.704   0.282  -0.396  1.00  0.00     0.032 A 
HETATM   18  C12 UNL     1       0.348   1.131  -0.164  1.00  0.00     0.019 A 
HETATM   19  C13 UNL     1       1.620   0.625   0.137  1.00  0.00     0.030 A 
HETATM   20  C14 UNL     1       1.873  -0.716   0.215  1.00  0.00     0.036 A 
HETATM   21  C23 UNL     1       0.780  -1.547  -0.027  1.00  0.00     0.030 A 
HETATM   22  C24 UNL     1      -0.482  -1.057  -0.326  1.00  0.00     0.019 A 
BRANCH  20  23
HETATM   23  N3  UNL     1       3.108  -1.328   0.526  1.00  0.00    -0.309 N 
HETATM   24  C15 UNL     1       4.271  -0.707   1.029  1.00  0.00     0.320 C 
HETATM   25  O2  UNL     1       4.331   0.512   1.271  1.00  0.00    -0.247 OA
HETATM   26  N4  UNL     1       5.421  -1.481   1.274  1.00  0.00    -0.339 N 
ATOM     27  H4  UNL     1       5.395  -2.483   1.084  1.00  0.00     0.164 HD
ATOM     28  H3  UNL     1       3.165  -2.334   0.369  1.00  0.00     0.170 HD
BRANCH  26  29
HETATM   29  C16 UNL     1       6.630  -0.897   1.784  1.00  0.00     0.162 C 
BRANCH  29  30
HETATM   30  C17 UNL     1       7.324  -0.177   0.688  1.00  0.00    -0.040 A 
HETATM   31  C18 UNL     1       7.967  -0.921  -0.307  1.00  0.00     0.009 A 
HETATM   32  C19 UNL     1       8.635  -0.329  -1.355  1.00  0.00     0.001 A 
HETATM   33  C20 UNL     1       8.694   1.044  -1.461  1.00  0.00     0.000 A 
HETATM   34  C21 UNL     1       8.069   1.801  -0.494  1.00  0.00     0.001 A 
HETATM   35  C22 UNL     1       7.391   1.192   0.569  1.00  0.00     0.009 A 
ENDBRANCH  29  30
ENDBRANCH  26  29
ENDBRANCH  20  23
ENDBRANCH  14  17
ENDBRANCH  10  13
TORSDOF 5
