REMARK  6 active torsions:
REMARK  status: ('A' for Active; 'I' for Inactive)
REMARK       I    between atoms: C1_2  and  N1_3 
REMARK    1  A    between atoms: C1_2  and  C20_29 
REMARK    2  A    between atoms: N1_3  and  C2_4 
REMARK    3  A    between atoms: C6_8  and  C7_9 
REMARK       I    between atoms: C7_9  and  N2_11 
REMARK    4  A    between atoms: N2_11  and  C8_13 
REMARK    5  A    between atoms: C11_16  and  N3_17 
REMARK    6  A    between atoms: N3_17  and  C12_19 
ROOT
HETATM    1  C7  UNL     1       0.144  -1.466  -0.724  1.00  0.00     0.256 C 
HETATM    2  O2  UNL     1       0.390  -1.956   0.385  1.00  0.00    -0.267 OA
HETATM    3  N2  UNL     1       1.103  -0.952  -1.598  1.00  0.00    -0.323 N 
ATOM      4  H2  UNL     1       0.779  -0.576  -2.489  1.00  0.00     0.169 HD
ENDROOT
BRANCH   1   5
HETATM    5  C6  UNL     1      -1.274  -1.429  -1.128  1.00  0.00     0.035 A 
HETATM    6  C5  UNL     1      -1.700  -1.558  -2.421  1.00  0.00     0.017 A 
HETATM    7  C4  UNL     1      -3.037  -1.484  -2.740  1.00  0.00     0.004 A 
HETATM    8  C3  UNL     1      -3.941  -1.275  -1.728  1.00  0.00     0.045 A 
HETATM    9  C2  UNL     1      -3.582  -1.133  -0.383  1.00  0.00     0.112 A 
HETATM   10  C19 UNL     1      -2.207  -1.220  -0.123  1.00  0.00     0.061 A 
BRANCH   9  11
HETATM   11  N1  UNL     1      -4.550  -0.836   0.514  1.00  0.00    -0.367 NA
HETATM   12  C1  UNL     1      -5.512  -0.543   1.411  1.00  0.00     0.326 C 
HETATM   13  O1  UNL     1      -5.560  -0.996   2.610  1.00  0.00    -0.251 OA
BRANCH  12  14
HETATM   14  C20 UNL     1      -6.660   0.373   1.091  1.00  0.00     0.046 A 
HETATM   15  C21 UNL     1      -7.573   0.644   2.079  1.00  0.00     0.018 A 
HETATM   16  C22 UNL     1      -8.659   1.485   1.899  1.00  0.00     0.001 A 
HETATM   17  C23 UNL     1      -8.774   2.052   0.640  1.00  0.00     0.000 A 
HETATM   18  C24 UNL     1      -7.873   1.793  -0.360  1.00  0.00     0.001 A 
HETATM   19  C25 UNL     1      -6.802   0.948  -0.144  1.00  0.00     0.018 A 
ENDBRANCH  12  14
ENDBRANCH   9  11
ENDBRANCH   1   5
BRANCH   3  20
HETATM   20  C8  UNL     1       2.491  -0.916  -1.335  1.00  0.00     0.035 A 
HETATM   21  C9  UNL     1       3.276   0.024  -2.029  1.00  0.00     0.032 A 
HETATM   22  C10 UNL     1       4.633   0.138  -1.848  1.00  0.00     0.032 A 
HETATM   23  C11 UNL     1       5.276  -0.686  -0.957  1.00  0.00     0.033 A 
HETATM   24  C17 UNL     1       4.523  -1.614  -0.268  1.00  0.00     0.032 A 
HETATM   25  C18 UNL     1       3.140  -1.733  -0.452  1.00  0.00     0.032 A 
BRANCH  23  26
HETATM   26  N3  UNL     1       6.689  -0.584  -0.728  1.00  0.00    -0.343 N 
ATOM     27  H3  UNL     1       7.336  -1.247  -1.155  1.00  0.00     0.167 HD
BRANCH  26  28
HETATM   28  C12 UNL     1       7.124   0.368   0.032  1.00  0.00     0.105 A 
HETATM   29  C13 UNL     1       8.503   0.420   0.221  1.00  0.00     0.048 A 
HETATM   30  C14 UNL     1       9.030   1.416   1.024  1.00  0.00     0.005 A 
HETATM   31  C15 UNL     1       8.198   2.325   1.613  1.00  0.00     0.017 A 
HETATM   32  C16 UNL     1       6.821   2.227   1.391  1.00  0.00     0.089 A 
HETATM   33  N4  UNL     1       6.348   1.264   0.619  1.00  0.00    -0.352 N 
ATOM     34  H4  UNL     1       5.341   1.209   0.469  1.00  0.00     0.166 HD
ENDBRANCH  26  28
ENDBRANCH  23  26
ENDBRANCH   3  20
TORSDOF 6
