REMARK  6 active torsions:
REMARK  status: ('A' for Active; 'I' for Inactive)
REMARK    1  A    between atoms: N1_1  and  C1_4 
REMARK    2  A    between atoms: N3_13  and  C8_14 
REMARK    3  A    between atoms: C12_18  and  C13_19 
REMARK    4  A    between atoms: C17_23  and  C18_24 
REMARK       I    between atoms: C18_24  and  N4_26 
REMARK    5  A    between atoms: N4_26  and  C19_28 
REMARK    6  A    between atoms: C19_28  and  C20_29 
ROOT
HETATM    1  C8  UNL     1      -3.488  -0.291   0.730  1.00  0.00     0.058 A 
HETATM    2  C9  UNL     1      -3.505  -1.496   1.397  1.00  0.00     0.030 A 
HETATM    3  C10 UNL     1      -2.431  -2.359   1.418  1.00  0.00     0.003 A 
HETATM    4  C11 UNL     1      -1.265  -2.001   0.731  1.00  0.00     0.012 A 
HETATM    5  C12 UNL     1      -1.222  -0.800   0.055  1.00  0.00    -0.024 A 
HETATM    6  C27 UNL     1      -2.321   0.034   0.060  1.00  0.00     0.043 A 
ENDROOT
BRANCH   5   7
HETATM    7  C13 UNL     1      -0.018  -0.393  -0.679  1.00  0.00    -0.025 A 
HETATM    8  C14 UNL     1      -0.136   0.391  -1.815  1.00  0.00     0.012 A 
HETATM    9  C15 UNL     1       1.021   0.743  -2.473  1.00  0.00     0.002 A 
HETATM   10  C16 UNL     1       2.255   0.307  -1.985  1.00  0.00     0.017 A 
HETATM   11  C17 UNL     1       2.355  -0.471  -0.855  1.00  0.00     0.032 A 
HETATM   12  C26 UNL     1       1.194  -0.828  -0.189  1.00  0.00     0.029 A 
BRANCH  11  13
HETATM   13  C18 UNL     1       3.605  -0.961  -0.307  1.00  0.00     0.251 C 
HETATM   14  O1  UNL     1       3.695  -1.381   0.869  1.00  0.00    -0.268 OA
HETATM   15  N4  UNL     1       4.763  -0.971  -1.117  1.00  0.00    -0.353 N 
ATOM     16  H4  UNL     1       4.674  -0.628  -2.074  1.00  0.00     0.163 HD
BRANCH  15  17
HETATM   17  C19 UNL     1       6.062  -1.431  -0.688  1.00  0.00     0.161 C 
BRANCH  17  18
HETATM   18  C20 UNL     1       6.733  -0.419   0.177  1.00  0.00    -0.041 A 
HETATM   19  C21 UNL     1       7.221  -0.676   1.433  1.00  0.00     0.009 A 
HETATM   20  C22 UNL     1       7.829   0.321   2.168  1.00  0.00     0.001 A 
HETATM   21  C23 UNL     1       7.971   1.611   1.674  1.00  0.00     0.000 A 
HETATM   22  C24 UNL     1       7.478   1.858   0.411  1.00  0.00     0.001 A 
HETATM   23  C25 UNL     1       6.873   0.861  -0.318  1.00  0.00     0.009 A 
ENDBRANCH  17  18
ENDBRANCH  15  17
ENDBRANCH  11  13
ENDBRANCH   5   7
BRANCH   1  24
HETATM   24  N3  UNL     1      -4.642   0.551   0.753  1.00  0.00    -0.146 N 
HETATM   25  C1  UNL     1      -4.730   1.809   1.269  1.00  0.00     0.684 A 
HETATM   26  N2  UNL     1      -5.979   2.281   1.108  1.00  0.00    -0.189 N 
HETATM   27  C2  UNL     1      -6.727   1.346   0.487  1.00  0.00     0.077 A 
ATOM     28  H2  UNL     1      -6.308   3.199   1.407  1.00  0.00     0.184 HD
HETATM   29  C3  UNL     1      -8.057   1.284   0.073  1.00  0.00     0.032 A 
HETATM   30  C7  UNL     1      -5.871   0.287   0.281  1.00  0.00     0.084 A 
HETATM   31  C4  UNL     1      -8.558   0.164  -0.555  1.00  0.00     0.002 A 
HETATM   32  C5  UNL     1      -7.698  -0.892  -0.759  1.00  0.00     0.002 A 
HETATM   33  C6  UNL     1      -6.383  -0.827  -0.347  1.00  0.00     0.033 A 
BRANCH  25  34
HETATM   34  N1  UNL     1      -3.707   2.398   1.821  1.00  0.00    -0.234 N 
ATOM     35  H12 UNL     1      -3.773   3.340   2.207  1.00  0.00     0.174 HD
ATOM     36  H11 UNL     1      -2.760   2.040   1.943  1.00  0.00     0.174 HD
ENDBRANCH  25  34
ENDBRANCH   1  24
TORSDOF 6
