REMARK  2 active torsions:
REMARK  status: ('A' for Active; 'I' for Inactive)
REMARK    1  A    between atoms: O1_1  and  C1_3 
REMARK    2  A    between atoms: N1_4  and  O2_5 
ROOT
HETATM    1  C1  UNL     1      -0.880  -1.176   0.566  1.00  0.00     0.226 C 
HETATM    2  N1  UNL     1      -2.170  -0.711   1.010  1.00  0.00    -0.170 NA
HETATM    3  C2  UNL     1      -2.672   0.004  -0.126  1.00  0.00     0.124 C 
HETATM    4  C3  UNL     1      -1.462   0.614  -0.830  1.00  0.00     0.030 C 
HETATM    5  C4  UNL     1      -0.249  -0.035  -0.198  1.00  0.00     0.002 C 
HETATM    6  C5  UNL     1       0.724  -0.548  -1.257  1.00  0.00     0.013 C 
HETATM    7  C6  UNL     1       1.822   0.462  -1.494  1.00  0.00     0.001 C 
HETATM    8  C7  UNL     1       2.731   0.508  -0.277  1.00  0.00     0.000 C 
HETATM    9  C8  UNL     1       1.883   0.251   0.938  1.00  0.00     0.001 C 
HETATM   10  C9  UNL     1       0.521   0.905   0.685  1.00  0.00     0.013 C 
ENDROOT
BRANCH   1  11
HETATM   11  O1  UNL     1      -1.128  -2.192  -0.382  1.00  0.00    -0.378 OA
ATOM     12  H1  UNL     1      -0.278  -2.498  -0.675  1.00  0.00     0.211 HD
ENDBRANCH   1  11
BRANCH   2  13
HETATM   13  O2  UNL     1      -2.130   0.003   2.141  1.00  0.00    -0.311 OA
ATOM     14  H2  UNL     1      -2.980   0.309   2.434  1.00  0.00     0.237 HD
ENDBRANCH   2  13
TORSDOF 2
