REMARK  0 active torsions:
REMARK  status: ('A' for Active; 'I' for Inactive)
ROOT
HETATM    1  C1  UNL     1      -2.668   0.026  -0.636  1.00  0.00     0.002 C 
HETATM    2  C2  UNL     1      -2.572   0.488   0.790  1.00  0.00     0.019 C 
HETATM    3  C3  UNL     1      -1.385   1.324   1.091  1.00  0.00     0.117 C 
HETATM    4  N1  UNL     1      -0.338   1.292   0.135  1.00  0.00    -0.390 N 
ATOM      5  H1  UNL     1      -0.125   2.090  -0.464  1.00  0.00     0.156 HD
HETATM    6  C4  UNL     1       0.398   0.071   0.065  1.00  0.00     0.154 C 
HETATM    7  C5  UNL     1      -0.520  -1.125  -0.023  1.00  0.00     0.062 C 
HETATM    8  C6  UNL     1      -1.591  -0.910  -1.049  1.00  0.00     0.005 C 
HETATM    9  C7  UNL     1       1.346   0.149  -1.110  1.00  0.00     0.292 C 
HETATM   10  N2  UNL     1       2.616   0.769  -0.732  1.00  0.00    -0.069 N 
ATOM     11  H21 UNL     1       2.483   1.725  -0.401  1.00  0.00     0.277 HD
ATOM     12  H22 UNL     1       3.195   0.965  -1.549  1.00  0.00     0.277 HD
HETATM   13  C8  UNL     1       3.327  -0.040   0.245  1.00  0.00     0.258 C 
HETATM   14  C9  UNL     1       2.299  -0.909   0.948  1.00  0.00     0.198 C 
HETATM   15  O1  UNL     1       1.196  -0.100   1.208  1.00  0.00    -0.358 OA
ENDROOT
TORSDOF 0
