REMARK  2 active torsions:
REMARK  status: ('A' for Active; 'I' for Inactive)
REMARK    1  A    between atoms: O1_1  and  C1_3 
REMARK    2  A    between atoms: C9_11  and  O2_12 
ROOT
HETATM    1  C1  UNL     1       1.725   0.628  -0.299  1.00  0.00     0.152 C 
HETATM    2  C2  UNL     1       2.330  -0.611   0.366  1.00  0.00     0.035 C 
HETATM    3  C3  UNL     1       1.200  -1.640   0.386  1.00  0.00     0.010 C 
HETATM    4  C4  UNL     1       0.044  -0.953  -0.275  1.00  0.00     0.023 C 
HETATM    5  C5  UNL     1      -1.292  -1.320   0.276  1.00  0.00     0.007 C 
HETATM    6  C6  UNL     1      -2.300  -0.441  -0.459  1.00  0.00     0.001 C 
HETATM    7  C7  UNL     1      -2.058   1.025  -0.187  1.00  0.00     0.003 C 
HETATM    8  C8  UNL     1      -0.645   1.450  -0.486  1.00  0.00     0.041 C 
HETATM    9  C9  UNL     1       0.311   0.495   0.147  1.00  0.00     0.087 C 
ENDROOT
BRANCH   1  10
HETATM   10  O1  UNL     1       2.354   1.781   0.066  1.00  0.00    -0.393 OA
ATOM     11  H1  UNL     1       1.979   2.550  -0.347  1.00  0.00     0.210 HD
ENDBRANCH   1  10
BRANCH   9  12
HETATM   12  O2  UNL     1       0.275   0.505   1.528  1.00  0.00    -0.387 OA
ATOM     13  H2  UNL     1      -0.627   0.420   1.813  1.00  0.00     0.210 HD
ENDBRANCH   9  12
TORSDOF 2
