REMARK  3 active torsions:
REMARK  status: ('A' for Active; 'I' for Inactive)
REMARK    1  A    between atoms: C2_2  and  N1_4 
REMARK    2  A    between atoms: C7_8  and  O1_9 
REMARK    3  A    between atoms: C8_11  and  O2_12 
ROOT
HETATM    1  N1  UNL     1      -0.296   0.047  -0.041  1.00  0.00    -0.361 N 
HETATM    2  C4  UNL     1       0.189  -1.025   0.731  1.00  0.00     0.061 C 
HETATM    3  C5  UNL     1       1.387  -1.589  -0.013  1.00  0.00     0.047 C 
HETATM    4  C6  UNL     1       2.442  -0.540  -0.013  1.00  0.00     0.041 C 
HETATM    5  C7  UNL     1       2.020   0.857  -0.224  1.00  0.00     0.167 C 
HETATM    6  C8  UNL     1       0.568   1.156  -0.078  1.00  0.00     0.248 C 
ENDROOT
BRANCH   1   7
HETATM    7  C2  UNL     1      -1.642   0.202  -0.297  1.00  0.00     0.078 C 
HETATM    8  C1  UNL     1      -2.447   0.430   0.988  1.00  0.00     0.032 C 
HETATM    9  C3  UNL     1      -2.323  -0.920  -1.029  1.00  0.00     0.032 C 
ENDBRANCH   1   7
BRANCH   6  10
HETATM   10  O2  UNL     1       0.352   1.886   1.117  1.00  0.00    -0.374 OA
ATOM     11  H2  UNL     1       0.936   2.635   1.092  1.00  0.00     0.212 HD
ENDBRANCH   6  10
BRANCH   5  12
HETATM   12  O1  UNL     1       2.498   1.279  -1.483  1.00  0.00    -0.391 OA
ATOM     13  H1  UNL     1       2.226   2.179  -1.619  1.00  0.00     0.210 HD
ENDBRANCH   5  12
TORSDOF 3
