REMARK  8 active torsions:
REMARK  status: ('A' for Active; 'I' for Inactive)
REMARK    1  A    between atoms: C2_5  and  C3_6 
REMARK    2  A    between atoms: C2_5  and  C6_14 
REMARK    3  A    between atoms: C3_6  and  N3_7 
REMARK    4  A    between atoms: C6_14  and  N6_15 
REMARK    5  A    between atoms: C8_21  and  N9_22 
REMARK    6  A    between atoms: C9_27  and  N11_28 
REMARK    7  A    between atoms: C11_32  and  C12_33 
REMARK    8  A    between atoms: C13_42  and  N16_43 
ROOT
HETATM    1  N1  UNL     1       4.347  -3.310  -1.866  1.00  0.00    -0.172 NA
HETATM    2  C1  UNL     1       3.721  -2.871  -1.012  1.00  0.00     0.181 C 
HETATM    3  N2  UNL     1       2.951  -2.354   0.022  1.00  0.00    -0.298 N 
ATOM      4  H2  UNL     1       2.702  -2.974   0.792  1.00  0.00     0.177 HD
HETATM    5  C2  UNL     1       2.533  -1.134   0.064  1.00  0.00     0.036 C 
ENDROOT
BRANCH   5   6
HETATM    6  C3  UNL     1       2.902  -0.242  -1.063  1.00  0.00     0.204 C 
BRANCH   6   7
HETATM    7  N3  UNL     1       3.748   0.862  -0.662  1.00  0.00    -0.282 N 
HETATM    8  C4  UNL     1       5.111   0.770  -0.661  1.00  0.00     0.130 A 
HETATM    9  C5  UNL     1       5.639   1.971  -0.236  1.00  0.00     0.127 A 
HETATM   10  N4  UNL     1       4.574   2.763   0.011  1.00  0.00    -0.296 N 
HETATM   11  N5  UNL     1       3.504   2.070  -0.253  1.00  0.00    -0.241 N 
ATOM     12  H4  UNL     1       4.602   3.727   0.343  1.00  0.00     0.187 HD
ATOM     13  H5  UNL     1       2.560   2.442  -0.148  1.00  0.00     0.208 HD
ENDBRANCH   6   7
ENDBRANCH   5   6
BRANCH   5  14
HETATM   14  C6  UNL     1       1.726  -0.651   1.179  1.00  0.00     0.205 C 
BRANCH  14  15
HETATM   15  N6  UNL     1       0.378  -0.240   0.815  1.00  0.00    -0.269 N 
HETATM   16  N7  UNL     1       0.055   0.993   0.454  1.00  0.00    -0.280 N 
HETATM   17  C7  UNL     1      -1.184   1.361   0.124  1.00  0.00     0.150 A 
ATOM     18  H7  UNL     1       0.792   1.698   0.427  1.00  0.00     0.189 HD
HETATM   19  N8  UNL     1      -1.486   2.613  -0.238  1.00  0.00    -0.175 N 
HETATM   20  C10 UNL     1      -2.232   0.433   0.146  1.00  0.00     0.072 A 
HETATM   21  C8  UNL     1      -2.697   3.040  -0.576  1.00  0.00     0.679 A 
ATOM     22  H8  UNL     1      -0.726   3.293  -0.256  1.00  0.00     0.186 HD
HETATM   23  N10 UNL     1      -3.697   2.147  -0.553  1.00  0.00    -0.176 N 
HETATM   24  C9  UNL     1      -3.489   0.870  -0.204  1.00  0.00     0.130 A 
ATOM     25  H10 UNL     1      -4.638   2.447  -0.807  1.00  0.00     0.186 HD
HETATM   26  C11 UNL     1      -1.943  -0.849   0.512  1.00  0.00     0.073 A 
HETATM   27  C13 UNL     1      -0.604  -1.126   0.840  1.00  0.00     0.131 A 
BRANCH  21  28
HETATM   28  N9  UNL     1      -2.953   4.257  -0.920  1.00  0.00    -0.234 N 
ATOM     29  H92 UNL     1      -2.192   4.936  -0.937  1.00  0.00     0.174 HD
ATOM     30  H91 UNL     1      -3.883   4.585  -1.180  1.00  0.00     0.174 HD
ENDBRANCH  21  28
BRANCH  24  31
HETATM   31  N11 UNL     1      -4.479   0.065  -0.200  1.00  0.00    -0.384 N 
ATOM     32 2H11 UNL     1      -5.411   0.389  -0.459  1.00  0.00     0.157 HD
ATOM     33 1H11 UNL     1      -4.321  -0.907   0.066  1.00  0.00     0.157 HD
ENDBRANCH  24  31
BRANCH  26  34
HETATM   34  C12 UNL     1      -2.933  -1.889   0.570  1.00  0.00     0.152 A 
HETATM   35  N12 UNL     1      -3.283  -2.732  -0.409  1.00  0.00    -0.268 N 
HETATM   36  N13 UNL     1      -4.211  -3.575   0.069  1.00  0.00    -0.227 N 
ATOM     37  H12 UNL     1      -2.908  -2.733  -1.358  1.00  0.00     0.190 HD
HETATM   38  N14 UNL     1      -4.450  -3.275   1.331  1.00  0.00    -0.227 N 
ATOM     39  H13 UNL     1      -4.659  -4.325  -0.458  1.00  0.00     0.210 HD
HETATM   40  N15 UNL     1      -3.661  -2.235   1.637  1.00  0.00    -0.268 N 
ATOM     41  H14 UNL     1      -5.108  -3.744   1.954  1.00  0.00     0.210 HD
ATOM     42  H15 UNL     1      -3.622  -1.776   2.547  1.00  0.00     0.190 HD
ENDBRANCH  26  34
BRANCH  27  43
HETATM   43  N16 UNL     1      -0.346  -2.339   1.184  1.00  0.00    -0.383 N 
ATOM     44 2H16 UNL     1       0.625  -2.540   1.422  1.00  0.00     0.157 HD
ATOM     45 1H16 UNL     1      -1.103  -3.022   1.203  1.00  0.00     0.157 HD
ENDBRANCH  27  43
ENDBRANCH  14  15
ENDBRANCH   5  14
TORSDOF 8
