REMARK  8 active torsions:
REMARK  status: ('A' for Active; 'I' for Inactive)
REMARK    1  A    between atoms: S1_2  and  C2_5 
REMARK    2  A    between atoms: N3_10  and  C3_11 
REMARK    3  A    between atoms: C4_14  and  N5_15 
REMARK    4  A    between atoms: C5_18  and  C6_19 
REMARK    5  A    between atoms: C6_19  and  N6_20 
REMARK    6  A    between atoms: C6_19  and  O3_24 
REMARK    7  A    between atoms: C7_26  and  N7_27 
REMARK    8  A    between atoms: N8_30  and  O4_31 
ROOT
HETATM    1  C3  UNL     1       1.520  -1.119  -0.717  1.00  0.00     0.723 A 
HETATM    2  N4  UNL     1       1.149  -2.372  -0.984  1.00  0.00    -0.173 N 
ATOM      3  H4  UNL     1       1.873  -3.058  -1.198  1.00  0.00     0.186 HD
HETATM    4  C4  UNL     1      -0.159  -2.782  -0.984  1.00  0.00     0.129 A 
HETATM    5  C5  UNL     1      -1.119  -1.794  -0.680  1.00  0.00     0.086 A 
HETATM    6  C7  UNL     1      -0.740  -0.523  -0.410  1.00  0.00     0.134 A 
HETATM    7  N9  UNL     1       0.594  -0.189  -0.431  1.00  0.00    -0.173 N 
ATOM      8  H9  UNL     1       0.881   0.769  -0.229  1.00  0.00     0.186 HD
ENDROOT
BRANCH   1   9
HETATM    9  N3  UNL     1       2.918  -0.779  -0.740  1.00  0.00    -0.003 N 
HETATM   10  N2  UNL     1       3.722  -0.740  -1.779  1.00  0.00    -0.204 N 
HETATM   11  N1  UNL     1       4.919  -0.382  -1.356  1.00  0.00    -0.258 N 
ATOM     12  H2  UNL     1       3.465  -0.950  -2.744  1.00  0.00     0.211 HD
HETATM   13  C2  UNL     1       4.852  -0.195  -0.023  1.00  0.00     0.235 A 
ATOM     14  H1  UNL     1       5.750  -0.267  -1.936  1.00  0.00     0.191 HD
HETATM   15  N10 UNL     1       3.591  -0.450   0.334  1.00  0.00    -0.237 N 
ATOM     16  H10 UNL     1       3.216  -0.398   1.281  1.00  0.00     0.192 HD
BRANCH  13  17
HETATM   17  S1  UNL     1       6.228   0.288   0.934  1.00  0.00     0.206 S 
HETATM   18  C1  UNL     1       6.329   2.050   1.032  1.00  0.00     0.170 C 
HETATM   19  O1  UNL     1       7.519  -0.254   0.339  1.00  0.00    -0.220 OA
HETATM   20  O2  UNL     1       6.125  -0.274   2.325  1.00  0.00    -0.220 OA
ENDBRANCH  13  17
ENDBRANCH   1   9
BRANCH   4  21
HETATM   21  N5  UNL     1      -0.416  -3.971  -1.270  1.00  0.00    -0.384 N 
ATOM     22  H52 UNL     1       0.278  -4.685  -1.490  1.00  0.00     0.157 HD
ATOM     23  H51 UNL     1      -1.389  -4.276  -1.270  1.00  0.00     0.157 HD
ENDBRANCH   4  21
BRANCH   6  24
HETATM   24  N7  UNL     1      -1.682   0.509  -0.103  1.00  0.00    -0.360 N 
HETATM   25  C8  UNL     1      -2.261   1.306  -1.133  1.00  0.00     0.147 C 
HETATM   26  C9  UNL     1      -3.375   2.189  -0.741  1.00  0.00     0.174 C 
HETATM   27  N8  UNL     1      -3.350   2.602   0.632  1.00  0.00    -0.273 N 
HETATM   28  C10 UNL     1      -3.126   1.556   1.549  1.00  0.00     0.109 C 
HETATM   29  C11 UNL     1      -1.938   0.719   1.277  1.00  0.00     0.171 C 
BRANCH  27  30
HETATM   30  O4  UNL     1      -2.734   3.746   0.878  1.00  0.00    -0.288 OA
ATOM     31  H4  UNL     1      -2.717   4.020   1.788  1.00  0.00     0.244 HD
ENDBRANCH  27  30
ENDBRANCH   6  24
BRANCH   5  32
HETATM   32  C6  UNL     1      -2.492  -2.254  -0.644  1.00  0.00     0.358 C 
BRANCH  32  33
HETATM   33  N6  UNL     1      -2.698  -3.480   0.143  1.00  0.00    -0.049 N 
ATOM     34  H63 UNL     1      -2.082  -4.223  -0.186  1.00  0.00     0.277 HD
ATOM     35  H62 UNL     1      -2.337  -3.361   1.089  1.00  0.00     0.277 HD
ATOM     36  H61 UNL     1      -3.665  -3.804   0.168  1.00  0.00     0.277 HD
ENDBRANCH  32  33
BRANCH  32  37
HETATM   37  O3  UNL     1      -3.490  -1.412  -0.318  1.00  0.00    -0.366 OA
ATOM     38  H3  UNL     1      -4.391  -1.714  -0.294  1.00  0.00     0.212 HD
ENDBRANCH  32  37
ENDBRANCH   5  32
TORSDOF 8
