REMARK  11 active torsions:
REMARK  status: ('A' for Active; 'I' for Inactive)
REMARK    1  A    between atoms: N1_2  and  C2_4 
REMARK    2  A    between atoms: C3_7  and  N3_8 
REMARK    3  A    between atoms: N3_8  and  N4_10 
REMARK    4  A    between atoms: C6_14  and  N6_15 
REMARK    5  A    between atoms: N6_15  and  C7_17 
REMARK    6  A    between atoms: C7_17  and  O1_18 
REMARK    7  A    between atoms: C7_17  and  C8_20 
REMARK    8  A    between atoms: C9_21  and  O2_22 
REMARK    9  A    between atoms: N8_28  and  O4_29 
REMARK   10  A    between atoms: C12_31  and  N9_32 
REMARK   11  A    between atoms: N9_32  and  O5_34 
ROOT
HETATM    1  C7  UNL     1      -0.985   0.043   0.812  1.00  0.00     0.277 C 
ENDROOT
BRANCH   1   2
HETATM    2  N6  UNL     1      -0.123  -1.075   0.508  1.00  0.00    -0.194 N 
ATOM      3  H6  UNL     1      -0.496  -2.023   0.564  1.00  0.00     0.180 HD
BRANCH   2   4
HETATM    4  C6  UNL     1       1.125  -0.898   0.163  1.00  0.00     0.709 A 
HETATM    5  N5  UNL     1       1.693   0.311   0.064  1.00  0.00    -0.020 N 
HETATM    6  C3  UNL     1       2.974   0.495  -0.290  1.00  0.00     0.724 A 
ATOM      7  H5  UNL     1       1.124   1.132   0.268  1.00  0.00     0.203 HD
HETATM    8  N2  UNL     1       3.736  -0.578  -0.563  1.00  0.00    -0.020 N 
HETATM    9  C2  UNL     1       3.207  -1.802  -0.477  1.00  0.00     0.706 A 
ATOM     10  H2  UNL     1       4.712  -0.459  -0.834  1.00  0.00     0.203 HD
HETATM   11  N10 UNL     1       1.924  -1.941  -0.119  1.00  0.00    -0.021 N 
ATOM     12  H10 UNL     1       1.535  -2.882  -0.058  1.00  0.00     0.203 HD
BRANCH   6  13
HETATM   13  N3  UNL     1       3.535   1.825  -0.380  1.00  0.00    -0.132 N 
HETATM   14  C4  UNL     1       2.661   2.936  -0.073  1.00  0.00     0.192 C 
BRANCH  13  15
HETATM   15  N4  UNL     1       4.847   2.001  -0.744  1.00  0.00    -0.129 NA
HETATM   16  C5  UNL     1       5.778   1.938   0.350  1.00  0.00     0.159 C 
ENDBRANCH  13  15
ENDBRANCH   6  13
BRANCH   9  17
HETATM   17  N1  UNL     1       3.939  -2.828  -0.739  1.00  0.00    -0.229 N 
HETATM   18  C1  UNL     1       3.374  -4.140  -0.647  1.00  0.00     0.165 C 
ATOM     19  H1  UNL     1       4.915  -2.707  -1.010  1.00  0.00     0.177 HD
ENDBRANCH   9  17
ENDBRANCH   2   4
ENDBRANCH   1   2
BRANCH   1  20
HETATM   20  O1  UNL     1      -0.961   0.221   2.193  1.00  0.00    -0.372 OA
ATOM     21  H1  UNL     1      -1.528   0.956   2.393  1.00  0.00     0.212 HD
ENDBRANCH   1  20
BRANCH   1  22
HETATM   22  C8  UNL     1      -2.357  -0.311   0.335  1.00  0.00     0.089 A 
HETATM   23  C9  UNL     1      -2.915  -1.547   0.577  1.00  0.00     0.160 A 
HETATM   24  N7  UNL     1      -4.148  -1.886   0.157  1.00  0.00    -0.282 N 
HETATM   25  C10 UNL     1      -4.709  -3.200   0.428  1.00  0.00     0.163 C 
HETATM   26  C11 UNL     1      -4.842  -0.959  -0.525  1.00  0.00     0.356 A 
HETATM   27  O3  UNL     1      -6.011  -1.262  -0.931  1.00  0.00    -0.244 OA
HETATM   28  N8  UNL     1      -4.328   0.257  -0.778  1.00  0.00    -0.153 N 
HETATM   29  C12 UNL     1      -3.092   0.618  -0.366  1.00  0.00     0.172 A 
BRANCH  23  30
HETATM   30  O2  UNL     1      -2.199  -2.491   1.276  1.00  0.00    -0.345 OA
ATOM     31  H2  UNL     1      -2.584  -3.343   1.443  1.00  0.00     0.219 HD
ENDBRANCH  23  30
BRANCH  28  32
HETATM   32  O4  UNL     1      -5.049   1.191  -1.476  1.00  0.00    -0.277 OA
ATOM     33  H4  UNL     1      -4.686   2.050  -1.655  1.00  0.00     0.245 HD
ENDBRANCH  28  32
BRANCH  29  34
HETATM   34  N9  UNL     1      -2.602   1.782  -0.609  1.00  0.00    -0.248 N 
ATOM     35  H9  UNL     1      -1.664   2.001  -0.273  1.00  0.00     0.196 HD
BRANCH  34  36
HETATM   36  O5  UNL     1      -3.289   2.731  -1.297  1.00  0.00    -0.284 OA
HETATM   37  C13 UNL     1      -3.458   4.050  -0.772  1.00  0.00     0.237 C 
ENDBRANCH  34  36
ENDBRANCH  29  34
ENDBRANCH   1  22
TORSDOF 11
