REMARK  8 active torsions:
REMARK  status: ('A' for Active; 'I' for Inactive)
REMARK    1  A    between atoms: O1_2  and  C2_3 
REMARK    2  A    between atoms: C2_3  and  C3_5 
REMARK       I    between atoms: C3_5  and  N1_7 
REMARK    3  A    between atoms: N1_7  and  N2_9 
REMARK    4  A    between atoms: C4_11  and  C5_12 
REMARK    5  A    between atoms: C7_19  and  S1_20 
REMARK    6  A    between atoms: S1_20  and  C8_21 
REMARK    7  A    between atoms: C10_27  and  N8_28 
REMARK    8  A    between atoms: N9_30  and  N10_32 
ROOT
HETATM    1  C5  UNL     1      -0.875  -0.686  -1.719  1.00  0.00     0.058 A 
HETATM    2  C6  UNL     1      -1.115  -1.943  -2.259  1.00  0.00     0.145 A 
HETATM    3  N3  UNL     1      -2.374  -2.604  -2.238  1.00  0.00    -0.080 NA
HETATM    4  N4  UNL     1       0.052  -2.365  -2.778  1.00  0.00    -0.286 N 
ATOM      5  H4  UNL     1       0.185  -3.261  -3.247  1.00  0.00     0.188 HD
HETATM    6  N5  UNL     1       1.004  -1.464  -2.600  1.00  0.00    -0.292 N 
ATOM      7  H5  UNL     1       1.975  -1.545  -2.900  1.00  0.00     0.187 HD
HETATM    8  C7  UNL     1       0.460  -0.428  -1.955  1.00  0.00     0.103 A 
ENDROOT
BRANCH   8   9
HETATM    9  S1  UNL     1       1.282   1.098  -1.442  1.00  0.00    -0.080 SA
BRANCH   9  10
HETATM   10  C8  UNL     1       1.950   0.890   0.199  1.00  0.00     0.088 C 
HETATM   11  C9  UNL     1       3.149   0.426   0.422  1.00  0.00     0.123 A 
HETATM   12  N6  UNL     1       3.989   0.058  -0.673  1.00  0.00    -0.281 N 
HETATM   13  C11 UNL     1       3.660   0.270   1.773  1.00  0.00     0.288 A 
HETATM   14  N7  UNL     1       5.257  -0.431  -0.378  1.00  0.00    -0.130 N 
ATOM     15  H6  UNL     1       3.670   0.151  -1.637  1.00  0.00     0.188 HD
HETATM   16  C10 UNL     1       5.738  -0.581   0.809  1.00  0.00     0.715 A 
ATOM     17  H7  UNL     1       5.854  -0.692  -1.163  1.00  0.00     0.205 HD
HETATM   18  N11 UNL     1       4.968  -0.239   1.950  1.00  0.00    -0.151 N 
ATOM     19  H11 UNL     1       5.353  -0.359   2.887  1.00  0.00     0.188 HD
HETATM   20  O4  UNL     1       2.963   0.579   2.794  1.00  0.00    -0.265 OA
BRANCH  16  21
HETATM   21  N8  UNL     1       7.076  -1.102   0.964  1.00  0.00    -0.117 N 
HETATM   22  N9  UNL     1       8.055  -0.315   0.828  1.00  0.00    -0.235 N 
ATOM     23  H9  UNL     1       8.997  -0.691   0.939  1.00  0.00     0.208 HD
ATOM     24  H8  UNL     1       7.228  -2.087   1.179  1.00  0.00     0.207 HD
BRANCH  22  25
HETATM   25  N10 UNL     1       7.914   1.044   0.533  1.00  0.00    -0.330 N 
ATOM     26 2H10 UNL     1       6.965   1.403   0.425  1.00  0.00     0.178 HD
ATOM     27 1H10 UNL     1       8.704   1.679   0.423  1.00  0.00     0.178 HD
ENDBRANCH  22  25
ENDBRANCH  16  21
ENDBRANCH   9  10
ENDBRANCH   8   9
BRANCH   1  28
HETATM   28  C4  UNL     1      -1.834   0.173  -1.047  1.00  0.00     0.125 C 
HETATM   29  N2  UNL     1      -3.061  -0.140  -0.866  1.00  0.00    -0.308 N 
ATOM     30  H2  UNL     1      -3.372  -1.046  -1.218  1.00  0.00     0.186 HD
BRANCH  29  31
HETATM   31  N1  UNL     1      -3.995   0.649  -0.234  1.00  0.00    -0.262 N 
HETATM   32  C3  UNL     1      -4.996   0.053   0.593  1.00  0.00     0.335 C 
HETATM   33  O3  UNL     1      -5.050  -1.196   0.764  1.00  0.00    -0.260 OA
ATOM     34  H1  UNL     1      -3.972   1.661  -0.356  1.00  0.00     0.190 HD
BRANCH  32  35
HETATM   35  C2  UNL     1      -5.986   0.870   1.265  1.00  0.00     0.352 C 
HETATM   36  O2  UNL     1      -5.945   2.138   1.102  1.00  0.00    -0.254 OA
BRANCH  35  37
HETATM   37  O1  UNL     1      -6.959   0.299   2.068  1.00  0.00    -0.319 OA
HETATM   38  C1  UNL     1      -7.893   1.153   2.694  1.00  0.00     0.213 C 
ENDBRANCH  35  37
ENDBRANCH  32  35
ENDBRANCH  29  31
ENDBRANCH   1  28
TORSDOF 8
