REMARK  11 active torsions:
REMARK  status: ('A' for Active; 'I' for Inactive)
REMARK    1  A    between atoms: S1_2  and  C2_3 
REMARK    2  A    between atoms: C2_3  and  C3_4 
REMARK    3  A    between atoms: C4_6  and  N1_7 
REMARK       I    between atoms: N1_7  and  C5_9 
REMARK       I    between atoms: C5_9  and  N3_11 
REMARK    4  A    between atoms: N3_11  and  N4_13 
REMARK    5  A    between atoms: N4_13  and  C6_15 
REMARK    6  A    between atoms: C6_15  and  C8_17 
REMARK    7  A    between atoms: N7_22  and  N8_23 
REMARK    8  A    between atoms: N8_23  and  N9_24 
REMARK    9  A    between atoms: N8_23  and  N10_27 
REMARK   10  A    between atoms: N10_27  and  N11_28 
REMARK   11  A    between atoms: C9_35  and  O1_36 
ROOT
HETATM    1  N4  UNL     1      -0.898  -0.044   0.261  1.00  0.00    -0.299 N 
ATOM      2  H4  UNL     1      -0.636   0.940   0.319  1.00  0.00     0.186 HD
ENDROOT
BRANCH   1   3
HETATM    3  N3  UNL     1       0.012  -1.018   0.205  1.00  0.00    -0.273 N 
HETATM    4  C5  UNL     1       1.090  -1.401   0.634  1.00  0.00     0.209 C 
HETATM    5  N1  UNL     1       1.964  -0.790   1.558  1.00  0.00    -0.309 N 
HETATM    6  N2  UNL     1       1.611  -2.666   0.094  1.00  0.00    -0.062 NA
ATOM      7  H1  UNL     1       1.749  -0.772   2.555  1.00  0.00     0.170 HD
ATOM      8  H3  UNL     1      -0.325  -1.718  -0.456  1.00  0.00     0.189 HD
BRANCH   5   9
HETATM    9  C4  UNL     1       3.065  -0.244   1.090  1.00  0.00     0.153 A 
HETATM   10  S2  UNL     1       4.318   0.554   1.954  1.00  0.00    -0.053 SA
HETATM   11  C3  UNL     1       5.309   0.951   0.611  1.00  0.00     0.046 A 
HETATM   12  C9  UNL     1       4.603   0.441  -0.440  1.00  0.00     0.156 A 
HETATM   13  N13 UNL     1       3.482  -0.154  -0.185  1.00  0.00    -0.316 N 
ATOM     14  H13 UNL     1       2.923  -0.549  -0.941  1.00  0.00     0.170 HD
BRANCH  11  15
HETATM   15  C2  UNL     1       6.600   1.745   0.510  1.00  0.00     0.124 C 
BRANCH  15  16
HETATM   16  S1  UNL     1       7.856   0.617  -0.172  1.00  0.00    -0.168 SA
HETATM   17  C1  UNL     1       7.996  -0.882   0.800  1.00  0.00     0.090 C 
ENDBRANCH  15  16
ENDBRANCH  11  15
BRANCH  12  18
HETATM   18  O1  UNL     1       5.123   0.573  -1.758  1.00  0.00    -0.345 OA
ATOM     19  H1  UNL     1       4.632   0.218  -2.489  1.00  0.00     0.219 HD
ENDBRANCH  12  18
ENDBRANCH   5   9
ENDBRANCH   1   3
BRANCH   1  20
HETATM   20  C6  UNL     1      -2.155  -0.434   0.237  1.00  0.00     0.068 C 
HETATM   21  C7  UNL     1      -2.532  -1.858   0.150  1.00  0.00     0.074 C 
BRANCH  20  22
HETATM   22  C8  UNL     1      -3.207   0.558   0.240  1.00  0.00     0.163 A 
HETATM   23  N5  UNL     1      -3.177   1.861   0.407  1.00  0.00    -0.265 N 
HETATM   24  N6  UNL     1      -4.387   2.369   0.198  1.00  0.00    -0.202 N 
ATOM     25  H5  UNL     1      -2.349   2.401   0.659  1.00  0.00     0.190 HD
HETATM   26  N7  UNL     1      -5.223   1.406  -0.119  1.00  0.00    -0.079 N 
ATOM     27  H6  UNL     1      -4.630   3.357   0.272  1.00  0.00     0.212 HD
HETATM   28  N12 UNL     1      -4.524   0.268  -0.096  1.00  0.00    -0.242 N 
ATOM     29  H12 UNL     1      -4.896  -0.661  -0.293  1.00  0.00     0.192 HD
BRANCH  26  30
HETATM   30  N8  UNL     1      -6.597   1.498  -0.467  1.00  0.00    -0.084 N 
BRANCH  30  31
HETATM   31  N9  UNL     1      -7.209   2.730  -0.447  1.00  0.00    -0.307 N 
ATOM     32  H92 UNL     1      -6.696   3.549  -0.120  1.00  0.00     0.180 HD
ATOM     33  H91 UNL     1      -8.196   2.796  -0.697  1.00  0.00     0.180 HD
ENDBRANCH  30  31
BRANCH  30  34
HETATM   34  N10 UNL     1      -7.300   0.375  -0.916  1.00  0.00     0.013 NA
BRANCH  34  35
HETATM   35  N11 UNL     1      -8.575   0.319  -0.425  1.00  0.00    -0.326 N 
ATOM     36 2H11 UNL     1      -8.958   1.028   0.201  1.00  0.00     0.174 HD
ATOM     37 1H11 UNL     1      -9.088  -0.500  -0.752  1.00  0.00     0.174 HD
ENDBRANCH  34  35
ENDBRANCH  30  34
ENDBRANCH  26  30
ENDBRANCH  20  22
ENDBRANCH   1  20
TORSDOF 11
