REMARK  2 active torsions:
REMARK  status: ('A' for Active; 'I' for Inactive)
REMARK       I    between atoms: N1_1  and  C1_5 
REMARK       I    between atoms: C1_5  and  N2_6 
REMARK       I    between atoms: C1_5  and  N3_10 
REMARK    1  A    between atoms: N3_10  and  N4_12 
REMARK    2  A    between atoms: C2_14  and  C3_15 
ROOT
HETATM    1  N1  UNL     1      -3.066  -1.135   0.707  1.00  0.00    -0.032 N 
ATOM      2  H11 UNL     1      -2.554  -2.016   0.752  1.00  0.00     0.279 HD
ATOM      3  H12 UNL     1      -3.962  -1.216   0.226  1.00  0.00     0.279 HD
ATOM      4  H13 UNL     1      -3.430  -0.836   1.612  1.00  0.00     0.279 HD
HETATM    5  C1  UNL     1      -2.172  -0.152   0.094  1.00  0.00     0.494 C 
HETATM    6  N2  UNL     1      -2.895   1.092   0.030  1.00  0.00    -0.032 N 
ATOM      7  H21 UNL     1      -2.272   1.777  -0.397  1.00  0.00     0.279 HD
ATOM      8  H22 UNL     1      -3.259   1.391   0.935  1.00  0.00     0.279 HD
ATOM      9  H23 UNL     1      -3.791   1.011  -0.451  1.00  0.00     0.279 HD
HETATM   10  N3  UNL     1      -0.996  -0.076   0.929  1.00  0.00    -0.284 N 
ATOM     11  H3  UNL     1      -0.729   0.805   1.368  1.00  0.00     0.184 HD
ENDROOT
BRANCH  10  12
HETATM   12  N4  UNL     1      -0.240  -1.211   1.123  1.00  0.00    -0.311 N 
HETATM   13  C2  UNL     1       0.973  -1.373   0.793  1.00  0.00     0.137 C 
ATOM     14  H4  UNL     1      -0.702  -1.999   1.577  1.00  0.00     0.185 HD
BRANCH  13  15
HETATM   15  C3  UNL     1       1.756  -0.339   0.138  1.00  0.00     0.065 A 
HETATM   16  C4  UNL     1       3.064  -0.374  -0.272  1.00  0.00     0.119 A 
HETATM   17  N5  UNL     1       3.376   0.808  -0.831  1.00  0.00    -0.360 N 
HETATM   18  C5  UNL     1       2.289   1.586  -0.781  1.00  0.00     0.180 A 
ATOM     19  H5  UNL     1       4.281   1.066  -1.224  1.00  0.00     0.166 HD
HETATM   20  N6  UNL     1       1.316   0.898  -0.199  1.00  0.00    -0.350 N 
ATOM     21  H6  UNL     1       0.373   1.249  -0.030  1.00  0.00     0.166 HD
ENDBRANCH  13  15
ENDBRANCH  10  12
TORSDOF 2
