REMARK  5 active torsions:
REMARK  status: ('A' for Active; 'I' for Inactive)
REMARK    1  A    between atoms: C2_2  and  N1_3 
REMARK    2  A    between atoms: C2_2  and  C3_6 
REMARK    3  A    between atoms: N1_3  and  O1_4 
REMARK    4  A    between atoms: C3_6  and  N2_7 
REMARK    5  A    between atoms: C3_6  and  C4_11 
ROOT
HETATM    1  C4  UNL     1       0.906  -0.144  -0.314  1.00  0.00     0.174 A 
HETATM    2  N3  UNL     1       1.478   0.920  -0.905  1.00  0.00    -0.278 N 
ATOM      3  H3  UNL     1       1.000   1.567  -1.533  1.00  0.00     0.189 HD
HETATM    4  N4  UNL     1       2.754   1.006  -0.553  1.00  0.00    -0.263 N 
ATOM      5  H4  UNL     1       3.425   1.714  -0.852  1.00  0.00     0.190 HD
HETATM    6  C5  UNL     1       2.984  -0.016   0.269  1.00  0.00     0.238 A 
HETATM    7  N5  UNL     1       4.138  -0.247   0.813  1.00  0.00    -0.364 N 
ATOM      8  H51 UNL     1       4.314  -1.030   1.443  1.00  0.00     0.159 HD
ATOM      9  H52 UNL     1       4.999   0.289   0.702  1.00  0.00     0.159 HD
HETATM   10  O2  UNL     1       1.867  -0.711   0.413  1.00  0.00    -0.262 OA
ENDROOT
BRANCH   1  11
HETATM   11  C3  UNL     1      -0.495  -0.617  -0.424  1.00  0.00     0.280 C 
BRANCH  11  12
HETATM   12  C2  UNL     1      -1.464   0.264   0.335  1.00  0.00     0.140 C 
HETATM   13  C1  UNL     1      -2.832  -0.337   0.191  1.00  0.00     0.033 C 
BRANCH  12  14
HETATM   14  N1  UNL     1      -1.086   0.431   1.718  1.00  0.00    -0.097 NA
BRANCH  14  15
HETATM   15  O1  UNL     1      -2.005   1.257   2.280  1.00  0.00    -0.296 OA
ATOM     16  H1  UNL     1      -1.756   1.367   3.190  1.00  0.00     0.238 HD
ENDBRANCH  14  15
ENDBRANCH  12  14
ENDBRANCH  11  12
BRANCH  11  17
HETATM   17  N2  UNL     1      -0.956  -0.610  -1.808  1.00  0.00    -0.066 N 
ATOM     18  H23 UNL     1      -1.931  -0.888  -1.915  1.00  0.00     0.275 HD
ATOM     19  H22 UNL     1      -1.052   0.326  -2.202  1.00  0.00     0.275 HD
ATOM     20  H21 UNL     1      -0.303  -1.204  -2.319  1.00  0.00     0.275 HD
ENDBRANCH  11  17
ENDBRANCH   1  11
TORSDOF 5
