REMARK  3 active torsions:
REMARK  status: ('A' for Active; 'I' for Inactive)
REMARK    1  A    between atoms: N1_2  and  C2_5 
REMARK    2  A    between atoms: C2_5  and  N2_6 
REMARK    3  A    between atoms: N2_6  and  C3_8 
ROOT
HETATM    1  C3  UNL     1       0.602  -0.854   0.620  1.00  0.00     0.206 C 
HETATM    2  C4  UNL     1       1.327  -2.066   0.221  1.00  0.00     0.036 C 
HETATM    3  C5  UNL     1       2.473  -2.012  -0.366  1.00  0.00     0.090 C 
HETATM    4  N3  UNL     1       3.151  -0.792  -0.691  1.00  0.00    -0.341 N 
ATOM      5  H3  UNL     1       4.050  -0.799  -1.172  1.00  0.00     0.167 HD
HETATM    6  C6  UNL     1       2.571   0.335  -0.346  1.00  0.00     0.189 C 
HETATM    7  N4  UNL     1       3.110   1.591  -0.628  1.00  0.00    -0.063 NA
HETATM    8  N5  UNL     1       1.360   0.322   0.439  1.00  0.00    -0.340 N 
ATOM      9  H5  UNL     1       1.043   1.188   0.875  1.00  0.00     0.164 HD
ENDROOT
BRANCH   1  10
HETATM   10  N2  UNL     1      -0.644  -0.836  -0.182  1.00  0.00    -0.376 N 
ATOM     11  H2  UNL     1      -0.919  -1.616  -0.779  1.00  0.00     0.157 HD
BRANCH  10  12
HETATM   12  C2  UNL     1      -1.436   0.351  -0.062  1.00  0.00     0.351 C 
BRANCH  12  13
HETATM   13  N1  UNL     1      -2.758  -0.037   0.373  1.00  0.00    -0.064 N 
HETATM   14  C1  UNL     1      -3.582   1.115   0.502  1.00  0.00     0.269 C 
ATOM     15  H12 UNL     1      -2.733  -0.588   1.231  1.00  0.00     0.278 HD
ATOM     16  H11 UNL     1      -3.173  -0.738  -0.241  1.00  0.00     0.278 HD
ENDBRANCH  12  13
ENDBRANCH  10  12
ENDBRANCH   1  10
TORSDOF 3
