REMARK  4 active torsions:
REMARK  status: ('A' for Active; 'I' for Inactive)
REMARK    1  A    between atoms: N1_1  and  C1_5 
REMARK    2  A    between atoms: C1_5  and  C2_6 
REMARK    3  A    between atoms: C2_6  and  C3_8 
REMARK    4  A    between atoms: C3_8  and  N2_9 
ROOT
HETATM    1  C2  UNL     1      -1.042   0.631   0.318  1.00  0.00     0.103 C 
HETATM    2  S1  UNL     1      -2.154   1.426   1.553  1.00  0.00    -0.089 SA
ENDROOT
BRANCH   1   3
HETATM    3  C1  UNL     1      -1.581  -0.763   0.139  1.00  0.00     0.247 C 
BRANCH   3   4
HETATM    4  N1  UNL     1      -2.971  -0.655  -0.340  1.00  0.00    -0.078 N 
ATOM      5  H13 UNL     1      -3.555  -0.081   0.268  1.00  0.00     0.274 HD
ATOM      6  H12 UNL     1      -3.055  -0.088  -1.184  1.00  0.00     0.274 HD
ATOM      7  H11 UNL     1      -3.336  -1.600  -0.461  1.00  0.00     0.274 HD
ENDBRANCH   3   4
ENDBRANCH   1   3
BRANCH   1   8
HETATM    8  C3  UNL     1       0.330   0.724   0.873  1.00  0.00     0.164 C 
BRANCH   8   9
HETATM    9  N2  UNL     1       1.380   0.105   0.140  1.00  0.00    -0.271 N 
HETATM   10  C4  UNL     1       1.617  -1.282  -0.045  1.00  0.00     0.212 C 
HETATM   11  N3  UNL     1       2.860  -1.428  -0.435  1.00  0.00    -0.281 N 
HETATM   12  N4  UNL     1       3.468  -0.181  -0.518  1.00  0.00    -0.008 NA
ATOM     13  H3  UNL     1       3.311  -2.319  -0.645  1.00  0.00     0.184 HD
HETATM   14  N5  UNL     1       2.427   0.745  -0.583  1.00  0.00    -0.005 NA
ENDBRANCH   8   9
ENDBRANCH   1   8
TORSDOF 4
