REMARK  3 active torsions:
REMARK  status: ('A' for Active; 'I' for Inactive)
REMARK    1  A    between atoms: N1_2  and  N2_3 
REMARK    2  A    between atoms: N1_2  and  C2_8 
REMARK    3  A    between atoms: N2_3  and  N3_5 
ROOT
HETATM    1  C2  UNL     1      -0.068  -0.054   0.057  1.00  0.00     0.703 A 
HETATM    2  N4  UNL     1       0.771   0.272  -0.961  1.00  0.00    -0.171 N 
ATOM      3  H4  UNL     1       0.507   0.772  -1.810  1.00  0.00     0.186 HD
HETATM    4  C3  UNL     1       1.998  -0.169  -0.668  1.00  0.00     0.167 A 
HETATM    5  N5  UNL     1       3.280  -0.262  -1.054  1.00  0.00    -0.335 N 
ATOM      6  H5  UNL     1       3.667   0.098  -1.927  1.00  0.00     0.168 HD
HETATM    7  C4  UNL     1       3.969  -0.909  -0.098  1.00  0.00     0.183 A 
HETATM    8  N6  UNL     1       3.130  -1.236   0.910  1.00  0.00    -0.335 N 
ATOM      9  H6  UNL     1       3.367  -1.731   1.770  1.00  0.00     0.168 HD
HETATM   10  C5  UNL     1       1.923  -0.776   0.549  1.00  0.00     0.167 A 
HETATM   11  N7  UNL     1       0.665  -0.699   0.976  1.00  0.00    -0.171 N 
ATOM     12  H7  UNL     1       0.315  -1.070   1.859  1.00  0.00     0.186 HD
ENDROOT
BRANCH   1  13
HETATM   13  N1  UNL     1      -1.449   0.260   0.132  1.00  0.00    -0.114 N 
HETATM   14  C1  UNL     1      -1.816   1.636  -0.118  1.00  0.00     0.199 C 
BRANCH  13  15
HETATM   15  N2  UNL     1      -2.365  -0.706   0.435  1.00  0.00    -0.233 N 
ATOM     16  H2  UNL     1      -2.213  -1.687   0.199  1.00  0.00     0.208 HD
BRANCH  15  17
HETATM   17  N3  UNL     1      -3.517  -0.276   1.083  1.00  0.00    -0.330 N 
ATOM     18  H32 UNL     1      -3.655   0.708   1.312  1.00  0.00     0.178 HD
ATOM     19  H31 UNL     1      -4.201  -0.998   1.309  1.00  0.00     0.178 HD
ENDBRANCH  15  17
ENDBRANCH  13  15
ENDBRANCH   1  13
TORSDOF 3
