REMARK  10 active torsions:
REMARK  status: ('A' for Active; 'I' for Inactive)
REMARK    1  A    between atoms: C5_5  and  O1_6 
REMARK    2  A    between atoms: C7_9  and  C8_10 
REMARK       I    between atoms: C8_10  and  N1_12 
REMARK    3  A    between atoms: C9_14  and  C10_15 
REMARK    4  A    between atoms: C10_15  and  N2_16 
REMARK    5  A    between atoms: C13_19  and  C14_20 
REMARK       I    between atoms: C14_20  and  N3_22 
REMARK    6  A    between atoms: N3_22  and  C15_24 
REMARK    7  A    between atoms: C15_24  and  C16_25 
REMARK    8  A    between atoms: C22_33  and  C23_34 
REMARK    9  A    between atoms: C26_39  and  C27_40 
REMARK   10  A    between atoms: C27_40  and  C28_41 
ROOT
HETATM    1  C1  UNL     1      -1.390  -2.421  -4.234  1.00  0.00     0.036 C 
HETATM    2  C2  UNL     1      -2.160  -1.507  -3.349  1.00  0.00    -0.028 C 
HETATM    3  C3  UNL     1      -1.771  -1.361  -2.081  1.00  0.00    -0.075 C 
HETATM    4  C4  UNL     1      -0.606  -2.066  -1.509  1.00  0.00     0.072 C 
HETATM    5  C5  UNL     1       0.354  -0.970  -1.091  1.00  0.00     0.068 C 
HETATM    6  C6  UNL     1       1.456  -1.483  -0.213  1.00  0.00     0.053 C 
HETATM    7  C7  UNL     1       1.912  -0.215   0.427  1.00  0.00     0.094 C 
HETATM    8  C13 UNL     1       0.653   0.667   0.585  1.00  0.00     0.099 C 
HETATM    9  C19 UNL     1      -0.331   0.167  -0.378  1.00  0.00     0.053 C 
HETATM   10  C20 UNL     1      -1.717  -0.188   0.087  1.00  0.00     0.065 C 
HETATM   11  C21 UNL     1      -1.815  -1.166   1.187  1.00  0.00     0.053 C 
HETATM   12  C22 UNL     1      -2.170  -0.420   2.466  1.00  0.00     0.133 C 
HETATM   13  O6  UNL     1      -1.989   0.914   2.128  1.00  0.00    -0.315 OA
HETATM   14  C25 UNL     1      -2.271   1.021   0.750  1.00  0.00     0.269 C 
HETATM   15  O7  UNL     1      -2.869   1.940   0.161  1.00  0.00    -0.264 OA
HETATM   16  C26 UNL     1      -2.519  -0.447  -1.148  1.00  0.00     0.036 C 
ENDROOT
BRANCH   8  17
HETATM   17  C14 UNL     1       1.116   2.051   0.284  1.00  0.00     0.224 C 
HETATM   18  O3  UNL     1       2.138   2.151  -0.484  1.00  0.00    -0.273 OA
HETATM   19  N3  UNL     1       0.525   3.238   0.767  1.00  0.00    -0.342 N 
ATOM     20  H3  UNL     1      -0.287   3.175   1.381  1.00  0.00     0.163 HD
BRANCH  19  21
HETATM   21  C15 UNL     1       1.038   4.533   0.415  1.00  0.00     0.121 A 
HETATM   22  C17 UNL     1       0.628   4.976  -0.973  1.00  0.00     0.045 A 
HETATM   23  C18 UNL     1       0.131   5.697   0.221  1.00  0.00     0.045 A 
BRANCH  21  24
HETATM   24  C16 UNL     1       2.435   4.798   0.845  1.00  0.00     0.202 C 
HETATM   25  O4  UNL     1       2.946   5.918   0.550  1.00  0.00    -0.646 OA
HETATM   26  O5  UNL     1       3.187   3.887   1.541  1.00  0.00    -0.646 OA
ENDBRANCH  21  24
ENDBRANCH  19  21
ENDBRANCH   8  17
BRANCH   7  27
HETATM   27  C8  UNL     1       2.620  -0.359   1.697  1.00  0.00     0.226 C 
HETATM   28  O2  UNL     1       2.236   0.233   2.735  1.00  0.00    -0.273 OA
HETATM   29  N1  UNL     1       3.773  -1.176   1.802  1.00  0.00    -0.339 N 
HETATM   30  C9  UNL     1       4.681  -1.270   0.900  1.00  0.00     0.093 C 
ATOM     31  H1  UNL     1       3.889  -1.727   2.653  1.00  0.00     0.167 HD
BRANCH  30  32
HETATM   32  C10 UNL     1       5.823  -2.174   1.171  1.00  0.00     0.315 C 
BRANCH  32  33
HETATM   33  N2  UNL     1       6.940  -1.960   0.277  1.00  0.00     0.084 N 
HETATM   34  C11 UNL     1       7.572  -0.687   0.508  1.00  0.00     0.309 C 
HETATM   35  C12 UNL     1       6.545  -2.111  -1.101  1.00  0.00     0.309 C 
ENDBRANCH  32  33
ENDBRANCH  30  32
ENDBRANCH   7  27
BRANCH   5  36
HETATM   36  O1  UNL     1       0.947  -0.494  -2.260  1.00  0.00    -0.389 OA
ATOM     37  H1  UNL     1       1.549   0.193  -1.998  1.00  0.00     0.210 HD
ENDBRANCH   5  36
BRANCH  16  38
HETATM   38  C27 UNL     1      -3.859  -1.030  -1.051  1.00  0.00     0.037 C 
BRANCH  38  39
HETATM   39  C28 UNL     1      -4.880  -0.382  -0.242  1.00  0.00    -0.024 C 
HETATM   40  C29 UNL     1      -6.037   0.082  -0.716  1.00  0.00    -0.091 C 
HETATM   41  C30 UNL     1      -7.067   0.740   0.121  1.00  0.00     0.042 C 
HETATM   42  C31 UNL     1      -6.302  -0.075  -2.165  1.00  0.00     0.042 C 
ENDBRANCH  38  39
ENDBRANCH  16  38
BRANCH  12  43
HETATM   43  C23 UNL     1      -1.431  -0.908   3.673  1.00  0.00     0.028 C 
HETATM   44  C24 UNL     1      -1.721  -2.368   3.936  1.00  0.00     0.007 C 
ENDBRANCH  12  43
TORSDOF 10
