REMARK  9 active torsions:
REMARK  status: ('A' for Active; 'I' for Inactive)
REMARK    1  A    between atoms: C2_2  and  C3_3 
REMARK    2  A    between atoms: C3_3  and  C4_4 
REMARK    3  A    between atoms: C4_4  and  C5_5 
REMARK    4  A    between atoms: C5_5  and  C6_6 
REMARK    5  A    between atoms: C10_12  and  C11_13 
REMARK    6  A    between atoms: C11_13  and  C12_14 
REMARK    7  A    between atoms: C16_20  and  C17_21 
REMARK    8  A    between atoms: C17_21  and  C18_22 
REMARK    9  A    between atoms: C22_29  and  C23_30 
ROOT
HETATM    1  C6  UNL     1       3.025   0.282  -0.708  1.00  0.00     0.078 C 
HETATM    2  C7  UNL     1       2.595   1.277  -1.756  1.00  0.00     0.024 C 
HETATM    3  C8  UNL     1       1.975   2.516  -1.164  1.00  0.00     0.112 C 
HETATM    4  C9  UNL     1       0.899   2.268  -0.199  1.00  0.00     0.259 C 
HETATM    5  O1  UNL     1       1.209   2.258   1.025  1.00  0.00    -0.265 OA
HETATM    6  O2  UNL     1      -0.416   2.042  -0.477  1.00  0.00    -0.306 OA
HETATM    7  C10 UNL     1      -1.203   2.770  -1.439  1.00  0.00     0.231 C 
HETATM    8  C15 UNL     1      -2.309   1.861  -1.834  1.00  0.00     0.289 C 
HETATM    9  O3  UNL     1      -3.135   2.375  -2.643  1.00  0.00    -0.262 OA
HETATM   10  O4  UNL     1      -2.510   0.591  -1.434  1.00  0.00    -0.304 OA
HETATM   11  C16 UNL     1      -2.702  -0.054  -0.237  1.00  0.00     0.224 C 
HETATM   12  C21 UNL     1      -3.534  -1.273  -0.494  1.00  0.00     0.248 C 
HETATM   13  O5  UNL     1      -4.473  -1.073  -1.345  1.00  0.00    -0.271 OA
HETATM   14  N1  UNL     1      -3.371  -2.528   0.092  1.00  0.00    -0.347 N 
ATOM     15  H1  UNL     1      -4.210  -2.942   0.497  1.00  0.00     0.163 HD
HETATM   16  C22 UNL     1      -2.165  -3.316   0.198  1.00  0.00     0.158 C 
HETATM   17  C26 UNL     1      -1.183  -3.032  -0.881  1.00  0.00     0.166 C 
HETATM   18  O6  UNL     1      -1.635  -2.649  -1.947  1.00  0.00    -0.295 OA
HETATM   19  C27 UNL     1       0.286  -3.189  -0.728  1.00  0.00     0.192 C 
HETATM   20  C28 UNL     1       0.908  -4.042  -1.805  1.00  0.00     0.234 C 
HETATM   21  O7  UNL     1       1.376  -5.191  -1.936  1.00  0.00    -0.273 OA
HETATM   22  N2  UNL     1       0.722  -2.909  -2.673  1.00  0.00    -0.338 N 
ATOM     23  H2  UNL     1       0.502  -2.749  -3.656  1.00  0.00     0.164 HD
HETATM   24  C29 UNL     1       0.998  -2.088  -1.482  1.00  0.00     0.207 C 
HETATM   25  N3  UNL     1       2.426  -2.158  -1.222  1.00  0.00    -0.338 N 
ATOM     26  H3  UNL     1       2.819  -3.068  -0.981  1.00  0.00     0.164 HD
HETATM   27  C30 UNL     1       3.315  -1.050  -1.279  1.00  0.00     0.223 C 
HETATM   28  O8  UNL     1       4.427  -1.204  -1.853  1.00  0.00    -0.273 OA
ENDROOT
BRANCH   1  29
HETATM   29  C5  UNL     1       4.254   0.876  -0.021  1.00  0.00     0.014 C 
BRANCH  29  30
HETATM   30  C4  UNL     1       4.693  -0.107   1.031  1.00  0.00     0.001 C 
BRANCH  30  31
HETATM   31  C3  UNL     1       5.914   0.380   1.783  1.00  0.00    -0.000 C 
BRANCH  31  32
HETATM   32  C2  UNL     1       6.247  -0.704   2.811  1.00  0.00    -0.005 C 
HETATM   33  C1  UNL     1       7.466  -0.213   3.560  1.00  0.00     0.005 C 
ENDBRANCH  31  32
ENDBRANCH  30  31
ENDBRANCH  29  30
ENDBRANCH   1  29
BRANCH   7  34
HETATM   34  C11 UNL     1      -1.602   4.034  -0.797  1.00  0.00     0.046 C 
BRANCH  34  35
HETATM   35  C12 UNL     1      -2.422   4.996  -1.536  1.00  0.00    -0.020 C 
HETATM   36  C13 UNL     1      -2.691   6.224  -0.644  1.00  0.00     0.009 C 
HETATM   37  C14 UNL     1      -1.951   5.470  -2.851  1.00  0.00     0.009 C 
ENDBRANCH  34  35
ENDBRANCH   7  34
BRANCH  16  38
HETATM   38  C23 UNL     1      -2.548  -4.776   0.247  1.00  0.00     0.007 C 
HETATM   39  C24 UNL     1      -1.410  -5.722   0.359  1.00  0.00     0.012 C 
HETATM   40  C25 UNL     1      -3.435  -5.173  -0.904  1.00  0.00     0.012 C 
ENDBRANCH  16  38
BRANCH  11  41
HETATM   41  C17 UNL     1      -3.415   0.778   0.792  1.00  0.00     0.046 C 
BRANCH  41  42
HETATM   42  C18 UNL     1      -3.621   0.061   2.095  1.00  0.00    -0.020 C 
HETATM   43  C19 UNL     1      -2.344  -0.371   2.752  1.00  0.00     0.009 C 
HETATM   44  C20 UNL     1      -4.280   1.071   3.046  1.00  0.00     0.009 C 
ENDBRANCH  41  42
ENDBRANCH  11  41
TORSDOF 9
