REMARK  13 active torsions:
REMARK  status: ('A' for Active; 'I' for Inactive)
REMARK    1  A    between atoms: C3_3  and  C4_4 
REMARK    2  A    between atoms: C5_5  and  C7_7 
REMARK    3  A    between atoms: C7_7  and  C8_8 
REMARK    4  A    between atoms: C8_8  and  C9_9 
REMARK    5  A    between atoms: C8_8  and  C13_13 
REMARK    6  A    between atoms: C9_9  and  C10_10 
REMARK    7  A    between atoms: C13_13  and  O1_14 
REMARK    8  A    between atoms: C13_13  and  C14_16 
REMARK    9  A    between atoms: C14_16  and  C15_17 
REMARK   10  A    between atoms: C16_18  and  O2_19 
REMARK   11  A    between atoms: C21_25  and  O3_26 
REMARK   12  A    between atoms: C25_33  and  C26_34 
REMARK   13  A    between atoms: C26_34  and  C27_35 
ROOT
HETATM    1  C1  UNL     1       8.422  -2.193   4.815  1.00  0.00     0.112 C 
HETATM    2  C2  UNL     1       7.475  -1.775   3.776  1.00  0.00    -0.106 C 
HETATM    3  C3  UNL     1       6.703  -1.451   2.910  1.00  0.00    -0.079 C 
ENDROOT
BRANCH   3   4
HETATM    4  C4  UNL     1       5.784  -1.039   1.848  1.00  0.00     0.067 C 
HETATM    5  C5  UNL     1       4.551  -1.467   1.790  1.00  0.00    -0.075 C 
HETATM    6  C6  UNL     1       4.173  -2.425   2.916  1.00  0.00     0.044 C 
BRANCH   5   7
HETATM    7  C7  UNL     1       3.530  -1.102   0.814  1.00  0.00     0.041 C 
BRANCH   7   8
HETATM    8  C8  UNL     1       3.919  -0.047  -0.146  1.00  0.00     0.019 C 
BRANCH   8   9
HETATM    9  C9  UNL     1       4.172   1.296   0.436  1.00  0.00     0.011 C 
BRANCH   9  10
HETATM   10  C10 UNL     1       4.593   2.341  -0.571  1.00  0.00    -0.022 C 
HETATM   11  C11 UNL     1       5.844   1.996  -1.307  1.00  0.00     0.009 C 
HETATM   12  C12 UNL     1       4.809   3.642   0.193  1.00  0.00     0.009 C 
ENDBRANCH   9  10
ENDBRANCH   8   9
BRANCH   8  13
HETATM   13  C13 UNL     1       2.990  -0.017  -1.367  1.00  0.00     0.127 C 
BRANCH  13  14
HETATM   14  O1  UNL     1       3.105  -1.282  -1.935  1.00  0.00    -0.395 OA
ATOM     15  H1  UNL     1       2.530  -1.263  -2.691  1.00  0.00     0.210 HD
ENDBRANCH  13  14
BRANCH  13  16
HETATM   16  C14 UNL     1       1.575   0.239  -0.980  1.00  0.00     0.079 C 
BRANCH  16  17
HETATM   17  C15 UNL     1       0.646   0.272  -2.207  1.00  0.00     0.045 C 
HETATM   18  C16 UNL     1       0.620  -0.978  -2.959  1.00  0.00     0.077 C 
HETATM   19  C17 UNL     1       0.146  -2.297  -2.660  1.00  0.00     0.037 C 
HETATM   20  C18 UNL     1      -1.044  -2.840  -2.508  1.00  0.00     0.003 C 
HETATM   21  C19 UNL     1      -2.422  -2.312  -2.585  1.00  0.00     0.003 C 
HETATM   22  C20 UNL     1      -3.169  -1.651  -3.414  1.00  0.00     0.035 C 
HETATM   23  C21 UNL     1      -4.534  -1.134  -3.479  1.00  0.00     0.072 C 
HETATM   24  C22 UNL     1      -5.341  -0.342  -2.553  1.00  0.00     0.184 C 
HETATM   25  C23 UNL     1      -6.609   0.115  -3.155  1.00  0.00     0.047 C 
HETATM   26  O4  UNL     1      -4.705   0.760  -1.969  1.00  0.00    -0.308 OA
HETATM   27  C24 UNL     1      -4.613   1.080  -0.630  1.00  0.00     0.282 C 
HETATM   28  O5  UNL     1      -4.614   2.295  -0.303  1.00  0.00    -0.263 OA
HETATM   29  C25 UNL     1      -4.511   0.123   0.485  1.00  0.00     0.185 C 
HETATM   30  N1  UNL     1      -3.266  -0.553   0.636  1.00  0.00    -0.343 N 
HETATM   31  C30 UNL     1      -1.976  -0.075   0.889  1.00  0.00     0.257 C 
ATOM     32  H1  UNL     1      -3.326  -1.567   0.543  1.00  0.00     0.163 HD
HETATM   33  O6  UNL     1      -1.261  -0.866   1.622  1.00  0.00    -0.267 OA
HETATM   34  C31 UNL     1      -1.315   1.145   0.474  1.00  0.00     0.165 C 
HETATM   35  N2  UNL     1      -1.233   1.522  -0.878  1.00  0.00    -0.328 N 
HETATM   36  C32 UNL     1      -0.580   1.030  -2.001  1.00  0.00     0.254 C 
ATOM     37  H2  UNL     1      -1.784   2.355  -1.083  1.00  0.00     0.168 HD
HETATM   38  O7  UNL     1      -1.170   1.291  -3.126  1.00  0.00    -0.268 OA
BRANCH  18  39
HETATM   39  O2  UNL     1       1.146  -0.838  -4.152  1.00  0.00    -0.360 OA
ATOM     40  H2  UNL     1       1.129  -1.652  -4.642  1.00  0.00     0.217 HD
ENDBRANCH  18  39
BRANCH  23  41
HETATM   41  O3  UNL     1      -5.151  -1.441  -4.592  1.00  0.00    -0.362 OA
ATOM     42  H3  UNL     1      -6.039  -1.105  -4.634  1.00  0.00     0.217 HD
ENDBRANCH  23  41
BRANCH  29  43
HETATM   43  C26 UNL     1      -4.918   0.676   1.832  1.00  0.00     0.039 C 
BRANCH  43  44
HETATM   44  C27 UNL     1      -6.333   1.132   1.875  1.00  0.00    -0.020 C 
HETATM   45  C28 UNL     1      -6.617   1.659   3.272  1.00  0.00     0.009 C 
HETATM   46  C29 UNL     1      -7.318   0.010   1.615  1.00  0.00     0.009 C 
ENDBRANCH  43  44
ENDBRANCH  29  43
ENDBRANCH  16  17
ENDBRANCH  13  16
ENDBRANCH   8  13
ENDBRANCH   7   8
ENDBRANCH   5   7
ENDBRANCH   3   4
TORSDOF 13
