REMARK  10 active torsions:
REMARK  status: ('A' for Active; 'I' for Inactive)
REMARK    1  A    between atoms: C2_2  and  C3_3 
REMARK    2  A    between atoms: C3_3  and  C5_5 
REMARK    3  A    between atoms: C7_10  and  C8_11 
REMARK    4  A    between atoms: C8_11  and  C9_12 
REMARK    5  A    between atoms: C12_15  and  O2_16 
REMARK    6  A    between atoms: C16_22  and  O3_23 
REMARK    7  A    between atoms: C17_25  and  C18_26 
REMARK    8  A    between atoms: C18_26  and  C19_27 
REMARK    9  A    between atoms: C26_37  and  C27_38 
REMARK   10  A    between atoms: C27_38  and  C28_39 
ROOT
HETATM    1  C5  UNL     1      -0.576  -2.247  -0.353  1.00  0.00     0.180 C 
HETATM    2  N1  UNL     1       0.191  -2.298  -1.575  1.00  0.00    -0.346 N 
ATOM      3  H1  UNL     1      -0.184  -2.885  -2.320  1.00  0.00     0.163 HD
HETATM    4  C6  UNL     1       1.405  -1.625  -1.856  1.00  0.00     0.241 C 
HETATM    5  O1  UNL     1       2.335  -2.268  -2.416  1.00  0.00    -0.271 OA
HETATM    6  C7  UNL     1       1.663  -0.182  -1.530  1.00  0.00     0.179 C 
HETATM    7  N2  UNL     1       0.456   0.591  -1.616  1.00  0.00    -0.359 N 
ATOM      8  H2  UNL     1      -0.352   0.027  -1.878  1.00  0.00     0.162 HD
HETATM    9  C16 UNL     1       0.137   1.916  -1.427  1.00  0.00     0.142 C 
HETATM   10  C17 UNL     1       0.235   2.794  -0.236  1.00  0.00     0.206 C 
HETATM   11  O4  UNL     1      -0.888   2.936   0.494  1.00  0.00    -0.307 OA
HETATM   12  C22 UNL     1      -2.151   2.792   0.744  1.00  0.00     0.270 C 
HETATM   13  O5  UNL     1      -3.038   3.463   0.091  1.00  0.00    -0.264 OA
HETATM   14  C23 UNL     1      -2.710   1.883   1.768  1.00  0.00     0.153 C 
HETATM   15  C24 UNL     1      -1.839   1.939   3.047  1.00  0.00     0.029 C 
HETATM   16  C25 UNL     1      -2.953   0.503   1.422  1.00  0.00     0.162 C 
HETATM   17  O6  UNL     1      -2.955  -0.306   2.377  1.00  0.00    -0.295 OA
HETATM   18  C26 UNL     1      -3.204  -0.121   0.104  1.00  0.00     0.155 C 
HETATM   19  N3  UNL     1      -3.018  -1.538   0.125  1.00  0.00    -0.348 N 
ATOM     20  H3  UNL     1      -3.671  -2.057   0.712  1.00  0.00     0.163 HD
HETATM   21  C31 UNL     1      -2.053  -2.324  -0.556  1.00  0.00     0.241 C 
HETATM   22  O7  UNL     1      -2.473  -3.157  -1.398  1.00  0.00    -0.271 OA
ENDROOT
BRANCH   6  23
HETATM   23  C8  UNL     1       2.428  -0.020  -0.243  1.00  0.00     0.073 C 
BRANCH  23  24
HETATM   24  C9  UNL     1       3.742  -0.686  -0.327  1.00  0.00    -0.056 A 
HETATM   25  C10 UNL     1       3.999  -1.966   0.091  1.00  0.00     0.010 A 
HETATM   26  C11 UNL     1       5.259  -2.533  -0.002  1.00  0.00     0.037 A 
HETATM   27  C12 UNL     1       6.309  -1.816  -0.526  1.00  0.00     0.068 A 
HETATM   28  C14 UNL     1       6.090  -0.513  -0.962  1.00  0.00     0.037 A 
HETATM   29  C15 UNL     1       4.828   0.010  -0.852  1.00  0.00     0.010 A 
BRANCH  27  30
HETATM   30  O2  UNL     1       7.557  -2.419  -0.602  1.00  0.00    -0.356 OA
HETATM   31  C13 UNL     1       8.627  -1.658  -1.147  1.00  0.00     0.210 C 
ENDBRANCH  27  30
ENDBRANCH  23  24
ENDBRANCH   6  23
BRANCH   9  32
HETATM   32  O3  UNL     1      -0.342   2.550  -2.457  1.00  0.00    -0.348 OA
ATOM     33  H3  UNL     1      -0.562   3.465  -2.327  1.00  0.00     0.219 HD
ENDBRANCH   9  32
BRANCH   1  34
HETATM   34  C3  UNL     1      -0.104  -3.451   0.479  1.00  0.00     0.013 C 
HETATM   35  C4  UNL     1      -0.830  -3.476   1.824  1.00  0.00     0.012 C 
BRANCH  34  36
HETATM   36  C2  UNL     1      -0.321  -4.767  -0.181  1.00  0.00     0.002 C 
HETATM   37  C1  UNL     1       0.250  -5.895   0.697  1.00  0.00     0.005 C 
ENDBRANCH  34  36
ENDBRANCH   1  34
BRANCH  10  38
HETATM   38  C18 UNL     1       0.583   4.199  -0.782  1.00  0.00     0.044 C 
BRANCH  38  39
HETATM   39  C19 UNL     1       0.726   5.229   0.272  1.00  0.00    -0.020 C 
HETATM   40  C20 UNL     1       1.060   6.547  -0.450  1.00  0.00     0.009 C 
HETATM   41  C21 UNL     1       1.791   4.991   1.292  1.00  0.00     0.009 C 
ENDBRANCH  38  39
ENDBRANCH  10  38
BRANCH  18  42
HETATM   42  C27 UNL     1      -4.446   0.288  -0.566  1.00  0.00     0.037 C 
BRANCH  42  43
HETATM   43  C28 UNL     1      -5.755   0.093   0.093  1.00  0.00    -0.020 C 
HETATM   44  C29 UNL     1      -6.188  -1.301   0.410  1.00  0.00     0.009 C 
HETATM   45  C30 UNL     1      -6.828   0.719  -0.813  1.00  0.00     0.009 C 
ENDBRANCH  42  43
ENDBRANCH  18  42
TORSDOF 10
