REMARK  12 active torsions:
REMARK  status: ('A' for Active; 'I' for Inactive)
REMARK    1  A    between atoms: N1_2  and  C3_4 
REMARK    2  A    between atoms: N1_2  and  C22_35 
REMARK    3  A    between atoms: C3_4  and  C4_5 
REMARK    4  A    between atoms: C4_5  and  N2_6 
REMARK    5  A    between atoms: N2_6  and  C5_9 
REMARK    6  A    between atoms: C5_9  and  C6_10 
REMARK    7  A    between atoms: C6_10  and  C7_11 
REMARK    8  A    between atoms: C7_11  and  C8_12 
REMARK    9  A    between atoms: C8_12  and  C9_13 
REMARK   10  A    between atoms: C9_13  and  C10_14 
REMARK   11  A    between atoms: C10_14  and  N3_15 
REMARK   12  A    between atoms: C17_27  and  C18_28 
ROOT
HETATM    1  C9  UNL     1       2.619  -1.904   0.999  1.00  0.00     0.020 C 
ENDROOT
BRANCH   1   2
HETATM    2  C8  UNL     1       1.489  -2.742   1.549  1.00  0.00     0.002 C 
BRANCH   2   3
HETATM    3  C7  UNL     1       0.145  -2.440   1.002  1.00  0.00     0.002 C 
BRANCH   3   4
HETATM    4  C6  UNL     1      -0.236  -1.025   1.303  1.00  0.00     0.027 C 
BRANCH   4   5
HETATM    5  C5  UNL     1      -1.641  -0.706   0.766  1.00  0.00     0.232 C 
BRANCH   5   6
HETATM    6  N2  UNL     1      -1.923   0.656   1.115  1.00  0.00    -0.074 N 
ATOM      7  H22 UNL     1      -1.222   1.291   0.733  1.00  0.00     0.277 HD
ATOM      8  H21 UNL     1      -1.767   0.826   2.108  1.00  0.00     0.277 HD
BRANCH   6   9
HETATM    9  C4  UNL     1      -3.281   1.048   0.710  1.00  0.00     0.260 C 
BRANCH   9  10
HETATM   10  C3  UNL     1      -3.431   1.133  -0.759  1.00  0.00     0.264 C 
BRANCH  10  11
HETATM   11  N1  UNL     1      -4.698   1.505  -1.277  1.00  0.00    -0.069 N 
HETATM   12  C1  UNL     1      -4.983   2.922  -1.138  1.00  0.00     0.272 C 
HETATM   13  C2  UNL     1      -4.597   1.296  -2.746  1.00  0.00     0.272 C 
BRANCH  11  14
HETATM   14  C22 UNL     1      -5.842   0.761  -0.814  1.00  0.00     0.189 C 
HETATM   15  C23 UNL     1      -5.675  -0.704  -0.892  1.00  0.00     0.033 C 
HETATM   16  C24 UNL     1      -6.370  -1.520   0.161  1.00  0.00     0.002 C 
HETATM   17  C25 UNL     1      -7.824  -1.312   0.325  1.00  0.00     0.000 C 
HETATM   18  C26 UNL     1      -8.538  -0.572  -0.739  1.00  0.00     0.000 C 
HETATM   19  C27 UNL     1      -8.688   0.889  -0.579  1.00  0.00     0.000 C 
HETATM   20  C28 UNL     1      -7.864   1.580   0.432  1.00  0.00     0.002 C 
HETATM   21  C29 UNL     1      -6.402   1.267   0.473  1.00  0.00     0.033 C 
ENDBRANCH  11  14
ENDBRANCH  10  11
ENDBRANCH   9  10
ENDBRANCH   6   9
ENDBRANCH   5   6
ENDBRANCH   4   5
ENDBRANCH   3   4
ENDBRANCH   2   3
ENDBRANCH   1   2
BRANCH   1  22
HETATM   22  C10 UNL     1       3.882  -2.371   1.701  1.00  0.00     0.135 C 
BRANCH  22  23
HETATM   23  N3  UNL     1       5.070  -1.669   1.271  1.00  0.00    -0.289 N 
HETATM   24  C11 UNL     1       5.807  -2.173   0.238  1.00  0.00     0.181 A 
HETATM   25  S1  UNL     1       5.284  -3.555  -0.464  1.00  0.00    -0.040 SA
HETATM   26  N4  UNL     1       6.927  -1.576  -0.208  1.00  0.00    -0.330 N 
HETATM   27  C12 UNL     1       7.391  -0.434   0.344  1.00  0.00     0.079 A 
ATOM     28  H4  UNL     1       7.439  -1.997  -0.983  1.00  0.00     0.168 HD
HETATM   29  C13 UNL     1       6.679   0.109   1.387  1.00  0.00     0.129 A 
HETATM   30  C20 UNL     1       8.475   0.382   0.111  1.00  0.00     0.021 A 
HETATM   31  N5  UNL     1       7.330   1.221   1.760  1.00  0.00    -0.349 N 
HETATM   32  C21 UNL     1       5.523  -0.535   1.826  1.00  0.00     0.279 A 
HETATM   33  C14 UNL     1       8.429   1.437   1.020  1.00  0.00     0.045 A 
ATOM     34  H5  UNL     1       7.025   1.832   2.518  1.00  0.00     0.166 HD
HETATM   35  C15 UNL     1       9.416   2.402   0.995  1.00  0.00     0.031 A 
HETATM   36  C16 UNL     1      10.449   2.346   0.093  1.00  0.00     0.019 A 
HETATM   37  C17 UNL     1      10.489   1.298  -0.804  1.00  0.00     0.030 A 
HETATM   38  C19 UNL     1       9.513   0.328  -0.794  1.00  0.00     0.032 A 
HETATM   39  O2  UNL     1       4.875  -0.049   2.769  1.00  0.00    -0.265 OA
BRANCH  37  40
HETATM   40  C18 UNL     1      11.588   1.239  -1.763  1.00  0.00     0.265 C 
HETATM   41  N6  UNL     1      11.714   0.113  -2.616  1.00  0.00    -0.057 NA
HETATM   42  O1  UNL     1      12.442   2.147  -1.873  1.00  0.00    -0.271 OA
ENDBRANCH  37  40
ENDBRANCH  22  23
ENDBRANCH   1  22
TORSDOF 12
