REMARK  14 active torsions:
REMARK  status: ('A' for Active; 'I' for Inactive)
REMARK    1  A    between atoms: C2_2  and  C3_3 
REMARK       I    between atoms: C3_3  and  N1_5 
REMARK    2  A    between atoms: N1_5  and  C4_7 
REMARK    3  A    between atoms: C17_21  and  C18_22 
REMARK    4  A    between atoms: C18_22  and  C19_23 
REMARK    5  A    between atoms: C19_23  and  C20_24 
REMARK    6  A    between atoms: C20_24  and  O3_25 
REMARK    7  A    between atoms: C20_24  and  C21_27 
REMARK    8  A    between atoms: C21_27  and  C22_28 
REMARK    9  A    between atoms: C22_28  and  C23_29 
REMARK   10  A    between atoms: C22_28  and  C25_31 
REMARK   11  A    between atoms: C25_31  and  O4_32 
REMARK   12  A    between atoms: C25_31  and  C26_34 
REMARK   13  A    between atoms: C26_34  and  N2_35 
REMARK   14  A    between atoms: N2_35  and  C27_38 
ROOT
HETATM    1  C4  UNL     1       6.779   0.483   1.577  1.00  0.00     0.085 C 
HETATM    2  C5  UNL     1       5.621   1.431   1.697  1.00  0.00     0.026 C 
HETATM    3  C6  UNL     1       4.296   0.667   1.567  1.00  0.00     0.012 C 
HETATM    4  C7  UNL     1       4.212  -0.110   0.299  1.00  0.00    -0.029 C 
HETATM    5  C8  UNL     1       4.320   0.838  -0.870  1.00  0.00     0.016 C 
HETATM    6  C9  UNL     1       5.332  -1.148   0.278  1.00  0.00    -0.004 C 
HETATM    7  C10 UNL     1       4.771  -2.539   0.616  1.00  0.00     0.006 C 
HETATM    8  C11 UNL     1       3.808  -3.037  -0.394  1.00  0.00     0.006 C 
HETATM    9  C12 UNL     1       2.974  -1.898  -0.933  1.00  0.00     0.003 C 
HETATM   10  C13 UNL     1       2.942  -0.852   0.205  1.00  0.00     0.069 C 
HETATM   11  C14 UNL     1       1.717  -0.048  -0.077  1.00  0.00     0.141 C 
HETATM   12  O2  UNL     1       1.410   0.954   0.517  1.00  0.00    -0.297 OA
HETATM   13  C15 UNL     1       1.017  -0.695  -1.155  1.00  0.00     0.025 C 
HETATM   14  C16 UNL     1       1.301  -0.148  -2.526  1.00  0.00     0.024 C 
HETATM   15  C17 UNL     1      -0.424  -0.995  -1.068  1.00  0.00     0.002 C 
HETATM   16  C30 UNL     1      -0.552  -2.223  -1.934  1.00  0.00     0.006 C 
HETATM   17  C31 UNL     1       0.889  -2.724  -2.179  1.00  0.00     0.006 C 
HETATM   18  C32 UNL     1       1.551  -2.142  -1.028  1.00  0.00     0.006 C 
HETATM   19  C33 UNL     1       6.400  -0.911   1.280  1.00  0.00     0.030 C 
ENDROOT
BRANCH  15  20
HETATM   20  C18 UNL     1      -0.952  -1.109   0.292  1.00  0.00     0.008 C 
BRANCH  20  21
HETATM   21  C19 UNL     1      -2.388  -1.413   0.482  1.00  0.00     0.032 C 
BRANCH  21  22
HETATM   22  C20 UNL     1      -3.311  -0.333  -0.149  1.00  0.00     0.118 C 
BRANCH  22  23
HETATM   23  O3  UNL     1      -2.963   0.822   0.499  1.00  0.00    -0.396 OA
ATOM     24  H3  UNL     1      -3.527   1.482   0.113  1.00  0.00     0.210 HD
ENDBRANCH  22  23
BRANCH  22  25
HETATM   25  C21 UNL     1      -4.676  -0.852   0.028  1.00  0.00     0.039 C 
BRANCH  25  26
HETATM   26  C22 UNL     1      -5.853  -0.115  -0.457  1.00  0.00     0.018 C 
BRANCH  26  27
HETATM   27  C23 UNL     1      -5.922   0.178  -1.912  1.00  0.00     0.003 C 
HETATM   28  C24 UNL     1      -4.879   0.986  -2.554  1.00  0.00     0.005 C 
ENDBRANCH  26  27
BRANCH  26  29
HETATM   29  C25 UNL     1      -6.327   0.936   0.469  1.00  0.00     0.148 C 
BRANCH  29  30
HETATM   30  O4  UNL     1      -5.469   1.958   0.783  1.00  0.00    -0.394 OA
ATOM     31  H4  UNL     1      -5.774   2.633   1.378  1.00  0.00     0.210 HD
ENDBRANCH  29  30
BRANCH  29  32
HETATM   32  C26 UNL     1      -7.729   1.431   0.155  1.00  0.00     0.264 C 
BRANCH  32  33
HETATM   33  N2  UNL     1      -8.222   2.114   1.318  1.00  0.00    -0.069 N 
ATOM     34  H22 UNL     1      -8.172   1.510   2.138  1.00  0.00     0.277 HD
ATOM     35  H21 UNL     1      -7.574   2.847   1.607  1.00  0.00     0.277 HD
BRANCH  33  36
HETATM   36  C27 UNL     1      -9.550   2.644   1.157  1.00  0.00     0.186 A 
HETATM   37  C28 UNL     1     -10.721   1.763   0.906  1.00  0.00     0.035 A 
HETATM   38  C29 UNL     1     -10.236   2.712  -0.135  1.00  0.00     0.035 A 
ENDBRANCH  33  36
ENDBRANCH  32  33
ENDBRANCH  29  32
ENDBRANCH  26  29
ENDBRANCH  25  26
ENDBRANCH  22  25
ENDBRANCH  21  22
ENDBRANCH  20  21
ENDBRANCH  15  20
BRANCH   1  39
HETATM   39  N1  UNL     1       7.791   0.965   0.625  1.00  0.00    -0.353 N 
HETATM   40  C3  UNL     1       9.078   1.343   1.011  1.00  0.00     0.240 C 
HETATM   41  O1  UNL     1       9.449   1.293   2.211  1.00  0.00    -0.269 OA
ATOM     42  H1  UNL     1       7.541   1.026  -0.362  1.00  0.00     0.163 HD
BRANCH  40  43
HETATM   43  C2  UNL     1      10.031   1.810   0.019  1.00  0.00     0.064 C 
HETATM   44  C1  UNL     1      11.259   2.175   0.358  1.00  0.00     0.017 C 
ENDBRANCH  40  43
ENDBRANCH   1  39
TORSDOF 14
