REMARK  14 active torsions:
REMARK  status: ('A' for Active; 'I' for Inactive)
REMARK       I    between atoms: C2_2  and  N1_4 
REMARK    1  A    between atoms: N1_4  and  C3_6 
REMARK    2  A    between atoms: C6_10  and  N2_11 
REMARK       I    between atoms: N2_11  and  C7_13 
REMARK       I    between atoms: C7_13  and  N3_15 
REMARK    3  A    between atoms: N3_15  and  C8_17 
REMARK    4  A    between atoms: N4_23  and  C13_24 
REMARK    5  A    between atoms: C13_24  and  C14_25 
REMARK    6  A    between atoms: C14_25  and  C15_26 
REMARK    7  A    between atoms: C15_26  and  C16_27 
REMARK    8  A    between atoms: C16_27  and  C17_28 
REMARK    9  A    between atoms: C17_28  and  C18_29 
REMARK   10  A    between atoms: C18_29  and  C19_30 
REMARK   11  A    between atoms: C19_30  and  C20_31 
REMARK   12  A    between atoms: C20_31  and  O5_32 
REMARK   13  A    between atoms: C23_36  and  C24_37 
REMARK   14  A    between atoms: C24_37  and  C25_38 
ROOT
HETATM    1  C8  UNL     1       1.915   0.306   0.382  1.00  0.00     0.088 C 
HETATM    2  C9  UNL     1       2.017   1.767   0.768  1.00  0.00     0.031 C 
HETATM    3  C10 UNL     1       0.648   2.218   1.230  1.00  0.00     0.002 C 
HETATM    4  C11 UNL     1       0.139   1.426   2.408  1.00  0.00     0.108 C 
HETATM    5  C12 UNL     1      -0.811   0.355   2.035  1.00  0.00     0.220 C 
HETATM    6  O4  UNL     1      -1.369  -0.273   2.958  1.00  0.00    -0.273 OA
HETATM    7  N4  UNL     1      -1.115   0.011   0.697  1.00  0.00    -0.347 N 
HETATM    8  C21 UNL     1      -0.433   0.746  -0.365  1.00  0.00     0.093 C 
HETATM    9  C22 UNL     1       0.886   0.138  -0.685  1.00  0.00     0.051 C 
HETATM   10  C23 UNL     1      -0.351   2.174   0.131  1.00  0.00     0.013 C 
ENDROOT
BRANCH   1  11
HETATM   11  N3  UNL     1       3.187  -0.196  -0.107  1.00  0.00    -0.338 N 
HETATM   12  C7  UNL     1       3.883  -1.222   0.641  1.00  0.00     0.321 C 
HETATM   13  N2  UNL     1       5.117  -1.735   0.205  1.00  0.00    -0.305 N 
HETATM   14  O3  UNL     1       3.364  -1.650   1.695  1.00  0.00    -0.247 OA
ATOM     15  H2  UNL     1       5.511  -1.363  -0.659  1.00  0.00     0.171 HD
ATOM     16  H3  UNL     1       3.587   0.171  -0.970  1.00  0.00     0.164 HD
BRANCH  13  17
HETATM   17  C6  UNL     1       5.841  -2.729   0.885  1.00  0.00     0.087 A 
HETATM   18  C3  UNL     1       7.089  -3.235   0.438  1.00  0.00     0.086 A 
HETATM   19  C4  UNL     1       7.480  -4.185   1.359  1.00  0.00     0.173 A 
HETATM   20  O2  UNL     1       6.546  -4.232   2.265  1.00  0.00    -0.330 OA
HETATM   21  C5  UNL     1       5.578  -3.411   2.038  1.00  0.00     0.173 A 
BRANCH  18  22
HETATM   22  N1  UNL     1       7.732  -2.795  -0.734  1.00  0.00    -0.324 N 
HETATM   23  C2  UNL     1       8.973  -3.316  -1.147  1.00  0.00     0.218 C 
HETATM   24  C1  UNL     1       9.594  -2.793  -2.411  1.00  0.00     0.117 C 
HETATM   25  O1  UNL     1       9.616  -4.187  -0.550  1.00  0.00    -0.274 OA
ATOM     26  H1  UNL     1       7.285  -2.076  -1.302  1.00  0.00     0.169 HD
ENDBRANCH  18  22
ENDBRANCH  13  17
ENDBRANCH   1  11
BRANCH  10  27
HETATM   27  C24 UNL     1      -0.158   3.158  -0.968  1.00  0.00     0.011 C 
BRANCH  27  28
HETATM   28  C25 UNL     1      -0.219   4.548  -0.416  1.00  0.00    -0.014 C 
HETATM   29  C26 UNL     1      -1.542   4.825   0.244  1.00  0.00     0.005 C 
HETATM   30  C27 UNL     1      -1.997   6.236   0.140  1.00  0.00     0.000 C 
HETATM   31  C28 UNL     1      -0.894   7.249   0.136  1.00  0.00     0.000 C 
HETATM   32  C29 UNL     1       0.213   6.905  -0.830  1.00  0.00     0.000 C 
HETATM   33  C30 UNL     1      -0.071   5.593  -1.534  1.00  0.00     0.005 C 
ENDBRANCH  27  28
ENDBRANCH  10  27
BRANCH   7  34
HETATM   34  C13 UNL     1      -2.052  -1.009   0.291  1.00  0.00     0.126 C 
BRANCH  34  35
HETATM   35  C14 UNL     1      -3.440  -0.514   0.110  1.00  0.00     0.020 C 
BRANCH  35  36
HETATM   36  C15 UNL     1      -4.322  -1.673  -0.331  1.00  0.00     0.002 C 
BRANCH  36  37
HETATM   37  C16 UNL     1      -4.383  -2.796   0.636  1.00  0.00     0.000 C 
BRANCH  37  38
HETATM   38  C17 UNL     1      -5.255  -3.900   0.125  1.00  0.00     0.000 C 
BRANCH  38  39
HETATM   39  C18 UNL     1      -6.647  -3.438  -0.090  1.00  0.00     0.002 C 
BRANCH  39  40
HETATM   40  C19 UNL     1      -7.560  -4.554  -0.583  1.00  0.00     0.026 C 
BRANCH  40  41
HETATM   41  C20 UNL     1      -7.097  -5.128  -1.884  1.00  0.00     0.164 C 
BRANCH  41  42
HETATM   42  O5  UNL     1      -7.059  -4.170  -2.873  1.00  0.00    -0.401 OA
ATOM     43  H5  UNL     1      -6.765  -4.535  -3.699  1.00  0.00     0.209 HD
ENDBRANCH  41  42
ENDBRANCH  40  41
ENDBRANCH  39  40
ENDBRANCH  38  39
ENDBRANCH  37  38
ENDBRANCH  36  37
ENDBRANCH  35  36
ENDBRANCH  34  35
ENDBRANCH   7  34
TORSDOF 14
