REMARK  12 active torsions:
REMARK  status: ('A' for Active; 'I' for Inactive)
REMARK    1  A    between atoms: C2_2  and  C3_3 
REMARK       I    between atoms: N1_4  and  C4_6 
REMARK    2  A    between atoms: C4_6  and  C5_8 
REMARK    3  A    between atoms: C9_12  and  C10_13 
REMARK       I    between atoms: C10_13  and  N2_15 
REMARK    4  A    between atoms: N2_15  and  C11_17 
REMARK    5  A    between atoms: C11_17  and  C12_18 
REMARK    6  A    between atoms: C11_17  and  C16_26 
REMARK    7  A    between atoms: C12_18  and  C13_19 
REMARK    8  A    between atoms: C13_19  and  C14_20 
REMARK    9  A    between atoms: C14_20  and  N3_21 
REMARK   10  A    between atoms: N7_29  and  C17_30 
REMARK   11  A    between atoms: C17_30  and  C18_34 
REMARK       I    between atoms: N9_39  and  C23_40 
REMARK       I    between atoms: C23_40  and  N10_42 
REMARK   12  A    between atoms: N10_42  and  C24_44 
ROOT
HETATM    1  C5  UNL     1      -0.863   0.405   0.670  1.00  0.00     0.179 C 
HETATM    2  C6  UNL     1      -0.288  -0.677   1.527  1.00  0.00     0.040 C 
HETATM    3  C7  UNL     1       0.412  -1.802   0.921  1.00  0.00    -0.001 C 
HETATM    4  C8  UNL     1       0.178  -2.015  -0.559  1.00  0.00     0.027 C 
HETATM    5  C9  UNL     1      -0.149  -0.811  -1.314  1.00  0.00     0.183 C 
HETATM    6  N7  UNL     1      -1.182   0.037  -0.682  1.00  0.00    -0.342 N 
HETATM    7  C26 UNL     1      -0.763  -3.147  -0.512  1.00  0.00     0.001 C 
HETATM    8  C27 UNL     1      -1.563  -3.020   0.795  1.00  0.00     0.011 C 
HETATM    9  C28 UNL     1      -0.189  -3.103   1.420  1.00  0.00    -0.001 C 
HETATM   10  C29 UNL     1       0.059  -4.139   0.337  1.00  0.00    -0.040 C 
HETATM   11  C30 UNL     1       1.462  -4.353  -0.078  1.00  0.00     0.015 C 
HETATM   12  C31 UNL     1      -0.743  -5.398   0.522  1.00  0.00     0.015 C 
ENDROOT
BRANCH   5  13
HETATM   13  C10 UNL     1       1.057   0.030  -1.532  1.00  0.00     0.241 C 
HETATM   14  O2  UNL     1       0.952   1.315  -1.500  1.00  0.00    -0.271 OA
HETATM   15  N2  UNL     1       2.358  -0.435  -1.774  1.00  0.00    -0.346 N 
ATOM     16  H2  UNL     1       2.504  -1.444  -1.812  1.00  0.00     0.163 HD
BRANCH  15  17
HETATM   17  C11 UNL     1       3.514   0.429  -1.974  1.00  0.00     0.173 C 
BRANCH  17  18
HETATM   18  C12 UNL     1       4.224   0.659  -0.642  1.00  0.00     0.036 C 
BRANCH  18  19
HETATM   19  C13 UNL     1       4.703  -0.606  -0.009  1.00  0.00     0.022 C 
BRANCH  19  20
HETATM   20  C14 UNL     1       5.389  -0.323   1.332  1.00  0.00     0.122 C 
BRANCH  20  21
HETATM   21  N3  UNL     1       5.848  -1.528   1.956  1.00  0.00    -0.367 N 
HETATM   22  C15 UNL     1       6.802  -1.517   2.796  1.00  0.00     0.196 C 
HETATM   23  N4  UNL     1       7.214  -2.762   3.388  1.00  0.00    -0.067 NA
HETATM   24  N5  UNL     1       7.478  -0.339   3.171  1.00  0.00    -0.067 NA
ATOM     25  H3  UNL     1       5.400  -2.414   1.721  1.00  0.00     0.161 HD
ENDBRANCH  20  21
ENDBRANCH  19  20
ENDBRANCH  18  19
ENDBRANCH  17  18
BRANCH  17  26
HETATM   26  C16 UNL     1       4.436  -0.188  -2.931  1.00  0.00     0.254 C 
HETATM   27  N6  UNL     1       5.656   0.432  -3.319  1.00  0.00    -0.060 NA
HETATM   28  O3  UNL     1       4.141  -1.323  -3.438  1.00  0.00    -0.275 OA
ENDBRANCH  17  26
ENDBRANCH  15  17
ENDBRANCH   5  13
BRANCH   6  29
HETATM   29  C17 UNL     1      -2.340   0.414  -1.408  1.00  0.00     0.098 C 
HETATM   30  N8  UNL     1      -3.309  -0.431  -1.454  1.00  0.00    -0.387 N 
ATOM     31  H82 UNL     1      -3.171  -1.305  -0.946  1.00  0.00     0.157 HD
ATOM     32  H81 UNL     1      -4.142  -0.160  -1.976  1.00  0.00     0.157 HD
BRANCH  29  33
HETATM   33  C18 UNL     1      -2.538   1.670  -2.138  1.00  0.00     0.156 C 
HETATM   34  C19 UNL     1      -1.992   1.691  -3.541  1.00  0.00     0.033 C 
HETATM   35  C20 UNL     1      -2.882   1.162  -4.596  1.00  0.00     0.004 C 
HETATM   36  C21 UNL     1      -4.299   0.910  -4.275  1.00  0.00     0.020 C 
HETATM   37  C22 UNL     1      -4.844   1.498  -3.027  1.00  0.00     0.128 C 
HETATM   38  N9  UNL     1      -3.881   2.164  -2.198  1.00  0.00    -0.323 N 
HETATM   39  C23 UNL     1      -4.241   3.306  -1.450  1.00  0.00     0.319 C 
HETATM   40  O4  UNL     1      -3.341   3.876  -0.741  1.00  0.00    -0.247 OA
HETATM   41  N10 UNL     1      -5.519   3.897  -1.400  1.00  0.00    -0.343 N 
ATOM     42  H10 UNL     1      -6.274   3.481  -1.946  1.00  0.00     0.164 HD
BRANCH  41  43
HETATM   43  C24 UNL     1      -5.803   5.077  -0.599  1.00  0.00     0.120 C 
HETATM   44  C25 UNL     1      -5.543   4.846   0.859  1.00  0.00     0.026 C 
ENDBRANCH  41  43
ENDBRANCH  29  33
ENDBRANCH   6  29
BRANCH   1  45
HETATM   45  C4  UNL     1      -1.955   1.019   1.448  1.00  0.00     0.244 C 
HETATM   46  N1  UNL     1      -1.631   1.644   2.674  1.00  0.00    -0.339 N 
HETATM   47  C3  UNL     1      -1.899   1.159   3.808  1.00  0.00     0.063 C 
ATOM     48  H1  UNL     1      -1.151   2.543   2.640  1.00  0.00     0.167 HD
HETATM   49  O1  UNL     1      -3.118   1.001   1.061  1.00  0.00    -0.271 OA
BRANCH  47  50
HETATM   50  C2  UNL     1      -1.580   1.775   5.104  1.00  0.00     0.040 C 
HETATM   51  C1  UNL     1      -0.170   1.542   5.545  1.00  0.00     0.010 C 
ENDBRANCH  47  50
ENDBRANCH   1  45
TORSDOF 12
