REMARK  13 active torsions:
REMARK  status: ('A' for Active; 'I' for Inactive)
REMARK    1  A    between atoms: C3_3  and  C4_4 
REMARK    2  A    between atoms: C8_16  and  C9_17 
REMARK    3  A    between atoms: C9_17  and  C10_18 
REMARK    4  A    between atoms: C10_18  and  N4_19 
REMARK    5  A    between atoms: N4_19  and  C13_22 
REMARK    6  A    between atoms: C13_22  and  C14_23 
REMARK    7  A    between atoms: C14_23  and  C15_24 
REMARK    8  A    between atoms: C15_24  and  C16_25 
REMARK    9  A    between atoms: C19_31  and  C20_32 
REMARK   10  A    between atoms: C20_32  and  C21_33 
REMARK   11  A    between atoms: C25_40  and  C26_41 
REMARK   12  A    between atoms: C26_41  and  C27_42 
REMARK   13  A    between atoms: C30_45  and  O5_46 
ROOT
HETATM    1  C1  UNL     1      -5.515   7.082  -2.016  1.00  0.00     0.112 C 
HETATM    2  C2  UNL     1      -4.873   5.905  -1.422  1.00  0.00    -0.108 C 
HETATM    3  C3  UNL     1      -4.329   4.940  -0.943  1.00  0.00    -0.073 C 
ENDROOT
BRANCH   3   4
HETATM    4  C4  UNL     1      -3.642   3.769  -0.338  1.00  0.00     0.237 C 
HETATM    5  N1  UNL     1      -2.894   4.183   0.823  1.00  0.00    -0.321 N 
HETATM    6  C5  UNL     1      -1.729   3.576   1.335  1.00  0.00     0.317 C 
ATOM      7  H1  UNL     1      -3.244   4.999   1.326  1.00  0.00     0.166 HD
HETATM    8  O1  UNL     1      -1.683   3.485   2.616  1.00  0.00    -0.247 OA
HETATM    9  N2  UNL     1      -0.644   3.078   0.566  1.00  0.00    -0.334 N 
HETATM   10  C6  UNL     1      -0.043   3.712  -0.569  1.00  0.00     0.227 C 
ATOM     11  H2  UNL     1      -0.254   2.179   0.850  1.00  0.00     0.164 HD
HETATM   12  C7  UNL     1       0.010   2.894  -1.799  1.00  0.00     0.236 C 
HETATM   13  O2  UNL     1       0.105   3.593  -2.878  1.00  0.00    -0.272 OA
HETATM   14  N3  UNL     1      -0.028   1.516  -1.939  1.00  0.00    -0.346 N 
HETATM   15  C8  UNL     1       0.733   0.508  -1.235  1.00  0.00     0.178 C 
ATOM     16  H3  UNL     1      -0.684   1.164  -2.636  1.00  0.00     0.163 HD
HETATM   17  C18 UNL     1       0.992  -0.656  -2.157  1.00  0.00     0.241 C 
HETATM   18  O3  UNL     1       1.557  -0.297  -3.255  1.00  0.00    -0.271 OA
HETATM   19  N5  UNL     1       0.708  -1.980  -1.966  1.00  0.00    -0.346 N 
HETATM   20  C19 UNL     1      -0.569  -2.651  -1.697  1.00  0.00     0.177 C 
ATOM     21  H5  UNL     1       1.515  -2.602  -2.019  1.00  0.00     0.163 HD
HETATM   22  C24 UNL     1      -1.715  -1.755  -1.996  1.00  0.00     0.241 C 
HETATM   23  O4  UNL     1      -1.876  -1.599  -3.276  1.00  0.00    -0.271 OA
HETATM   24  N6  UNL     1      -2.577  -1.104  -1.111  1.00  0.00    -0.347 N 
HETATM   25  C25 UNL     1      -3.422  -1.691  -0.055  1.00  0.00     0.159 C 
ATOM     26  H6  UNL     1      -2.629  -0.090  -1.208  1.00  0.00     0.163 HD
HETATM   27  C30 UNL     1      -4.708  -0.958  -0.102  1.00  0.00     0.135 C 
HETATM   28  N7  UNL     1      -5.003   0.350   0.245  1.00  0.00    -0.366 N 
HETATM   29  C31 UNL     1      -4.191   1.447   0.640  1.00  0.00     0.203 C 
ATOM     30  H7  UNL     1      -5.999   0.569   0.210  1.00  0.00     0.161 HD
HETATM   31  C32 UNL     1      -4.640   2.748   0.075  1.00  0.00     0.178 C 
HETATM   32  O6  UNL     1      -5.818   3.007  -0.061  1.00  0.00    -0.293 OA
BRANCH  15  33
HETATM   33  C9  UNL     1       2.161   1.017  -0.915  1.00  0.00     0.063 C 
BRANCH  33  34
HETATM   34  C10 UNL     1       2.931  -0.031  -0.180  1.00  0.00     0.239 C 
BRANCH  34  35
HETATM   35  N4  UNL     1       4.278   0.435   0.119  1.00  0.00    -0.075 N 
HETATM   36  C11 UNL     1       4.461   1.841  -0.162  1.00  0.00     0.272 C 
HETATM   37  C12 UNL     1       5.157  -0.308  -0.773  1.00  0.00     0.272 C 
BRANCH  35  38
HETATM   38  C13 UNL     1       4.531   0.120   1.481  1.00  0.00     0.236 C 
BRANCH  38  39
HETATM   39  C14 UNL     1       5.707   0.690   2.156  1.00  0.00     0.028 C 
BRANCH  39  40
HETATM   40  C15 UNL     1       7.042   0.331   1.618  1.00  0.00     0.001 C 
BRANCH  40  41
HETATM   41  C16 UNL     1       8.106   1.021   2.486  1.00  0.00    -0.005 C 
HETATM   42  C17 UNL     1       9.447   0.624   1.901  1.00  0.00     0.005 C 
ENDBRANCH  40  41
ENDBRANCH  39  40
ENDBRANCH  38  39
ENDBRANCH  35  38
ENDBRANCH  34  35
ENDBRANCH  33  34
ENDBRANCH  15  33
BRANCH  20  43
HETATM   43  C20 UNL     1      -0.683  -3.844  -2.675  1.00  0.00     0.038 C 
BRANCH  43  44
HETATM   44  C21 UNL     1      -1.952  -4.612  -2.466  1.00  0.00    -0.020 C 
HETATM   45  C22 UNL     1      -1.947  -5.739  -3.501  1.00  0.00     0.009 C 
HETATM   46  C23 UNL     1      -1.983  -5.287  -1.104  1.00  0.00     0.009 C 
ENDBRANCH  43  44
ENDBRANCH  20  43
BRANCH  25  47
HETATM   47  C26 UNL     1      -2.741  -1.725   1.252  1.00  0.00     0.037 C 
BRANCH  47  48
HETATM   48  C27 UNL     1      -3.402  -2.325   2.436  1.00  0.00    -0.020 C 
HETATM   49  C28 UNL     1      -4.667  -1.678   2.878  1.00  0.00     0.009 C 
HETATM   50  C29 UNL     1      -3.586  -3.829   2.312  1.00  0.00     0.009 C 
ENDBRANCH  47  48
ENDBRANCH  25  47
BRANCH  27  51
HETATM   51  O5  UNL     1      -5.700  -1.674  -0.543  1.00  0.00    -0.348 OA
ATOM     52  H5  UNL     1      -6.525  -1.204  -0.573  1.00  0.00     0.219 HD
ENDBRANCH  27  51
ENDBRANCH   3   4
TORSDOF 13
