REMARK  11 active torsions:
REMARK  status: ('A' for Active; 'I' for Inactive)
REMARK    1  A    between atoms: C2_2  and  C3_3 
REMARK    2  A    between atoms: C3_3  and  N1_4 
REMARK    3  A    between atoms: C3_3  and  C24_38 
REMARK       I    between atoms: N1_4  and  C4_6 
REMARK       I    between atoms: C4_6  and  N2_8 
REMARK    4  A    between atoms: N2_8  and  C5_10 
REMARK       I    between atoms: N3_14  and  C9_15 
REMARK       I    between atoms: C9_15  and  N4_17 
REMARK    5  A    between atoms: N4_17  and  C10_19 
REMARK    6  A    between atoms: C12_21  and  C13_22 
REMARK    7  A    between atoms: C13_22  and  C14_23 
REMARK    8  A    between atoms: C15_24  and  C16_25 
REMARK    9  A    between atoms: C17_26  and  C18_27 
REMARK   10  A    between atoms: C18_27  and  N5_28 
REMARK       I    between atoms: C19_30  and  N7_32 
REMARK   11  A    between atoms: N7_32  and  C20_34 
REMARK       I    between atoms: C24_38  and  N8_40 
ROOT
HETATM    1  C5  UNL     1      -0.850   0.322   1.401  1.00  0.00     0.106 C 
HETATM    2  C6  UNL     1       0.093   0.954   2.420  1.00  0.00     0.051 C 
HETATM    3  C7  UNL     1       1.462   0.464   1.983  1.00  0.00     0.086 C 
HETATM    4  C8  UNL     1       2.461   1.605   1.954  1.00  0.00     0.032 C 
HETATM    5  N3  UNL     1       1.293  -0.130   0.681  1.00  0.00    -0.328 N 
HETATM    6  C9  UNL     1       2.218  -0.974   0.023  1.00  0.00     0.319 C 
HETATM    7  O2  UNL     1       3.325  -1.293   0.585  1.00  0.00    -0.247 OA
HETATM    8  N4  UNL     1       1.941  -1.477  -1.259  1.00  0.00    -0.338 N 
ATOM      9  H4  UNL     1       1.064  -1.232  -1.718  1.00  0.00     0.164 HD
HETATM   10  C23 UNL     1       0.020   0.282   0.166  1.00  0.00     0.153 C 
ENDROOT
BRANCH   8  11
HETATM   11  C10 UNL     1       2.889  -2.342  -1.939  1.00  0.00     0.091 A 
HETATM   12  C11 UNL     1       2.508  -3.212  -3.059  1.00  0.00     0.032 A 
HETATM   13  C12 UNL     1       3.215  -1.961  -3.361  1.00  0.00     0.014 A 
BRANCH  13  14
HETATM   14  C13 UNL     1       4.675  -1.980  -3.796  1.00  0.00     0.033 C 
BRANCH  14  15
HETATM   15  C14 UNL     1       5.487  -1.067  -2.992  1.00  0.00    -0.026 C 
HETATM   16  C15 UNL     1       6.537  -1.381  -2.243  1.00  0.00    -0.004 C 
BRANCH  16  17
HETATM   17  C16 UNL     1       7.042  -2.719  -2.117  1.00  0.00    -0.003 C 
HETATM   18  C17 UNL     1       8.043  -3.185  -1.433  1.00  0.00    -0.007 C 
BRANCH  18  19
HETATM   19  C18 UNL     1       9.021  -2.563  -0.550  1.00  0.00     0.149 C 
BRANCH  19  20
HETATM   20  N5  UNL     1       8.877  -1.169  -0.367  1.00  0.00    -0.361 N 
HETATM   21  C19 UNL     1       9.380  -0.546   0.652  1.00  0.00     0.184 C 
HETATM   22  N6  UNL     1      10.095  -1.317   1.602  1.00  0.00    -0.064 NA
HETATM   23  N7  UNL     1       9.219   0.851   0.821  1.00  0.00    -0.361 N 
ATOM     24  H7  UNL     1      10.009   1.432   1.103  1.00  0.00     0.162 HD
ATOM     25  H5  UNL     1       8.358  -0.633  -1.063  1.00  0.00     0.162 HD
BRANCH  23  26
HETATM   26  C20 UNL     1       7.919   1.443   0.588  1.00  0.00     0.076 C 
HETATM   27  C21 UNL     1       7.930   2.926   0.881  1.00  0.00     0.032 C 
HETATM   28  C22 UNL     1       6.817   0.700   1.268  1.00  0.00     0.032 C 
ENDBRANCH  23  26
ENDBRANCH  19  20
ENDBRANCH  18  19
ENDBRANCH  16  17
ENDBRANCH  14  15
ENDBRANCH  13  14
ENDBRANCH   8  11
BRANCH   1  29
HETATM   29  N2  UNL     1      -2.027   1.104   1.192  1.00  0.00    -0.337 N 
HETATM   30  C4  UNL     1      -3.300   0.552   1.421  1.00  0.00     0.317 C 
HETATM   31  N1  UNL     1      -4.453   1.331   1.192  1.00  0.00    -0.330 N 
HETATM   32  O1  UNL     1      -3.377  -0.640   1.827  1.00  0.00    -0.247 OA
ATOM     33  H1  UNL     1      -4.318   2.285   0.858  1.00  0.00     0.165 HD
ATOM     34  H2  UNL     1      -1.944   2.070   0.874  1.00  0.00     0.164 HD
BRANCH  31  35
HETATM   35  C3  UNL     1      -5.820   0.878   1.396  1.00  0.00     0.178 C 
BRANCH  35  36
HETATM   36  C2  UNL     1      -6.510   1.913   2.249  1.00  0.00     0.030 C 
HETATM   37  C1  UNL     1      -6.470   3.233   1.500  1.00  0.00     0.007 C 
ENDBRANCH  35  36
BRANCH  35  38
HETATM   38  C24 UNL     1      -6.464   0.717   0.056  1.00  0.00     0.243 C 
HETATM   39  O3  UNL     1      -5.814   0.943  -0.991  1.00  0.00    -0.271 OA
HETATM   40  N8  UNL     1      -7.812   0.307  -0.060  1.00  0.00    -0.344 N 
HETATM   41  C25 UNL     1      -8.920  -0.047   0.845  1.00  0.00     0.133 C 
HETATM   42  C30 UNL     1      -8.747   0.031  -1.144  1.00  0.00     0.104 C 
HETATM   43  C26 UNL     1      -9.396  -0.942  -0.255  1.00  0.00     0.028 C 
HETATM   44  C27 UNL     1     -10.834  -1.198  -0.387  1.00  0.00     0.021 C 
HETATM   45  C28 UNL     1     -11.741  -0.014  -0.316  1.00  0.00     0.109 C 
HETATM   46  S1  UNL     1     -11.230   1.055  -1.670  1.00  0.00     0.016 S 
HETATM   47  O4  UNL     1     -12.026   2.516  -1.452  1.00  0.00    -0.258 OA
HETATM   48  C29 UNL     1      -9.488   1.263  -1.492  1.00  0.00     0.134 C 
ENDBRANCH  35  38
ENDBRANCH  31  35
ENDBRANCH   1  29
TORSDOF 11
