REMARK  12 active torsions:
REMARK  status: ('A' for Active; 'I' for Inactive)
REMARK    1  A    between atoms: C3_3  and  C4_4 
REMARK    2  A    between atoms: C6_6  and  C7_7 
REMARK    3  A    between atoms: C7_7  and  C8_8 
REMARK    4  A    between atoms: C12_18  and  C13_19 
REMARK    5  A    between atoms: C13_19  and  C14_20 
REMARK    6  A    between atoms: C14_20  and  C15_21 
REMARK    7  A    between atoms: C15_21  and  N3_22 
REMARK    8  A    between atoms: C19_31  and  C20_32 
REMARK    9  A    between atoms: C20_32  and  C21_33 
REMARK   10  A    between atoms: C24_36  and  O3_37 
REMARK   11  A    between atoms: C25_41  and  C26_42 
REMARK   12  A    between atoms: C26_42  and  C27_43 
ROOT
HETATM    1  C1  UNL     1      -2.514   3.346   3.900  1.00  0.00     0.012 C 
HETATM    2  C2  UNL     1      -2.804   4.024   2.959  1.00  0.00    -0.111 C 
HETATM    3  C3  UNL     1      -3.172   4.840   1.801  1.00  0.00     0.150 C 
ENDROOT
BRANCH   3   4
HETATM    4  C4  UNL     1      -2.573   4.176   0.588  1.00  0.00     0.020 A 
HETATM    5  C5  UNL     1      -3.178   3.211  -0.186  1.00  0.00     0.034 A 
HETATM    6  C6  UNL     1      -2.269   2.888  -1.190  1.00  0.00    -0.037 A 
HETATM    7  C32 UNL     1      -1.178   3.668  -0.968  1.00  0.00     0.095 A 
HETATM    8  N9  UNL     1      -1.356   4.440   0.095  1.00  0.00    -0.368 N 
ATOM      9  H9  UNL     1      -0.687   5.113   0.470  1.00  0.00     0.165 HD
BRANCH   6  10
HETATM   10  C7  UNL     1      -2.578   1.902  -2.221  1.00  0.00     0.094 C 
BRANCH  10  11
HETATM   11  C8  UNL     1      -2.290   0.470  -1.935  1.00  0.00     0.293 C 
HETATM   12  N1  UNL     1      -0.909   0.290  -1.668  1.00  0.00    -0.041 N 
HETATM   13  C9  UNL     1      -0.171  -0.014  -2.870  1.00  0.00     0.275 C 
ATOM     14  H12 UNL     1      -0.515   1.096  -1.183  1.00  0.00     0.280 HD
ATOM     15  H11 UNL     1      -0.758  -0.417  -0.949  1.00  0.00     0.280 HD
HETATM   16  C10 UNL     1      -0.489  -1.419  -3.394  1.00  0.00     0.050 C 
HETATM   17  C11 UNL     1       1.286   0.112  -2.776  1.00  0.00     0.248 C 
HETATM   18  O1  UNL     1       1.914  -0.537  -3.709  1.00  0.00    -0.271 OA
HETATM   19  N2  UNL     1       2.101   0.792  -1.884  1.00  0.00    -0.346 N 
HETATM   20  C12 UNL     1       2.239   0.664  -0.459  1.00  0.00     0.177 C 
ATOM     21  H2  UNL     1       2.701   1.499  -2.309  1.00  0.00     0.163 HD
HETATM   22  C17 UNL     1       3.084  -0.519  -0.055  1.00  0.00     0.246 C 
HETATM   23  O2  UNL     1       4.190  -0.546  -0.665  1.00  0.00    -0.271 OA
HETATM   24  N6  UNL     1       2.741  -1.511   0.887  1.00  0.00    -0.320 N 
HETATM   25  C18 UNL     1       3.772  -1.729   1.932  1.00  0.00     0.159 C 
HETATM   26  C19 UNL     1       1.529  -2.298   0.956  1.00  0.00     0.065 C 
HETATM   27  C24 UNL     1       0.392  -1.532   1.493  1.00  0.00     0.160 C 
HETATM   28  N7  UNL     1      -0.861  -1.179   1.069  1.00  0.00    -0.356 N 
HETATM   29  C25 UNL     1      -1.887  -1.934   0.339  1.00  0.00     0.176 C 
ATOM     30  H7  UNL     1      -1.129  -0.223   1.301  1.00  0.00     0.162 HD
HETATM   31  C30 UNL     1      -2.993  -0.940   0.084  1.00  0.00     0.243 C 
HETATM   32  O4  UNL     1      -3.806  -0.801   1.061  1.00  0.00    -0.271 OA
HETATM   33  N8  UNL     1      -3.229  -0.176  -1.043  1.00  0.00    -0.326 N 
HETATM   34  C31 UNL     1      -4.640   0.049  -1.420  1.00  0.00     0.155 C 
BRANCH  20  35
HETATM   35  C13 UNL     1       2.751   1.940   0.178  1.00  0.00     0.036 C 
BRANCH  35  36
HETATM   36  C14 UNL     1       4.072   2.420  -0.277  1.00  0.00     0.022 C 
BRANCH  36  37
HETATM   37  C15 UNL     1       4.438   3.712   0.468  1.00  0.00     0.122 C 
BRANCH  37  38
HETATM   38  N3  UNL     1       3.450   4.752   0.206  1.00  0.00    -0.367 N 
HETATM   39  C16 UNL     1       3.274   5.746   1.003  1.00  0.00     0.196 C 
HETATM   40  N4  UNL     1       4.045   5.869   2.181  1.00  0.00    -0.067 NA
HETATM   41  N5  UNL     1       2.284   6.699   0.642  1.00  0.00    -0.067 NA
ATOM     42  H3  UNL     1       2.880   4.689  -0.637  1.00  0.00     0.161 HD
ENDBRANCH  37  38
ENDBRANCH  36  37
ENDBRANCH  35  36
ENDBRANCH  20  35
BRANCH  26  43
HETATM   43  C20 UNL     1       1.282  -3.257  -0.139  1.00  0.00     0.065 C 
BRANCH  43  44
HETATM   44  C21 UNL     1       2.235  -4.359  -0.387  1.00  0.00    -0.017 C 
HETATM   45  C22 UNL     1       2.473  -5.307   0.761  1.00  0.00     0.010 C 
HETATM   46  C23 UNL     1       3.544  -4.033  -1.024  1.00  0.00     0.010 C 
ENDBRANCH  43  44
ENDBRANCH  26  43
BRANCH  27  47
HETATM   47  O3  UNL     1       0.683  -1.078   2.689  1.00  0.00    -0.345 OA
ATOM     48  H3  UNL     1      -0.051  -0.584   3.035  1.00  0.00     0.219 HD
ENDBRANCH  27  47
BRANCH  29  49
HETATM   49  C26 UNL     1      -2.434  -3.014   1.223  1.00  0.00     0.038 C 
BRANCH  49  50
HETATM   50  C27 UNL     1      -3.392  -3.994   0.712  1.00  0.00    -0.020 C 
HETATM   51  C28 UNL     1      -3.785  -4.967   1.838  1.00  0.00     0.009 C 
HETATM   52  C29 UNL     1      -4.561  -3.601  -0.094  1.00  0.00     0.009 C 
ENDBRANCH  49  50
ENDBRANCH  29  49
ENDBRANCH  10  11
ENDBRANCH   6  10
ENDBRANCH   3   4
TORSDOF 12
