REMARK  14 active torsions:
REMARK  status: ('A' for Active; 'I' for Inactive)
REMARK    1  A    between atoms: C2_2  and  N1_3 
REMARK    2  A    between atoms: C4_6  and  C5_7 
REMARK    3  A    between atoms: C5_7  and  C6_8 
REMARK    4  A    between atoms: C9_13  and  O2_14 
REMARK    5  A    between atoms: C13_21  and  O3_22 
REMARK    6  A    between atoms: C18_31  and  C19_32 
REMARK    7  A    between atoms: C19_32  and  C20_33 
REMARK    8  A    between atoms: C20_33  and  C21_34 
REMARK    9  A    between atoms: C21_34  and  N5_35 
REMARK   10  A    between atoms: C23_42  and  O5_43 
REMARK   11  A    between atoms: C24_45  and  C25_46 
REMARK   12  A    between atoms: C25_46  and  C26_47 
REMARK   13  A    between atoms: C26_47  and  C27_48 
REMARK   14  A    between atoms: C27_48  and  N9_49 
ROOT
HETATM    1  N1  UNL     1      -2.739  -0.532   0.535  1.00  0.00    -0.339 N 
HETATM    2  C3  UNL     1      -2.535  -1.871   0.914  1.00  0.00     0.243 C 
HETATM    3  O1  UNL     1      -3.435  -2.309   1.727  1.00  0.00    -0.271 OA
HETATM    4  C4  UNL     1      -1.494  -2.861   0.552  1.00  0.00     0.176 C 
HETATM    5  N2  UNL     1      -0.933  -2.590  -0.756  1.00  0.00    -0.359 N 
ATOM      6  H2  UNL     1      -0.626  -1.623  -0.862  1.00  0.00     0.162 HD
HETATM    7  C9  UNL     1      -0.721  -3.344  -1.889  1.00  0.00     0.140 C 
HETATM    8  C10 UNL     1       0.094  -4.551  -2.083  1.00  0.00     0.089 C 
HETATM    9  C11 UNL     1       0.005  -5.022  -3.554  1.00  0.00     0.047 C 
HETATM   10  C12 UNL     1      -0.536  -5.759  -1.365  1.00  0.00     0.047 C 
HETATM   11  N3  UNL     1       1.502  -4.420  -1.803  1.00  0.00    -0.356 N 
ATOM     12  H3  UNL     1       1.863  -5.194  -1.245  1.00  0.00     0.162 HD
HETATM   13  C13 UNL     1       2.474  -3.496  -2.112  1.00  0.00     0.140 C 
HETATM   14  C14 UNL     1       2.660  -2.056  -1.851  1.00  0.00     0.090 C 
HETATM   15  C15 UNL     1       1.942  -1.142  -2.760  1.00  0.00     0.047 C 
HETATM   16  C16 UNL     1       4.163  -1.730  -2.132  1.00  0.00     0.047 C 
HETATM   17  N4  UNL     1       2.546  -1.811  -0.439  1.00  0.00    -0.343 N 
ATOM     18  H4  UNL     1       2.561  -2.663   0.122  1.00  0.00     0.163 HD
HETATM   19  C17 UNL     1       2.421  -0.664   0.313  1.00  0.00     0.241 C 
HETATM   20  O4  UNL     1       3.244  -0.509   1.302  1.00  0.00    -0.271 OA
HETATM   21  C18 UNL     1       1.480   0.480   0.207  1.00  0.00     0.175 C 
HETATM   22  N8  UNL     1       0.617   0.497   1.400  1.00  0.00    -0.359 N 
ATOM     23  H8  UNL     1       1.103   0.415   2.293  1.00  0.00     0.162 HD
HETATM   24  C23 UNL     1      -0.749   0.607   1.482  1.00  0.00     0.135 C 
HETATM   25  C24 UNL     1      -1.784   0.546   0.443  1.00  0.00     0.161 C 
ENDROOT
BRANCH  21  26
HETATM   26  C19 UNL     1       2.307   1.768   0.371  1.00  0.00     0.036 C 
BRANCH  26  27
HETATM   27  C20 UNL     1       3.369   1.914  -0.662  1.00  0.00     0.022 C 
BRANCH  27  28
HETATM   28  C21 UNL     1       4.153   3.199  -0.466  1.00  0.00     0.122 C 
BRANCH  28  29
HETATM   29  N5  UNL     1       4.796   3.233   0.829  1.00  0.00    -0.367 N 
HETATM   30  C22 UNL     1       5.809   4.001   1.073  1.00  0.00     0.196 C 
HETATM   31  N6  UNL     1       6.312   4.839   0.043  1.00  0.00    -0.067 NA
HETATM   32  N7  UNL     1       6.449   4.045   2.334  1.00  0.00    -0.067 NA
ATOM     33  H5  UNL     1       4.440   2.633   1.573  1.00  0.00     0.161 HD
ENDBRANCH  28  29
ENDBRANCH  27  28
ENDBRANCH  26  27
ENDBRANCH  21  26
BRANCH  24  34
HETATM   34  O5  UNL     1      -1.233   0.802   2.673  1.00  0.00    -0.348 OA
ATOM     35  H5  UNL     1      -2.178   0.878   2.730  1.00  0.00     0.219 HD
ENDBRANCH  24  34
BRANCH  25  36
HETATM   36  C25 UNL     1      -2.489   1.926   0.599  1.00  0.00     0.035 C 
BRANCH  36  37
HETATM   37  C26 UNL     1      -1.442   3.015   0.501  1.00  0.00     0.030 C 
BRANCH  37  38
HETATM   38  C27 UNL     1      -1.960   4.405   0.652  1.00  0.00     0.236 C 
BRANCH  38  39
HETATM   39  N9  UNL     1      -2.909   4.805  -0.330  1.00  0.00    -0.079 N 
HETATM   40  C28 UNL     1      -4.273   4.474  -0.061  1.00  0.00     0.271 C 
HETATM   41  C29 UNL     1      -2.844   6.289  -0.392  1.00  0.00     0.271 C 
HETATM   42  C30 UNL     1      -2.590   4.377  -1.687  1.00  0.00     0.271 C 
ENDBRANCH  38  39
ENDBRANCH  37  38
ENDBRANCH  36  37
ENDBRANCH  25  36
BRANCH  13  43
HETATM   43  O3  UNL     1       3.486  -3.955  -2.793  1.00  0.00    -0.348 OA
ATOM     44  H3  UNL     1       4.157  -3.317  -3.006  1.00  0.00     0.219 HD
ENDBRANCH  13  43
BRANCH   1  45
HETATM   45  C2  UNL     1      -4.138  -0.156   0.183  1.00  0.00     0.122 C 
HETATM   46  C1  UNL     1      -4.920   0.325   1.357  1.00  0.00     0.026 C 
ENDBRANCH   1  45
BRANCH   4  47
HETATM   47  C5  UNL     1      -0.481  -3.211   1.569  1.00  0.00     0.038 C 
BRANCH  47  48
HETATM   48  C6  UNL     1      -0.899  -3.826   2.846  1.00  0.00    -0.020 C 
HETATM   49  C7  UNL     1      -1.655  -5.128   2.733  1.00  0.00     0.009 C 
HETATM   50  C8  UNL     1      -1.433  -2.935   3.914  1.00  0.00     0.009 C 
ENDBRANCH  47  48
ENDBRANCH   4  47
BRANCH   7  51
HETATM   51  O2  UNL     1      -1.325  -2.940  -2.967  1.00  0.00    -0.348 OA
ATOM     52  H2  UNL     1      -1.179  -3.460  -3.748  1.00  0.00     0.219 HD
ENDBRANCH   7  51
TORSDOF 14
