REMARK  14 active torsions:
REMARK  status: ('A' for Active; 'I' for Inactive)
REMARK    1  A    between atoms: C3_3  and  C4_4 
REMARK    2  A    between atoms: C5_5  and  C6_6 
REMARK    3  A    between atoms: C7_7  and  C8_8 
REMARK    4  A    between atoms: C10_12  and  C11_13 
REMARK    5  A    between atoms: C11_13  and  C12_14 
REMARK    6  A    between atoms: C12_14  and  N2_15 
REMARK    7  A    between atoms: C12_14  and  C28_47 
REMARK    8  A    between atoms: N2_15  and  C13_17 
REMARK    9  A    between atoms: C13_17  and  C15_25 
REMARK       I    between atoms: N3_18  and  C14_20 
REMARK   10  A    between atoms: C15_25  and  C16_26 
REMARK   11  A    between atoms: C15_25  and  C22_39 
REMARK   12  A    between atoms: C16_26  and  C17_27 
REMARK   13  A    between atoms: N6_30  and  S1_31 
REMARK   14  A    between atoms: S1_31  and  N7_32 
REMARK       I    between atoms: C22_39  and  N8_41 
ROOT
HETATM    1  C1  UNL     1      11.000  -0.981   4.322  1.00  0.00     0.097 C 
HETATM    2  C2  UNL     1      10.751  -1.405   3.202  1.00  0.00    -0.184 C 
HETATM    3  C3  UNL     1      10.463  -1.898   1.859  1.00  0.00     0.107 C 
ENDROOT
BRANCH   3   4
HETATM    4  C4  UNL     1       9.334  -1.126   1.287  1.00  0.00    -0.007 C 
HETATM    5  C5  UNL     1       8.210  -1.718   0.916  1.00  0.00     0.061 C 
BRANCH   5   6
HETATM    6  C6  UNL     1       7.129  -0.958   0.368  1.00  0.00    -0.073 C 
HETATM    7  C7  UNL     1       6.237  -0.310  -0.110  1.00  0.00    -0.061 C 
BRANCH   7   8
HETATM    8  C8  UNL     1       5.183   0.485  -0.708  1.00  0.00     0.035 A 
HETATM    9  C9  UNL     1       5.395   1.706  -1.312  1.00  0.00     0.108 A 
HETATM   10  N1  UNL     1       4.211   2.133  -1.754  1.00  0.00    -0.368 N 
HETATM   11  C10 UNL     1       3.218   1.271  -1.483  1.00  0.00     0.012 A 
ATOM     12  H1  UNL     1       4.075   3.017  -2.244  1.00  0.00     0.165 HD
HETATM   13  C29 UNL     1       3.840   0.215  -0.813  1.00  0.00     0.047 A 
BRANCH  11  14
HETATM   14  C11 UNL     1       1.811   1.377  -1.802  1.00  0.00     0.091 C 
BRANCH  14  15
HETATM   15  C12 UNL     1       0.969   1.949  -0.698  1.00  0.00     0.177 C 
BRANCH  15  16
HETATM   16  N2  UNL     1      -0.439   1.988  -1.153  1.00  0.00    -0.366 N 
ATOM     17  H2  UNL     1      -0.924   2.882  -1.231  1.00  0.00     0.161 HD
BRANCH  16  18
HETATM   18  C13 UNL     1      -1.103   0.804  -1.475  1.00  0.00     0.093 C 
HETATM   19  N3  UNL     1      -1.461   0.590  -2.690  1.00  0.00    -0.320 N 
HETATM   20  C14 UNL     1      -1.232   1.473  -3.747  1.00  0.00     0.187 C 
ATOM     21  H3  UNL     1      -1.945  -0.284  -2.896  1.00  0.00     0.169 HD
HETATM   22  N4  UNL     1      -1.631   2.691  -3.657  1.00  0.00    -0.373 N 
HETATM   23  N5  UNL     1      -0.565   1.028  -4.913  1.00  0.00    -0.064 NA
ATOM     24  H42 UNL     1      -2.112   3.012  -2.817  1.00  0.00     0.158 HD
ATOM     25  H41 UNL     1      -1.464   3.336  -4.429  1.00  0.00     0.158 HD
BRANCH  18  26
HETATM   26  C15 UNL     1      -1.360  -0.197  -0.431  1.00  0.00     0.146 C 
BRANCH  26  27
HETATM   27  C16 UNL     1      -2.137   0.233   0.738  1.00  0.00     0.027 C 
BRANCH  27  28
HETATM   28  C17 UNL     1      -3.503   0.741   0.638  1.00  0.00    -0.004 C 
HETATM   29  C18 UNL     1      -3.773   1.985  -0.140  1.00  0.00     0.051 C 
HETATM   30  C19 UNL     1      -5.257   2.282  -0.133  1.00  0.00     0.083 C 
HETATM   31  N6  UNL     1      -6.002   1.706   0.882  1.00  0.00    -0.253 N 
HETATM   32  C20 UNL     1      -5.431   1.176   2.039  1.00  0.00     0.083 C 
HETATM   33  C21 UNL     1      -3.941   1.128   2.074  1.00  0.00     0.051 C 
BRANCH  31  34
HETATM   34  S1  UNL     1      -7.667   1.540   0.667  1.00  0.00     0.321 S 
HETATM   35  O1  UNL     1      -8.269   2.889   0.388  1.00  0.00    -0.182 OA
HETATM   36  O2  UNL     1      -8.278   0.871   1.840  1.00  0.00    -0.182 OA
BRANCH  34  37
HETATM   37  N7  UNL     1      -7.940   0.504  -0.712  1.00  0.00    -0.311 N 
ATOM     38  H72 UNL     1      -7.207   0.079  -1.280  1.00  0.00     0.170 HD
ATOM     39  H71 UNL     1      -8.947   0.404  -0.842  1.00  0.00     0.170 HD
ENDBRANCH  34  37
ENDBRANCH  31  34
ENDBRANCH  27  28
ENDBRANCH  26  27
BRANCH  26  40
HETATM   40  C22 UNL     1      -1.777  -1.512  -0.990  1.00  0.00     0.231 C 
HETATM   41  O3  UNL     1      -2.488  -1.475  -2.029  1.00  0.00    -0.273 OA
HETATM   42  N8  UNL     1      -1.458  -2.772  -0.469  1.00  0.00    -0.351 N 
HETATM   43  C23 UNL     1      -1.963  -3.968  -1.101  1.00  0.00     0.125 C 
HETATM   44  C27 UNL     1      -0.609  -2.926   0.683  1.00  0.00     0.125 C 
HETATM   45  C24 UNL     1      -2.477  -4.980  -0.098  1.00  0.00     0.020 C 
HETATM   46  C25 UNL     1      -2.660  -4.246   1.217  1.00  0.00     0.003 C 
HETATM   47  C26 UNL     1      -1.268  -3.822   1.701  1.00  0.00     0.020 C 
ENDBRANCH  26  40
ENDBRANCH  18  26
ENDBRANCH  16  18
ENDBRANCH  15  16
BRANCH  15  48
HETATM   48  C28 UNL     1       1.393   3.327  -0.361  1.00  0.00     0.254 C 
HETATM   49  N9  UNL     1       2.602   3.647   0.288  1.00  0.00    -0.060 NA
HETATM   50  O4  UNL     1       0.598   4.275  -0.676  1.00  0.00    -0.275 OA
ENDBRANCH  15  48
ENDBRANCH  14  15
ENDBRANCH  11  14
ENDBRANCH   7   8
ENDBRANCH   5   6
ENDBRANCH   3   4
TORSDOF 14
