REMARK  11 active torsions:
REMARK  status: ('A' for Active; 'I' for Inactive)
REMARK    1  A    between atoms: C5_8  and  C6_9 
REMARK    2  A    between atoms: C6_9  and  C7_10 
REMARK    3  A    between atoms: C7_10  and  C8_11 
REMARK    4  A    between atoms: C8_11  and  C9_12 
REMARK    5  A    between atoms: C9_12  and  N3_13 
REMARK    6  A    between atoms: C15_25  and  C16_26 
REMARK    7  A    between atoms: N5_36  and  C26_37 
REMARK    8  A    between atoms: C26_37  and  C27_38 
REMARK    9  A    between atoms: C27_38  and  C28_39 
REMARK   10  A    between atoms: C28_39  and  N6_40 
REMARK   11  A    between atoms: N9_48  and  N10_50 
ROOT
HETATM    1  C1  UNL     1      -0.176  -3.842  -0.299  1.00  0.00     0.024 C 
HETATM    2  C2  UNL     1       0.757  -2.659   0.003  1.00  0.00     0.017 C 
HETATM    3  C3  UNL     1       0.067  -1.851   1.096  1.00  0.00     0.144 C 
HETATM    4  N1  UNL     1      -0.430  -0.649   0.452  1.00  0.00    -0.312 N 
HETATM    5  C4  UNL     1      -1.881  -0.533   0.516  1.00  0.00     0.322 C 
HETATM    6  O1  UNL     1      -2.431  -1.105   1.457  1.00  0.00    -0.247 OA
HETATM    7  N2  UNL     1      -2.475   0.257  -0.572  1.00  0.00    -0.323 N 
HETATM    8  C5  UNL     1      -3.195   1.472  -0.665  1.00  0.00     0.107 C 
HETATM    9  C10 UNL     1      -2.227   2.594  -0.174  1.00  0.00     0.148 C 
HETATM   10  N4  UNL     1      -1.023   2.327  -0.930  1.00  0.00    -0.357 N 
ATOM     11  H4  UNL     1      -0.874   3.021  -1.663  1.00  0.00     0.162 HD
HETATM   12  C11 UNL     1      -0.020   1.370  -0.914  1.00  0.00     0.249 C 
HETATM   13  O2  UNL     1       0.736   1.740  -1.904  1.00  0.00    -0.271 OA
HETATM   14  C12 UNL     1       0.553   0.120  -0.261  1.00  0.00     0.147 C 
HETATM   15  C13 UNL     1       0.400  -0.675  -1.613  1.00  0.00     0.033 C 
HETATM   16  C14 UNL     1      -0.891  -0.904  -2.106  1.00  0.00     0.034 C 
HETATM   17  C15 UNL     1      -2.187  -0.113  -1.952  1.00  0.00     0.094 C 
HETATM   18  C21 UNL     1       1.131  -1.928  -1.219  1.00  0.00     0.008 C 
HETATM   19  C22 UNL     1       2.567  -1.468  -1.296  1.00  0.00     0.009 C 
HETATM   20  C23 UNL     1       2.760   0.016  -0.920  1.00  0.00     0.035 C 
HETATM   21  C24 UNL     1       1.894   0.288   0.251  1.00  0.00     0.067 C 
HETATM   22  C25 UNL     1       1.726   1.723   0.785  1.00  0.00     0.042 C 
HETATM   23  N5  UNL     1       2.721  -0.159   1.245  1.00  0.00    -0.361 N 
HETATM   24  C30 UNL     1       3.138  -1.419   1.617  1.00  0.00     0.070 C 
HETATM   25  C31 UNL     1       2.546  -2.708   1.722  1.00  0.00     0.099 C 
HETATM   26  C32 UNL     1       1.984  -3.313   0.521  1.00  0.00     0.020 C 
HETATM   27  N9  UNL     1       2.468  -4.367  -0.095  1.00  0.00    -0.294 N 
ATOM     28  H9  UNL     1       1.981  -4.711  -0.922  1.00  0.00     0.188 HD
ENDROOT
BRANCH   8  29
HETATM   29  C6  UNL     1      -4.540   1.693  -0.166  1.00  0.00     0.027 C 
BRANCH  29  30
HETATM   30  C7  UNL     1      -4.976   1.514   1.215  1.00  0.00     0.004 C 
BRANCH  30  31
HETATM   31  C8  UNL     1      -4.357   2.316   2.303  1.00  0.00     0.027 C 
BRANCH  31  32
HETATM   32  C9  UNL     1      -5.100   1.947   3.623  1.00  0.00     0.229 C 
BRANCH  32  33
HETATM   33  N3  UNL     1      -4.477   2.741   4.657  1.00  0.00    -0.079 N 
ATOM     34  H33 UNL     1      -3.465   2.622   4.710  1.00  0.00     0.274 HD
ATOM     35  H32 UNL     1      -4.471   3.741   4.457  1.00  0.00     0.274 HD
ATOM     36  H31 UNL     1      -4.963   2.500   5.521  1.00  0.00     0.274 HD
ENDBRANCH  32  33
ENDBRANCH  31  32
ENDBRANCH  30  31
ENDBRANCH  29  30
ENDBRANCH   8  29
BRANCH  17  37
HETATM   37  C16 UNL     1      -3.207  -0.968  -2.649  1.00  0.00     0.009 C 
HETATM   38  C17 UNL     1      -4.367  -0.391  -3.292  1.00  0.00     0.007 C 
HETATM   39  C18 UNL     1      -5.397  -1.508  -3.336  1.00  0.00     0.000 C 
HETATM   40  C19 UNL     1      -4.816  -2.658  -2.563  1.00  0.00     0.000 C 
HETATM   41  C20 UNL     1      -3.732  -2.057  -1.685  1.00  0.00     0.007 C 
ENDBRANCH  17  37
BRANCH  23  42
HETATM   42  C26 UNL     1       3.888   0.625   1.522  1.00  0.00     0.066 C 
BRANCH  42  43
HETATM   43  C27 UNL     1       4.224   1.909   2.025  1.00  0.00     0.064 C 
BRANCH  43  44
HETATM   44  C28 UNL     1       5.781   1.973   2.047  1.00  0.00     0.127 C 
BRANCH  44  45
HETATM   45  N6  UNL     1       6.335   1.791   0.750  1.00  0.00    -0.367 N 
HETATM   46  C29 UNL     1       6.557   2.765  -0.028  1.00  0.00     0.196 C 
HETATM   47  N7  UNL     1       7.107   2.534  -1.301  1.00  0.00    -0.067 NA
HETATM   48  N8  UNL     1       6.255   4.107   0.378  1.00  0.00    -0.067 NA
ATOM     49  H6  UNL     1       6.560   0.847   0.437  1.00  0.00     0.161 HD
ENDBRANCH  44  45
ENDBRANCH  43  44
ENDBRANCH  42  43
ENDBRANCH  23  42
BRANCH  27  50
HETATM   50  N10 UNL     1       3.594  -5.026   0.318  1.00  0.00    -0.249 N 
HETATM   51  N11 UNL     1       3.605  -6.285   0.389  1.00  0.00    -0.331 N 
ATOM     52 2H11 UNL     1       2.762  -6.800   0.134  1.00  0.00     0.178 HD
ATOM     53 1H11 UNL     1       4.444  -6.776   0.697  1.00  0.00     0.178 HD
ATOM     54  H10 UNL     1       4.429  -4.496   0.570  1.00  0.00     0.207 HD
ENDBRANCH  27  50
TORSDOF 11
