REMARK  10 active torsions:
REMARK  status: ('A' for Active; 'I' for Inactive)
REMARK    1  A    between atoms: C2_2  and  C3_3 
REMARK    2  A    between atoms: C3_3  and  C4_4 
REMARK    3  A    between atoms: N2_9  and  C7_10 
REMARK    4  A    between atoms: C7_10  and  C8_11 
REMARK    5  A    between atoms: C8_11  and  C9_12 
REMARK    6  A    between atoms: C9_12  and  C10_13 
REMARK    7  A    between atoms: C10_13  and  C11_14 
REMARK    8  A    between atoms: C11_14  and  C12_15 
REMARK    9  A    between atoms: C25_38  and  C26_39 
REMARK   10  A    between atoms: C26_39  and  C27_40 
ROOT
HETATM    1  C12 UNL     1       1.888  -0.721   0.968  1.00  0.00     0.006 C 
HETATM    2  C13 UNL     1       1.729  -1.950   0.153  1.00  0.00     0.123 C 
HETATM    3  N3  UNL     1       0.693  -1.885  -0.816  1.00  0.00    -0.399 N 
ATOM      4  H3  UNL     1       0.768  -2.477  -1.643  1.00  0.00     0.158 HD
HETATM    5  C14 UNL     1      -0.330  -1.124  -0.708  1.00  0.00     0.097 C 
HETATM    6  C15 UNL     1      -0.543  -0.226   0.445  1.00  0.00     0.151 C 
HETATM    7  C16 UNL     1       0.782   0.262   0.952  1.00  0.00     0.053 C 
HETATM    8  N4  UNL     1      -1.211  -0.894   1.534  1.00  0.00    -0.327 N 
ATOM      9  H4  UNL     1      -1.528  -0.332   2.324  1.00  0.00     0.171 HD
HETATM   10  C17 UNL     1      -1.439  -2.227   1.563  1.00  0.00     0.007 C 
HETATM   11  C18 UNL     1      -1.631  -3.333   1.566  1.00  0.00    -0.084 C 
HETATM   12  C19 UNL     1      -1.850  -4.718   1.553  1.00  0.00     0.096 C 
HETATM   13  C20 UNL     1      -2.685  -5.086   0.326  1.00  0.00     0.021 C 
HETATM   14  C21 UNL     1      -3.996  -4.357   0.338  1.00  0.00     0.103 C 
HETATM   15  C22 UNL     1      -4.079  -3.340  -0.751  1.00  0.00     0.217 C 
HETATM   16  O1  UNL     1      -3.106  -3.325  -1.574  1.00  0.00    -0.274 OA
HETATM   17  N5  UNL     1      -5.165  -2.443  -0.872  1.00  0.00    -0.352 N 
ATOM     18  H5  UNL     1      -5.182  -1.825  -1.683  1.00  0.00     0.162 HD
HETATM   19  C23 UNL     1      -6.254  -2.341   0.074  1.00  0.00     0.225 C 
HETATM   20  C24 UNL     1      -5.912  -1.593   1.303  1.00  0.00     0.236 C 
HETATM   21  O2  UNL     1      -6.663  -1.835   2.316  1.00  0.00    -0.272 OA
HETATM   22  N6  UNL     1      -4.889  -0.672   1.493  1.00  0.00    -0.346 N 
ATOM     23  H6  UNL     1      -4.357  -0.725   2.362  1.00  0.00     0.163 HD
HETATM   24  C25 UNL     1      -4.515   0.392   0.511  1.00  0.00     0.177 C 
HETATM   25  C33 UNL     1      -3.493   1.255   1.154  1.00  0.00     0.247 C 
HETATM   26  O3  UNL     1      -3.801   1.634   2.343  1.00  0.00    -0.271 OA
HETATM   27  N7  UNL     1      -2.277   1.681   0.629  1.00  0.00    -0.293 N 
ATOM     28  H7  UNL     1      -2.078   2.673   0.757  1.00  0.00     0.171 HD
HETATM   29  C34 UNL     1      -1.287   0.966  -0.045  1.00  0.00     0.258 C 
HETATM   30  O4  UNL     1      -0.954   1.354  -1.222  1.00  0.00    -0.270 OA
ENDROOT
BRANCH   1  31
HETATM   31  C11 UNL     1       3.162  -0.015   0.486  1.00  0.00     0.006 C 
BRANCH  31  32
HETATM   32  C10 UNL     1       3.055   0.344  -0.981  1.00  0.00     0.000 C 
BRANCH  32  33
HETATM   33  C9  UNL     1       4.275   1.040  -1.485  1.00  0.00     0.002 C 
BRANCH  33  34
HETATM   34  C8  UNL     1       5.512   0.165  -1.324  1.00  0.00     0.020 C 
BRANCH  34  35
HETATM   35  C7  UNL     1       6.712   0.903  -1.846  1.00  0.00     0.130 C 
BRANCH  35  36
HETATM   36  N2  UNL     1       7.951   0.164  -1.746  1.00  0.00    -0.345 N 
HETATM   37  C4  UNL     1       8.831   0.197  -0.732  1.00  0.00     0.028 A 
HETATM   38  C5  UNL     1       9.881  -0.663  -1.052  1.00  0.00     0.114 A 
HETATM   39  N1  UNL     1       9.589  -1.178  -2.248  1.00  0.00    -0.360 N 
HETATM   40  C6  UNL     1       8.436  -0.693  -2.677  1.00  0.00     0.183 A 
ATOM     41  H1  UNL     1      10.169  -1.846  -2.756  1.00  0.00     0.166 HD
BRANCH  37  42
HETATM   42  C3  UNL     1       8.811   0.980   0.523  1.00  0.00     0.058 C 
BRANCH  42  43
HETATM   43  C2  UNL     1       8.204   0.194   1.654  1.00  0.00     0.002 C 
HETATM   44  C1  UNL     1       8.217   1.064   2.897  1.00  0.00     0.005 C 
ENDBRANCH  42  43
ENDBRANCH  37  42
ENDBRANCH  35  36
ENDBRANCH  34  35
ENDBRANCH  33  34
ENDBRANCH  32  33
ENDBRANCH  31  32
ENDBRANCH   1  31
BRANCH  24  45
HETATM   45  C26 UNL     1      -5.739   1.147   0.124  1.00  0.00     0.039 C 
BRANCH  45  46
HETATM   46  C27 UNL     1      -5.667   2.224  -0.870  1.00  0.00    -0.012 C 
HETATM   47  C28 UNL     1      -4.816   3.399  -0.573  1.00  0.00     0.005 C 
HETATM   48  C29 UNL     1      -5.494   4.707  -1.059  1.00  0.00     0.000 C 
HETATM   49  C30 UNL     1      -6.648   5.041  -0.146  1.00  0.00     0.000 C 
HETATM   50  C31 UNL     1      -7.453   3.766   0.008  1.00  0.00     0.000 C 
HETATM   51  C32 UNL     1      -7.096   2.771  -1.078  1.00  0.00     0.005 C 
ENDBRANCH  45  46
ENDBRANCH  24  45
TORSDOF 10
