REMARK  15 active torsions:
REMARK  status: ('A' for Active; 'I' for Inactive)
REMARK    1  A    between atoms: N1_2  and  C2_3 
REMARK       I    between atoms: N1_2  and  C26_43 
REMARK    2  A    between atoms: C2_3  and  C3_4 
REMARK    3  A    between atoms: C3_4  and  C4_5 
REMARK    4  A    between atoms: C4_5  and  C5_6 
REMARK    5  A    between atoms: N2_8  and  C7_9 
REMARK    6  A    between atoms: C7_9  and  O1_10 
REMARK    7  A    between atoms: C7_9  and  N3_12 
REMARK    8  A    between atoms: C12_18  and  C13_19 
REMARK    9  A    between atoms: C14_20  and  C15_21 
REMARK   10  A    between atoms: C17_28  and  C18_29 
REMARK   11  A    between atoms: C18_29  and  C19_30 
REMARK   12  A    between atoms: C19_30  and  C20_31 
REMARK   13  A    between atoms: C20_31  and  C21_32 
REMARK   14  A    between atoms: C21_32  and  C22_33 
REMARK   15  A    between atoms: C22_33  and  C23_34 
ROOT
HETATM    1  C5  UNL     1      -0.042   1.915   0.160  1.00  0.00     0.105 C 
HETATM    2  C6  UNL     1      -1.165   0.911   0.132  1.00  0.00     0.163 C 
HETATM    3  N2  UNL     1      -0.971  -0.346   0.755  1.00  0.00    -0.263 N 
HETATM    4  C16 UNL     1       0.018  -0.945   1.628  1.00  0.00     0.326 C 
HETATM    5  O4  UNL     1      -0.432  -1.906   2.305  1.00  0.00    -0.247 OA
HETATM    6  N5  UNL     1       1.373  -0.732   1.925  1.00  0.00    -0.329 N 
ATOM      7  H5  UNL     1       1.650  -1.350   2.688  1.00  0.00     0.165 HD
HETATM    8  C17 UNL     1       2.492   0.049   1.528  1.00  0.00     0.178 C 
HETATM    9  C24 UNL     1       2.338   0.778   0.250  1.00  0.00     0.242 C 
HETATM   10  O5  UNL     1       3.390   0.847  -0.437  1.00  0.00    -0.271 OA
HETATM   11  N8  UNL     1       1.192   1.410  -0.323  1.00  0.00    -0.348 N 
HETATM   12  C25 UNL     1       1.422   1.520  -1.776  1.00  0.00     0.153 C 
ENDROOT
BRANCH   3  13
HETATM   13  C7  UNL     1      -2.014  -1.246   0.460  1.00  0.00     0.226 C 
BRANCH  13  14
HETATM   14  O1  UNL     1      -1.810  -2.423   1.041  1.00  0.00    -0.332 OA
ATOM     15  H1  UNL     1      -2.513  -3.030   0.842  1.00  0.00     0.221 HD
ENDBRANCH  13  14
BRANCH  13  16
HETATM   16  N3  UNL     1      -3.178  -1.231  -0.263  1.00  0.00    -0.333 N 
HETATM   17  C8  UNL     1      -3.761  -0.171  -1.003  1.00  0.00     0.147 C 
HETATM   18  C9  UNL     1      -5.271  -0.416  -1.268  1.00  0.00     0.141 C 
HETATM   19  N4  UNL     1      -5.368  -1.610  -2.011  1.00  0.00    -0.394 N 
HETATM   20  C10 UNL     1      -6.148  -1.640  -3.207  1.00  0.00     0.148 C 
HETATM   21  C11 UNL     1      -4.729  -2.633  -1.548  1.00  0.00     0.087 C 
HETATM   22  C12 UNL     1      -3.954  -2.507  -0.306  1.00  0.00     0.149 C 
BRANCH  22  23
HETATM   23  C13 UNL     1      -4.870  -2.604   0.848  1.00  0.00     0.010 C 
HETATM   24  C14 UNL     1      -5.653  -3.656   0.953  1.00  0.00     0.082 C 
BRANCH  24  25
HETATM   25  C15 UNL     1      -6.581  -3.812   2.072  1.00  0.00     0.198 C 
HETATM   26  O2  UNL     1      -7.314  -4.816   2.153  1.00  0.00    -0.645 OA
HETATM   27  O3  UNL     1      -6.619  -2.812   3.032  1.00  0.00    -0.645 OA
ENDBRANCH  24  25
ENDBRANCH  22  23
ENDBRANCH  13  16
ENDBRANCH   3  13
BRANCH   1  28
HETATM   28  C4  UNL     1      -0.026   2.627   1.480  1.00  0.00     0.028 C 
BRANCH  28  29
HETATM   29  C3  UNL     1       1.088   3.635   1.502  1.00  0.00     0.022 C 
BRANCH  29  30
HETATM   30  C2  UNL     1       0.953   4.748   0.506  1.00  0.00     0.125 C 
BRANCH  30  31
HETATM   31  N1  UNL     1      -0.208   5.559   0.714  1.00  0.00    -0.360 N 
HETATM   32  C1  UNL     1      -0.312   6.404   1.908  1.00  0.00     0.152 C 
HETATM   33  C26 UNL     1      -1.262   5.583  -0.206  1.00  0.00     0.183 C 
HETATM   34  N9  UNL     1      -2.508   5.449   0.175  1.00  0.00    -0.374 N 
HETATM   35  N10 UNL     1      -0.965   5.755  -1.572  1.00  0.00    -0.064 NA
ATOM     36  H92 UNL     1      -2.723   5.324   1.164  1.00  0.00     0.158 HD
ATOM     37  H91 UNL     1      -3.276   5.466  -0.496  1.00  0.00     0.158 HD
ENDBRANCH  30  31
ENDBRANCH  29  30
ENDBRANCH  28  29
ENDBRANCH   1  28
BRANCH   8  38
HETATM   38  C18 UNL     1       3.707  -0.843   1.391  1.00  0.00     0.035 C 
BRANCH  38  39
HETATM   39  C19 UNL     1       3.473  -1.905   0.376  1.00  0.00     0.002 C 
BRANCH  39  40
HETATM   40  C20 UNL     1       4.667  -2.818   0.204  1.00  0.00     0.000 C 
BRANCH  40  41
HETATM   41  C21 UNL     1       5.888  -2.108  -0.234  1.00  0.00     0.007 C 
BRANCH  41  42
HETATM   42  C22 UNL     1       7.115  -2.919  -0.422  1.00  0.00     0.072 C 
BRANCH  42  43
HETATM   43  C23 UNL     1       7.031  -3.953  -1.457  1.00  0.00     0.086 C 
HETATM   44  N6  UNL     1       6.062  -4.078  -2.269  1.00  0.00    -0.391 N 
ATOM     45  H62 UNL     1       5.270  -3.438  -2.211  1.00  0.00     0.157 HD
ATOM     46  H61 UNL     1       6.004  -4.798  -2.989  1.00  0.00     0.157 HD
HETATM   47  N7  UNL     1       8.152  -4.858  -1.539  1.00  0.00    -0.088 NA
ENDBRANCH  42  43
ENDBRANCH  41  42
ENDBRANCH  40  41
ENDBRANCH  39  40
ENDBRANCH  38  39
ENDBRANCH   8  38
TORSDOF 15
