REMARK  15 active torsions:
REMARK  status: ('A' for Active; 'I' for Inactive)
REMARK    1  A    between atoms: C3_3  and  C4_4 
REMARK    2  A    between atoms: C5_5  and  C6_6 
REMARK    3  A    between atoms: C15_19  and  C16_20 
REMARK    4  A    between atoms: C16_20  and  C17_21 
REMARK    5  A    between atoms: C18_22  and  C19_23 
REMARK    6  A    between atoms: C19_23  and  C20_24 
REMARK    7  A    between atoms: C20_24  and  C21_25 
REMARK    8  A    between atoms: C21_25  and  C22_26 
REMARK    9  A    between atoms: C25_30  and  O2_31 
REMARK   10  A    between atoms: C26_33  and  C27_34 
REMARK   11  A    between atoms: C27_34  and  C28_35 
REMARK   12  A    between atoms: C28_35  and  C29_36 
REMARK   13  A    between atoms: C29_36  and  N4_37 
REMARK   14  A    between atoms: C31_44  and  O3_45 
REMARK   15  A    between atoms: C32_47  and  C33_48 
ROOT
HETATM    1  C1  UNL     1       9.941  -6.125  -3.018  1.00  0.00     0.113 C 
HETATM    2  C2  UNL     1       8.787  -5.336  -2.616  1.00  0.00    -0.097 C 
HETATM    3  C3  UNL     1       7.824  -4.704  -2.289  1.00  0.00    -0.015 C 
ENDROOT
BRANCH   3   4
HETATM    4  C4  UNL     1       6.679  -3.986  -1.905  1.00  0.00    -0.008 C 
HETATM    5  C5  UNL     1       5.663  -3.377  -1.564  1.00  0.00    -0.035 C 
BRANCH   5   6
HETATM    6  C6  UNL     1       4.423  -2.638  -1.185  1.00  0.00     0.085 C 
HETATM    7  C7  UNL     1       3.541  -3.392  -0.590  1.00  0.00     0.031 C 
HETATM    8  C8  UNL     1       2.198  -3.069  -0.061  1.00  0.00     0.149 C 
HETATM    9  N1  UNL     1       1.417  -2.264  -0.917  1.00  0.00    -0.397 N 
HETATM   10  C9  UNL     1       0.269  -1.796  -0.799  1.00  0.00     0.081 C 
ATOM     11  H1  UNL     1       1.877  -2.021  -1.794  1.00  0.00     0.159 HD
HETATM   12  C10 UNL     1      -0.762  -1.846   0.214  1.00  0.00     0.125 C 
HETATM   13  C11 UNL     1      -0.838  -2.960   1.169  1.00  0.00     0.032 C 
HETATM   14  N2  UNL     1      -0.668  -0.655   1.057  1.00  0.00    -0.341 N 
HETATM   15  C12 UNL     1      -0.328  -2.484   2.526  1.00  0.00     0.022 C 
HETATM   16  C13 UNL     1       0.027  -1.060   2.257  1.00  0.00     0.127 C 
HETATM   17  C14 UNL     1      -1.223   0.614   0.648  1.00  0.00     0.243 C 
HETATM   18  O1  UNL     1      -1.200   1.512   1.530  1.00  0.00    -0.271 OA
HETATM   19  C15 UNL     1      -1.774   0.884  -0.651  1.00  0.00     0.181 C 
HETATM   20  N3  UNL     1      -1.096   1.729  -1.578  1.00  0.00    -0.354 N 
HETATM   21  C24 UNL     1      -1.879   1.872  -2.861  1.00  0.00     0.152 C 
HETATM   22  C25 UNL     1       0.090   2.436  -1.540  1.00  0.00     0.137 C 
HETATM   23  C26 UNL     1       1.404   2.137  -0.872  1.00  0.00     0.158 C 
HETATM   24  N7  UNL     1       2.284   1.399  -1.743  1.00  0.00    -0.357 N 
HETATM   25  C31 UNL     1       3.598   0.953  -1.638  1.00  0.00     0.159 C 
ATOM     26  H7  UNL     1       1.848   1.149  -2.631  1.00  0.00     0.162 HD
HETATM   27  C32 UNL     1       4.266  -0.051  -0.809  1.00  0.00     0.060 C 
HETATM   28  N8  UNL     1       4.399  -1.287  -1.522  1.00  0.00    -0.349 N 
ATOM     29  H8  UNL     1       4.502  -1.141  -2.526  1.00  0.00     0.166 HD
BRANCH  19  30
HETATM   30  C16 UNL     1      -3.160   1.549  -0.388  1.00  0.00     0.062 C 
BRANCH  30  31
HETATM   31  C17 UNL     1      -3.999   0.577   0.390  1.00  0.00    -0.028 C 
HETATM   32  C18 UNL     1      -5.140   0.127  -0.075  1.00  0.00    -0.031 C 
BRANCH  32  33
HETATM   33  C19 UNL     1      -5.928  -0.836   0.741  1.00  0.00     0.027 C 
BRANCH  33  34
HETATM   34  C20 UNL     1      -6.078  -2.088  -0.059  1.00  0.00     0.004 C 
BRANCH  34  35
HETATM   35  C21 UNL     1      -6.867  -3.163   0.672  1.00  0.00    -0.000 C 
BRANCH  35  36
HETATM   36  C22 UNL     1      -8.258  -2.716   1.019  1.00  0.00    -0.005 C 
HETATM   37  C23 UNL     1      -8.942  -3.858   1.730  1.00  0.00     0.005 C 
ENDBRANCH  35  36
ENDBRANCH  34  35
ENDBRANCH  33  34
ENDBRANCH  32  33
ENDBRANCH  30  31
ENDBRANCH  19  30
BRANCH  22  38
HETATM   38  O2  UNL     1       0.086   3.565  -2.199  1.00  0.00    -0.348 OA
ATOM     39  H2  UNL     1       0.902   4.051  -2.173  1.00  0.00     0.219 HD
ENDBRANCH  22  38
BRANCH  23  40
HETATM   40  C27 UNL     1       1.966   3.478  -0.423  1.00  0.00     0.035 C 
BRANCH  40  41
HETATM   41  C28 UNL     1       1.039   4.137   0.556  1.00  0.00     0.022 C 
BRANCH  41  42
HETATM   42  C29 UNL     1       1.562   5.483   1.014  1.00  0.00     0.122 C 
BRANCH  42  43
HETATM   43  N4  UNL     1       0.597   6.031   1.948  1.00  0.00    -0.367 N 
HETATM   44  C30 UNL     1       0.080   7.201   1.783  1.00  0.00     0.196 C 
HETATM   45  N5  UNL     1      -0.854   7.665   2.738  1.00  0.00    -0.067 NA
HETATM   46  N6  UNL     1       0.425   8.008   0.686  1.00  0.00    -0.067 NA
ATOM     47  H4  UNL     1       0.320   5.476   2.757  1.00  0.00     0.161 HD
ENDBRANCH  42  43
ENDBRANCH  41  42
ENDBRANCH  40  41
ENDBRANCH  23  40
BRANCH  25  48
HETATM   48  O3  UNL     1       4.422   1.547  -2.458  1.00  0.00    -0.345 OA
ATOM     49  H3  UNL     1       5.319   1.243  -2.386  1.00  0.00     0.219 HD
ENDBRANCH  25  48
BRANCH  27  50
HETATM   50  C33 UNL     1       4.005  -0.091   0.640  1.00  0.00     0.057 C 
HETATM   51  C34 UNL     1       4.425   1.168   1.365  1.00  0.00     0.011 C 
ENDBRANCH  27  50
ENDBRANCH   5   6
ENDBRANCH   3   4
TORSDOF 15
