REMARK  12 active torsions:
REMARK  status: ('A' for Active; 'I' for Inactive)
REMARK    1  A    between atoms: C3_3  and  C4_4 
REMARK    2  A    between atoms: C3_3  and  N4_12 
REMARK    3  A    between atoms: C4_4  and  N1_5 
REMARK       I    between atoms: N1_5  and  C5_7 
REMARK       I    between atoms: N4_12  and  C6_14 
REMARK    4  A    between atoms: C6_14  and  C7_16 
REMARK    5  A    between atoms: C7_16  and  C8_17 
REMARK    6  A    between atoms: C8_17  and  C9_18 
REMARK    7  A    between atoms: C18_27  and  C19_28 
REMARK    8  A    between atoms: C18_27  and  C21_34 
REMARK    9  A    between atoms: C19_28  and  N5_29 
REMARK   10  A    between atoms: C21_34  and  N8_35 
REMARK   11  A    between atoms: C27_43  and  C28_44 
REMARK   12  A    between atoms: C31_48  and  O3_49 
ROOT
HETATM    1  C1  UNL     1       7.730   0.613  -1.389  1.00  0.00     0.014 C 
HETATM    2  C2  UNL     1       6.547   0.850  -1.350  1.00  0.00    -0.090 C 
HETATM    3  C3  UNL     1       5.101   1.163  -1.301  1.00  0.00     0.181 C 
ENDROOT
BRANCH   3   4
HETATM    4  C4  UNL     1       4.995   2.550  -0.713  1.00  0.00     0.160 C 
BRANCH   4   5
HETATM    5  N1  UNL     1       5.589   2.510   0.611  1.00  0.00    -0.362 N 
HETATM    6  C5  UNL     1       5.616   3.693   1.392  1.00  0.00     0.181 C 
HETATM    7  N2  UNL     1       4.619   4.506   1.270  1.00  0.00    -0.374 N 
HETATM    8  N3  UNL     1       6.721   3.914   2.250  1.00  0.00    -0.064 NA
ATOM      9  H22 UNL     1       3.823   4.347   0.652  1.00  0.00     0.158 HD
ATOM     10  H21 UNL     1       4.638   5.357   1.832  1.00  0.00     0.158 HD
ATOM     11  H1  UNL     1       5.982   1.642   0.975  1.00  0.00     0.162 HD
ENDBRANCH   4   5
ENDBRANCH   3   4
BRANCH   3  12
HETATM   12  N4  UNL     1       4.393   0.199  -0.490  1.00  0.00    -0.343 N 
HETATM   13  C6  UNL     1       3.323  -0.579  -0.954  1.00  0.00     0.235 C 
HETATM   14  O1  UNL     1       2.976  -0.400  -2.149  1.00  0.00    -0.272 OA
ATOM     15  H4  UNL     1       4.690   0.077   0.478  1.00  0.00     0.163 HD
BRANCH  13  16
HETATM   16  C7  UNL     1       2.593  -1.611  -0.068  1.00  0.00     0.105 C 
HETATM   17  C12 UNL     1       2.129  -0.770   1.091  1.00  0.00     0.028 C 
HETATM   18  C13 UNL     1       1.942   0.684   0.776  1.00  0.00     0.002 C 
HETATM   19  C14 UNL     1       0.720   1.323   1.413  1.00  0.00     0.000 C 
HETATM   20  C15 UNL     1      -0.021   2.196   0.476  1.00  0.00     0.000 C 
HETATM   21  C16 UNL     1      -1.054   1.555  -0.422  1.00  0.00     0.002 C 
HETATM   22  C17 UNL     1      -2.220   1.086   0.297  1.00  0.00     0.035 C 
HETATM   23  C18 UNL     1      -3.377   0.373  -0.224  1.00  0.00     0.075 C 
HETATM   24  N9  UNL     1      -3.270  -1.056  -0.433  1.00  0.00    -0.342 N 
HETATM   25  C25 UNL     1      -4.592  -1.752  -0.403  1.00  0.00     0.153 C 
HETATM   26  C26 UNL     1      -2.212  -1.917  -0.648  1.00  0.00     0.243 C 
HETATM   27  O2  UNL     1      -2.433  -2.848  -1.518  1.00  0.00    -0.271 OA
HETATM   28  C27 UNL     1      -0.840  -2.044  -0.104  1.00  0.00     0.177 C 
HETATM   29  N10 UNL     1       0.207  -2.044  -1.108  1.00  0.00    -0.355 N 
HETATM   30  C30 UNL     1      -0.290  -1.898  -2.505  1.00  0.00     0.152 C 
HETATM   31  C31 UNL     1       1.581  -2.161  -0.955  1.00  0.00     0.132 C 
BRANCH  16  32
HETATM   32  C8  UNL     1       3.726  -2.499   0.328  1.00  0.00     0.032 C 
BRANCH  32  33
HETATM   33  C9  UNL     1       3.529  -3.670   1.181  1.00  0.00    -0.021 C 
HETATM   34  C10 UNL     1       4.977  -4.251   1.417  1.00  0.00     0.009 C 
HETATM   35  C11 UNL     1       2.873  -4.873   0.478  1.00  0.00     0.009 C 
ENDBRANCH  32  33
ENDBRANCH  16  32
BRANCH  23  36
HETATM   36  C19 UNL     1      -4.242   0.336   1.105  1.00  0.00     0.154 C 
BRANCH  36  37
HETATM   37  N5  UNL     1      -4.521   1.663   1.574  1.00  0.00    -0.364 N 
HETATM   38  C20 UNL     1      -5.563   2.026   2.196  1.00  0.00     0.197 C 
HETATM   39  N6  UNL     1      -5.681   3.390   2.592  1.00  0.00    -0.067 NA
HETATM   40  N7  UNL     1      -6.632   1.163   2.532  1.00  0.00    -0.067 NA
ATOM     41  H5  UNL     1      -3.817   2.378   1.390  1.00  0.00     0.161 HD
ENDBRANCH  36  37
ENDBRANCH  23  36
BRANCH  23  42
HETATM   42  C21 UNL     1      -4.290   1.075  -1.155  1.00  0.00     0.268 C 
BRANCH  42  43
HETATM   43  N8  UNL     1      -4.061   1.588  -2.403  1.00  0.00    -0.076 N 
HETATM   44  C22 UNL     1      -5.332   1.372  -3.212  1.00  0.00     0.271 C 
HETATM   45  C23 UNL     1      -4.046   3.068  -2.452  1.00  0.00     0.271 C 
HETATM   46  C24 UNL     1      -3.076   1.163  -3.309  1.00  0.00     0.271 C 
ENDBRANCH  42  43
ENDBRANCH  23  42
BRANCH  28  47
HETATM   47  C28 UNL     1      -0.885  -3.363   0.692  1.00  0.00     0.030 C 
HETATM   48  C29 UNL     1      -1.957  -3.218   1.772  1.00  0.00     0.007 C 
ENDBRANCH  28  47
BRANCH  31  49
HETATM   49  O3  UNL     1       2.133  -2.963  -1.822  1.00  0.00    -0.348 OA
ATOM     50  H3  UNL     1       1.472  -3.322  -2.402  1.00  0.00     0.219 HD
ENDBRANCH  31  49
ENDBRANCH  13  16
ENDBRANCH   3  12
TORSDOF 12
