REMARK  13 active torsions:
REMARK  status: ('A' for Active; 'I' for Inactive)
REMARK    1  A    between atoms: C3_3  and  C4_4 
REMARK    2  A    between atoms: C4_4  and  C6_6 
REMARK    3  A    between atoms: C8_11  and  C9_12 
REMARK    4  A    between atoms: C9_12  and  C10_13 
REMARK    5  A    between atoms: C13_16  and  O2_17 
REMARK    6  A    between atoms: C14_21  and  C15_22 
REMARK    7  A    between atoms: C15_22  and  C16_23 
REMARK    8  A    between atoms: C20_30  and  C21_31 
REMARK    9  A    between atoms: C21_31  and  C22_32 
REMARK   10  A    between atoms: C26_39  and  C27_40 
REMARK   11  A    between atoms: C27_40  and  C28_41 
REMARK   12  A    between atoms: C28_41  and  C29_42 
REMARK   13  A    between atoms: C29_42  and  N5_43 
ROOT
HETATM    1  C1  UNL     1      -4.069  -4.487  -1.988  1.00  0.00     0.112 C 
HETATM    2  C2  UNL     1      -2.728  -3.995  -2.310  1.00  0.00    -0.111 C 
HETATM    3  C3  UNL     1      -1.622  -3.592  -2.584  1.00  0.00    -0.100 C 
ENDROOT
BRANCH   3   4
HETATM    4  C4  UNL     1      -0.264  -3.102  -2.959  1.00  0.00     0.093 C 
HETATM    5  C5  UNL     1      -0.397  -2.279  -4.251  1.00  0.00     0.026 C 
BRANCH   4   6
HETATM    6  C6  UNL     1       0.320  -2.266  -1.860  1.00  0.00     0.194 C 
HETATM    7  C7  UNL     1       0.417  -3.076  -0.602  1.00  0.00     0.242 C 
HETATM    8  O1  UNL     1       1.026  -4.201  -0.822  1.00  0.00    -0.271 OA
HETATM    9  N1  UNL     1      -0.031  -2.783   0.674  1.00  0.00    -0.347 N 
HETATM   10  C8  UNL     1      -1.301  -2.784   1.302  1.00  0.00     0.159 C 
ATOM     11  H1  UNL     1       0.722  -2.504   1.303  1.00  0.00     0.163 HD
HETATM   12  C13 UNL     1      -1.747  -1.622   2.065  1.00  0.00     0.135 C 
HETATM   13  N2  UNL     1      -1.530  -0.268   1.849  1.00  0.00    -0.359 N 
HETATM   14  C14 UNL     1      -1.903   0.536   0.648  1.00  0.00     0.175 C 
ATOM     15  H2  UNL     1      -1.060   0.237   2.600  1.00  0.00     0.162 HD
HETATM   16  C19 UNL     1      -1.631   1.941   1.084  1.00  0.00     0.241 C 
HETATM   17  O3  UNL     1      -2.574   2.508   1.756  1.00  0.00    -0.271 OA
HETATM   18  N3  UNL     1      -0.497   2.718   0.868  1.00  0.00    -0.346 N 
HETATM   19  C20 UNL     1       0.192   3.131  -0.314  1.00  0.00     0.177 C 
ATOM     20  H3  UNL     1      -0.071   3.063   1.728  1.00  0.00     0.163 HD
HETATM   21  C25 UNL     1       0.200   2.183  -1.443  1.00  0.00     0.241 C 
HETATM   22  O4  UNL     1      -0.778   2.222  -2.237  1.00  0.00    -0.271 OA
HETATM   23  N4  UNL     1       1.222   1.251  -1.688  1.00  0.00    -0.346 N 
HETATM   24  C26 UNL     1       1.897   0.389  -0.750  1.00  0.00     0.176 C 
ATOM     25  H4  UNL     1       1.527   1.174  -2.658  1.00  0.00     0.163 HD
HETATM   26  C31 UNL     1       2.388  -0.858  -1.382  1.00  0.00     0.243 C 
HETATM   27  O5  UNL     1       3.616  -1.166  -1.179  1.00  0.00    -0.271 OA
HETATM   28  N8  UNL     1       1.664  -1.753  -2.185  1.00  0.00    -0.340 N 
HETATM   29  C32 UNL     1       2.265  -2.239  -3.412  1.00  0.00     0.153 C 
BRANCH  10  30
HETATM   30  C9  UNL     1      -1.528  -4.071   2.071  1.00  0.00     0.037 C 
BRANCH  30  31
HETATM   31  C10 UNL     1      -0.538  -4.445   3.084  1.00  0.00    -0.020 C 
HETATM   32  C11 UNL     1      -1.024  -5.777   3.709  1.00  0.00     0.009 C 
HETATM   33  C12 UNL     1      -0.215  -3.553   4.209  1.00  0.00     0.009 C 
ENDBRANCH  30  31
ENDBRANCH  10  30
BRANCH  12  34
HETATM   34  O2  UNL     1      -2.467  -1.912   3.117  1.00  0.00    -0.348 OA
ATOM     35  H2  UNL     1      -2.757  -1.156   3.614  1.00  0.00     0.219 HD
ENDBRANCH  12  34
BRANCH  14  36
HETATM   36  C15 UNL     1      -3.314   0.265   0.351  1.00  0.00     0.038 C 
BRANCH  36  37
HETATM   37  C16 UNL     1      -4.089   0.775  -0.738  1.00  0.00    -0.020 C 
HETATM   38  C17 UNL     1      -4.250   2.263  -0.837  1.00  0.00     0.009 C 
HETATM   39  C18 UNL     1      -3.811   0.235  -2.120  1.00  0.00     0.009 C 
ENDBRANCH  36  37
ENDBRANCH  14  36
BRANCH  19  40
HETATM   40  C21 UNL     1      -0.452   4.428  -0.843  1.00  0.00     0.038 C 
BRANCH  40  41
HETATM   41  C22 UNL     1      -0.365   5.523   0.188  1.00  0.00    -0.020 C 
HETATM   42  C23 UNL     1       1.112   5.792   0.514  1.00  0.00     0.009 C 
HETATM   43  C24 UNL     1      -0.888   6.809  -0.443  1.00  0.00     0.009 C 
ENDBRANCH  40  41
ENDBRANCH  19  40
BRANCH  24  44
HETATM   44  C27 UNL     1       3.012   1.083   0.011  1.00  0.00     0.036 C 
BRANCH  44  45
HETATM   45  C28 UNL     1       4.088   1.662  -0.835  1.00  0.00     0.022 C 
BRANCH  45  46
HETATM   46  C29 UNL     1       5.094   2.310   0.138  1.00  0.00     0.122 C 
BRANCH  46  47
HETATM   47  N5  UNL     1       5.619   1.313   1.044  1.00  0.00    -0.367 N 
HETATM   48  C30 UNL     1       5.408   1.353   2.317  1.00  0.00     0.196 C 
HETATM   49  N6  UNL     1       5.970   0.324   3.124  1.00  0.00    -0.067 NA
HETATM   50  N7  UNL     1       4.648   2.359   2.971  1.00  0.00    -0.067 NA
ATOM     51  H5  UNL     1       6.177   0.549   0.663  1.00  0.00     0.161 HD
ENDBRANCH  46  47
ENDBRANCH  45  46
ENDBRANCH  44  45
ENDBRANCH  24  44
ENDBRANCH   4   6
ENDBRANCH   3   4
TORSDOF 13
