REMARK  11 active torsions:
REMARK  status: ('A' for Active; 'I' for Inactive)
REMARK    1  A    between atoms: C1_2  and  C2_4 
REMARK    2  A    between atoms: C2_4  and  C3_5 
REMARK    3  A    between atoms: C2_4  and  N5_13 
REMARK    4  A    between atoms: C3_5  and  C4_6 
REMARK    5  A    between atoms: C4_6  and  C5_7 
REMARK    6  A    between atoms: C5_7  and  N2_8 
REMARK       I    between atoms: N5_13  and  C7_15 
REMARK    7  A    between atoms: C7_15  and  C8_17 
REMARK    8  A    between atoms: C8_17  and  N6_18 
REMARK       I    between atoms: N6_18  and  C9_20 
REMARK       I    between atoms: C9_20  and  N7_22 
REMARK    9  A    between atoms: N7_22  and  C10_24 
REMARK   10  A    between atoms: N9_34  and  C18_35 
REMARK   11  A    between atoms: C18_35  and  C19_36 
ROOT
HETATM    1  C8  UNL     1       1.566  -2.489  -0.109  1.00  0.00     0.116 C 
HETATM    2  C24 UNL     1       1.758  -2.561   1.383  1.00  0.00     0.046 C 
HETATM    3  C25 UNL     1       2.143  -3.992   1.681  1.00  0.00    -0.008 C 
HETATM    4  C26 UNL     1       3.150  -4.109   2.812  1.00  0.00     0.005 C 
HETATM    5  C27 UNL     1       3.756  -5.498   2.709  1.00  0.00     0.000 C 
HETATM    6  C28 UNL     1       2.949  -6.410   1.807  1.00  0.00     0.000 C 
HETATM    7  C29 UNL     1       2.854  -5.914   0.399  1.00  0.00     0.005 C 
HETATM    8  C30 UNL     1       2.883  -4.392   0.429  1.00  0.00    -0.008 C 
HETATM    9  C31 UNL     1       2.113  -3.776  -0.667  1.00  0.00     0.046 C 
ENDROOT
BRANCH   1  10
HETATM   10  C7  UNL     1       2.337  -1.304  -0.603  1.00  0.00     0.246 C 
HETATM   11  N5  UNL     1       3.673  -1.079  -0.263  1.00  0.00    -0.346 N 
ATOM     12  H5  UNL     1       4.144  -1.745   0.349  1.00  0.00     0.163 HD
HETATM   13  O2  UNL     1       1.732  -0.480  -1.360  1.00  0.00    -0.271 OA
BRANCH  11  14
HETATM   14  C2  UNL     1       4.443   0.115  -0.769  1.00  0.00     0.173 C 
BRANCH  14  15
HETATM   15  C1  UNL     1       5.760  -0.357  -1.176  1.00  0.00     0.254 C 
HETATM   16  N1  UNL     1       6.400   0.035  -2.405  1.00  0.00    -0.060 NA
HETATM   17  O1  UNL     1       6.406  -1.158  -0.449  1.00  0.00    -0.275 OA
ENDBRANCH  14  15
BRANCH  14  18
HETATM   18  C3  UNL     1       4.356   1.070   0.381  1.00  0.00     0.036 C 
BRANCH  18  19
HETATM   19  C4  UNL     1       5.020   2.363   0.372  1.00  0.00     0.022 C 
BRANCH  19  20
HETATM   20  C5  UNL     1       6.503   2.426   0.386  1.00  0.00     0.122 C 
BRANCH  20  21
HETATM   21  N2  UNL     1       6.977   3.815   0.392  1.00  0.00    -0.367 N 
HETATM   22  C6  UNL     1       8.096   4.120  -0.180  1.00  0.00     0.196 C 
HETATM   23  N3  UNL     1       8.491   5.495  -0.132  1.00  0.00    -0.067 NA
HETATM   24  N4  UNL     1       8.850   3.108  -0.805  1.00  0.00    -0.067 NA
ATOM     25  H2  UNL     1       6.423   4.540   0.848  1.00  0.00     0.161 HD
ENDBRANCH  20  21
ENDBRANCH  19  20
ENDBRANCH  18  19
ENDBRANCH  14  18
ENDBRANCH  11  14
ENDBRANCH   1  10
BRANCH   1  26
HETATM   26  N6  UNL     1       0.153  -2.351  -0.473  1.00  0.00    -0.325 N 
HETATM   27  C9  UNL     1      -0.642  -1.289   0.019  1.00  0.00     0.317 C 
HETATM   28  O3  UNL     1      -0.098  -0.452   0.795  1.00  0.00    -0.247 OA
HETATM   29  N7  UNL     1      -1.999  -1.094  -0.293  1.00  0.00    -0.330 N 
ATOM     30  H7  UNL     1      -2.465  -1.753  -0.916  1.00  0.00     0.165 HD
ATOM     31  H6  UNL     1      -0.268  -3.039  -1.097  1.00  0.00     0.165 HD
BRANCH  29  32
HETATM   32  C10 UNL     1      -2.749   0.013   0.245  1.00  0.00     0.180 C 
HETATM   33  C11 UNL     1      -3.848  -0.544   1.121  1.00  0.00     0.063 C 
HETATM   34  C12 UNL     1      -4.760   0.534   1.629  1.00  0.00     0.252 C 
HETATM   35  N8  UNL     1      -6.040   0.549   0.936  1.00  0.00     0.014 N 
HETATM   36  C13 UNL     1      -6.979   1.425   1.596  1.00  0.00     0.249 C 
HETATM   37  C16 UNL     1      -6.662  -0.740   0.934  1.00  0.00     0.249 C 
HETATM   38  C17 UNL     1      -5.799   0.997  -0.387  1.00  0.00     0.424 C 
HETATM   39  C14 UNL     1      -8.320   0.961   1.119  1.00  0.00     0.030 C 
HETATM   40  C15 UNL     1      -8.111  -0.444   0.640  1.00  0.00     0.030 C 
HETATM   41  O4  UNL     1      -6.824   1.104  -1.148  1.00  0.00    -0.239 OA
HETATM   42  N9  UNL     1      -4.610   1.364  -1.062  1.00  0.00    -0.262 N 
HETATM   43  C23 UNL     1      -3.289   0.870  -0.835  1.00  0.00     0.250 C 
HETATM   44  O5  UNL     1      -2.434   1.213  -1.687  1.00  0.00    -0.271 OA
BRANCH  42  45
HETATM   45  C18 UNL     1      -4.790   2.359  -2.092  1.00  0.00     0.141 C 
BRANCH  45  46
HETATM   46  C19 UNL     1      -4.637   3.764  -1.622  1.00  0.00     0.004 C 
HETATM   47  C20 UNL     1      -4.845   4.724  -2.805  1.00  0.00     0.006 C 
HETATM   48  C21 UNL     1      -5.515   5.665  -1.801  1.00  0.00     0.001 C 
HETATM   49  C22 UNL     1      -5.893   4.414  -1.028  1.00  0.00     0.006 C 
ENDBRANCH  45  46
ENDBRANCH  42  45
ENDBRANCH  29  32
ENDBRANCH   1  26
TORSDOF 11
