REMARK  13 active torsions:
REMARK  status: ('A' for Active; 'I' for Inactive)
REMARK    1  A    between atoms: C2_2  and  C3_3 
REMARK    2  A    between atoms: C3_3  and  N1_4 
REMARK    3  A    between atoms: C4_5  and  O1_6 
REMARK    4  A    between atoms: C5_8  and  C6_9 
REMARK    5  A    between atoms: C10_16  and  C11_17 
REMARK    6  A    between atoms: C11_17  and  C12_18 
REMARK    7  A    between atoms: C12_18  and  C13_19 
REMARK    8  A    between atoms: C13_19  and  C14_20 
REMARK    9  A    between atoms: C14_20  and  C15_21 
REMARK   10  A    between atoms: C17_28  and  C18_29 
REMARK   11  A    between atoms: C18_29  and  C19_30 
REMARK   12  A    between atoms: C22_35  and  C23_36 
REMARK   13  A    between atoms: C24_37  and  C25_38 
ROOT
HETATM    1  N1  UNL     1      -1.860   3.154  -0.452  1.00  0.00    -0.350 N 
HETATM    2  C4  UNL     1      -0.705   2.968  -1.239  1.00  0.00     0.138 C 
HETATM    3  C5  UNL     1      -0.323   2.196  -2.405  1.00  0.00     0.162 C 
HETATM    4  N2  UNL     1       0.885   1.422  -2.339  1.00  0.00    -0.347 N 
ATOM      5  H2  UNL     1       1.554   1.678  -3.065  1.00  0.00     0.163 HD
HETATM    6  C9  UNL     1       1.351   0.413  -1.522  1.00  0.00     0.241 C 
HETATM    7  O2  UNL     1       1.535  -0.740  -2.092  1.00  0.00    -0.271 OA
HETATM    8  C10 UNL     1       1.688   0.413  -0.070  1.00  0.00     0.176 C 
HETATM    9  N4  UNL     1       2.203  -0.875   0.351  1.00  0.00    -0.346 N 
ATOM     10  H4  UNL     1       2.951  -1.261  -0.225  1.00  0.00     0.163 HD
HETATM   11  C16 UNL     1       1.811  -1.663   1.444  1.00  0.00     0.240 C 
HETATM   12  O4  UNL     1       2.636  -1.802   2.406  1.00  0.00    -0.271 OA
HETATM   13  C17 UNL     1       0.512  -2.377   1.613  1.00  0.00     0.170 C 
HETATM   14  N5  UNL     1      -0.443  -1.760   0.774  1.00  0.00    -0.400 N 
ATOM     15  H5  UNL     1      -0.161  -1.326  -0.105  1.00  0.00     0.154 HD
HETATM   16  C22 UNL     1      -1.825  -1.758   1.188  1.00  0.00     0.126 C 
HETATM   17  C26 UNL     1      -2.617  -1.512  -0.031  1.00  0.00     0.265 C 
HETATM   18  N8  UNL     1      -3.416  -0.261  -0.036  1.00  0.00    -0.070 N 
HETATM   19  C27 UNL     1      -4.274  -0.350   1.060  1.00  0.00     0.272 C 
HETATM   20  C28 UNL     1      -4.280  -0.474  -1.234  1.00  0.00     0.272 C 
HETATM   21  C29 UNL     1      -2.551   0.779  -0.302  1.00  0.00     0.266 C 
HETATM   22  C30 UNL     1      -2.760   2.176   0.134  1.00  0.00     0.051 C 
HETATM   23  C31 UNL     1      -2.516   2.299   1.654  1.00  0.00     0.040 C 
HETATM   24  C32 UNL     1      -4.145   2.698  -0.222  1.00  0.00     0.040 C 
ENDROOT
BRANCH   8  25
HETATM   25  C11 UNL     1       2.848   1.371   0.228  1.00  0.00     0.035 C 
BRANCH  25  26
HETATM   26  C12 UNL     1       4.105   0.991  -0.520  1.00  0.00     0.003 C 
BRANCH  26  27
HETATM   27  C13 UNL     1       5.206   2.016  -0.280  1.00  0.00     0.009 C 
BRANCH  27  28
HETATM   28  C14 UNL     1       6.476   1.618  -1.003  1.00  0.00     0.099 C 
BRANCH  28  29
HETATM   29  C15 UNL     1       7.051   0.342  -0.494  1.00  0.00     0.231 C 
HETATM   30  N3  UNL     1       7.941  -0.369  -1.378  1.00  0.00    -0.062 NA
HETATM   31  O3  UNL     1       6.756  -0.055   0.643  1.00  0.00    -0.277 OA
ENDBRANCH  28  29
ENDBRANCH  27  28
ENDBRANCH  26  27
ENDBRANCH  25  26
ENDBRANCH   8  25
BRANCH   3  32
HETATM   32  C6  UNL     1      -0.072   3.240  -3.565  1.00  0.00     0.008 C 
HETATM   33  C7  UNL     1       0.319   2.463  -4.807  1.00  0.00     0.012 C 
HETATM   34  C8  UNL     1       1.073   4.142  -3.184  1.00  0.00     0.012 C 
ENDBRANCH   3  32
BRANCH  13  35
HETATM   35  C18 UNL     1       0.734  -3.777   1.074  1.00  0.00     0.038 C 
BRANCH  35  36
HETATM   36  C19 UNL     1       1.796  -4.561   1.785  1.00  0.00    -0.020 C 
HETATM   37  C20 UNL     1       1.904  -5.961   1.136  1.00  0.00     0.009 C 
HETATM   38  C21 UNL     1       1.396  -4.847   3.220  1.00  0.00     0.009 C 
ENDBRANCH  35  36
ENDBRANCH  13  35
BRANCH   2  39
HETATM   39  O1  UNL     1       0.267   3.696  -0.774  1.00  0.00    -0.348 OA
ATOM     40  H1  UNL     1       1.045   3.571  -1.304  1.00  0.00     0.219 HD
ENDBRANCH   2  39
BRANCH   1  41
HETATM   41  C3  UNL     1      -2.267   4.563  -0.165  1.00  0.00     0.152 C 
BRANCH  41  42
HETATM   42  C2  UNL     1      -1.544   5.157   0.979  1.00  0.00    -0.017 C 
HETATM   43  C1  UNL     1      -0.799   6.242   0.747  1.00  0.00     0.008 C 
ENDBRANCH  41  42
ENDBRANCH   1  41
BRANCH  16  44
HETATM   44  C23 UNL     1      -2.136  -3.017   1.906  1.00  0.00     0.003 C 
HETATM   45  C24 UNL     1      -3.161  -3.801   1.723  1.00  0.00     0.042 C 
BRANCH  45  46
HETATM   46  C25 UNL     1      -3.384  -5.020   2.474  1.00  0.00     0.109 C 
HETATM   47  N6  UNL     1      -2.564  -5.445   3.410  1.00  0.00    -0.388 N 
ATOM     48  H62 UNL     1      -1.762  -4.834   3.563  1.00  0.00     0.157 HD
ATOM     49  H61 UNL     1      -2.721  -6.303   3.939  1.00  0.00     0.157 HD
HETATM   50  N7  UNL     1      -4.498  -5.869   2.262  1.00  0.00    -0.083 NA
ENDBRANCH  45  46
ENDBRANCH  16  44
TORSDOF 13
