REMARK  19 active torsions:
REMARK  status: ('A' for Active; 'I' for Inactive)
REMARK    1  A    between atoms: C2_2  and  C3_3 
REMARK    2  A    between atoms: C3_3  and  C4_4 
REMARK    3  A    between atoms: C4_4  and  N1_5 
REMARK    4  A    between atoms: N1_5  and  C5_7 
REMARK    5  A    between atoms: C6_10  and  N3_11 
REMARK    6  A    between atoms: N3_11  and  C7_13 
REMARK    7  A    between atoms: C7_13  and  C8_14 
REMARK    8  A    between atoms: C8_14  and  C9_15 
REMARK    9  A    between atoms: N4_17  and  C11_18 
REMARK   10  A    between atoms: C14_21  and  N5_22 
REMARK   11  A    between atoms: N5_22  and  C15_24 
REMARK   12  A    between atoms: C15_24  and  C16_25 
REMARK   13  A    between atoms: C16_25  and  C17_26 
REMARK   14  A    between atoms: C20_29  and  S1_30 
REMARK   15  A    between atoms: S1_30  and  N6_33 
REMARK   16  A    between atoms: N6_33  and  C21_35 
REMARK   17  A    between atoms: C21_35  and  C22_36 
REMARK   18  A    between atoms: C22_36  and  N7_37 
REMARK       I    between atoms: C23_39  and  N9_41 
REMARK   19  A    between atoms: N9_41  and  N10_43 
ROOT
HETATM    1  C15 UNL     1       0.406  -0.016  -0.029  1.00  0.00     0.142 C 
ENDROOT
BRANCH   1   2
HETATM    2  N5  UNL     1      -0.628   0.015   0.971  1.00  0.00    -0.225 N 
ATOM      3  H5  UNL     1      -0.404  -0.172   1.948  1.00  0.00     0.177 HD
BRANCH   2   4
HETATM    4  C14 UNL     1      -1.838   0.281   0.623  1.00  0.00     0.709 A 
HETATM    5  N4  UNL     1      -2.768   0.298   1.594  1.00  0.00    -0.009 N 
HETATM    6  C6  UNL     1      -4.019   0.579   1.194  1.00  0.00     0.709 A 
HETATM    7  N2  UNL     1      -4.354   0.833  -0.093  1.00  0.00    -0.021 N 
HETATM    8  C5  UNL     1      -3.409   0.810  -1.041  1.00  0.00     0.707 A 
ATOM      9  H2  UNL     1      -5.322   1.041  -0.339  1.00  0.00     0.203 HD
HETATM   10  N12 UNL     1      -2.141   0.529  -0.656  1.00  0.00    -0.021 N 
ATOM     11  H12 UNL     1      -1.401   0.506  -1.357  1.00  0.00     0.203 HD
BRANCH   5  12
HETATM   12  C11 UNL     1      -2.436   0.031   2.974  1.00  0.00     0.118 C 
HETATM   13  C12 UNL     1      -3.038   1.054   3.912  1.00  0.00     0.034 C 
HETATM   14  C13 UNL     1      -2.850  -1.323   3.437  1.00  0.00     0.034 C 
ENDBRANCH   5  12
BRANCH   6  15
HETATM   15  N3  UNL     1      -4.967   0.614   2.071  1.00  0.00    -0.225 N 
ATOM     16  H3  UNL     1      -4.738   0.426   3.047  1.00  0.00     0.177 HD
BRANCH  15  17
HETATM   17  C7  UNL     1      -6.341   0.910   1.724  1.00  0.00     0.138 C 
BRANCH  17  18
HETATM   18  C8  UNL     1      -7.102   0.987   3.054  1.00  0.00     0.020 C 
BRANCH  18  19
HETATM   19  C9  UNL     1      -6.942  -0.370   3.709  1.00  0.00    -0.003 C 
HETATM   20  C10 UNL     1      -7.654  -0.427   5.044  1.00  0.00     0.005 C 
ENDBRANCH  18  19
ENDBRANCH  17  18
ENDBRANCH  15  17
ENDBRANCH   6  15
BRANCH   8  21
HETATM   21  N1  UNL     1      -3.643   1.042  -2.293  1.00  0.00    -0.225 N 
ATOM     22  H1  UNL     1      -2.854   1.002  -2.938  1.00  0.00     0.177 HD
BRANCH  21  23
HETATM   23  C4  UNL     1      -4.922   1.349  -2.832  1.00  0.00     0.138 C 
BRANCH  23  24
HETATM   24  C3  UNL     1      -5.801   0.160  -3.104  1.00  0.00     0.020 C 
BRANCH  24  25
HETATM   25  C2  UNL     1      -5.237  -0.816  -4.079  1.00  0.00    -0.003 C 
HETATM   26  C1  UNL     1      -3.939  -1.440  -3.710  1.00  0.00     0.005 C 
ENDBRANCH  24  25
ENDBRANCH  23  24
ENDBRANCH  21  23
ENDBRANCH   8  21
ENDBRANCH   2   4
ENDBRANCH   1   2
BRANCH   1  27
HETATM   27  C16 UNL     1       1.745  -0.418   0.550  1.00  0.00     0.058 C 
BRANCH  27  28
HETATM   28  C17 UNL     1       2.716  -0.411  -0.575  1.00  0.00    -0.057 A 
HETATM   29  C18 UNL     1       2.954  -1.520  -1.351  1.00  0.00     0.009 A 
HETATM   30  C19 UNL     1       3.844  -1.558  -2.402  1.00  0.00     0.026 A 
HETATM   31  C20 UNL     1       4.534  -0.390  -2.679  1.00  0.00     0.079 A 
HETATM   32  C24 UNL     1       4.339   0.755  -1.936  1.00  0.00     0.026 A 
HETATM   33  C25 UNL     1       3.434   0.733  -0.895  1.00  0.00     0.009 A 
BRANCH  31  34
HETATM   34  S1  UNL     1       5.682  -0.373  -4.006  1.00  0.00     0.258 S 
HETATM   35  O1  UNL     1       5.211  -1.382  -5.009  1.00  0.00    -0.201 OA
HETATM   36  O2  UNL     1       5.720   0.963  -4.672  1.00  0.00    -0.201 OA
BRANCH  34  37
HETATM   37  N6  UNL     1       7.256  -0.828  -3.454  1.00  0.00    -0.314 N 
ATOM     38  H6  UNL     1       7.762  -1.647  -3.790  1.00  0.00     0.172 HD
BRANCH  37  39
HETATM   39  C21 UNL     1       7.767   0.078  -2.470  1.00  0.00     0.152 C 
BRANCH  39  40
HETATM   40  C22 UNL     1       9.144  -0.419  -2.063  1.00  0.00     0.142 C 
BRANCH  40  41
HETATM   41  N7  UNL     1       9.750   0.435  -1.063  1.00  0.00    -0.362 N 
HETATM   42  C23 UNL     1       9.590   0.094   0.176  1.00  0.00     0.204 C 
HETATM   43  N8  UNL     1       8.866  -1.051   0.577  1.00  0.00    -0.062 NA
HETATM   44  N9  UNL     1      10.167   0.901   1.188  1.00  0.00    -0.260 N 
ATOM     45  H9  UNL     1      10.980   1.475   0.963  1.00  0.00     0.191 HD
ATOM     46  H7  UNL     1      10.279   1.268  -1.323  1.00  0.00     0.162 HD
BRANCH  44  47
HETATM   47  N10 UNL     1       9.651   0.930   2.483  1.00  0.00    -0.247 N 
HETATM   48  N11 UNL     1       9.766   1.964   3.198  1.00  0.00    -0.331 N 
ATOM     49 2H11 UNL     1      10.244   2.777   2.810  1.00  0.00     0.178 HD
ATOM     50 1H11 UNL     1       9.389   1.985   4.145  1.00  0.00     0.178 HD
ATOM     51  H10 UNL     1       9.176   0.108   2.856  1.00  0.00     0.207 HD
ENDBRANCH  44  47
ENDBRANCH  40  41
ENDBRANCH  39  40
ENDBRANCH  37  39
ENDBRANCH  34  37
ENDBRANCH  31  34
ENDBRANCH  27  28
ENDBRANCH   1  27
TORSDOF 19
