REMARK  17 active torsions:
REMARK  status: ('A' for Active; 'I' for Inactive)
REMARK    1  A    between atoms: C2_2  and  C3_3 
REMARK    2  A    between atoms: C3_3  and  C4_4 
REMARK    3  A    between atoms: C5_7  and  O1_8 
REMARK    4  A    between atoms: C7_11  and  C8_12 
REMARK       I    between atoms: C8_12  and  N2_14 
REMARK    5  A    between atoms: N2_14  and  C9_16 
REMARK    6  A    between atoms: C9_16  and  C10_17 
REMARK    7  A    between atoms: C10_17  and  C11_18 
REMARK    8  A    between atoms: C11_18  and  C12_19 
REMARK    9  A    between atoms: C12_19  and  C13_20 
REMARK   10  A    between atoms: C13_20  and  C14_21 
REMARK   11  A    between atoms: C14_21  and  N3_22 
REMARK   12  A    between atoms: N3_22  and  C15_24 
REMARK   13  A    between atoms: C17_30  and  N5_31 
REMARK   14  A    between atoms: N5_31  and  C18_33 
REMARK   15  A    between atoms: C20_37  and  C21_38 
REMARK   16  A    between atoms: C23_44  and  C24_45 
REMARK   17  A    between atoms: C24_45  and  C25_46 
ROOT
HETATM    1  C4  UNL     1      -2.427   1.171   0.924  1.00  0.00     0.096 C 
HETATM    2  N1  UNL     1      -2.195   0.346   2.066  1.00  0.00    -0.369 N 
ATOM      3  H1  UNL     1      -2.849   0.489   2.835  1.00  0.00     0.161 HD
HETATM    4  C5  UNL     1      -1.217  -0.627   2.303  1.00  0.00     0.113 C 
HETATM    5  C6  UNL     1       0.163  -0.722   1.805  1.00  0.00     0.118 C 
HETATM    6  C7  UNL     1       0.380  -1.493   0.549  1.00  0.00     0.184 C 
HETATM    7  N4  UNL     1       0.260  -2.922   0.689  1.00  0.00    -0.345 N 
ATOM      8  H4  UNL     1       0.609  -3.298   1.571  1.00  0.00     0.163 HD
HETATM    9  C16 UNL     1      -0.259  -3.875  -0.193  1.00  0.00     0.248 C 
HETATM   10  O4  UNL     1       0.535  -4.786  -0.645  1.00  0.00    -0.271 OA
HETATM   11  C17 UNL     1      -1.659  -3.988  -0.701  1.00  0.00     0.249 C 
HETATM   12  C19 UNL     1      -1.991  -2.952  -1.686  1.00  0.00     0.187 C 
HETATM   13  O6  UNL     1      -1.441  -3.020  -2.831  1.00  0.00    -0.292 OA
HETATM   14  C20 UNL     1      -2.886  -1.789  -1.592  1.00  0.00     0.218 C 
HETATM   15  N6  UNL     1      -3.825  -1.781  -0.506  1.00  0.00    -0.343 N 
ATOM     16  H6  UNL     1      -4.430  -2.595  -0.400  1.00  0.00     0.163 HD
HETATM   17  C22 UNL     1      -3.976  -0.720   0.436  1.00  0.00     0.224 C 
HETATM   18  O8  UNL     1      -4.393  -1.042   1.571  1.00  0.00    -0.273 OA
HETATM   19  C23 UNL     1      -3.677   0.701   0.161  1.00  0.00     0.101 C 
ENDROOT
BRANCH   6  20
HETATM   20  C8  UNL     1       1.832  -1.238   0.156  1.00  0.00     0.240 C 
HETATM   21  O2  UNL     1       2.609  -2.194  -0.031  1.00  0.00    -0.271 OA
HETATM   22  N2  UNL     1       2.303   0.080   0.005  1.00  0.00    -0.359 N 
ATOM     23  H2  UNL     1       1.657   0.854   0.159  1.00  0.00     0.162 HD
BRANCH  22  24
HETATM   24  C9  UNL     1       3.666   0.375  -0.359  1.00  0.00     0.122 C 
BRANCH  24  25
HETATM   25  C10 UNL     1       4.667  -0.160   0.626  1.00  0.00     0.020 C 
BRANCH  25  26
HETATM   26  C11 UNL     1       6.071   0.254   0.194  1.00  0.00     0.002 C 
BRANCH  26  27
HETATM   27  C12 UNL     1       6.434  -0.204  -1.181  1.00  0.00     0.002 C 
BRANCH  27  28
HETATM   28  C13 UNL     1       7.856   0.202  -1.505  1.00  0.00     0.020 C 
BRANCH  28  29
HETATM   29  C14 UNL     1       8.087   1.690  -1.427  1.00  0.00     0.122 C 
BRANCH  29  30
HETATM   30  N3  UNL     1       9.464   2.010  -1.768  1.00  0.00    -0.368 N 
ATOM     31  H3  UNL     1      10.126   1.276  -2.020  1.00  0.00     0.161 HD
BRANCH  30  32
HETATM   32  C15 UNL     1       9.858   3.363  -1.740  1.00  0.00     0.348 C 
HETATM   33  O3  UNL     1       9.086   4.311  -1.436  1.00  0.00    -0.284 OA
ENDBRANCH  30  32
ENDBRANCH  29  30
ENDBRANCH  28  29
ENDBRANCH  27  28
ENDBRANCH  26  27
ENDBRANCH  25  26
ENDBRANCH  24  25
ENDBRANCH  22  24
ENDBRANCH   6  20
BRANCH   4  34
HETATM   34  O1  UNL     1      -1.514  -1.630   3.077  1.00  0.00    -0.349 OA
ATOM     35  H1  UNL     1      -0.850  -2.290   3.238  1.00  0.00     0.219 HD
ENDBRANCH   4  34
BRANCH  11  36
HETATM   36  N5  UNL     1      -2.605  -4.218   0.341  1.00  0.00    -0.349 N 
ATOM     37  H5  UNL     1      -2.715  -3.484   1.041  1.00  0.00     0.163 HD
BRANCH  36  38
HETATM   38  C18 UNL     1      -3.398  -5.369   0.486  1.00  0.00     0.349 C 
HETATM   39  O5  UNL     1      -3.293  -6.294  -0.355  1.00  0.00    -0.284 OA
ENDBRANCH  36  38
ENDBRANCH  11  36
BRANCH   1  40
HETATM   40  C3  UNL     1      -2.597   2.634   1.253  1.00  0.00     0.026 C 
BRANCH  40  41
HETATM   41  C2  UNL     1      -1.411   3.268   1.932  1.00  0.00    -0.002 C 
HETATM   42  C1  UNL     1      -0.151   3.278   1.127  1.00  0.00     0.005 C 
ENDBRANCH  40  41
ENDBRANCH   1  40
BRANCH  19  43
HETATM   43  C24 UNL     1      -4.793   1.642   0.422  1.00  0.00     0.020 C 
BRANCH  43  44
HETATM   44  C25 UNL     1      -6.105   1.387  -0.218  1.00  0.00    -0.022 C 
HETATM   45  C26 UNL     1      -6.841   0.150   0.109  1.00  0.00     0.009 C 
HETATM   46  C27 UNL     1      -7.022   2.572   0.130  1.00  0.00     0.009 C 
ENDBRANCH  43  44
ENDBRANCH  19  43
BRANCH  14  47
HETATM   47  C21 UNL     1      -3.728  -1.790  -2.858  1.00  0.00     0.264 C 
HETATM   48  O7  UNL     1      -4.930  -1.787  -2.776  1.00  0.00    -0.304 OA
ENDBRANCH  14  47
TORSDOF 17
