REMARK  18 active torsions:
REMARK  status: ('A' for Active; 'I' for Inactive)
REMARK    1  A    between atoms: C2_2  and  N1_3 
REMARK       I    between atoms: N2_6  and  C5_7 
REMARK    2  A    between atoms: N4_9  and  O1_11 
REMARK    3  A    between atoms: O1_11  and  C6_12 
REMARK    4  A    between atoms: C6_12  and  C7_13 
REMARK    5  A    between atoms: C7_13  and  C8_14 
REMARK    6  A    between atoms: C8_14  and  C9_15 
REMARK    7  A    between atoms: C9_15  and  N5_16 
REMARK    8  A    between atoms: N5_16  and  C10_18 
REMARK    9  A    between atoms: C10_18  and  C11_20 
REMARK       I    between atoms: N6_22  and  C13_23 
REMARK   10  A    between atoms: C13_23  and  C14_25 
REMARK   11  A    between atoms: C14_25  and  N7_26 
REMARK   12  A    between atoms: C14_25  and  C15_30 
REMARK   13  A    between atoms: C15_30  and  C16_31 
REMARK   14  A    between atoms: C16_31  and  C17_32 
REMARK   15  A    between atoms: C17_32  and  N8_33 
REMARK       I    between atoms: N8_33  and  C18_35 
REMARK   16  A    between atoms: C20_41  and  N11_42 
REMARK   17  A    between atoms: N11_42  and  C21_43 
REMARK   18  A    between atoms: N11_42  and  C23_45 
ROOT
HETATM    1  C11 UNL     1      -1.641  -0.994   0.864  1.00  0.00     0.089 C 
HETATM    2  C12 UNL     1      -2.053   0.429   0.968  1.00  0.00     0.139 C 
HETATM    3  N6  UNL     1      -3.384   0.539   0.424  1.00  0.00    -0.348 N 
HETATM    4  C13 UNL     1      -4.103   1.774   0.394  1.00  0.00     0.250 C 
HETATM    5  O2  UNL     1      -3.521   2.768   0.950  1.00  0.00    -0.271 OA
HETATM    6  C19 UNL     1      -3.822  -0.730  -0.024  1.00  0.00     0.152 C 
HETATM    7  C20 UNL     1      -2.620  -1.656   0.005  1.00  0.00     0.113 C 
ENDROOT
BRANCH   1   8
HETATM    8  C10 UNL     1      -0.211  -1.047   0.367  1.00  0.00     0.081 C 
HETATM    9  S1  UNL     1       0.620   0.344   0.302  1.00  0.00    -0.065 SA
BRANCH   8  10
HETATM   10  N5  UNL     1       0.390  -2.241  -0.021  1.00  0.00    -0.384 N 
ATOM     11  H5  UNL     1      -0.218  -3.056   0.057  1.00  0.00     0.160 HD
BRANCH  10  12
HETATM   12  C9  UNL     1       1.691  -2.536  -0.505  1.00  0.00     0.120 C 
BRANCH  12  13
HETATM   13  C8  UNL     1       1.971  -1.924  -1.845  1.00  0.00     0.022 C 
BRANCH  13  14
HETATM   14  C7  UNL     1       3.242  -2.323  -2.480  1.00  0.00     0.030 C 
BRANCH  14  15
HETATM   15  C6  UNL     1       4.513  -2.092  -1.795  1.00  0.00     0.201 C 
BRANCH  15  16
HETATM   16  O1  UNL     1       4.802  -0.747  -1.483  1.00  0.00    -0.278 OA
BRANCH  16  17
HETATM   17  N4  UNL     1       5.964  -0.413  -0.943  1.00  0.00    -0.238 N 
HETATM   18  C5  UNL     1       6.414  -0.535   0.227  1.00  0.00     0.210 C 
HETATM   19  N2  UNL     1       7.750  -0.078   0.555  1.00  0.00    -0.351 N 
HETATM   20  N3  UNL     1       5.615  -1.112   1.244  1.00  0.00    -0.062 NA
HETATM   21  C4  UNL     1       8.196  -0.127   1.903  1.00  0.00     0.156 C 
HETATM   22  C25 UNL     1       8.601   0.409  -0.493  1.00  0.00     0.156 C 
HETATM   23  C3  UNL     1       8.982   1.091   2.258  1.00  0.00     0.292 C 
HETATM   24  N1  UNL     1       9.885   1.543   1.250  1.00  0.00     0.091 N 
HETATM   25  C26 UNL     1       9.964   0.700   0.102  1.00  0.00     0.292 C 
ATOM     26  H4  UNL     1       6.615   0.024  -1.595  1.00  0.00     0.197 HD
BRANCH  24  27
HETATM   27  C2  UNL     1       9.742   2.954   0.962  1.00  0.00     0.268 C 
HETATM   28  C1  UNL     1      10.718   3.336  -0.117  1.00  0.00     0.037 C 
ENDBRANCH  24  27
ENDBRANCH  16  17
ENDBRANCH  15  16
ENDBRANCH  14  15
ENDBRANCH  13  14
ENDBRANCH  12  13
ENDBRANCH  10  12
ENDBRANCH   8  10
ENDBRANCH   1   8
BRANCH   7  29
HETATM   29  N11 UNL     1      -3.069  -2.954   0.296  1.00  0.00    -0.387 N 
BRANCH  29  30
HETATM   30  C21 UNL     1      -3.026  -3.917  -0.771  1.00  0.00     0.118 C 
HETATM   31  C22 UNL     1      -4.053  -3.510  -1.803  1.00  0.00     0.026 C 
ENDBRANCH  29  30
BRANCH  29  32
HETATM   32  C23 UNL     1      -2.976  -3.480   1.589  1.00  0.00     0.054 C 
HETATM   33  C24 UNL     1      -3.901  -2.831   2.573  1.00  0.00     0.054 C 
ENDBRANCH  29  32
ENDBRANCH   7  29
BRANCH   4  34
HETATM   34  C14 UNL     1      -5.412   2.036  -0.193  1.00  0.00     0.275 C 
BRANCH  34  35
HETATM   35  N7  UNL     1      -5.275   2.180  -1.642  1.00  0.00    -0.067 N 
ATOM     36  H73 UNL     1      -4.589   2.891  -1.896  1.00  0.00     0.275 HD
ATOM     37  H72 UNL     1      -4.815   1.375  -2.068  1.00  0.00     0.275 HD
ATOM     38  H71 UNL     1      -6.191   2.363  -2.053  1.00  0.00     0.275 HD
ENDBRANCH  34  35
BRANCH  34  39
HETATM   39  C15 UNL     1      -6.500   1.109   0.169  1.00  0.00     0.044 C 
BRANCH  39  40
HETATM   40  C16 UNL     1      -7.799   1.514  -0.511  1.00  0.00     0.022 C 
BRANCH  40  41
HETATM   41  C17 UNL     1      -8.214   2.876  -0.058  1.00  0.00     0.122 C 
BRANCH  41  42
HETATM   42  N8  UNL     1      -9.482   3.245  -0.699  1.00  0.00    -0.365 N 
HETATM   43  C18 UNL     1     -10.096   4.476  -0.374  1.00  0.00     0.181 C 
HETATM   44  N9  UNL     1      -9.403   5.408   0.171  1.00  0.00    -0.374 N 
HETATM   45  N10 UNL     1     -11.455   4.679  -0.644  1.00  0.00    -0.064 NA
ATOM     46  H92 UNL     1      -8.413   5.260   0.368  1.00  0.00     0.158 HD
ATOM     47  H91 UNL     1      -9.846   6.296   0.406  1.00  0.00     0.158 HD
ATOM     48  H8  UNL     1      -9.917   2.617  -1.375  1.00  0.00     0.162 HD
ENDBRANCH  41  42
ENDBRANCH  40  41
ENDBRANCH  39  40
ENDBRANCH  34  39
ENDBRANCH   4  34
TORSDOF 18
