REMARK  17 active torsions:
REMARK  status: ('A' for Active; 'I' for Inactive)
REMARK    1  A    between atoms: C2_2  and  N1_3 
REMARK       I    between atoms: N1_3  and  C3_4 
REMARK    2  A    between atoms: N1_3  and  C24_41 
REMARK    3  A    between atoms: C3_4  and  C4_6 
REMARK    4  A    between atoms: C4_6  and  C5_7 
REMARK    5  A    between atoms: C4_6  and  C8_10 
REMARK    6  A    between atoms: C9_11  and  C10_12 
REMARK       I    between atoms: C10_12  and  N2_14 
REMARK    7  A    between atoms: N2_14  and  C11_16 
REMARK    8  A    between atoms: C11_16  and  C12_17 
REMARK    9  A    between atoms: C12_17  and  C13_18 
REMARK   10  A    between atoms: C13_18  and  C14_19 
REMARK   11  A    between atoms: C14_19  and  C15_20 
REMARK   12  A    between atoms: C15_20  and  C16_21 
REMARK   13  A    between atoms: C16_21  and  N3_22 
REMARK   14  A    between atoms: C18_30  and  C19_31 
REMARK   15  A    between atoms: C19_31  and  C20_32 
REMARK   16  A    between atoms: C20_32  and  C21_33 
REMARK   17  A    between atoms: C21_33  and  N5_34 
ROOT
HETATM    1  C8  UNL     1      -0.264   0.128  -0.505  1.00  0.00     0.148 C 
HETATM    2  C9  UNL     1       0.729   0.991   0.014  1.00  0.00     0.104 C 
HETATM    3  N4  UNL     1       0.514   1.723   1.232  1.00  0.00    -0.322 N 
ATOM      4  H4  UNL     1       1.271   1.979   1.866  1.00  0.00     0.169 HD
HETATM    5  C17 UNL     1      -0.806   2.050   1.469  1.00  0.00     0.244 C 
HETATM    6  O3  UNL     1      -1.207   2.613   2.530  1.00  0.00    -0.271 OA
HETATM    7  C18 UNL     1      -1.881   1.742   0.442  1.00  0.00     0.172 C 
HETATM    8  N8  UNL     1      -1.445   1.127  -0.704  1.00  0.00    -0.394 N 
HETATM    9  C23 UNL     1      -1.310   1.832  -1.902  1.00  0.00     0.144 C 
ENDROOT
BRANCH   1  10
HETATM   10  C4  UNL     1      -0.983  -1.019   0.035  1.00  0.00     0.110 C 
BRANCH  10  11
HETATM   11  C3  UNL     1      -1.788  -1.611  -1.131  1.00  0.00     0.227 C 
HETATM   12  N1  UNL     1      -2.888  -2.448  -1.074  1.00  0.00    -0.346 N 
HETATM   13  O1  UNL     1      -1.429  -1.336  -2.327  1.00  0.00    -0.273 OA
BRANCH  12  14
HETATM   14  C2  UNL     1      -3.408  -3.002  -2.335  1.00  0.00     0.122 C 
HETATM   15  C1  UNL     1      -2.713  -4.298  -2.718  1.00  0.00     0.026 C 
ENDBRANCH  12  14
BRANCH  12  16
HETATM   16  C24 UNL     1      -3.627  -2.794   0.093  1.00  0.00     0.105 C 
HETATM   17  C25 UNL     1      -3.517  -4.247   0.506  1.00  0.00     0.036 C 
HETATM   18  C26 UNL     1      -4.668  -5.123   0.224  1.00  0.00     0.105 C 
HETATM   19  C27 UNL     1      -5.943  -4.516   0.666  1.00  0.00     0.217 C 
HETATM   20  O4  UNL     1      -6.837  -5.282   1.098  1.00  0.00    -0.274 OA
HETATM   21  N9  UNL     1      -6.054  -3.124   0.566  1.00  0.00    -0.359 N 
HETATM   22  C28 UNL     1      -5.053  -2.294   0.017  1.00  0.00     0.147 C 
ATOM     23  H9  UNL     1      -6.908  -2.684   0.910  1.00  0.00     0.162 HD
ENDBRANCH  12  16
ENDBRANCH  10  11
BRANCH  10  24
HETATM   24  C5  UNL     1      -0.286  -2.205   0.608  1.00  0.00    -0.007 C 
HETATM   25  C6  UNL     1       0.501  -1.969   1.871  1.00  0.00     0.010 C 
HETATM   26  C7  UNL     1       0.592  -2.923  -0.422  1.00  0.00     0.010 C 
ENDBRANCH  10  24
ENDBRANCH   1  10
BRANCH   2  27
HETATM   27  C10 UNL     1       2.193   0.913  -0.285  1.00  0.00     0.269 C 
HETATM   28  O2  UNL     1       2.637   1.389  -1.346  1.00  0.00    -0.266 OA
HETATM   29  N2  UNL     1       3.092   0.333   0.620  1.00  0.00    -0.336 N 
ATOM     30  H2  UNL     1       2.634  -0.005   1.466  1.00  0.00     0.168 HD
BRANCH  29  31
HETATM   31  C11 UNL     1       4.471   0.111   0.631  1.00  0.00     0.064 C 
BRANCH  31  32
HETATM   32  C12 UNL     1       5.128  -0.816  -0.334  1.00  0.00     0.044 C 
BRANCH  32  33
HETATM   33  C13 UNL     1       6.607  -0.888   0.089  1.00  0.00     0.005 C 
BRANCH  33  34
HETATM   34  C14 UNL     1       7.290   0.410  -0.116  1.00  0.00     0.002 C 
BRANCH  34  35
HETATM   35  C15 UNL     1       8.692   0.393   0.487  1.00  0.00     0.027 C 
BRANCH  35  36
HETATM   36  C16 UNL     1       9.480  -0.742  -0.087  1.00  0.00     0.229 C 
BRANCH  36  37
HETATM   37  N3  UNL     1      10.815  -0.706   0.532  1.00  0.00    -0.079 N 
ATOM     38  H33 UNL     1      11.280   0.196   0.426  1.00  0.00     0.274 HD
ATOM     39  H32 UNL     1      10.782  -0.719   1.551  1.00  0.00     0.274 HD
ATOM     40  H31 UNL     1      11.352  -1.480   0.141  1.00  0.00     0.274 HD
ENDBRANCH  36  37
ENDBRANCH  35  36
ENDBRANCH  34  35
ENDBRANCH  33  34
ENDBRANCH  32  33
ENDBRANCH  31  32
ENDBRANCH  29  31
ENDBRANCH   2  27
BRANCH   7  41
HETATM   41  C19 UNL     1      -2.694   2.986   0.457  1.00  0.00     0.036 C 
BRANCH  41  42
HETATM   42  C20 UNL     1      -2.029   4.257   0.052  1.00  0.00     0.022 C 
BRANCH  42  43
HETATM   43  C21 UNL     1      -2.764   5.522   0.340  1.00  0.00     0.122 C 
BRANCH  43  44
HETATM   44  N5  UNL     1      -4.094   5.616  -0.195  1.00  0.00    -0.367 N 
HETATM   45  C22 UNL     1      -4.688   6.783  -0.227  1.00  0.00     0.196 C 
HETATM   46  N6  UNL     1      -4.020   7.914   0.247  1.00  0.00    -0.067 NA
HETATM   47  N7  UNL     1      -6.030   6.870  -0.700  1.00  0.00    -0.067 NA
ATOM     48  H5  UNL     1      -4.570   4.785  -0.545  1.00  0.00     0.161 HD
ENDBRANCH  43  44
ENDBRANCH  42  43
ENDBRANCH  41  42
ENDBRANCH   7  41
TORSDOF 17
