REMARK  10 active torsions:
REMARK  status: ('A' for Active; 'I' for Inactive)
REMARK    1  A    between atoms: C2_2  and  O1_3 
REMARK    2  A    between atoms: C2_2  and  C25_43 
REMARK    3  A    between atoms: O1_3  and  C3_4 
REMARK    4  A    between atoms: C4_5  and  C5_6 
REMARK    5  A    between atoms: C5_6  and  N1_7 
REMARK    6  A    between atoms: N1_7  and  C6_10 
REMARK    7  A    between atoms: C12_18  and  N2_19 
REMARK    8  A    between atoms: N2_19  and  C13_21 
REMARK    9  A    between atoms: C14_24  and  N4_25 
REMARK   10  A    between atoms: C19_33  and  N6_34 
ROOT
HETATM    1  N2  UNL     1       0.202  -0.495   1.247  1.00  0.00    -0.185 N 
ATOM      2  H2  UNL     1       0.239  -1.477   1.522  1.00  0.00     0.184 HD
ENDROOT
BRANCH   1   3
HETATM    3  C12 UNL     1       1.371   0.208   1.512  1.00  0.00     0.121 A 
HETATM    4  C3  UNL     1       2.579  -0.196   0.988  1.00  0.00     0.110 A 
HETATM    5  C4  UNL     1       3.702   0.573   1.344  1.00  0.00     0.042 A 
HETATM    6  C9  UNL     1       3.583   1.673   2.176  1.00  0.00     0.130 A 
HETATM    7  F1  UNL     1       4.645   2.465   2.529  1.00  0.00    -0.205 F 
HETATM    8  C10 UNL     1       2.347   2.054   2.689  1.00  0.00     0.087 A 
HETATM    9  C11 UNL     1       1.250   1.314   2.350  1.00  0.00     0.149 A 
HETATM   10  F2  UNL     1       0.044   1.664   2.865  1.00  0.00    -0.203 F 
BRANCH   4  11
HETATM   11  O1  UNL     1       2.726  -1.279   0.170  1.00  0.00    -0.338 OA
BRANCH  11  12
HETATM   12  C2  UNL     1       2.766  -1.424  -1.195  1.00  0.00     0.190 C 
HETATM   13  C1  UNL     1       1.352  -1.712  -1.776  1.00  0.00     0.046 C 
BRANCH  12  14
HETATM   14  C25 UNL     1       3.607  -2.601  -1.604  1.00  0.00     0.381 C 
HETATM   15  F3  UNL     1       4.909  -2.591  -1.219  1.00  0.00    -0.212 F 
HETATM   16  F4  UNL     1       3.513  -2.792  -3.001  1.00  0.00    -0.212 F 
ENDBRANCH  12  14
ENDBRANCH  11  12
ENDBRANCH   4  11
BRANCH   5  17
HETATM   17  C5  UNL     1       5.034   0.232   0.818  1.00  0.00     0.277 C 
BRANCH  17  18
HETATM   18  N1  UNL     1       6.124   1.046   1.276  1.00  0.00    -0.067 N 
ATOM     19  H12 UNL     1       5.924   2.041   1.177  1.00  0.00     0.277 HD
ATOM     20  H11 UNL     1       6.224   1.013   2.291  1.00  0.00     0.277 HD
BRANCH  18  21
HETATM   21  C6  UNL     1       7.367   0.666   0.590  1.00  0.00     0.186 A 
HETATM   22  C7  UNL     1       7.932  -0.687   0.756  1.00  0.00     0.035 A 
HETATM   23  C8  UNL     1       8.539   0.454   1.497  1.00  0.00     0.035 A 
ENDBRANCH  18  21
ENDBRANCH  17  18
ENDBRANCH   5  17
ENDBRANCH   1   3
BRANCH   1  24
HETATM   24  C13 UNL     1      -0.894  -0.150   0.732  1.00  0.00     0.712 A 
HETATM   25  N3  UNL     1      -1.209   1.073   0.282  1.00  0.00    -0.021 N 
HETATM   26  C14 UNL     1      -2.388   1.404  -0.258  1.00  0.00     0.709 A 
ATOM     27  H3  UNL     1      -0.500   1.803   0.356  1.00  0.00     0.203 HD
HETATM   28  N5  UNL     1      -3.309   0.431  -0.348  1.00  0.00    -0.021 N 
HETATM   29  C19 UNL     1      -3.029  -0.825   0.097  1.00  0.00     0.710 A 
ATOM     30  H5  UNL     1      -4.223   0.634  -0.752  1.00  0.00     0.203 HD
HETATM   31  N7  UNL     1      -1.844  -1.128   0.632  1.00  0.00    -0.021 N 
ATOM     32  H7  UNL     1      -1.651  -2.074   0.961  1.00  0.00     0.203 HD
BRANCH  26  33
HETATM   33  N4  UNL     1      -2.713   2.698  -0.732  1.00  0.00    -0.213 N 
HETATM   34  C15 UNL     1      -1.752   3.794  -0.725  1.00  0.00     0.167 C 
HETATM   35  C16 UNL     1      -1.835   4.615  -1.989  1.00  0.00     0.188 C 
HETATM   36  O2  UNL     1      -2.651   3.938  -2.905  1.00  0.00    -0.388 OA
HETATM   37  C17 UNL     1      -3.943   3.928  -2.435  1.00  0.00     0.188 C 
HETATM   38  C18 UNL     1      -4.033   3.012  -1.254  1.00  0.00     0.167 C 
ENDBRANCH  26  33
BRANCH  29  39
HETATM   39  N6  UNL     1      -4.011  -1.850  -0.004  1.00  0.00    -0.208 N 
HETATM   40  C20 UNL     1      -4.119  -2.702  -1.175  1.00  0.00     0.168 C 
HETATM   41  C21 UNL     1      -5.124  -3.769  -0.885  1.00  0.00     0.188 C 
HETATM   42  O3  UNL     1      -4.966  -4.385   0.345  1.00  0.00    -0.388 OA
HETATM   43  C22 UNL     1      -5.085  -3.548   1.416  1.00  0.00     0.193 C 
HETATM   44  C23 UNL     1      -4.954  -2.088   1.070  1.00  0.00     0.122 C 
HETATM   45  C24 UNL     1      -6.274  -1.419   0.799  1.00  0.00     0.035 C 
ENDBRANCH  29  39
ENDBRANCH   1  24
TORSDOF 10
