REMARK  16 active torsions:
REMARK  status: ('A' for Active; 'I' for Inactive)
REMARK    1  A    between atoms: C2_2  and  C3_3 
REMARK    2  A    between atoms: C3_3  and  C4_4 
REMARK    3  A    between atoms: C4_4  and  C5_5 
REMARK    4  A    between atoms: C5_5  and  N1_6 
REMARK    5  A    between atoms: N1_6  and  C6_7 
REMARK    6  A    between atoms: C6_7  and  O1_8 
REMARK    7  A    between atoms: C6_7  and  C7_10 
REMARK    8  A    between atoms: C7_10  and  N2_11 
REMARK    9  A    between atoms: N3_14  and  C10_15 
REMARK   10  A    between atoms: C10_15  and  C11_16 
REMARK   11  A    between atoms: C11_16  and  N4_17 
REMARK       I    between atoms: N4_17  and  C12_19 
REMARK       I    between atoms: C12_19  and  N6_23 
REMARK   12  A    between atoms: C16_28  and  C17_29 
REMARK   13  A    between atoms: C17_29  and  N7_30 
REMARK   14  A    between atoms: N7_30  and  C18_31 
REMARK       I    between atoms: N7_30  and  C23_37 
REMARK   15  A    between atoms: C18_31  and  C19_32 
REMARK   16  A    between atoms: C19_32  and  N8_33 
ROOT
HETATM    1  N2  UNL     1       1.854   0.680  -0.781  1.00  0.00    -0.037 N 
HETATM    2  C8  UNL     1       1.160   1.104  -2.047  1.00  0.00     0.271 C 
HETATM    3  C9  UNL     1       0.060   2.027  -1.623  1.00  0.00     0.266 C 
HETATM    4  N3  UNL     1      -0.310   1.832  -0.254  1.00  0.00    -0.055 N 
HETATM    5  C14 UNL     1       0.804   2.325   0.569  1.00  0.00     0.266 C 
HETATM    6  C15 UNL     1       2.123   1.885  -0.046  1.00  0.00     0.271 C 
HETATM    7  C16 UNL     1      -0.455   0.439   0.102  1.00  0.00     0.235 C 
HETATM    8  C24 UNL     1       0.919  -0.199  -0.151  1.00  0.00     0.278 C 
ENDROOT
BRANCH   7   9
HETATM    9  C17 UNL     1      -1.531  -0.267  -0.616  1.00  0.00     0.160 C 
BRANCH   9  10
HETATM   10  N7  UNL     1      -1.735  -1.666  -0.263  1.00  0.00    -0.352 N 
HETATM   11  C23 UNL     1      -1.070  -2.326   0.806  1.00  0.00     0.184 C 
HETATM   12  N9  UNL     1      -0.475  -3.453   0.511  1.00  0.00    -0.374 N 
HETATM   13  N10 UNL     1      -0.994  -1.882   2.143  1.00  0.00    -0.064 NA
ATOM     14  H92 UNL     1      -0.530  -3.774  -0.456  1.00  0.00     0.158 HD
ATOM     15  H91 UNL     1       0.002  -3.927   1.278  1.00  0.00     0.158 HD
BRANCH  10  16
HETATM   16  C18 UNL     1      -2.663  -2.485  -1.039  1.00  0.00     0.153 C 
BRANCH  16  17
HETATM   17  C19 UNL     1      -4.082  -2.148  -0.968  1.00  0.00     0.255 C 
BRANCH  17  18
HETATM   18  N8  UNL     1      -4.799  -2.212   0.246  1.00  0.00    -0.077 N 
HETATM   19  C20 UNL     1      -4.387  -3.167   1.217  1.00  0.00     0.271 C 
HETATM   20  C21 UNL     1      -4.913  -0.910   0.931  1.00  0.00     0.271 C 
HETATM   21  C22 UNL     1      -6.230  -2.524  -0.051  1.00  0.00     0.271 C 
ENDBRANCH  17  18
ENDBRANCH  16  17
ENDBRANCH  10  16
ENDBRANCH   9  10
ENDBRANCH   7   9
BRANCH   4  22
HETATM   22  C10 UNL     1      -1.447   2.624   0.102  1.00  0.00     0.258 C 
BRANCH  22  23
HETATM   23  C11 UNL     1      -2.004   3.474  -1.002  1.00  0.00     0.166 C 
BRANCH  23  24
HETATM   24  N4  UNL     1      -3.132   4.204  -0.436  1.00  0.00    -0.225 N 
HETATM   25  C12 UNL     1      -3.922   5.112  -1.201  1.00  0.00     0.667 C 
HETATM   26  N5  UNL     1      -5.055   4.705  -1.699  1.00  0.00    -0.235 N 
HETATM   27  N6  UNL     1      -3.539   6.452  -1.447  1.00  0.00    -0.231 N 
ATOM     28  H52 UNL     1      -5.331   3.739  -1.522  1.00  0.00     0.174 HD
ATOM     29  H51 UNL     1      -5.620   5.354  -2.246  1.00  0.00     0.174 HD
HETATM   30  C13 UNL     1      -3.036   6.801  -2.753  1.00  0.00     0.165 C 
ATOM     31  H6  UNL     1      -3.617   7.158  -0.715  1.00  0.00     0.177 HD
ATOM     32  H4  UNL     1      -3.365   4.060   0.546  1.00  0.00     0.177 HD
ENDBRANCH  23  24
ENDBRANCH  22  23
ENDBRANCH   4  22
BRANCH   1  33
HETATM   33  C7  UNL     1       3.009   0.014  -1.238  1.00  0.00     0.273 C 
BRANCH  33  34
HETATM   34  C6  UNL     1       3.949  -0.581  -0.271  1.00  0.00     0.236 C 
BRANCH  34  35
HETATM   35  N1  UNL     1       5.086  -1.216  -0.546  1.00  0.00    -0.396 NA
BRANCH  35  36
HETATM   36  C5  UNL     1       6.276  -1.886  -0.731  1.00  0.00     0.158 C 
BRANCH  36  37
HETATM   37  C4  UNL     1       6.259  -3.317  -0.270  1.00  0.00     0.059 C 
BRANCH  37  38
HETATM   38  C3  UNL     1       5.972  -3.597   1.147  1.00  0.00     0.006 C 
BRANCH  38  39
HETATM   39  C2  UNL     1       6.903  -3.136   2.203  1.00  0.00    -0.004 C 
HETATM   40  C1  UNL     1       7.134  -1.692   2.415  1.00  0.00     0.005 C 
ENDBRANCH  38  39
ENDBRANCH  37  38
ENDBRANCH  36  37
ENDBRANCH  35  36
ENDBRANCH  34  35
BRANCH  34  41
HETATM   41  O1  UNL     1       3.640  -0.476   0.996  1.00  0.00    -0.335 OA
ATOM     42  H1  UNL     1       2.828  -0.023   1.192  1.00  0.00     0.220 HD
ENDBRANCH  34  41
ENDBRANCH  33  34
ENDBRANCH   1  33
TORSDOF 16
