REMARK  14 active torsions:
REMARK  status: ('A' for Active; 'I' for Inactive)
REMARK    1  A    between atoms: N1_2  and  C4_5 
REMARK    2  A    between atoms: C4_5  and  C5_6 
REMARK    3  A    between atoms: C5_6  and  C6_7 
REMARK    4  A    between atoms: C6_7  and  O1_8 
REMARK    5  A    between atoms: C6_7  and  C7_10 
REMARK    6  A    between atoms: C7_10  and  C8_11 
REMARK    7  A    between atoms: C7_10  and  N6_33 
REMARK    8  A    between atoms: C8_11  and  C9_12 
REMARK    9  A    between atoms: C9_12  and  C10_13 
REMARK       I    between atoms: C10_13  and  N2_15 
REMARK   10  A    between atoms: N2_15  and  C11_17 
REMARK   11  A    between atoms: C11_17  and  C12_18 
REMARK   12  A    between atoms: C12_18  and  N3_19 
REMARK   13  A    between atoms: C18_25  and  N4_26 
REMARK       I    between atoms: N6_33  and  C20_35 
REMARK       I    between atoms: C20_35  and  N8_39 
REMARK   14  A    between atoms: N8_39  and  C21_41 
ROOT
HETATM    1  C7  UNL     1      -1.622   0.078   0.799  1.00  0.00     0.128 C 
ENDROOT
BRANCH   1   2
HETATM    2  C6  UNL     1      -2.849   0.849   0.325  1.00  0.00     0.143 C 
BRANCH   2   3
HETATM    3  C5  UNL     1      -2.963   2.186   0.997  1.00  0.00     0.061 C 
BRANCH   3   4
HETATM    4  C4  UNL     1      -4.115   2.973   0.530  1.00  0.00     0.238 C 
BRANCH   4   5
HETATM    5  N1  UNL     1      -4.226   3.360  -0.818  1.00  0.00    -0.079 N 
HETATM    6  C1  UNL     1      -4.850   4.700  -0.916  1.00  0.00     0.271 C 
HETATM    7  C2  UNL     1      -5.200   2.477  -1.478  1.00  0.00     0.271 C 
HETATM    8  C3  UNL     1      -3.059   3.376  -1.613  1.00  0.00     0.271 C 
ENDBRANCH   4   5
ENDBRANCH   3   4
ENDBRANCH   2   3
BRANCH   2   9
HETATM    9  O1  UNL     1      -4.027   0.158   0.618  1.00  0.00    -0.393 OA
ATOM     10  H1  UNL     1      -3.955  -0.688   0.193  1.00  0.00     0.210 HD
ENDBRANCH   2   9
ENDBRANCH   1   2
BRANCH   1  11
HETATM   11  C8  UNL     1      -1.540  -0.020   2.275  1.00  0.00     0.037 C 
BRANCH  11  12
HETATM   12  C9  UNL     1      -0.364  -0.768   2.756  1.00  0.00     0.105 C 
BRANCH  12  13
HETATM   13  C10 UNL     1       0.962  -0.209   2.432  1.00  0.00     0.217 C 
HETATM   14  O2  UNL     1       1.092   0.894   1.876  1.00  0.00    -0.274 OA
HETATM   15  N2  UNL     1       2.117  -0.957   2.768  1.00  0.00    -0.359 N 
ATOM     16  H2  UNL     1       1.992  -1.859   3.227  1.00  0.00     0.162 HD
BRANCH  15  17
HETATM   17  C11 UNL     1       3.441  -0.515   2.498  1.00  0.00     0.151 C 
BRANCH  17  18
HETATM   18  C12 UNL     1       3.735  -0.317   1.042  1.00  0.00     0.266 C 
BRANCH  18  19
HETATM   19  N3  UNL     1       5.111   0.117   0.859  1.00  0.00    -0.006 N 
HETATM   20  C13 UNL     1       5.441   1.077   1.889  1.00  0.00     0.283 C 
HETATM   21  C14 UNL     1       6.037  -0.981   0.956  1.00  0.00     0.247 C 
HETATM   22  C15 UNL     1       6.004  -1.905  -0.223  1.00  0.00     0.029 C 
HETATM   23  C16 UNL     1       6.434  -1.293  -1.515  1.00  0.00     0.004 C 
HETATM   24  C17 UNL     1       7.354  -0.125  -1.378  1.00  0.00     0.036 C 
HETATM   25  C18 UNL     1       6.585   1.131  -1.022  1.00  0.00     0.199 C 
HETATM   26  C19 UNL     1       5.309   0.756  -0.396  1.00  0.00     0.342 C 
HETATM   27  O3  UNL     1       4.250   0.997  -0.979  1.00  0.00    -0.263 OA
BRANCH  25  28
HETATM   28  N4  UNL     1       6.428   1.940  -2.175  1.00  0.00    -0.329 N 
HETATM   29  N5  UNL     1       5.455   2.683  -2.349  1.00  0.00    -0.349 N 
ATOM     30  H52 UNL     1       4.742   2.703  -1.620  1.00  0.00     0.176 HD
ATOM     31  H51 UNL     1       5.342   3.265  -3.179  1.00  0.00     0.176 HD
ATOM     32  H4  UNL     1       7.151   1.908  -2.894  1.00  0.00     0.180 HD
ENDBRANCH  25  28
ENDBRANCH  18  19
ENDBRANCH  17  18
ENDBRANCH  15  17
ENDBRANCH  12  13
ENDBRANCH  11  12
ENDBRANCH   1  11
BRANCH   1  33
HETATM   33  N6  UNL     1      -1.615  -1.180   0.118  1.00  0.00    -0.220 N 
HETATM   34  C20 UNL     1      -2.582  -2.206   0.193  1.00  0.00     0.668 C 
HETATM   35  N7  UNL     1      -3.096  -2.600   1.321  1.00  0.00    -0.235 N 
HETATM   36  N8  UNL     1      -3.006  -2.842  -1.004  1.00  0.00    -0.222 N 
ATOM     37  H72 UNL     1      -2.791  -2.143   2.181  1.00  0.00     0.174 HD
ATOM     38  H71 UNL     1      -3.795  -3.341   1.375  1.00  0.00     0.174 HD
ATOM     39  H8  UNL     1      -2.489  -2.646  -1.861  1.00  0.00     0.178 HD
ATOM     40  H6  UNL     1      -0.818  -1.356  -0.493  1.00  0.00     0.178 HD
BRANCH  36  41
HETATM   41  C21 UNL     1      -4.114  -3.739  -1.078  1.00  0.00     0.099 C 
HETATM   42  C22 UNL     1      -5.477  -3.192  -0.724  1.00  0.00     0.026 C 
HETATM   43  C23 UNL     1      -6.023  -4.067  -1.865  1.00  0.00     0.004 C 
HETATM   44  C24 UNL     1      -4.632  -3.984  -2.473  1.00  0.00     0.026 C 
ENDBRANCH  36  41
ENDBRANCH   1  33
TORSDOF 14
