REMARK  7 active torsions:
REMARK  status: ('A' for Active; 'I' for Inactive)
REMARK    1  A    between atoms: C5_5  and  C6_6 
REMARK    2  A    between atoms: C6_6  and  C7_7 
REMARK       I    between atoms: C7_7  and  N1_9 
REMARK    3  A    between atoms: N1_9  and  N2_11 
REMARK       I    between atoms: N3_19  and  C15_20 
REMARK    4  A    between atoms: C15_20  and  C16_22 
REMARK    5  A    between atoms: C16_22  and  N4_24 
REMARK       I    between atoms: N4_24  and  C18_26 
REMARK    6  A    between atoms: C18_26  and  O4_28 
REMARK    7  A    between atoms: O4_28  and  C19_29 
ROOT
HETATM    1  N2  UNL     1      -2.977  -1.016  -0.117  1.00  0.00    -0.229 NA
HETATM    2  C8  UNL     1      -2.496  -1.763   1.002  1.00  0.00     0.114 C 
HETATM    3  C9  UNL     1      -1.286  -2.608   0.669  1.00  0.00     0.026 C 
HETATM    4  C10 UNL     1      -0.139  -1.763   0.145  1.00  0.00    -0.035 C 
HETATM    5  C11 UNL     1      -0.665  -0.446  -0.337  1.00  0.00     0.026 C 
HETATM    6  C12 UNL     1      -1.958  -0.695  -1.081  1.00  0.00     0.114 C 
HETATM    7  C13 UNL     1       0.911  -1.525   1.182  1.00  0.00     0.029 C 
HETATM    8  C14 UNL     1       2.276  -2.080   0.811  1.00  0.00     0.126 C 
HETATM    9  N3  UNL     1       2.699  -1.745  -0.515  1.00  0.00    -0.350 N 
HETATM   10  C15 UNL     1       4.025  -1.345  -0.834  1.00  0.00     0.242 C 
HETATM   11  O2  UNL     1       4.273  -1.053  -2.055  1.00  0.00    -0.271 OA
HETATM   12  C23 UNL     1       1.676  -1.837  -1.574  1.00  0.00     0.126 C 
HETATM   13  C24 UNL     1       0.486  -2.531  -0.994  1.00  0.00     0.029 C 
ENDROOT
BRANCH   1  14
HETATM   14  N1  UNL     1      -3.630   0.173   0.223  1.00  0.00    -0.289 N 
HETATM   15  C7  UNL     1      -5.043   0.191   0.255  1.00  0.00     0.236 C 
HETATM   16  O1  UNL     1      -5.733  -0.826  -0.013  1.00  0.00    -0.272 OA
ATOM     17  H1  UNL     1      -3.096   1.013   0.444  1.00  0.00     0.184 HD
BRANCH  15  18
HETATM   18  C6  UNL     1      -5.729   1.455   0.615  1.00  0.00     0.143 C 
BRANCH  18  19
HETATM   19  C5  UNL     1      -7.198   1.364   0.595  1.00  0.00    -0.042 A 
HETATM   20  C4  UNL     1      -7.906   1.248   1.802  1.00  0.00     0.009 A 
HETATM   21  C3  UNL     1      -9.280   1.153   1.831  1.00  0.00     0.009 A 
HETATM   22  C2  UNL     1     -10.022   1.168   0.668  1.00  0.00    -0.040 A 
HETATM   23  C1  UNL     1     -11.515   1.063   0.699  1.00  0.00     0.050 C 
HETATM   24  C27 UNL     1      -9.345   1.280  -0.522  1.00  0.00     0.046 A 
HETATM   25  C25 UNL     1      -7.947   1.378  -0.551  1.00  0.00    -0.033 A 
HETATM   26 CL1  UNL     1     -10.222   1.305  -2.026  1.00  0.00    -0.083 Cl
HETATM   27  C26 UNL     1      -7.249   1.508  -1.864  1.00  0.00     0.050 C 
ENDBRANCH  18  19
ENDBRANCH  15  18
ENDBRANCH   1  14
BRANCH  10  28
HETATM   28  C16 UNL     1       5.124  -1.246   0.151  1.00  0.00     0.175 C 
HETATM   29  C17 UNL     1       5.351  -2.621   0.743  1.00  0.00     0.042 C 
BRANCH  28  30
HETATM   30  N4  UNL     1       6.325  -0.754  -0.500  1.00  0.00    -0.324 N 
HETATM   31  C18 UNL     1       6.930   0.458  -0.085  1.00  0.00     0.362 C 
HETATM   32  O3  UNL     1       6.448   1.157   0.866  1.00  0.00    -0.238 OA
ATOM     33  H4  UNL     1       6.738  -1.287  -1.265  1.00  0.00     0.165 HD
BRANCH  31  34
HETATM   34  O4  UNL     1       8.068   0.954  -0.680  1.00  0.00    -0.294 OA
BRANCH  34  35
HETATM   35  C19 UNL     1       8.714   2.152  -0.314  1.00  0.00     0.061 C 
HETATM   36  C20 UNL     1       7.858   3.362  -0.447  1.00  0.00     0.046 C 
HETATM   37  C21 UNL     1       9.248   1.992   1.085  1.00  0.00     0.046 C 
HETATM   38  C22 UNL     1       9.907   2.295  -1.246  1.00  0.00     0.046 C 
ENDBRANCH  34  35
ENDBRANCH  31  34
ENDBRANCH  28  30
ENDBRANCH  10  28
TORSDOF 7
