REMARK  6 active torsions:
REMARK  status: ('A' for Active; 'I' for Inactive)
REMARK    1  A    between atoms: C2_2  and  C4_4 
REMARK    2  A    between atoms: C18_18  and  N1_19 
REMARK       I    between atoms: N1_19  and  C19_20 
REMARK    3  A    between atoms: C19_20  and  C20_22 
REMARK    4  A    between atoms: C20_22  and  C21_23 
REMARK    5  A    between atoms: C21_23  and  N2_24 
REMARK    6  A    between atoms: C31_36  and  O2_37 
ROOT
HETATM    1  C4  UNL     1      -6.170   0.686   0.432  1.00  0.00     0.018 C 
HETATM    2  C5  UNL     1      -6.345  -0.564   1.206  1.00  0.00     0.010 C 
HETATM    3  C6  UNL     1      -5.017  -1.327   1.055  1.00  0.00     0.006 C 
HETATM    4  C7  UNL     1      -4.160  -0.447   0.204  1.00  0.00     0.002 C 
HETATM    5  C8  UNL     1      -4.668   0.933   0.562  1.00  0.00    -0.002 C 
HETATM    6  C9  UNL     1      -4.201   0.941   1.999  1.00  0.00     0.006 C 
HETATM    7  C10 UNL     1      -2.900   0.157   2.009  1.00  0.00     0.013 C 
HETATM    8  C11 UNL     1      -2.697  -0.449   0.639  1.00  0.00    -0.004 C 
HETATM    9  C12 UNL     1      -2.405  -1.903   0.867  1.00  0.00     0.013 C 
HETATM   10  C13 UNL     1      -0.934  -2.213   0.844  1.00  0.00     0.006 C 
HETATM   11  C14 UNL     1      -0.471  -1.847  -0.529  1.00  0.00    -0.001 C 
HETATM   12  C15 UNL     1      -1.200  -2.813  -1.459  1.00  0.00     0.011 C 
HETATM   13  C16 UNL     1      -0.609  -0.402  -0.900  1.00  0.00     0.043 C 
HETATM   14  C17 UNL     1      -0.846  -0.457  -2.443  1.00  0.00     0.026 C 
HETATM   15  C18 UNL     1       0.753   0.231  -0.821  1.00  0.00     0.081 C 
HETATM   16  C27 UNL     1       0.954   1.484  -0.032  1.00  0.00     0.043 C 
HETATM   17  C28 UNL     1       1.024   2.760  -0.822  1.00  0.00     0.017 C 
HETATM   18  C29 UNL     1      -0.053   1.537   1.071  1.00  0.00     0.014 C 
HETATM   19  C30 UNL     1      -1.355   1.643   0.337  1.00  0.00     0.040 C 
HETATM   20  C31 UNL     1      -1.771   0.279  -0.255  1.00  0.00     0.080 C 
ENDROOT
BRANCH  15  21
HETATM   21  N1  UNL     1       1.883  -0.583  -0.679  1.00  0.00    -0.378 NA
HETATM   22  C19 UNL     1       2.975  -1.374  -0.533  1.00  0.00     0.296 C 
HETATM   23  O1  UNL     1       3.329  -2.166   0.350  1.00  0.00    -0.257 OA
BRANCH  22  24
HETATM   24  C20 UNL     1       3.977  -1.279  -1.687  1.00  0.00     0.163 C 
BRANCH  24  25
HETATM   25  C21 UNL     1       5.342  -1.723  -1.376  1.00  0.00     0.069 C 
BRANCH  25  26
HETATM   26  N2  UNL     1       6.156  -1.020  -0.490  1.00  0.00    -0.387 N 
HETATM   27  C22 UNL     1       6.003  -0.891   0.869  1.00  0.00     0.152 C 
HETATM   28  C23 UNL     1       7.225  -0.260   1.558  1.00  0.00     0.295 C 
HETATM   29  N3  UNL     1       7.955   0.628   0.710  1.00  0.00     0.121 N 
HETATM   30  C24 UNL     1       7.350   1.904   0.472  1.00  0.00     0.314 C 
HETATM   31  C25 UNL     1       8.430  -0.062  -0.448  1.00  0.00     0.422 C 
HETATM   32  F1  UNL     1       9.701  -0.577  -0.144  1.00  0.00    -0.214 F 
HETATM   33  C26 UNL     1       7.554  -1.228  -0.851  1.00  0.00     0.191 C 
ENDBRANCH  25  26
ENDBRANCH  24  25
ENDBRANCH  22  24
ENDBRANCH  15  21
BRANCH  20  34
HETATM   34  O2  UNL     1      -2.595   0.749  -1.308  1.00  0.00    -0.388 OA
ATOM     35  H2  UNL     1      -2.000   1.217  -1.882  1.00  0.00     0.210 HD
ENDBRANCH  20  34
BRANCH   1  36
HETATM   36  C2  UNL     1      -6.988   1.841   0.761  1.00  0.00    -0.089 C 
HETATM   37  C1  UNL     1      -7.906   1.981   1.680  1.00  0.00     0.014 C 
HETATM   38  C3  UNL     1      -6.735   3.081  -0.092  1.00  0.00     0.043 C 
ENDBRANCH   1  36
TORSDOF 6
