REMARK  6 active torsions:
REMARK  status: ('A' for Active; 'I' for Inactive)
REMARK    1  A    between atoms: C2_2  and  C3_4 
REMARK    2  A    between atoms: C3_4  and  O1_5 
REMARK    3  A    between atoms: C3_4  and  C4_7 
REMARK    4  A    between atoms: C4_7  and  C5_8 
REMARK    5  A    between atoms: C5_8  and  C6_9 
REMARK    6  A    between atoms: C11_14  and  O2_15 
ROOT
HETATM    1  C6  UNL     1       2.452  -1.031  -0.531  1.00  0.00    -0.080 C 
HETATM    2  C7  UNL     1       2.240  -1.835  -1.750  1.00  0.00     0.043 C 
HETATM    3  C8  UNL     1       1.547  -1.004   0.568  1.00  0.00    -0.066 C 
HETATM    4  C9  UNL     1       1.598   0.161   1.503  1.00  0.00     0.041 C 
HETATM    5  C10 UNL     1       2.815   0.925   1.740  1.00  0.00     0.017 C 
HETATM    6  C11 UNL     1       0.501   1.051   0.900  1.00  0.00     0.135 C 
HETATM    7  C12 UNL     1      -0.631   0.064   0.791  1.00  0.00    -0.005 C 
HETATM    8  C13 UNL     1      -1.341   0.075   2.113  1.00  0.00     0.019 C 
HETATM    9  C14 UNL     1      -1.519   0.465  -0.366  1.00  0.00     0.008 C 
HETATM   10  C15 UNL     1      -2.055   1.837  -0.277  1.00  0.00     0.007 C 
HETATM   11  C16 UNL     1      -3.350   2.008   0.452  1.00  0.00     0.010 C 
HETATM   12  C17 UNL     1      -4.402   1.086  -0.123  1.00  0.00    -0.039 C 
HETATM   13  C18 UNL     1      -4.782   1.681  -1.487  1.00  0.00     0.015 C 
HETATM   14  C19 UNL     1      -5.627   1.111   0.729  1.00  0.00     0.017 C 
HETATM   15  C20 UNL     1      -6.510  -0.078   0.593  1.00  0.00     0.079 C 
HETATM   16  C21 UNL     1      -6.240  -0.916  -0.588  1.00  0.00     0.127 C 
HETATM   17  O3  UNL     1      -7.131  -1.578  -1.051  1.00  0.00    -0.298 OA
HETATM   18  C22 UNL     1      -4.904  -0.993  -1.253  1.00  0.00     0.084 C 
HETATM   19  C23 UNL     1      -3.937  -0.326  -0.253  1.00  0.00     0.012 C 
HETATM   20  C24 UNL     1      -2.567  -0.509  -0.738  1.00  0.00     0.065 C 
HETATM   21  C25 UNL     1      -2.036  -1.869  -0.339  1.00  0.00     0.132 C 
HETATM   22  O4  UNL     1      -2.718  -2.741   0.113  1.00  0.00    -0.298 OA
HETATM   23  C26 UNL     1      -0.545  -1.991  -0.580  1.00  0.00     0.088 C 
HETATM   24  C27 UNL     1       0.106  -1.241   0.500  1.00  0.00     0.033 C 
ENDROOT
BRANCH   1  25
HETATM   25  C5  UNL     1       3.942  -1.099  -0.225  1.00  0.00     0.036 C 
BRANCH  25  26
HETATM   26  C4  UNL     1       4.759  -0.487  -1.324  1.00  0.00     0.037 C 
BRANCH  26  27
HETATM   27  C3  UNL     1       6.222  -0.549  -1.202  1.00  0.00     0.132 C 
BRANCH  27  28
HETATM   28  C2  UNL     1       6.895   0.095  -0.043  1.00  0.00     0.082 C 
HETATM   29  C1  UNL     1       6.406   1.472   0.245  1.00  0.00     0.024 C 
HETATM   30 BR1  UNL     1       6.819  -1.028   1.510  1.00  0.00    -0.089 Br
ENDBRANCH  27  28
BRANCH  27  31
HETATM   31  O1  UNL     1       6.724  -1.849  -1.409  1.00  0.00    -0.394 OA
ATOM     32  H1  UNL     1       6.294  -2.260  -2.149  1.00  0.00     0.210 HD
ENDBRANCH  27  31
ENDBRANCH  26  27
ENDBRANCH  25  26
ENDBRANCH   1  25
BRANCH   6  33
HETATM   33  O2  UNL     1       0.272   2.032   1.873  1.00  0.00    -0.394 OA
ATOM     34  H2  UNL     1      -0.407   2.582   1.500  1.00  0.00     0.210 HD
ENDBRANCH   6  33
TORSDOF 6
