REMARK  5 active torsions:
REMARK  status: ('A' for Active; 'I' for Inactive)
REMARK    1  A    between atoms: C2_2  and  C3_3 
REMARK    2  A    between atoms: C9_12  and  C10_13 
REMARK       I    between atoms: C10_13  and  N2_15 
REMARK    3  A    between atoms: N2_15  and  C11_17 
REMARK    4  A    between atoms: C16_22  and  C17_23 
REMARK    5  A    between atoms: C17_23  and  C18_24 
REMARK       I    between atoms: C18_24  and  N3_26 
ROOT
HETATM    1  C10 UNL     1       2.735  -0.309  -0.138  1.00  0.00     0.242 C 
HETATM    2  O1  UNL     1       2.895  -1.553  -0.194  1.00  0.00    -0.271 OA
HETATM    3  N2  UNL     1       1.440   0.224  -0.170  1.00  0.00    -0.355 N 
ATOM      4  H2  UNL     1       1.301   1.234  -0.130  1.00  0.00     0.162 HD
ENDROOT
BRANCH   3   5
HETATM    5  C11 UNL     1       0.274  -0.682  -0.262  1.00  0.00     0.084 C 
HETATM    6  C12 UNL     1      -0.438  -0.258  -1.509  1.00  0.00     0.025 C 
HETATM    7  C13 UNL     1      -1.357  -1.307  -1.996  1.00  0.00     0.002 C 
HETATM    8  C14 UNL     1      -1.426  -2.496  -1.131  1.00  0.00     0.000 C 
HETATM    9  C15 UNL     1      -1.885  -2.403   0.252  1.00  0.00     0.005 C 
HETATM   10  C16 UNL     1      -1.884  -1.120   0.968  1.00  0.00    -0.004 C 
HETATM   11  C24 UNL     1      -0.576  -0.382   0.950  1.00  0.00     0.030 C 
BRANCH  10  12
HETATM   12  C17 UNL     1      -3.042  -0.190   0.732  1.00  0.00     0.107 C 
BRANCH  12  13
HETATM   13  C18 UNL     1      -4.362  -0.691   1.109  1.00  0.00     0.220 C 
HETATM   14  O2  UNL     1      -4.512  -1.796   1.677  1.00  0.00    -0.273 OA
HETATM   15  N3  UNL     1      -5.553   0.056   0.849  1.00  0.00    -0.352 N 
HETATM   16  C19 UNL     1      -5.476   1.354   0.184  1.00  0.00     0.125 C 
HETATM   17  C23 UNL     1      -6.847  -0.417   1.221  1.00  0.00     0.125 C 
HETATM   18  C20 UNL     1      -6.819   2.033   0.263  1.00  0.00     0.020 C 
HETATM   19  C21 UNL     1      -7.945   1.198  -0.264  1.00  0.00     0.003 C 
HETATM   20  C22 UNL     1      -7.747  -0.278  -0.001  1.00  0.00     0.020 C 
ENDBRANCH  12  13
ENDBRANCH  10  12
ENDBRANCH   3   5
BRANCH   1  21
HETATM   21  C9  UNL     1       3.898   0.599  -0.040  1.00  0.00     0.198 C 
HETATM   22  N1  UNL     1       5.122  -0.180  -0.038  1.00  0.00    -0.372 N 
HETATM   23  C8  UNL     1       6.338   0.600  -0.070  1.00  0.00     0.074 A 
ATOM     24  H1  UNL     1       5.124  -1.200  -0.016  1.00  0.00     0.160 HD
HETATM   25  C3  UNL     1       7.514   0.156   0.463  1.00  0.00    -0.008 A 
HETATM   26  C7  UNL     1       6.244   1.818  -0.721  1.00  0.00     0.113 A 
HETATM   27  C4  UNL     1       8.688   0.925   0.368  1.00  0.00     0.015 A 
HETATM   28  C5  UNL     1       8.604   2.129  -0.275  1.00  0.00     0.023 A 
HETATM   29  C6  UNL     1       7.422   2.578  -0.810  1.00  0.00     0.046 A 
HETATM   30 BR1  UNL     1       7.311   4.275  -1.711  1.00  0.00    -0.048 Br
HETATM   31  O3  UNL     1       5.070   2.262  -1.251  1.00  0.00    -0.345 OA
HETATM   32  C25 UNL     1       3.883   1.525  -1.234  1.00  0.00     0.210 C 
BRANCH  25  33
HETATM   33  C2  UNL     1       7.606  -1.115   1.130  1.00  0.00     0.003 C 
HETATM   34  C1  UNL     1       6.735  -1.577   1.971  1.00  0.00     0.012 C 
ENDBRANCH  25  33
ENDBRANCH   1  21
TORSDOF 5
