REMARK  8 active torsions:
REMARK  status: ('A' for Active; 'I' for Inactive)
REMARK    1  A    between atoms: C2_2  and  C4_4 
REMARK    2  A    between atoms: C6_6  and  C7_7 
REMARK    3  A    between atoms: C12_12  and  C13_13 
REMARK       I    between atoms: C13_13  and  N1_15 
REMARK    4  A    between atoms: N1_15  and  C14_17 
REMARK    5  A    between atoms: C16_19  and  N2_20 
REMARK    6  A    between atoms: N3_23  and  C19_24 
REMARK    7  A    between atoms: C19_24  and  C20_25 
REMARK    8  A    between atoms: C24_33  and  O2_34 
ROOT
HETATM    1  C13 UNL     1      -1.013  -0.093  -0.537  1.00  0.00     0.260 C 
HETATM    2  O1  UNL     1      -0.541   0.987  -0.946  1.00  0.00    -0.267 OA
HETATM    3  N1  UNL     1      -0.263  -1.248  -0.419  1.00  0.00    -0.308 N 
ATOM      4  H1  UNL     1      -0.805  -2.101  -0.281  1.00  0.00     0.170 HD
ENDROOT
BRANCH   3   5
HETATM    5  C14 UNL     1       1.013  -1.416  -0.456  1.00  0.00     0.116 A 
HETATM    6  C15 UNL     1       1.941  -0.469  -0.623  1.00  0.00     0.086 A 
HETATM    7  C16 UNL     1       3.260  -0.864  -0.645  1.00  0.00     0.080 A 
HETATM    8  S1  UNL     1       3.135  -2.545  -0.430  1.00  0.00    -0.079 SA
HETATM    9  C23 UNL     1       4.367  -3.730   0.277  1.00  0.00     0.109 C 
HETATM   10  N4  UNL     1       1.472  -2.692  -0.322  1.00  0.00    -0.320 N 
ATOM     11  H4  UNL     1       0.926  -3.543  -0.187  1.00  0.00     0.175 HD
BRANCH   7  12
HETATM   12  N2  UNL     1       4.446  -0.109  -0.792  1.00  0.00    -0.368 N 
HETATM   13  C17 UNL     1       4.325   1.330  -0.852  1.00  0.00     0.168 C 
HETATM   14  C18 UNL     1       5.498   2.045  -0.263  1.00  0.00     0.083 C 
HETATM   15  N3  UNL     1       6.620   1.276   0.033  1.00  0.00    -0.370 N 
HETATM   16  C21 UNL     1       6.614  -0.085   0.196  1.00  0.00     0.146 C 
HETATM   17  C22 UNL     1       5.719  -0.722  -0.896  1.00  0.00     0.144 C 
BRANCH  15  18
HETATM   18  C19 UNL     1       7.661   2.009   0.624  1.00  0.00     0.074 C 
BRANCH  18  19
HETATM   19  C20 UNL     1       8.902   1.308   1.038  1.00  0.00     0.129 C 
HETATM   20 BR1  UNL     1       8.675  -0.030   2.402  1.00  0.00    -0.091 Br
ENDBRANCH  18  19
ENDBRANCH  15  18
ENDBRANCH   7  12
ENDBRANCH   3   5
BRANCH   1  21
HETATM   21  C12 UNL     1      -2.452  -0.038  -0.186  1.00  0.00     0.066 A 
HETATM   22  C11 UNL     1      -3.185   1.121  -0.318  1.00  0.00     0.027 A 
HETATM   23  C6  UNL     1      -4.521   1.168  -0.002  1.00  0.00    -0.049 A 
HETATM   24  C5  UNL     1      -5.090  -0.004   0.454  1.00  0.00     0.018 A 
HETATM   25  C4  UNL     1      -4.359  -1.181   0.592  1.00  0.00    -0.020 A 
HETATM   26  C24 UNL     1      -3.020  -1.218   0.273  1.00  0.00     0.088 A 
BRANCH  23  27
HETATM   27  C7  UNL     1      -5.336   2.405  -0.140  1.00  0.00    -0.024 C 
HETATM   28  C8  UNL     1      -6.464   2.189  -1.126  1.00  0.00     0.019 C 
HETATM   29  C9  UNL     1      -5.969   2.818   1.182  1.00  0.00     0.019 C 
HETATM   30  C10 UNL     1      -4.459   3.532  -0.640  1.00  0.00     0.019 C 
ENDBRANCH  23  27
BRANCH  25  31
HETATM   31  C2  UNL     1      -5.010  -2.421   1.066  1.00  0.00     0.013 C 
HETATM   32  C1  UNL     1      -6.409  -2.067   1.556  1.00  0.00     0.015 C 
HETATM   33  C3  UNL     1      -5.153  -3.399  -0.097  1.00  0.00     0.015 C 
ENDBRANCH  25  31
BRANCH  26  34
HETATM   34  O2  UNL     1      -2.238  -2.375   0.396  1.00  0.00    -0.359 OA
ATOM     35  H2  UNL     1      -1.314  -2.401   0.176  1.00  0.00     0.217 HD
ENDBRANCH  26  34
ENDBRANCH   1  21
TORSDOF 8
