REMARK  7 active torsions:
REMARK  status: ('A' for Active; 'I' for Inactive)
REMARK    1  A    between atoms: C2_2  and  C3_3 
REMARK    2  A    between atoms: C3_3  and  N1_4 
REMARK    3  A    between atoms: C3_3  and  C19_27 
REMARK       I    between atoms: N1_4  and  C4_6 
REMARK       I    between atoms: C4_6  and  N2_8 
REMARK    4  A    between atoms: C7_11  and  N3_12 
REMARK    5  A    between atoms: C10_15  and  N4_16 
REMARK       I    between atoms: N4_16  and  C11_18 
REMARK    6  A    between atoms: C11_18  and  C12_20 
REMARK    7  A    between atoms: C20_30  and  N6_31 
ROOT
HETATM    1  N1  UNL     1       3.972   0.233   0.328  1.00  0.00    -0.328 N 
ATOM      2  H1  UNL     1       4.007  -0.279   1.210  1.00  0.00     0.165 HD
HETATM    3  C4  UNL     1       2.994  -0.104  -0.637  1.00  0.00     0.319 C 
HETATM    4  O1  UNL     1       2.934   0.526  -1.749  1.00  0.00    -0.247 OA
HETATM    5  N2  UNL     1       2.068  -1.128  -0.408  1.00  0.00    -0.334 N 
HETATM    6  C5  UNL     1       1.979  -1.941   0.777  1.00  0.00     0.129 C 
HETATM    7  C6  UNL     1       0.617  -1.690   1.444  1.00  0.00     0.056 C 
HETATM    8  C7  UNL     1      -0.468  -1.804   0.397  1.00  0.00     0.226 C 
HETATM    9  C17 UNL     1       0.078  -2.376  -0.892  1.00  0.00     0.056 C 
HETATM   10  C18 UNL     1       1.093  -1.420  -1.452  1.00  0.00     0.129 C 
ENDROOT
BRANCH   1  11
HETATM   11  C3  UNL     1       4.941   1.314   0.075  1.00  0.00     0.178 C 
BRANCH  11  12
HETATM   12  C2  UNL     1       4.771   2.372   1.077  1.00  0.00    -0.004 C 
HETATM   13  C1  UNL     1       5.730   3.204   1.426  1.00  0.00     0.009 C 
ENDBRANCH  11  12
BRANCH  11  14
HETATM   14  C19 UNL     1       6.298   0.724   0.072  1.00  0.00     0.139 A 
HETATM   15  N5  UNL     1       7.269   0.978  -0.822  1.00  0.00    -0.176 N 
HETATM   16  C20 UNL     1       8.385   0.262  -0.523  1.00  0.00     0.692 A 
ATOM     17  H5  UNL     1       7.181   1.617  -1.612  1.00  0.00     0.185 HD
HETATM   18  N7  UNL     1       8.071  -0.436   0.578  1.00  0.00    -0.131 N 
HETATM   19  N8  UNL     1       6.828  -0.158   0.930  1.00  0.00    -0.272 N 
ATOM     20  H7  UNL     1       8.693  -1.080   1.067  1.00  0.00     0.205 HD
ATOM     21  H8  UNL     1       6.344  -0.556   1.735  1.00  0.00     0.189 HD
BRANCH  16  22
HETATM   22  N6  UNL     1       9.507   0.258  -1.166  1.00  0.00    -0.233 N 
ATOM     23  H62 UNL     1       9.746   0.789  -2.004  1.00  0.00     0.174 HD
ATOM     24  H61 UNL     1      10.344  -0.279  -0.942  1.00  0.00     0.174 HD
ENDBRANCH  16  22
ENDBRANCH  11  14
ENDBRANCH   1  11
BRANCH   8  25
HETATM   25  N3  UNL     1      -1.053  -0.511   0.093  1.00  0.00     0.095 N 
HETATM   26  C8  UNL     1      -1.693   0.055   1.274  1.00  0.00     0.275 C 
HETATM   27  C9  UNL     1      -2.605   1.096   0.682  1.00  0.00     0.057 C 
HETATM   28  C10 UNL     1      -3.069   0.470  -0.604  1.00  0.00     0.114 C 
HETATM   29  C16 UNL     1      -2.176  -0.737  -0.834  1.00  0.00     0.298 C 
BRANCH  28  30
HETATM   30  N4  UNL     1      -4.467   0.062  -0.409  1.00  0.00    -0.354 N 
HETATM   31  C11 UNL     1      -5.451   0.542  -1.284  1.00  0.00     0.222 C 
HETATM   32  O2  UNL     1      -5.137   1.316  -2.229  1.00  0.00    -0.273 OA
ATOM     33  H4  UNL     1      -4.719  -0.564   0.356  1.00  0.00     0.162 HD
BRANCH  31  34
HETATM   34  C12 UNL     1      -6.860   0.133  -1.093  1.00  0.00     0.078 C 
HETATM   35  C13 UNL     1      -7.472   0.490   0.246  1.00  0.00     0.014 C 
HETATM   36  C14 UNL     1      -8.770   0.786  -0.520  1.00  0.00     0.002 C 
HETATM   37  C15 UNL     1      -7.864   1.116  -1.713  1.00  0.00     0.014 C 
ENDBRANCH  31  34
ENDBRANCH  28  30
ENDBRANCH   8  25
TORSDOF 7
