REMARK  5 active torsions:
REMARK  status: ('A' for Active; 'I' for Inactive)
REMARK    1  A    between atoms: C4_7  and  C5_8 
REMARK    2  A    between atoms: C5_8  and  N3_11 
REMARK    3  A    between atoms: C7_13  and  C8_14 
REMARK    4  A    between atoms: C8_14  and  C9_15 
REMARK    5  A    between atoms: C17_24  and  C18_25 
ROOT
HETATM    1  C5  UNL     1       3.331  -0.436  -0.478  1.00  0.00     0.231 C 
HETATM    2  C6  UNL     1       4.166  -1.369  -1.290  1.00  0.00     0.090 C 
HETATM    3  N2  UNL     1       4.797  -2.097  -1.932  1.00  0.00    -0.195 NA
ENDROOT
BRANCH   1   4
HETATM    4  C4  UNL     1       4.194   0.832  -0.452  1.00  0.00     0.042 A 
HETATM    5  C2  UNL     1       4.977   1.314   0.559  1.00  0.00     0.021 A 
HETATM    6  C1  UNL     1       5.160   0.610   1.895  1.00  0.00     0.069 C 
HETATM    7  N1  UNL     1       5.605   2.440   0.336  1.00  0.00    -0.363 N 
HETATM    8  C3  UNL     1       5.463   3.051  -0.824  1.00  0.00     0.138 A 
ATOM      9  H1  UNL     1       6.203   2.844   1.057  1.00  0.00     0.165 HD
HETATM   10  S1  UNL     1       4.398   2.010  -1.663  1.00  0.00    -0.084 SA
ENDBRANCH   1   4
BRANCH   1  11
HETATM   11  N3  UNL     1       2.135  -0.118  -1.033  1.00  0.00    -0.381 N 
HETATM   12  C7  UNL     1       0.995  -0.707  -1.392  1.00  0.00     0.074 C 
ATOM     13  H3  UNL     1       2.096   0.880  -1.239  1.00  0.00     0.160 HD
BRANCH  12  14
HETATM   14  C8  UNL     1      -0.180  -1.166  -0.542  1.00  0.00     0.040 C 
HETATM   15  C12 UNL     1      -1.469  -1.298  -1.336  1.00  0.00     0.191 C 
HETATM   16  O1  UNL     1      -2.387  -0.421  -1.301  1.00  0.00    -0.359 OA
HETATM   17  C13 UNL     1      -3.178   0.416  -0.771  1.00  0.00     0.137 C 
HETATM   18  C14 UNL     1      -3.161   1.398  -1.809  1.00  0.00     0.065 C 
HETATM   19  C20 UNL     1      -4.021  -0.503  -0.072  1.00  0.00     0.062 C 
HETATM   20  N4  UNL     1      -3.128   1.389   0.290  1.00  0.00    -0.346 N 
HETATM   21  C15 UNL     1      -1.779   2.009  -1.536  1.00  0.00     0.032 C 
HETATM   22  C16 UNL     1      -0.720   1.256  -0.881  1.00  0.00    -0.022 C 
HETATM   23  C17 UNL     1      -0.699   0.174   0.127  1.00  0.00    -0.056 C 
HETATM   24  C19 UNL     1      -2.942  -0.873   0.996  1.00  0.00     0.022 C 
HETATM   25  C18 UNL     1      -1.754   0.005   1.104  1.00  0.00     0.021 A 
HETATM   26  C21 UNL     1      -1.998   0.838   2.359  1.00  0.00     0.092 A 
HETATM   27  C23 UNL     1      -2.057   1.486   1.130  1.00  0.00     0.116 A 
HETATM   28  S2  UNL     1      -3.793   1.245   2.730  1.00  0.00    -0.116 SA
HETATM   29  C22 UNL     1      -4.186   1.819   1.004  1.00  0.00     0.135 C 
BRANCH  14  30
HETATM   30  C9  UNL     1       0.226  -2.186   0.379  1.00  0.00    -0.003 C 
HETATM   31  C10 UNL     1       1.111  -2.040   1.545  1.00  0.00     0.011 C 
HETATM   32  C11 UNL     1      -0.496  -3.556   0.384  1.00  0.00     0.011 C 
ENDBRANCH  14  30
ENDBRANCH  12  14
ENDBRANCH   1  11
TORSDOF 5
