REMARK  4 active torsions:
REMARK  status: ('A' for Active; 'I' for Inactive)
REMARK    1  A    between atoms: N1_2  and  C2_4 
REMARK    2  A    between atoms: C2_4  and  C5_7 
REMARK    3  A    between atoms: N2_10  and  C8_11 
REMARK    4  A    between atoms: C8_11  and  C9_12 
ROOT
HETATM    1  C5  UNL     1      -2.216  -0.110  -0.317  1.00  0.00     0.214 C 
HETATM    2  C6  UNL     1      -1.397   0.843   0.392  1.00  0.00     0.051 C 
HETATM    3  C7  UNL     1      -0.084   0.456   1.040  1.00  0.00     0.106 C 
HETATM    4  N2  UNL     1       0.862  -0.190   0.101  1.00  0.00    -0.252 NA
HETATM    5  C14 UNL     1       0.197  -0.574  -1.021  1.00  0.00    -0.070 C 
HETATM    6  C15 UNL     1      -0.683  -0.887  -2.065  1.00  0.00     0.330 C 
HETATM    7  N4  UNL     1      -2.040  -0.364  -1.735  1.00  0.00    -0.058 N 
ATOM      8  H41 UNL     1      -2.254   0.468  -2.284  1.00  0.00     0.278 HD
ATOM      9  H42 UNL     1      -2.767  -0.987  -2.087  1.00  0.00     0.278 HD
ENDROOT
BRANCH   4  10
HETATM   10  C8  UNL     1       2.043   0.526  -0.149  1.00  0.00     0.110 C 
BRANCH  10  11
HETATM   11  C9  UNL     1       3.030   0.687   0.922  1.00  0.00     0.025 C 
HETATM   12  C10 UNL     1       4.201   1.493   0.388  1.00  0.00     0.009 C 
HETATM   13  C11 UNL     1       5.030   0.763  -0.608  1.00  0.00     0.028 C 
HETATM   14  C12 UNL     1       5.572  -0.496   0.081  1.00  0.00     0.232 C 
HETATM   15  N3  UNL     1       4.409  -1.286   0.424  1.00  0.00    -0.075 N 
HETATM   16  C13 UNL     1       3.572  -0.641   1.393  1.00  0.00     0.238 C 
ATOM     17  H32 UNL     1       3.878  -1.538  -0.410  1.00  0.00     0.277 HD
ATOM     18  H31 UNL     1       4.678  -2.219   0.735  1.00  0.00     0.277 HD
ENDBRANCH  10  11
ENDBRANCH   4  10
BRANCH   1  19
HETATM   19  C2  UNL     1      -3.682   0.376  -0.266  1.00  0.00     0.046 C 
HETATM   20  C3  UNL     1      -4.523  -0.668  -1.017  1.00  0.00     0.039 C 
HETATM   21  C4  UNL     1      -3.860   1.675  -1.008  1.00  0.00     0.039 C 
BRANCH  19  22
HETATM   22  N1  UNL     1      -4.213   0.504   1.028  1.00  0.00    -0.415 N 
HETATM   23  C1  UNL     1      -4.187  -0.635   1.880  1.00  0.00     0.140 C 
ATOM     24  H1  UNL     1      -4.606   1.389   1.348  1.00  0.00     0.153 HD
ENDBRANCH  19  22
ENDBRANCH   1  19
TORSDOF 4
