REMARK  3 active torsions:
REMARK  status: ('A' for Active; 'I' for Inactive)
REMARK       I    between atoms: N1_2  and  C2_4 
REMARK       I    between atoms: C2_4  and  N2_6 
REMARK    1  A    between atoms: N2_6  and  C3_8 
REMARK    2  A    between atoms: C3_8  and  C4_9 
REMARK       I    between atoms: C4_9  and  N3_11 
REMARK    3  A    between atoms: N3_11  and  C5_13 
ROOT
HETATM    1  C3  UNL     1       1.583  -0.969  -0.491  1.00  0.00     0.115 C 
HETATM    2  C11 UNL     1       1.306  -2.416  -0.840  1.00  0.00     0.041 C 
HETATM    3  C12 UNL     1       1.905  -2.136  -2.201  1.00  0.00     0.006 C 
HETATM    4  C13 UNL     1       1.571  -0.675  -1.978  1.00  0.00     0.041 C 
ENDROOT
BRANCH   1   5
HETATM    5  N2  UNL     1       2.852  -0.738   0.153  1.00  0.00    -0.325 N 
HETATM    6  C2  UNL     1       3.456   0.512   0.320  1.00  0.00     0.316 C 
HETATM    7  N1  UNL     1       4.700   0.625   0.973  1.00  0.00    -0.347 N 
HETATM    8  O1  UNL     1       2.903   1.545  -0.107  1.00  0.00    -0.247 OA
HETATM    9  C1  UNL     1       5.364   1.901   1.168  1.00  0.00     0.151 C 
ATOM     10  H1  UNL     1       5.150  -0.221   1.321  1.00  0.00     0.163 HD
ATOM     11  H2  UNL     1       3.349  -1.551   0.516  1.00  0.00     0.165 HD
ENDBRANCH   1   5
BRANCH   1  12
HETATM   12  C4  UNL     1       0.476  -0.295   0.192  1.00  0.00     0.246 C 
HETATM   13  O2  UNL     1       0.660   0.381   1.229  1.00  0.00    -0.271 OA
HETATM   14  N3  UNL     1      -0.833  -0.403  -0.320  1.00  0.00    -0.354 N 
ATOM     15  H3  UNL     1      -0.981  -0.955  -1.165  1.00  0.00     0.162 HD
BRANCH  14  16
HETATM   16  C5  UNL     1      -1.985   0.237   0.302  1.00  0.00     0.084 C 
HETATM   17  C6  UNL     1      -2.625   1.122  -0.776  1.00  0.00     0.025 C 
HETATM   18  C7  UNL     1      -4.011   1.551  -0.362  1.00  0.00     0.002 C 
HETATM   19  C8  UNL     1      -4.296   1.257   1.085  1.00  0.00     0.000 C 
HETATM   20  C9  UNL     1      -4.099  -0.172   1.465  1.00  0.00     0.002 C 
HETATM   21  C10 UNL     1      -3.037  -0.816   0.634  1.00  0.00     0.025 C 
ENDBRANCH  14  16
ENDBRANCH   1  12
TORSDOF 3
