REMARK  5 active torsions:
REMARK  status: ('A' for Active; 'I' for Inactive)
REMARK    1  A    between atoms: C5_7  and  C6_8 
REMARK    2  A    between atoms: C6_8  and  N2_10 
REMARK    3  A    between atoms: N2_10  and  C7_12 
REMARK    4  A    between atoms: C7_12  and  C8_13 
REMARK       I    between atoms: C8_13  and  N3_15 
REMARK    5  A    between atoms: N3_15  and  C9_17 
ROOT
HETATM    1  N2  UNL     1       0.274   1.129   1.177  1.00  0.00    -0.374 N 
ATOM      2  H2  UNL     1       0.927   1.557   1.833  1.00  0.00     0.160 HD
ENDROOT
BRANCH   1   3
HETATM    3  C6  UNL     1      -1.102   1.391   1.267  1.00  0.00     0.096 C 
HETATM    4  S1  UNL     1      -1.591   2.396   2.449  1.00  0.00    -0.063 SA
BRANCH   3   5
HETATM    5  C5  UNL     1      -2.063   0.789   0.338  1.00  0.00     0.138 C 
HETATM    6  N1  UNL     1      -2.195  -0.607   0.528  1.00  0.00    -0.411 N 
HETATM    7  C4  UNL     1      -3.488  -1.170   0.350  1.00  0.00     0.115 C 
ATOM      8  H1  UNL     1      -1.395  -1.186   0.782  1.00  0.00     0.154 HD
HETATM    9  C3  UNL     1      -4.099  -0.567  -0.888  1.00  0.00     0.023 C 
HETATM   10  C2  UNL     1      -4.411   0.877  -0.563  1.00  0.00    -0.015 C 
HETATM   11  C1  UNL     1      -5.778   0.945   0.126  1.00  0.00     0.010 C 
HETATM   12  C13 UNL     1      -3.358   1.546   0.243  1.00  0.00     0.036 C 
ENDBRANCH   3   5
ENDBRANCH   1   3
BRANCH   1  13
HETATM   13  C7  UNL     1       0.751   0.240   0.135  1.00  0.00     0.223 C 
BRANCH  13  14
HETATM   14  C8  UNL     1       2.249   0.139   0.173  1.00  0.00     0.235 C 
HETATM   15  O1  UNL     1       2.848   0.797   1.048  1.00  0.00    -0.272 OA
HETATM   16  N3  UNL     1       2.925  -0.680  -0.760  1.00  0.00    -0.352 N 
ATOM     17  H3  UNL     1       2.400  -1.204  -1.460  1.00  0.00     0.163 HD
BRANCH  16  18
HETATM   18  C9  UNL     1       4.360  -0.767  -0.712  1.00  0.00     0.022 C 
HETATM   19  C10 UNL     1       5.019   0.584  -0.914  1.00  0.00     0.037 C 
HETATM   20  C11 UNL     1       4.887  -1.680  -1.810  1.00  0.00     0.037 C 
HETATM   21  C12 UNL     1       4.756  -1.395   0.605  1.00  0.00     0.037 C 
ENDBRANCH  16  18
ENDBRANCH  13  14
ENDBRANCH   1  13
TORSDOF 5
