REMARK  5 active torsions:
REMARK  status: ('A' for Active; 'I' for Inactive)
REMARK    1  A    between atoms: C3_3  and  N1_4 
REMARK    2  A    between atoms: N1_4  and  C4_6 
REMARK    3  A    between atoms: C4_6  and  N2_8 
REMARK    4  A    between atoms: N2_8  and  C5_10 
REMARK    5  A    between atoms: C5_10  and  C6_11 
ROOT
HETATM    1  C1  UNL     1      -2.656   0.943   2.292  1.00  0.00     0.015 C 
HETATM    2  C2  UNL     1      -2.730   0.656   1.123  1.00  0.00    -0.086 C 
HETATM    3  C3  UNL     1      -2.795   0.311  -0.308  1.00  0.00     0.095 C 
HETATM    4  C10 UNL     1      -3.509  -0.977  -0.496  1.00  0.00     0.044 C 
HETATM    5  C11 UNL     1      -4.962  -0.627  -0.282  1.00  0.00     0.004 C 
HETATM    6  C12 UNL     1      -5.069   0.865  -0.325  1.00  0.00     0.004 C 
HETATM    7  C13 UNL     1      -3.756   1.322  -0.923  1.00  0.00     0.044 C 
ENDROOT
BRANCH   3   8
HETATM    8  N1  UNL     1      -1.496   0.380  -0.917  1.00  0.00    -0.347 N 
ATOM      9  H1  UNL     1      -1.375   1.021  -1.701  1.00  0.00     0.163 HD
BRANCH   8  10
HETATM   10  C4  UNL     1      -0.379  -0.371  -0.512  1.00  0.00     0.169 C 
HETATM   11  S1  UNL     1      -0.551  -1.408   0.723  1.00  0.00    -0.041 SA
BRANCH  10  12
HETATM   12  N2  UNL     1       0.870  -0.255  -1.155  1.00  0.00    -0.364 N 
ATOM     13  H2  UNL     1       0.918   0.400  -1.936  1.00  0.00     0.162 HD
BRANCH  12  14
HETATM   14  C5  UNL     1       2.074  -0.950  -0.837  1.00  0.00     0.159 C 
BRANCH  14  15
HETATM   15  C6  UNL     1       2.675  -0.501   0.475  1.00  0.00     0.177 C 
HETATM   16  C7  UNL     1       3.875  -1.338   0.751  1.00  0.00     0.089 C 
HETATM   17  N3  UNL     1       5.057  -0.682   1.145  1.00  0.00    -0.398 N 
HETATM   18  C8  UNL     1       5.187   0.702   0.895  1.00  0.00     0.145 C 
ATOM     19  H3  UNL     1       5.808  -1.198   1.604  1.00  0.00     0.158 HD
HETATM   20  C9  UNL     1       4.195   1.124  -0.155  1.00  0.00     0.188 C 
HETATM   21  O1  UNL     1       2.939   0.851   0.342  1.00  0.00    -0.377 OA
ENDBRANCH  14  15
ENDBRANCH  12  14
ENDBRANCH  10  12
ENDBRANCH   8  10
ENDBRANCH   3   8
TORSDOF 5
