REMARK  4 active torsions:
REMARK  status: ('A' for Active; 'I' for Inactive)
REMARK    1  A    between atoms: C3_4  and  C4_5 
REMARK    2  A    between atoms: N3_13  and  C7_14 
REMARK    3  A    between atoms: C7_14  and  C8_15 
REMARK    4  A    between atoms: C8_15  and  C9_17 
REMARK       I    between atoms: C9_17  and  N4_19 
ROOT
HETATM    1  C1  UNL     1      -3.051  -1.150   2.754  1.00  0.00     0.115 C 
HETATM    2  N1  UNL     1      -3.086  -0.479   1.674  1.00  0.00    -0.389 N 
HETATM    3  C2  UNL     1      -3.811   0.664   1.235  1.00  0.00     0.166 C 
HETATM    4  C3  UNL     1      -2.929   0.805  -0.015  1.00  0.00     0.158 C 
HETATM    5  N2  UNL     1      -2.065   1.915   0.141  1.00  0.00    -0.334 N 
ATOM      6  H2  UNL     1      -2.593   2.760   0.359  1.00  0.00     0.164 HD
HETATM    7  C5  UNL     1      -0.687   2.186   0.081  1.00  0.00     0.266 C 
HETATM    8  O3  UNL     1      -0.371   3.033   0.999  1.00  0.00    -0.267 OA
HETATM    9  C6  UNL     1       0.474   1.821  -0.674  1.00  0.00     0.282 C 
HETATM   10  N3  UNL     1       0.732   0.481  -1.052  1.00  0.00    -0.013 N 
HETATM   11  C11 UNL     1       0.705   0.429  -2.585  1.00  0.00     0.249 C 
HETATM   12  C12 UNL     1       0.689  -1.064  -2.797  1.00  0.00     0.031 C 
HETATM   13  C13 UNL     1      -0.055  -1.638  -1.620  1.00  0.00     0.036 C 
HETATM   14  C14 UNL     1      -0.396  -0.349  -0.870  1.00  0.00     0.203 C 
HETATM   15  C15 UNL     1      -0.923  -0.619   0.474  1.00  0.00     0.062 C 
HETATM   16  C16 UNL     1      -2.443  -0.521   0.402  1.00  0.00     0.125 C 
ENDROOT
BRANCH  10  17
HETATM   17  C7  UNL     1       1.996  -0.057  -0.756  1.00  0.00     0.269 C 
BRANCH  17  18
HETATM   18  C8  UNL     1       2.596   0.111   0.558  1.00  0.00     0.262 C 
HETATM   19  O4  UNL     1       2.058   0.722   1.502  1.00  0.00    -0.281 OA
BRANCH  18  20
HETATM   20  C9  UNL     1       3.929  -0.447   0.886  1.00  0.00     0.292 C 
HETATM   21  O5  UNL     1       4.511  -1.073  -0.036  1.00  0.00    -0.264 OA
HETATM   22  N4  UNL     1       4.525  -0.297   2.146  1.00  0.00    -0.359 N 
HETATM   23  C10 UNL     1       5.811  -0.837   2.457  1.00  0.00     0.149 C 
ATOM     24  H4  UNL     1       4.021   0.217   2.869  1.00  0.00     0.162 HD
ENDBRANCH  18  20
ENDBRANCH  17  18
ENDBRANCH  10  17
BRANCH   4  25
HETATM   25  C4  UNL     1      -3.732   0.790  -1.260  1.00  0.00     0.206 C 
HETATM   26  O1  UNL     1      -3.672   1.682  -2.132  1.00  0.00    -0.646 OA
HETATM   27  O2  UNL     1      -4.593  -0.269  -1.466  1.00  0.00    -0.646 OA
ENDBRANCH   4  25
TORSDOF 4
