REMARK  6 active torsions:
REMARK  status: ('A' for Active; 'I' for Inactive)
REMARK    1  A    between atoms: C3_5  and  C4_6 
REMARK    2  A    between atoms: C3_5  and  N5_25 
REMARK    3  A    between atoms: C4_6  and  C5_7 
REMARK       I    between atoms: N2_11  and  C9_12 
REMARK    4  A    between atoms: C9_12  and  C10_14 
REMARK    5  A    between atoms: C10_14  and  N3_15 
REMARK    6  A    between atoms: N5_25  and  N6_27 
ROOT
HETATM    1  C1  UNL     1       7.760   0.973   2.010  1.00  0.00     0.037 C 
HETATM    2  C2  UNL     1       6.580   1.063   1.716  1.00  0.00     0.000 C 
HETATM    3  N1  UNL     1       5.230   1.186   1.396  1.00  0.00    -0.304 N 
ATOM      4  H1  UNL     1       4.810   2.108   1.282  1.00  0.00     0.177 HD
HETATM    5  C3  UNL     1       4.526   0.136   1.247  1.00  0.00     0.104 C 
ENDROOT
BRANCH   5   6
HETATM    6  C4  UNL     1       3.066   0.183   0.903  1.00  0.00     0.103 C 
BRANCH   6   7
HETATM    7  C5  UNL     1       2.886  -0.474  -0.419  1.00  0.00     0.094 C 
HETATM    8  C6  UNL     1       3.679   0.247  -1.499  1.00  0.00     0.027 C 
HETATM    9  C7  UNL     1       3.097  -0.390  -2.755  1.00  0.00     0.022 C 
HETATM   10  C8  UNL     1       1.683  -0.752  -2.365  1.00  0.00     0.127 C 
HETATM   11  N2  UNL     1       1.565  -0.414  -0.959  1.00  0.00    -0.342 N 
HETATM   12  C9  UNL     1       0.313  -0.099  -0.354  1.00  0.00     0.267 C 
HETATM   13  O1  UNL     1       0.366   0.177   0.867  1.00  0.00    -0.267 OA
BRANCH  12  14
HETATM   14  C10 UNL     1      -0.949  -0.089  -1.062  1.00  0.00     0.276 C 
BRANCH  14  15
HETATM   15  N3  UNL     1      -2.132   0.244  -0.329  1.00  0.00    -0.039 N 
HETATM   16  C11 UNL     1      -2.146   1.640   0.092  1.00  0.00     0.245 C 
HETATM   17  C12 UNL     1      -3.511   2.070   0.583  1.00  0.00     0.056 C 
HETATM   18  C13 UNL     1      -4.207   1.068   1.440  1.00  0.00     0.238 C 
HETATM   19  N4  UNL     1      -4.613  -0.097   0.718  1.00  0.00    -0.068 N 
HETATM   20  C14 UNL     1      -5.935  -0.571   1.068  1.00  0.00     0.272 C 
HETATM   21  C15 UNL     1      -4.581   0.080  -0.718  1.00  0.00     0.265 C 
HETATM   22  C17 UNL     1      -3.655  -1.150   1.007  1.00  0.00     0.265 C 
HETATM   23  C16 UNL     1      -3.222   0.139  -1.290  1.00  0.00     0.271 C 
HETATM   24  C18 UNL     1      -2.243  -0.659   0.778  1.00  0.00     0.271 C 
ENDBRANCH  14  15
ENDBRANCH  12  14
ENDBRANCH   6   7
ENDBRANCH   5   6
BRANCH   5  25
HETATM   25  N5  UNL     1       5.125  -1.134   1.409  1.00  0.00    -0.295 N 
ATOM     26  H5  UNL     1       4.773  -1.729   2.159  1.00  0.00     0.187 HD
BRANCH  25  27
HETATM   27  N6  UNL     1       6.161  -1.634   0.621  1.00  0.00    -0.344 N 
ATOM     28  H62 UNL     1       6.500  -1.025  -0.124  1.00  0.00     0.176 HD
ATOM     29  H61 UNL     1       6.593  -2.550   0.738  1.00  0.00     0.176 HD
ENDBRANCH  25  27
ENDBRANCH   5  25
TORSDOF 6
