REMARK  5 active torsions:
REMARK  status: ('A' for Active; 'I' for Inactive)
REMARK    1  A    between atoms: N2_5  and  C4_6 
REMARK    2  A    between atoms: C4_6  and  C5_7 
REMARK    3  A    between atoms: C8_12  and  C9_13 
REMARK       I    between atoms: C9_13  and  N3_15 
REMARK    4  A    between atoms: C12_18  and  C13_19 
REMARK    5  A    between atoms: C15_23  and  O6_24 
ROOT
HETATM    1  C1  UNL     1      -2.179  -2.398   1.720  1.00  0.00     0.272 C 
HETATM    2  N1  UNL     1      -2.237  -1.422   0.688  1.00  0.00    -0.065 N 
HETATM    3  C2  UNL     1      -2.856  -1.928  -0.526  1.00  0.00     0.265 C 
HETATM    4  C3  UNL     1      -2.379  -0.998  -1.627  1.00  0.00     0.267 C 
HETATM    5  N2  UNL     1      -2.193   0.361  -1.082  1.00  0.00    -0.040 N 
HETATM    6  C6  UNL     1      -3.258   0.572  -0.106  1.00  0.00     0.267 C 
HETATM    7  C7  UNL     1      -3.041  -0.303   1.121  1.00  0.00     0.265 C 
HETATM    8  C8  UNL     1      -0.966   0.400  -0.377  1.00  0.00     0.308 C 
HETATM    9  C16 UNL     1      -0.896  -0.927   0.414  1.00  0.00     0.280 C 
ENDROOT
BRANCH   8  10
HETATM   10  C9  UNL     1       0.258   0.500  -1.211  1.00  0.00     0.255 C 
HETATM   11  O3  UNL     1       0.192   0.365  -2.466  1.00  0.00    -0.271 OA
HETATM   12  N3  UNL     1       1.537   0.749  -0.661  1.00  0.00    -0.324 N 
HETATM   13  C10 UNL     1       2.686   0.805  -1.566  1.00  0.00     0.129 C 
HETATM   14  C15 UNL     1       1.829   0.972   0.735  1.00  0.00     0.223 C 
HETATM   15  C11 UNL     1       3.656  -0.254  -1.054  1.00  0.00     0.035 C 
HETATM   16  C12 UNL     1       3.996  -0.048   0.405  1.00  0.00     0.092 C 
HETATM   17  C14 UNL     1       2.695  -0.173   1.212  1.00  0.00     0.069 C 
BRANCH  16  18
HETATM   18  C13 UNL     1       4.961  -1.088   0.800  1.00  0.00     0.177 C 
HETATM   19  O4  UNL     1       4.657  -1.883   1.717  1.00  0.00    -0.648 OA
HETATM   20  O5  UNL     1       6.166  -1.153   0.147  1.00  0.00    -0.648 OA
ENDBRANCH  16  18
BRANCH  14  21
HETATM   21  O6  UNL     1       2.602   2.135   0.903  1.00  0.00    -0.377 OA
ATOM     22  H6  UNL     1       2.794   2.282   1.822  1.00  0.00     0.212 HD
ENDBRANCH  14  21
ENDBRANCH   8  10
BRANCH   5  23
HETATM   23  C4  UNL     1      -2.391   1.242  -2.171  1.00  0.00     0.351 C 
BRANCH  23  24
HETATM   24  C5  UNL     1      -1.917   2.611  -2.057  1.00  0.00     0.199 C 
HETATM   25  O1  UNL     1      -2.066   3.377  -3.044  1.00  0.00    -0.647 OA
HETATM   26  O2  UNL     1      -1.309   3.151  -0.945  1.00  0.00    -0.647 OA
ENDBRANCH  23  24
ENDBRANCH   5  23
TORSDOF 5
