REMARK  7 active torsions:
REMARK  status: ('A' for Active; 'I' for Inactive)
REMARK    1  A    between atoms: N1_5  and  C5_6 
REMARK    2  A    between atoms: C5_6  and  C6_7 
REMARK       I    between atoms: C6_7  and  N2_9 
REMARK    3  A    between atoms: N2_9  and  C7_11 
REMARK    4  A    between atoms: N3_14  and  C10_15 
REMARK    5  A    between atoms: C10_15  and  C11_16 
REMARK    6  A    between atoms: C11_16  and  O2_17 
REMARK    7  A    between atoms: C16_26  and  O4_27 
ROOT
HETATM    1  C6  UNL     1      -0.658  -0.315  -0.065  1.00  0.00     0.265 C 
HETATM    2  O1  UNL     1      -0.897  -1.550  -0.083  1.00  0.00    -0.267 OA
HETATM    3  N2  UNL     1       0.671   0.136  -0.116  1.00  0.00    -0.351 N 
ATOM      4  H2  UNL     1       0.846   1.141  -0.100  1.00  0.00     0.163 HD
ENDROOT
BRANCH   3   5
HETATM    5  C7  UNL     1       1.821  -0.775  -0.191  1.00  0.00     0.101 C 
HETATM    6  C8  UNL     1       2.556  -0.453  -1.444  1.00  0.00     0.056 C 
HETATM    7  C9  UNL     1       4.039  -0.542  -1.366  1.00  0.00     0.267 C 
HETATM    8  N3  UNL     1       4.589  -0.448  -0.054  1.00  0.00     0.018 N 
HETATM    9  C12 UNL     1       3.740   0.368   0.779  1.00  0.00     0.281 C 
HETATM   10  N4  UNL     1       4.543  -1.739   0.510  1.00  0.00    -0.184 N 
HETATM   11  C13 UNL     1       2.599  -0.610   1.064  1.00  0.00     0.130 C 
HETATM   12  C14 UNL     1       3.374  -1.859   1.327  1.00  0.00     0.249 C 
HETATM   13  O3  UNL     1       3.123  -2.822   2.071  1.00  0.00    -0.271 OA
ATOM     14  H4  UNL     1       5.235  -2.473   0.359  1.00  0.00     0.197 HD
BRANCH   8  15
HETATM   15  C10 UNL     1       5.952  -0.025  -0.072  1.00  0.00     0.291 C 
BRANCH  15  16
HETATM   16  C11 UNL     1       6.165   1.395  -0.488  1.00  0.00     0.194 C 
BRANCH  16  17
HETATM   17  O2  UNL     1       5.514   2.281   0.359  1.00  0.00    -0.399 OA
ATOM     18  H2  UNL     1       5.649   3.183   0.095  1.00  0.00     0.209 HD
ENDBRANCH  16  17
ENDBRANCH  15  16
ENDBRANCH   8  15
ENDBRANCH   3   5
BRANCH   1  19
HETATM   19  C5  UNL     1      -1.748   0.657   0.009  1.00  0.00     0.276 C 
BRANCH  19  20
HETATM   20  N1  UNL     1      -3.047   0.115   0.056  1.00  0.00    -0.039 N 
HETATM   21  C4  UNL     1      -3.519  -0.483  -1.166  1.00  0.00     0.244 C 
HETATM   22  C3  UNL     1      -5.050  -0.359  -1.139  1.00  0.00     0.041 C 
HETATM   23  C2  UNL     1      -5.255   0.356   0.169  1.00  0.00     0.010 C 
HETATM   24  C1  UNL     1      -6.505   1.095   0.315  1.00  0.00     0.020 C 
HETATM   25  C16 UNL     1      -4.912  -0.593   1.293  1.00  0.00     0.154 C 
HETATM   26  C17 UNL     1      -3.995   1.241   0.181  1.00  0.00     0.255 C 
HETATM   27  C15 UNL     1      -3.377  -0.642   1.223  1.00  0.00     0.275 C 
BRANCH  25  28
HETATM   28  O4  UNL     1      -5.355  -0.116   2.501  1.00  0.00    -0.393 OA
ATOM     29  H4  UNL     1      -5.139  -0.713   3.208  1.00  0.00     0.210 HD
ENDBRANCH  25  28
ENDBRANCH  19  20
ENDBRANCH   1  19
TORSDOF 7
