REMARK  5 active torsions:
REMARK  status: ('A' for Active; 'I' for Inactive)
REMARK    1  A    between atoms: C4_7  and  C5_8 
REMARK    2  A    between atoms: C9_12  and  C10_13 
REMARK    3  A    between atoms: C15_20  and  S1_21 
REMARK    4  A    between atoms: S1_21  and  N4_24 
REMARK    5  A    between atoms: N4_24  and  C16_26 
ROOT
HETATM    1  C10 UNL     1      -0.011  -1.479  -1.711  1.00  0.00     0.057 A 
HETATM    2  N3  UNL     1      -0.173  -2.792  -1.957  1.00  0.00    -0.364 N 
ATOM      3  H3  UNL     1      -0.967  -3.120  -2.506  1.00  0.00     0.165 HD
HETATM    4  C11 UNL     1       0.737  -3.677  -1.463  1.00  0.00     0.089 A 
HETATM    5  C12 UNL     1       1.817  -3.253  -0.717  1.00  0.00     0.029 A 
HETATM    6  C13 UNL     1       2.009  -1.908  -0.448  1.00  0.00    -0.021 A 
HETATM    7  C14 UNL     1       3.086  -1.449   0.299  1.00  0.00     0.037 A 
HETATM    8  C15 UNL     1       3.254  -0.103   0.553  1.00  0.00     0.080 A 
HETATM    9  C19 UNL     1       2.310   0.758   0.034  1.00  0.00     0.026 A 
HETATM   10  C20 UNL     1       1.233   0.303  -0.713  1.00  0.00     0.016 A 
HETATM   11  C21 UNL     1       1.065  -1.042  -0.967  1.00  0.00     0.002 A 
ENDROOT
BRANCH   1  12
HETATM   12  C9  UNL     1      -1.009  -0.567  -2.259  1.00  0.00     0.044 A 
HETATM   13  C8  UNL     1      -2.116  -0.252  -1.515  1.00  0.00    -0.010 A 
HETATM   14  C7  UNL     1      -2.317  -0.771  -0.268  1.00  0.00     0.014 A 
HETATM   15  C25 UNL     1      -3.055   0.600  -2.018  1.00  0.00    -0.021 A 
HETATM   16  C6  UNL     1      -3.443  -0.470   0.523  1.00  0.00     0.014 A 
HETATM   17  C5  UNL     1      -4.371   0.384   0.001  1.00  0.00    -0.007 A 
HETATM   18  C26 UNL     1      -4.157   0.915  -1.283  1.00  0.00     0.026 A 
HETATM   19  C24 UNL     1      -2.848   1.130  -3.296  1.00  0.00     0.058 A 
HETATM   20  C23 UNL     1      -1.730   0.810  -4.043  1.00  0.00     0.156 A 
HETATM   21  C22 UNL     1      -0.781  -0.058  -3.522  1.00  0.00     0.168 A 
HETATM   22  F2  UNL     1      -1.561   1.345  -5.285  1.00  0.00    -0.203 F 
HETATM   23  F1  UNL     1       0.327  -0.400  -4.215  1.00  0.00    -0.202 F 
BRANCH  17  24
HETATM   24  C4  UNL     1      -5.588   0.730   0.710  1.00  0.00     0.061 A 
HETATM   25  N1  UNL     1      -6.168   0.269   1.802  1.00  0.00    -0.296 N 
HETATM   26  C1  UNL     1      -5.701  -0.791   2.664  1.00  0.00     0.178 C 
HETATM   27  N2  UNL     1      -7.340   0.916   2.039  1.00  0.00    -0.310 N 
HETATM   28  C2  UNL     1      -7.546   1.821   1.090  1.00  0.00     0.109 A 
ATOM     29  H2  UNL     1      -7.965   0.734   2.825  1.00  0.00     0.186 HD
HETATM   30  C3  UNL     1      -6.464   1.725   0.246  1.00  0.00     0.050 A 
ENDBRANCH  17  24
ENDBRANCH   1  12
BRANCH   8  31
HETATM   31  S1  UNL     1       4.616   0.490   1.499  1.00  0.00     0.264 S 
HETATM   32  O1  UNL     1       4.915  -0.535   2.539  1.00  0.00    -0.200 OA
HETATM   33  O2  UNL     1       4.123   1.756   2.180  1.00  0.00    -0.200 OA
BRANCH  31  34
HETATM   34  N4  UNL     1       5.920   0.824   0.461  1.00  0.00    -0.260 N 
ATOM     35  H4  UNL     1       5.842   0.656  -0.542  1.00  0.00     0.181 HD
BRANCH  34  36
HETATM   36  C16 UNL     1       7.033   1.303   0.976  1.00  0.00     0.158 A 
HETATM   37  N5  UNL     1       7.295   1.576   2.254  1.00  0.00    -0.345 N 
HETATM   38  C17 UNL     1       8.467   2.048   2.565  1.00  0.00     0.097 A 
ATOM     39  H5  UNL     1       6.590   1.418   2.974  1.00  0.00     0.167 HD
HETATM   40  C18 UNL     1       9.372   2.240   1.558  1.00  0.00     0.070 A 
HETATM   41  S2  UNL     1       8.490   1.728   0.189  1.00  0.00    -0.064 SA
ENDBRANCH  34  36
ENDBRANCH  31  34
ENDBRANCH   8  31
TORSDOF 5
