REMARK  5 active torsions:
REMARK  status: ('A' for Active; 'I' for Inactive)
REMARK    1  A    between atoms: S1_2  and  N1_4 
REMARK    2  A    between atoms: S1_2  and  C6_14 
REMARK    3  A    between atoms: N1_4  and  C1_6 
REMARK    4  A    between atoms: C11_21  and  C12_22 
REMARK    5  A    between atoms: C18_29  and  N4_30 
ROOT
HETATM    1  C6  UNL     1       2.319  -1.107   0.214  1.00  0.00     0.108 A 
HETATM    2  C7  UNL     1       3.132  -2.014  -0.416  1.00  0.00     0.028 A 
HETATM    3  C8  UNL     1       2.608  -3.014  -1.218  1.00  0.00     0.004 A 
HETATM    4  C9  UNL     1       1.263  -3.119  -1.399  1.00  0.00     0.032 A 
HETATM    5  C10 UNL     1       0.414  -2.232  -0.786  1.00  0.00     0.061 A 
HETATM    6  N3  UNL     1      -0.916  -2.289  -0.930  1.00  0.00    -0.351 N 
ATOM      7  H3  UNL     1      -1.299  -3.026  -1.522  1.00  0.00     0.166 HD
HETATM    8  C11 UNL     1      -1.796  -1.426  -0.337  1.00  0.00     0.088 A 
HETATM    9  C18 UNL     1      -1.253  -0.450   0.447  1.00  0.00     0.142 A 
HETATM   10  N6  UNL     1       0.103  -0.360   0.617  1.00  0.00    -0.337 N 
ATOM     11  H6  UNL     1       0.483   0.379   1.209  1.00  0.00     0.167 HD
HETATM   12  C26 UNL     1       0.944  -1.221   0.024  1.00  0.00     0.084 A 
ENDROOT
BRANCH   1  13
HETATM   13  S1  UNL     1       2.905   0.160   1.225  1.00  0.00     0.266 S 
HETATM   14  O1  UNL     1       2.409   1.529   0.791  1.00  0.00    -0.200 OA
HETATM   15  O2  UNL     1       2.325  -0.033   2.621  1.00  0.00    -0.200 OA
BRANCH  13  16
HETATM   16  N1  UNL     1       4.598   0.196   1.375  1.00  0.00    -0.266 N 
ATOM     17  H1  UNL     1       4.990  -0.128   2.259  1.00  0.00     0.180 HD
BRANCH  16  18
HETATM   18  C1  UNL     1       5.433   0.593   0.478  1.00  0.00     0.114 A 
HETATM   19  C2  UNL     1       5.067   1.059  -0.767  1.00  0.00     0.052 A 
HETATM   20  C3  UNL     1       5.993   1.475  -1.698  1.00  0.00     0.047 A 
HETATM   21  C4  UNL     1       7.325   1.425  -1.377  1.00  0.00     0.131 A 
HETATM   22  F1  UNL     1       8.291   1.818  -2.242  1.00  0.00    -0.205 F 
HETATM   23  C5  UNL     1       7.670   0.958  -0.132  1.00  0.00     0.132 A 
HETATM   24  N2  UNL     1       6.750   0.556   0.763  1.00  0.00    -0.349 N 
ATOM     25  H2  UNL     1       7.055   0.216   1.675  1.00  0.00     0.167 HD
ENDBRANCH  16  18
ENDBRANCH  13  16
ENDBRANCH   1  13
BRANCH   9  26
HETATM   26  N4  UNL     1      -2.010   0.551   1.134  1.00  0.00    -0.290 N 
HETATM   27  C19 UNL     1      -2.108   0.675   2.466  1.00  0.00     0.191 A 
HETATM   28  N5  UNL     1      -2.876   1.729   2.735  1.00  0.00    -0.350 N 
HETATM   29  C20 UNL     1      -3.274   2.287   1.570  1.00  0.00     0.060 A 
ATOM     30  H5  UNL     1      -3.123   2.061   3.667  1.00  0.00     0.166 HD
HETATM   31  C21 UNL     1      -4.060   3.379   1.351  1.00  0.00     0.032 A 
HETATM   32  C25 UNL     1      -2.716   1.529   0.544  1.00  0.00     0.068 A 
HETATM   33  C22 UNL     1      -4.321   3.760   0.042  1.00  0.00     0.002 A 
HETATM   34  C23 UNL     1      -3.774   3.017  -1.007  1.00  0.00     0.002 A 
HETATM   35  C24 UNL     1      -2.984   1.920  -0.758  1.00  0.00     0.032 A 
ENDBRANCH   9  26
BRANCH   8  36
HETATM   36  C12 UNL     1      -3.222  -1.571  -0.577  1.00  0.00    -0.005 A 
HETATM   37  C13 UNL     1      -4.195  -1.591   0.381  1.00  0.00     0.015 A 
HETATM   38  C14 UNL     1      -5.549  -1.727   0.093  1.00  0.00     0.024 A 
HETATM   39  C15 UNL     1      -5.968  -1.851  -1.214  1.00  0.00     0.034 A 
HETATM   40 CL1  UNL     1      -7.681  -2.024  -1.606  1.00  0.00    -0.084 Cl
HETATM   41  C16 UNL     1      -5.010  -1.835  -2.201  1.00  0.00     0.024 A 
HETATM   42  C17 UNL     1      -3.671  -1.699  -1.901  1.00  0.00     0.015 A 
ENDBRANCH   8  36
TORSDOF 5
