REMARK  4 active torsions:
REMARK  status: ('A' for Active; 'I' for Inactive)
REMARK    1  A    between atoms: C7_8  and  C8_9 
REMARK    2  A    between atoms: C9_10  and  S1_11 
REMARK    3  A    between atoms: C13_17  and  C14_18 
REMARK    4  A    between atoms: C17_25  and  C18_26 
ROOT
HETATM    1  C1  UNL     1      -6.249   5.083  -0.570  1.00  0.00     0.018 C 
HETATM    2  C2  UNL     1      -6.140   3.943  -0.159  1.00  0.00    -0.078 C 
HETATM    3  C3  UNL     1      -5.990   2.602   0.336  1.00  0.00     0.020 A 
HETATM    4  C4  UNL     1      -6.938   2.010   1.142  1.00  0.00     0.062 A 
HETATM    5  C5  UNL     1      -6.791   0.725   1.619  1.00  0.00     0.118 A 
HETATM    6  F1  UNL     1      -7.735   0.160   2.411  1.00  0.00    -0.206 F 
HETATM    7  C6  UNL     1      -5.676  -0.036   1.307  1.00  0.00     0.054 A 
HETATM    8  C7  UNL     1      -4.728   0.548   0.504  1.00  0.00    -0.017 A 
HETATM    9  C28 UNL     1      -4.880   1.833   0.030  1.00  0.00     0.033 A 
ENDROOT
BRANCH   8  10
HETATM   10  C8  UNL     1      -3.540  -0.211   0.157  1.00  0.00     0.035 A 
HETATM   11  C9  UNL     1      -3.567  -1.127  -0.867  1.00  0.00     0.073 A 
HETATM   12  C11 UNL     1      -2.406  -1.809  -1.149  1.00  0.00     0.025 A 
HETATM   13  C12 UNL     1      -1.260  -1.556  -0.403  1.00  0.00     0.018 A 
HETATM   14  C13 UNL     1      -1.193  -0.647   0.627  1.00  0.00     0.033 A 
HETATM   15  C27 UNL     1      -2.384   0.034   0.895  1.00  0.00     0.141 A 
HETATM   16  F2  UNL     1      -2.444   0.968   1.873  1.00  0.00    -0.204 F 
BRANCH  11  17
HETATM   17  S1  UNL     1      -4.988  -1.453  -1.806  1.00  0.00     0.172 S 
HETATM   18  C10 UNL     1      -4.613  -2.689  -3.054  1.00  0.00     0.167 C 
HETATM   19  O1  UNL     1      -6.088  -2.084  -0.964  1.00  0.00    -0.223 OA
HETATM   20  O2  UNL     1      -5.469  -0.214  -2.459  1.00  0.00    -0.223 OA
ENDBRANCH  11  17
BRANCH  14  21
HETATM   21  C14 UNL     1       0.007  -0.299   1.362  1.00  0.00     0.073 A 
HETATM   22  N1  UNL     1       0.109   0.186   2.611  1.00  0.00    -0.299 N 
HETATM   23  N2  UNL     1       1.364   0.450   2.926  1.00  0.00    -0.299 N 
ATOM     24  H1  UNL     1      -0.683   0.332   3.237  1.00  0.00     0.187 HD
HETATM   25  C15 UNL     1       2.133   0.142   1.879  1.00  0.00     0.061 A 
ATOM     26  H2  UNL     1       1.690   0.825   3.817  1.00  0.00     0.187 HD
HETATM   27  C16 UNL     1       3.508   0.229   1.652  1.00  0.00     0.045 A 
HETATM   28  C26 UNL     1       1.310  -0.338   0.860  1.00  0.00     0.021 A 
HETATM   29  C17 UNL     1       4.111  -0.127   0.479  1.00  0.00    -0.005 A 
HETATM   30  C24 UNL     1       3.288  -0.593  -0.514  1.00  0.00     0.015 A 
HETATM   31  C25 UNL     1       1.905  -0.697  -0.327  1.00  0.00     0.017 A 
BRANCH  29  32
HETATM   32  C18 UNL     1       5.550  -0.046   0.239  1.00  0.00     0.076 A 
HETATM   33  C19 UNL     1       6.231  -0.384  -0.911  1.00  0.00     0.145 A 
HETATM   34  N3  UNL     1       7.574  -0.173  -0.745  1.00  0.00    -0.166 N 
HETATM   35  C20 UNL     1       8.623  -0.351  -1.563  1.00  0.00     0.116 A 
HETATM   36  C23 UNL     1       7.715   0.295   0.508  1.00  0.00     0.688 A 
HETATM   37  C21 UNL     1       9.885  -0.056  -1.132  1.00  0.00     0.036 A 
HETATM   38  C22 UNL     1      10.048   0.425   0.151  1.00  0.00     0.107 A 
HETATM   39  N4  UNL     1       8.961   0.584   0.925  1.00  0.00    -0.201 N 
ATOM     40  H4  UNL     1       9.086   0.940   1.872  1.00  0.00     0.183 HD
HETATM   41  N5  UNL     1       6.504   0.368   1.091  1.00  0.00    -0.189 N 
ATOM     42  H5  UNL     1       6.334   0.691   2.043  1.00  0.00     0.184 HD
ENDBRANCH  29  32
ENDBRANCH  14  21
ENDBRANCH   8  10
TORSDOF 4
