REMARK  5 active torsions:
REMARK  status: ('A' for Active; 'I' for Inactive)
REMARK    1  A    between atoms: N2_5  and  C3_6 
REMARK    2  A    between atoms: C11_15  and  C12_16 
REMARK    3  A    between atoms: N3_17  and  N4_19 
REMARK    4  A    between atoms: N4_19  and  C13_21 
REMARK    5  A    between atoms: C14_24  and  C15_25 
ROOT
HETATM    1  C12 UNL     1      -0.407   0.907   0.058  1.00  0.00     0.122 C 
HETATM    2  N3  UNL     1       0.043   0.277   1.078  1.00  0.00    -0.309 N 
ATOM      3  H3  UNL     1      -0.610  -0.293   1.616  1.00  0.00     0.186 HD
ENDROOT
BRANCH   2   4
HETATM    4  N4  UNL     1       1.367   0.322   1.497  1.00  0.00    -0.279 N 
ATOM      5  H4  UNL     1       1.587   0.544   2.468  1.00  0.00     0.189 HD
BRANCH   4   6
HETATM    6  C13 UNL     1       2.341   0.077   0.639  1.00  0.00     0.181 A 
HETATM    7  N5  UNL     1       3.646   0.082   0.885  1.00  0.00    -0.319 N 
HETATM    8  C14 UNL     1       4.454  -0.190  -0.117  1.00  0.00     0.123 A 
ATOM      9  H5  UNL     1       4.008   0.289   1.816  1.00  0.00     0.169 HD
HETATM   10  N6  UNL     1       3.904  -0.451  -1.304  1.00  0.00    -0.309 N 
HETATM   11  S1  UNL     1       2.259  -0.313  -1.014  1.00  0.00     0.025 SA
ATOM     12  H6  UNL     1       4.373  -0.680  -2.180  1.00  0.00     0.176 HD
BRANCH   8  13
HETATM   13  C15 UNL     1       5.940  -0.221   0.014  1.00  0.00     0.009 A 
HETATM   14  C16 UNL     1       6.569   0.037   1.205  1.00  0.00     0.016 A 
HETATM   15  C17 UNL     1       7.939   0.009   1.325  1.00  0.00     0.020 A 
HETATM   16  C18 UNL     1       8.727  -0.282   0.239  1.00  0.00     0.011 A 
HETATM   17 BR2  UNL     1      10.640  -0.323   0.401  1.00  0.00    -0.051 Br
HETATM   18  C19 UNL     1       8.115  -0.542  -0.959  1.00  0.00     0.020 A 
HETATM   19  C20 UNL     1       6.733  -0.512  -1.071  1.00  0.00     0.016 A 
ENDBRANCH   8  13
ENDBRANCH   4   6
ENDBRANCH   2   4
BRANCH   1  20
HETATM   20  C11 UNL     1      -1.799   0.845  -0.362  1.00  0.00     0.029 A 
HETATM   21  C2  UNL     1      -2.385   1.479  -1.436  1.00  0.00     0.036 A 
HETATM   22  C1  UNL     1      -1.672   2.377  -2.397  1.00  0.00     0.070 C 
HETATM   23  N1  UNL     1      -3.695   1.145  -1.457  1.00  0.00    -0.297 N 
HETATM   24  N2  UNL     1      -3.980   0.328  -0.451  1.00  0.00    -0.260 N 
ATOM     25  H1  UNL     1      -4.369   1.474  -2.148  1.00  0.00     0.187 HD
HETATM   26  C9  UNL     1      -2.836   0.135   0.227  1.00  0.00     0.044 A 
HETATM   27  C10 UNL     1      -2.689  -0.722   1.444  1.00  0.00     0.071 C 
BRANCH  24  28
HETATM   28  C3  UNL     1      -5.250  -0.247  -0.130  1.00  0.00     0.056 A 
HETATM   29  C4  UNL     1      -5.591  -1.502  -0.591  1.00  0.00     0.033 A 
HETATM   30  C5  UNL     1      -6.814  -2.068  -0.288  1.00  0.00     0.021 A 
HETATM   31  C6  UNL     1      -7.744  -1.407   0.487  1.00  0.00     0.011 A 
HETATM   32 BR1  UNL     1      -9.432  -2.214   0.892  1.00  0.00    -0.051 Br
HETATM   33  C7  UNL     1      -7.408  -0.152   0.951  1.00  0.00     0.021 A 
HETATM   34  C8  UNL     1      -6.184   0.412   0.646  1.00  0.00     0.033 A 
ENDBRANCH  24  28
ENDBRANCH   1  20
TORSDOF 5
