REMARK  3 active torsions:
REMARK  status: ('A' for Active; 'I' for Inactive)
REMARK    1  A    between atoms: C2_5  and  C3_6 
REMARK    2  A    between atoms: N5_26  and  S1_27 
REMARK    3  A    between atoms: S1_27  and  C18_30 
ROOT
HETATM    1  N1  UNL     1      -2.675   1.910   1.423  1.00  0.00    -0.082 NA
HETATM    2  C1  UNL     1      -1.999   0.873   0.745  1.00  0.00     0.131 A 
HETATM    3  N2  UNL     1      -2.390  -0.411   0.829  1.00  0.00    -0.343 N 
ATOM      4  H2  UNL     1      -3.219  -0.618   1.386  1.00  0.00     0.167 HD
HETATM    5  C2  UNL     1      -1.763  -1.446   0.228  1.00  0.00     0.047 A 
HETATM    6  C8  UNL     1      -0.651  -1.129  -0.512  1.00  0.00     0.064 A 
HETATM    7  C9  UNL     1      -0.194   0.165  -0.641  1.00  0.00     0.086 A 
HETATM    8  C10 UNL     1      -0.889   1.185   0.003  1.00  0.00     0.064 A 
HETATM    9  C11 UNL     1      -0.204   2.333  -0.313  1.00  0.00     0.075 A 
HETATM   10  C12 UNL     1      -0.437   3.687   0.083  1.00  0.00    -0.007 A 
HETATM   11  C13 UNL     1       0.593   4.364   0.733  1.00  0.00     0.015 A 
HETATM   12  C14 UNL     1       0.458   5.683   1.095  1.00  0.00     0.020 A 
HETATM   13  C15 UNL     1      -0.713   6.346   0.810  1.00  0.00     0.011 A 
HETATM   14 BR1  UNL     1      -0.919   8.192   1.309  1.00  0.00    -0.051 Br
HETATM   15  C16 UNL     1      -1.739   5.689   0.167  1.00  0.00     0.020 A 
HETATM   16  C17 UNL     1      -1.593   4.361  -0.193  1.00  0.00     0.015 A 
HETATM   17  N4  UNL     1       0.827   1.959  -1.096  1.00  0.00    -0.282 N 
ATOM     18  H4  UNL     1       1.509   2.613  -1.481  1.00  0.00     0.188 HD
HETATM   19  N5  UNL     1       0.860   0.678  -1.309  1.00  0.00    -0.175 N 
ENDROOT
BRANCH  19  20
HETATM   20  S1  UNL     1       2.043  -0.119  -2.229  1.00  0.00     0.284 S 
HETATM   21  O1  UNL     1       3.040   0.860  -2.801  1.00  0.00    -0.198 OA
HETATM   22  O2  UNL     1       1.477  -0.923  -3.357  1.00  0.00    -0.198 OA
BRANCH  20  23
HETATM   23  C18 UNL     1       2.953  -1.210  -1.198  1.00  0.00     0.103 A 
HETATM   24  C19 UNL     1       2.777  -1.189   0.165  1.00  0.00     0.027 A 
HETATM   25  C20 UNL     1       3.549  -2.055   0.933  1.00  0.00     0.002 A 
HETATM   26  C21 UNL     1       4.461  -2.909   0.382  1.00  0.00     0.002 A 
HETATM   27  C22 UNL     1       4.613  -2.904  -0.971  1.00  0.00     0.025 A 
HETATM   28  C23 UNL     1       3.884  -2.082  -1.754  1.00  0.00     0.057 A 
HETATM   29 CL1  UNL     1       4.057  -2.053  -3.507  1.00  0.00    -0.083 Cl
ENDBRANCH  20  23
ENDBRANCH  19  20
BRANCH   5  30
HETATM   30  C3  UNL     1      -2.276  -2.815   0.385  1.00  0.00     0.006 A 
HETATM   31  C4  UNL     1      -1.672  -3.894  -0.206  1.00  0.00     0.016 A 
HETATM   32  C5  UNL     1      -2.217  -5.178  -0.014  1.00  0.00     0.018 A 
HETATM   33  C6  UNL     1      -3.344  -5.362   0.757  1.00  0.00     0.087 A 
HETATM   34  N3  UNL     1      -3.916  -4.282   1.326  1.00  0.00    -0.374 N 
HETATM   35  C7  UNL     1      -3.401  -3.047   1.147  1.00  0.00     0.101 A 
ATOM     36  H3  UNL     1      -4.751  -4.400   1.900  1.00  0.00     0.164 HD
ENDBRANCH   5  30
TORSDOF 3
