REMARK  4 active torsions:
REMARK  status: ('A' for Active; 'I' for Inactive)
REMARK    1  A    between atoms: C2_2  and  N1_3 
REMARK    2  A    between atoms: C2_2  and  C3_6 
REMARK    3  A    between atoms: C6_10  and  N2_11 
REMARK    4  A    between atoms: N2_11  and  C7_13 
ROOT
HETATM    1  N1  UNL     1       4.536   0.479  -0.410  1.00  0.00    -0.287 NA
HETATM    2  O1  UNL     1       5.756   0.544  -0.576  1.00  0.00    -0.218 OA
ATOM      3  H1  UNL     1       6.691   0.560  -0.743  1.00  0.00     0.261 HD
ENDROOT
BRANCH   1   4
HETATM    4  C2  UNL     1       3.335   0.458  -0.195  1.00  0.00     0.132 C 
HETATM    5  C1  UNL     1       2.753   1.283   0.891  1.00  0.00     0.089 C 
BRANCH   4   6
HETATM    6  C3  UNL     1       2.475  -0.439  -1.014  1.00  0.00     0.070 A 
HETATM    7  S1  UNL     1       3.127  -1.576  -2.173  1.00  0.00    -0.097 SA
HETATM    8  C4  UNL     1       1.693  -2.303  -2.684  1.00  0.00     0.053 A 
HETATM    9  C5  UNL     1       0.749  -1.660  -1.959  1.00  0.00     0.038 A 
HETATM   10  C6  UNL     1       1.151  -0.683  -1.084  1.00  0.00     0.049 A 
BRANCH  10  11
HETATM   11  N2  UNL     1       0.183   0.098  -0.324  1.00  0.00    -0.383 N 
ATOM     12  H2  UNL     1       0.482   0.928   0.188  1.00  0.00     0.160 HD
BRANCH  11  13
HETATM   13  C7  UNL     1      -1.207  -0.312  -0.300  1.00  0.00     0.089 C 
HETATM   14  C8  UNL     1      -1.364  -1.660   0.351  1.00  0.00     0.026 C 
HETATM   15  C9  UNL     1      -1.736  -1.285   1.774  1.00  0.00     0.003 C 
HETATM   16  C10 UNL     1      -2.682  -0.138   1.580  1.00  0.00     0.011 C 
HETATM   17  C11 UNL     1      -2.101   0.631   0.415  1.00  0.00    -0.027 C 
HETATM   18  C12 UNL     1      -1.453   1.894   0.900  1.00  0.00     0.017 C 
HETATM   19  C13 UNL     1      -3.215   1.045  -0.544  1.00  0.00     0.017 C 
ENDBRANCH  11  13
ENDBRANCH  10  11
ENDBRANCH   4   6
ENDBRANCH   1   4
TORSDOF 4
