REMARK  4 active torsions:
REMARK  status: ('A' for Active; 'I' for Inactive)
REMARK    1  A    between atoms: C2_2  and  C3_3 
REMARK    2  A    between atoms: C3_3  and  C4_4 
REMARK    3  A    between atoms: N2_9  and  O1_11 
REMARK    4  A    between atoms: C9_16  and  S2_17 
ROOT
HETATM    1  C3  UNL     1      -0.877  -0.179   0.090  1.00  0.00     0.061 A 
HETATM    2  N1  UNL     1      -1.742   0.948  -0.052  1.00  0.00    -0.361 N 
ATOM      3  H1  UNL     1      -2.760   0.909  -0.096  1.00  0.00     0.162 HD
HETATM    4  C6  UNL     1      -0.961   2.133  -0.122  1.00  0.00     0.133 A 
HETATM    5  N2  UNL     1      -1.460   3.311  -0.252  1.00  0.00    -0.253 N 
ATOM      6  H2  UNL     1      -2.470   3.443  -0.312  1.00  0.00     0.196 HD
HETATM    7  C7  UNL     1       0.465   1.723  -0.017  1.00  0.00     0.026 A 
HETATM    8  C8  UNL     1       1.658   2.416  -0.023  1.00  0.00     0.067 A 
HETATM    9  S1  UNL     1       2.817   1.175   0.144  1.00  0.00    -0.093 SA
HETATM   10  C9  UNL     1       1.780  -0.166   0.215  1.00  0.00     0.050 A 
HETATM   11  C11 UNL     1       0.523   0.398   0.105  1.00  0.00     0.008 A 
ENDROOT
BRANCH   1  12
HETATM   12  C2  UNL     1      -1.093  -0.957   1.368  1.00  0.00     0.032 C 
HETATM   13  C1  UNL     1      -2.454  -1.551   1.467  1.00  0.00     0.008 C 
ENDBRANCH   1  12
BRANCH   1  14
HETATM   14  C4  UNL     1      -1.065  -1.100  -1.076  1.00  0.00     0.032 C 
HETATM   15  C5  UNL     1      -0.865  -0.400  -2.398  1.00  0.00     0.008 C 
ENDBRANCH   1  14
BRANCH  10  16
HETATM   16  S2  UNL     1       2.256  -1.888   0.393  1.00  0.00    -0.126 SA
HETATM   17  C10 UNL     1       4.058  -2.008   0.489  1.00  0.00     0.096 C 
ENDBRANCH  10  16
BRANCH   5  18
HETATM   18  O1  UNL     1      -0.614   4.382  -0.308  1.00  0.00    -0.288 OA
ATOM     19  H1  UNL     1      -0.983   5.252  -0.404  1.00  0.00     0.244 HD
ENDBRANCH   5  18
TORSDOF 4
