REMARK  3 active torsions:
REMARK  status: ('A' for Active; 'I' for Inactive)
REMARK    1  A    between atoms: C3_5  and  C4_6 
REMARK    2  A    between atoms: C7_10  and  N2_11 
REMARK    3  A    between atoms: N2_11  and  C8_13 
ROOT
HETATM    1  C4  UNL     1       1.639  -1.854  -0.701  1.00  0.00     0.076 A 
HETATM    2  S1  UNL     1       1.681  -3.457  -1.353  1.00  0.00    -0.096 SA
HETATM    3  C5  UNL     1       0.060  -3.889  -1.119  1.00  0.00     0.053 A 
HETATM    4  C6  UNL     1      -0.481  -2.775  -0.539  1.00  0.00     0.038 A 
HETATM    5  C7  UNL     1       0.335  -1.723  -0.323  1.00  0.00     0.050 A 
ENDROOT
BRANCH   1   6
HETATM    6  C3  UNL     1       2.785  -0.919  -0.617  1.00  0.00     0.141 A 
HETATM    7  N1  UNL     1       2.856   0.317  -0.147  1.00  0.00    -0.329 N 
HETATM    8  C2  UNL     1       4.109   0.773  -0.279  1.00  0.00     0.093 A 
ATOM      9  H1  UNL     1       2.078   0.841   0.253  1.00  0.00     0.168 HD
HETATM   10  C1  UNL     1       4.690   2.081   0.093  1.00  0.00     0.090 C 
HETATM   11  N4  UNL     1       4.809  -0.217  -0.843  1.00  0.00    -0.288 N 
HETATM   12  N3  UNL     1       4.014  -1.235  -1.047  1.00  0.00    -0.283 N 
ATOM     13  H4  UNL     1       5.801  -0.184  -1.076  1.00  0.00     0.188 HD
ATOM     14  H3  UNL     1       4.285  -2.125  -1.465  1.00  0.00     0.188 HD
ENDBRANCH   1   6
BRANCH   5  15
HETATM   15  N2  UNL     1      -0.135  -0.493   0.303  1.00  0.00    -0.384 N 
ATOM     16  H2  UNL     1       0.537   0.251   0.490  1.00  0.00     0.160 HD
BRANCH  15  17
HETATM   17  C8  UNL     1      -1.524  -0.288   0.670  1.00  0.00     0.081 C 
HETATM   18  C9  UNL     1      -2.341  -0.243  -0.564  1.00  0.00     0.025 C 
HETATM   19  C10 UNL     1      -2.835   1.163  -0.849  1.00  0.00     0.002 C 
HETATM   20  C11 UNL     1      -3.745   1.502   0.312  1.00  0.00     0.000 C 
HETATM   21  C12 UNL     1      -3.014   1.521   1.624  1.00  0.00     0.002 C 
HETATM   22  C13 UNL     1      -1.684   0.856   1.610  1.00  0.00     0.025 C 
ENDBRANCH  15  17
ENDBRANCH   5  15
TORSDOF 3
