REMARK  2 active torsions:
REMARK  status: ('A' for Active; 'I' for Inactive)
REMARK    1  A    between atoms: C2_2  and  C3_3 
REMARK    2  A    between atoms: C3_3  and  C4_4 
ROOT
HETATM    1  C4  UNL     1       0.302  -0.448  -0.263  1.00  0.00     0.198 C 
HETATM    2  C5  UNL     1       1.534  -1.233   0.151  1.00  0.00     0.107 C 
HETATM    3  S1  UNL     1       2.692   0.012   0.845  1.00  0.00    -0.165 SA
HETATM    4  C6  UNL     1       2.300   1.536  -0.066  1.00  0.00     0.101 C 
HETATM    5  C7  UNL     1       0.852   1.850   0.212  1.00  0.00     0.243 C 
HETATM    6  N1  UNL     1       0.085   0.706   0.577  1.00  0.00    -0.069 N 
ATOM      7  H11 UNL     1       0.243   0.469   1.556  1.00  0.00     0.277 HD
ATOM      8  H12 UNL     1      -0.907   0.939   0.613  1.00  0.00     0.277 HD
ENDROOT
BRANCH   1   9
HETATM    9  C3  UNL     1      -0.880  -1.368  -0.128  1.00  0.00     0.060 C 
BRANCH   9  10
HETATM   10  C2  UNL     1      -2.159  -0.710  -0.508  1.00  0.00    -0.035 C 
HETATM   11  C1  UNL     1      -3.113  -0.614   0.386  1.00  0.00     0.007 C 
ENDBRANCH   9  10
ENDBRANCH   1   9
TORSDOF 2
