REMARK  1 active torsions:
REMARK  status: ('A' for Active; 'I' for Inactive)
REMARK    1  A    between atoms: C3_3  and  N1_4 
ROOT
HETATM    1  C1  UNL     1       2.565   1.408   0.224  1.00  0.00     0.090 A 
HETATM    2  C2  UNL     1       1.217   1.288   0.179  1.00  0.00     0.047 A 
HETATM    3  C3  UNL     1       0.592   0.035   0.209  1.00  0.00     0.042 A 
HETATM    4  C7  UNL     1       1.413  -1.068   0.287  1.00  0.00     0.047 A 
HETATM    5  C8  UNL     1       2.781  -0.937   0.333  1.00  0.00     0.090 A 
HETATM    6  N3  UNL     1       3.312   0.301   0.300  1.00  0.00    -0.375 N 
ATOM      7  H3  UNL     1       4.327   0.398   0.334  1.00  0.00     0.164 HD
ENDROOT
BRANCH   3   8
HETATM    8  N1  UNL     1      -0.819  -0.076   0.161  1.00  0.00    -0.317 N 
HETATM    9  C4  UNL     1      -1.680   0.297   1.114  1.00  0.00     0.115 A 
HETATM   10  C5  UNL     1      -2.981   0.026   0.696  1.00  0.00     0.106 A 
HETATM   11  N2  UNL     1      -2.860  -0.514  -0.526  1.00  0.00    -0.360 N 
HETATM   12  C6  UNL     1      -1.546  -0.575  -0.848  1.00  0.00     0.188 A 
ATOM     13  H2  UNL     1      -3.631  -0.827  -1.116  1.00  0.00     0.166 HD
ENDBRANCH   3   8
TORSDOF 1
