REMARK  1 active torsions:
REMARK  status: ('A' for Active; 'I' for Inactive)
REMARK    1  A    between atoms: N2_6  and  C4_7 
ROOT
HETATM    1  C1  UNL     1       2.450   0.999   0.500  1.00  0.00     0.035 A 
HETATM    2  C2  UNL     1       3.124   0.000  -0.047  1.00  0.00     0.090 A 
HETATM    3  N1  UNL     1       2.370  -1.068  -0.610  1.00  0.00    -0.362 N 
ATOM      4  H1  UNL     1       2.862  -1.852  -1.039  1.00  0.00     0.166 HD
HETATM    5  C3  UNL     1       1.072  -1.070  -0.591  1.00  0.00     0.188 A 
HETATM    6  N2  UNL     1       0.341   0.001  -0.005  1.00  0.00    -0.316 N 
HETATM    7  C7  UNL     1       0.973   0.997   0.521  1.00  0.00     0.099 A 
ENDROOT
BRANCH   6   8
HETATM    8  C4  UNL     1      -1.082  -0.025   0.003  1.00  0.00     0.073 A 
HETATM    9  C5  UNL     1      -1.933   0.911   0.519  1.00  0.00     0.138 A 
HETATM   10  N3  UNL     1      -3.182   0.484   0.308  1.00  0.00    -0.310 N 
HETATM   11  N4  UNL     1      -3.180  -0.690  -0.323  1.00  0.00    -0.310 N 
ATOM     12  H3  UNL     1      -4.022   0.988   0.591  1.00  0.00     0.186 HD
HETATM   13  C6  UNL     1      -1.877  -1.021  -0.520  1.00  0.00     0.138 A 
ATOM     14  H4  UNL     1      -3.996  -1.233  -0.603  1.00  0.00     0.186 HD
ENDBRANCH   6   8
TORSDOF 1
