REMARK  3 active torsions:
REMARK  status: ('A' for Active; 'I' for Inactive)
REMARK    1  A    between atoms: C8_8  and  C9_9 
REMARK    2  A    between atoms: C9_9  and  C10_10 
REMARK    3  A    between atoms: C10_10  and  N1_11 
ROOT
HETATM    1  C1  UNL     1       0.309  -2.181  -1.191  1.00  0.00     0.024 C 
HETATM    2  C2  UNL     1       0.514  -1.070  -0.502  1.00  0.00    -0.035 A 
HETATM    3  C3  UNL     1       1.820  -0.559  -0.450  1.00  0.00     0.018 A 
HETATM    4  C4  UNL     1       2.116   0.587   0.242  1.00  0.00    -0.061 A 
HETATM    5  C5  UNL     1       3.518   1.084   0.263  1.00  0.00     0.048 C 
HETATM    6  C6  UNL     1       1.086   1.221   0.887  1.00  0.00     0.007 A 
HETATM    7  C7  UNL     1      -0.215   0.752   0.863  1.00  0.00     0.012 A 
HETATM    8  C8  UNL     1      -0.497  -0.411   0.156  1.00  0.00    -0.029 A 
ENDROOT
BRANCH   8   9
HETATM    9  C9  UNL     1      -1.756  -0.866   0.130  1.00  0.00     0.012 C 
BRANCH   9  10
HETATM   10  C10 UNL     1      -2.839  -0.160   0.834  1.00  0.00     0.258 C 
BRANCH  10  11
HETATM   11  N1  UNL     1      -3.221   1.035   0.077  1.00  0.00    -0.076 N 
ATOM     12  H13 UNL     1      -2.424   1.643  -0.110  1.00  0.00     0.274 HD
ATOM     13  H12 UNL     1      -3.468   0.816  -0.888  1.00  0.00     0.274 HD
ATOM     14  H11 UNL     1      -3.971   1.524   0.565  1.00  0.00     0.274 HD
ENDBRANCH  10  11
ENDBRANCH   9  10
ENDBRANCH   8   9
TORSDOF 3
