REMARK  3 active torsions:
REMARK  status: ('A' for Active; 'I' for Inactive)
REMARK    1  A    between atoms: C2_2  and  N1_3 
REMARK    2  A    between atoms: C2_2  and  C3_7 
REMARK    3  A    between atoms: C3_7  and  N2_8 
ROOT
HETATM    1  C3  UNL     1      -0.678   0.111  -1.045  1.00  0.00     0.160 C 
ENDROOT
BRANCH   1   2
HETATM    2  C2  UNL     1      -1.756   0.423  -0.038  1.00  0.00     0.197 C 
HETATM    3  C1  UNL     1      -1.806  -0.567   1.086  1.00  0.00     0.041 C 
BRANCH   2   4
HETATM    4  N1  UNL     1      -3.022   0.388  -0.747  1.00  0.00    -0.074 N 
ATOM      5  H13 UNL     1      -3.265  -0.550  -1.064  1.00  0.00     0.274 HD
ATOM      6  H12 UNL     1      -3.819   0.539  -0.129  1.00  0.00     0.274 HD
ATOM      7  H11 UNL     1      -2.988   1.062  -1.512  1.00  0.00     0.274 HD
ENDBRANCH   2   4
ENDBRANCH   1   2
BRANCH   1   8
HETATM    8  N2  UNL     1       0.640   0.095  -0.499  1.00  0.00    -0.364 N 
HETATM    9  C4  UNL     1       1.357   1.231  -0.483  1.00  0.00     0.090 A 
HETATM   10  C5  UNL     1       2.624   1.205   0.044  1.00  0.00     0.017 A 
HETATM   11  C6  UNL     1       3.145   0.035   0.546  1.00  0.00     0.003 A 
HETATM   12  C7  UNL     1       2.393  -1.101   0.515  1.00  0.00     0.017 A 
HETATM   13  C8  UNL     1       1.122  -1.063  -0.016  1.00  0.00     0.090 A 
ENDBRANCH   1   8
TORSDOF 3
