REMARK  1 active torsions:
REMARK  status: ('A' for Active; 'I' for Inactive)
REMARK    1  A    between atoms: N2_4  and  N3_6 
ROOT
HETATM    1  N3  UNL     1       1.862  -0.687   0.414  1.00  0.00    -0.295 N 
ATOM      2  H3  UNL     1       2.064  -1.530   0.952  1.00  0.00     0.187 HD
HETATM    3  C1  UNL     1       0.675  -0.530   0.017  1.00  0.00     0.010 C 
HETATM    4  C2  UNL     1      -0.458  -1.428   0.243  1.00  0.00     0.060 C 
HETATM    5  C3  UNL     1      -1.558  -0.419   0.609  1.00  0.00     0.058 C 
HETATM    6  C4  UNL     1      -1.195   0.777  -0.195  1.00  0.00    -0.015 C 
HETATM    7  N4  UNL     1      -1.935   1.797  -0.370  1.00  0.00    -0.405 N 
ATOM      8  H41 UNL     1      -1.686   2.618  -0.922  1.00  0.00     0.155 HD
ATOM      9  H42 UNL     1      -2.869   1.918   0.022  1.00  0.00     0.155 HD
HETATM   10  C5  UNL     1       0.167   0.600  -0.766  1.00  0.00     0.106 C 
ENDROOT
BRANCH   1  11
HETATM   11  N2  UNL     1       2.912   0.180   0.185  1.00  0.00    -0.249 N 
HETATM   12  N1  UNL     1       3.188   0.497  -1.019  1.00  0.00    -0.331 N 
ATOM     13  H12 UNL     1       2.636   0.110  -1.784  1.00  0.00     0.178 HD
ATOM     14  H11 UNL     1       3.964   1.137  -1.188  1.00  0.00     0.178 HD
ATOM     15  H2  UNL     1       3.455   0.558   0.961  1.00  0.00     0.207 HD
ENDBRANCH   1  11
TORSDOF 1
