REMARK  2 active torsions:
REMARK  status: ('A' for Active; 'I' for Inactive)
REMARK    1  A    between atoms: C4_4  and  C5_5 
REMARK    2  A    between atoms: C5_5  and  N1_6 
ROOT
HETATM    1  C1  UNL     1       5.306  -0.105   0.815  1.00  0.00     0.017 C 
HETATM    2  C2  UNL     1       4.149  -0.417   0.669  1.00  0.00    -0.090 C 
HETATM    3  C3  UNL     1       2.772  -0.768   0.507  1.00  0.00     0.061 C 
HETATM    4  C4  UNL     1       1.952  -0.134  -0.305  1.00  0.00     0.001 C 
ENDROOT
BRANCH   4   5
HETATM    5  C5  UNL     1       0.538  -0.507  -0.461  1.00  0.00     0.148 C 
BRANCH   5   6
HETATM    6  N1  UNL     1      -0.285   0.618  -0.092  1.00  0.00    -0.376 N 
HETATM    7  C6  UNL     1      -1.543   0.507   0.165  1.00  0.00     0.074 C 
HETATM    8  C7  UNL     1      -2.646   1.420   0.560  1.00  0.00     0.095 C 
HETATM    9  N2  UNL     1      -2.410  -0.621   0.166  1.00  0.00    -0.380 N 
HETATM   10  C8  UNL     1      -3.536   0.290   0.113  1.00  0.00     0.128 C 
ATOM     11  H2  UNL     1      -2.291  -1.634   0.193  1.00  0.00     0.160 HD
ATOM     12  H1  UNL     1       0.147   1.540  -0.032  1.00  0.00     0.161 HD
ENDBRANCH   5   6
ENDBRANCH   4   5
TORSDOF 2
