REMARK  7 active torsions:
REMARK  status: ('A' for Active; 'I' for Inactive)
REMARK    1  A    between atoms: C2_2  and  C3_3 
REMARK    2  A    between atoms: C3_3  and  N1_4 
REMARK    3  A    between atoms: C8_9  and  C9_10 
REMARK    4  A    between atoms: N2_11  and  N3_13 
REMARK    5  A    between atoms: N3_13  and  C10_15 
REMARK    6  A    between atoms: C10_15  and  N4_18 
REMARK    7  A    between atoms: N4_18  and  N5_19 
ROOT
HETATM    1  C9  UNL     1       0.519   0.296   1.152  1.00  0.00     0.136 C 
HETATM    2  N2  UNL     1      -0.716   0.324   1.176  1.00  0.00    -0.312 N 
ATOM      3  H2  UNL     1      -1.011   1.168   1.667  1.00  0.00     0.185 HD
ENDROOT
BRANCH   2   4
HETATM    4  N3  UNL     1      -1.809  -0.348   0.794  1.00  0.00    -0.310 N 
ATOM      5  H3  UNL     1      -2.007  -1.253   1.220  1.00  0.00     0.182 HD
BRANCH   4   6
HETATM    6  C10 UNL     1      -2.737   0.181  -0.226  1.00  0.00     0.127 C 
HETATM    7  C11 UNL     1      -3.830  -0.831  -0.411  1.00  0.00     0.061 C 
HETATM    8  C12 UNL     1      -1.969   0.426  -1.486  1.00  0.00     0.061 C 
BRANCH   6   9
HETATM    9  N4  UNL     1      -3.316   1.388   0.323  1.00  0.00    -0.116 NA
BRANCH   9  10
HETATM   10  N5  UNL     1      -4.210   2.005  -0.515  1.00  0.00    -0.346 N 
ATOM     11  H52 UNL     1      -4.435   1.634  -1.438  1.00  0.00     0.172 HD
ATOM     12  H51 UNL     1      -4.618   2.856  -0.128  1.00  0.00     0.172 HD
ENDBRANCH   9  10
ENDBRANCH   6   9
ENDBRANCH   4   6
ENDBRANCH   2   4
BRANCH   1  13
HETATM   13  C8  UNL     1       1.383  -0.720   0.556  1.00  0.00     0.051 A 
HETATM   14  N1  UNL     1       2.717  -0.584   0.618  1.00  0.00    -0.352 N 
HETATM   15  C4  UNL     1       3.517  -1.545   0.071  1.00  0.00     0.091 A 
HETATM   16  C5  UNL     1       2.993  -2.653  -0.546  1.00  0.00     0.017 A 
HETATM   17  C6  UNL     1       1.634  -2.818  -0.624  1.00  0.00     0.004 A 
HETATM   18  C7  UNL     1       0.843  -1.839  -0.066  1.00  0.00     0.031 A 
BRANCH  14  19
HETATM   19  C3  UNL     1       3.389   0.542   1.225  1.00  0.00     0.155 C 
BRANCH  19  20
HETATM   20  C2  UNL     1       3.636   1.584   0.198  1.00  0.00    -0.017 C 
HETATM   21  C1  UNL     1       3.177   2.819   0.262  1.00  0.00     0.008 C 
ENDBRANCH  19  20
ENDBRANCH  14  19
ENDBRANCH   1  13
TORSDOF 7
