REMARK  5 active torsions:
REMARK  status: ('A' for Active; 'I' for Inactive)
REMARK    1  A    between atoms: C3_3  and  O1_4 
REMARK    2  A    between atoms: O1_4  and  C4_5 
REMARK    3  A    between atoms: C6_7  and  C7_8 
REMARK    4  A    between atoms: C7_8  and  N1_9 
REMARK       I    between atoms: N1_9  and  C8_11 
REMARK    5  A    between atoms: C11_18  and  N4_19 
ROOT
HETATM    1  C1  UNL     1      -2.921   3.495  -0.775  1.00  0.00     0.099 C 
HETATM    2  C2  UNL     1      -2.883   2.370  -1.252  1.00  0.00    -0.161 C 
HETATM    3  C3  UNL     1      -2.861   1.024  -1.826  1.00  0.00     0.255 C 
ENDROOT
BRANCH   3   4
HETATM    4  O1  UNL     1      -2.375   0.108  -0.905  1.00  0.00    -0.338 OA
BRANCH   4   5
HETATM    5  C4  UNL     1      -1.164   0.056  -0.289  1.00  0.00     0.097 A 
HETATM    6  C5  UNL     1      -0.169   0.982  -0.515  1.00  0.00     0.048 A 
HETATM    7  C6  UNL     1       1.075   0.936   0.112  1.00  0.00    -0.038 A 
HETATM    8  C9  UNL     1       1.266  -0.106   0.992  1.00  0.00     0.011 A 
HETATM    9  C10 UNL     1       0.275  -1.041   1.227  1.00  0.00     0.033 A 
HETATM   10  C11 UNL     1      -0.951  -0.990   0.605  1.00  0.00     0.063 A 
BRANCH   7  11
HETATM   11  C7  UNL     1       2.108   1.973  -0.173  1.00  0.00     0.161 C 
BRANCH  11  12
HETATM   12  N1  UNL     1       3.410   1.548   0.233  1.00  0.00    -0.361 N 
HETATM   13  C8  UNL     1       4.026   0.397  -0.350  1.00  0.00     0.182 C 
HETATM   14  N2  UNL     1       3.686  -0.053  -1.520  1.00  0.00    -0.374 N 
HETATM   15  N3  UNL     1       5.049  -0.316   0.329  1.00  0.00    -0.064 NA
ATOM     16  H22 UNL     1       2.951   0.459  -2.008  1.00  0.00     0.158 HD
ATOM     17  H21 UNL     1       4.125  -0.874  -1.936  1.00  0.00     0.158 HD
ATOM     18  H1  UNL     1       3.908   2.074   0.951  1.00  0.00     0.162 HD
ENDBRANCH  11  12
ENDBRANCH   7  11
BRANCH  10  19
HETATM   19  N4  UNL     1      -1.936  -1.976   0.882  1.00  0.00    -0.387 N 
HETATM   20  C12 UNL     1      -3.237  -1.642   1.435  1.00  0.00     0.149 C 
HETATM   21  C13 UNL     1      -1.698  -3.396   0.627  1.00  0.00     0.149 C 
ENDBRANCH  10  19
ENDBRANCH   4   5
ENDBRANCH   3   4
TORSDOF 5
