REMARK  5 active torsions:
REMARK  status: ('A' for Active; 'I' for Inactive)
REMARK    1  A    between atoms: N1_2  and  C3_4 
REMARK    2  A    between atoms: C6_7  and  N2_8 
REMARK       I    between atoms: N2_8  and  C7_10 
REMARK    3  A    between atoms: C7_10  and  C8_12 
REMARK    4  A    between atoms: N3_13  and  N4_15 
REMARK    5  A    between atoms: C10_19  and  O2_20 
ROOT
HETATM    1  C3  UNL     1       1.813  -0.452  -0.077  1.00  0.00     0.360 C 
HETATM    2  C4  UNL     1       1.326   0.575  -1.051  1.00  0.00     0.071 C 
HETATM    3  C5  UNL     1      -0.003   1.138  -0.703  1.00  0.00     0.024 A 
HETATM    4  C6  UNL     1      -0.965   0.318   0.045  1.00  0.00     0.098 A 
HETATM    5  C9  UNL     1      -0.144   1.376   0.728  1.00  0.00     0.070 A 
HETATM    6  C10 UNL     1       0.928   0.889   1.634  1.00  0.00     0.266 C 
HETATM    7  O3  UNL     1       1.693  -0.144   1.236  1.00  0.00    -0.326 OA
ENDROOT
BRANCH   4   8
HETATM    8  N2  UNL     1      -2.382   0.601   0.028  1.00  0.00    -0.351 N 
HETATM    9  C7  UNL     1      -3.374  -0.399   0.141  1.00  0.00     0.258 C 
HETATM   10  O1  UNL     1      -3.050  -1.591   0.263  1.00  0.00    -0.267 OA
ATOM     11  H2  UNL     1      -2.681   1.571  -0.070  1.00  0.00     0.163 HD
BRANCH   9  12
HETATM   12  C8  UNL     1      -4.785  -0.055   0.118  1.00  0.00     0.180 C 
HETATM   13  N3  UNL     1      -5.727  -0.924   0.216  1.00  0.00    -0.313 N 
ATOM     14  H3  UNL     1      -6.701  -0.623   0.194  1.00  0.00     0.185 HD
BRANCH  13  15
HETATM   15  N4  UNL     1      -5.421  -2.271   0.352  1.00  0.00    -0.345 N 
ATOM     16  H42 UNL     1      -4.442  -2.555   0.372  1.00  0.00     0.176 HD
ATOM     17  H41 UNL     1      -6.169  -2.961   0.430  1.00  0.00     0.176 HD
ENDBRANCH  13  15
ENDBRANCH   9  12
ENDBRANCH   4   8
BRANCH   6  18
HETATM   18  O2  UNL     1       1.645   2.010   2.066  1.00  0.00    -0.371 OA
ATOM     19  H2  UNL     1       2.330   1.699   2.645  1.00  0.00     0.212 HD
ENDBRANCH   6  18
BRANCH   1  20
HETATM   20  N1  UNL     1       3.148  -0.888  -0.354  1.00  0.00     0.108 N 
HETATM   21  C1  UNL     1       3.296  -1.545  -1.621  1.00  0.00     0.312 C 
HETATM   22  C2  UNL     1       4.170   0.077  -0.087  1.00  0.00     0.312 C 
ENDBRANCH   1  20
TORSDOF 5
