REMARK  8 active torsions:
REMARK  status: ('A' for Active; 'I' for Inactive)
REMARK    1  A    between atoms: N1_2  and  C4_5 
REMARK    2  A    between atoms: C4_5  and  C5_6 
REMARK    3  A    between atoms: C6_7  and  C7_8 
REMARK    4  A    between atoms: C7_8  and  N2_9 
REMARK    5  A    between atoms: C9_11  and  O1_12 
REMARK    6  A    between atoms: C10_14  and  O2_15 
REMARK    7  A    between atoms: C11_17  and  C12_18 
REMARK    8  A    between atoms: C12_18  and  O3_19 
ROOT
HETATM    1  N2  UNL     1      -1.911  -0.114   0.016  1.00  0.00    -0.371 N 
HETATM    2  C8  UNL     1      -1.948   1.255   0.431  1.00  0.00     0.157 C 
HETATM    3  C9  UNL     1      -3.366   1.494   0.884  1.00  0.00     0.166 C 
HETATM    4  C10 UNL     1      -4.147   0.460   0.100  1.00  0.00     0.173 C 
HETATM    5  C11 UNL     1      -3.150  -0.701   0.104  1.00  0.00     0.139 C 
ENDROOT
BRANCH   1   6
HETATM    6  C7  UNL     1      -0.906  -0.467  -0.876  1.00  0.00     0.151 C 
BRANCH   6   7
HETATM    7  C6  UNL     1       0.403  -0.401  -0.163  1.00  0.00    -0.060 C 
HETATM    8  C5  UNL     1       1.473  -0.374   0.429  1.00  0.00    -0.072 C 
BRANCH   8   9
HETATM    9  C4  UNL     1       2.727  -0.364   1.140  1.00  0.00     0.329 C 
BRANCH   9  10
HETATM   10  N1  UNL     1       3.826   0.106   0.347  1.00  0.00    -0.069 N 
HETATM   11  C1  UNL     1       5.041  -0.149   1.147  1.00  0.00     0.272 C 
HETATM   12  C2  UNL     1       3.804   1.542   0.137  1.00  0.00     0.272 C 
HETATM   13  C3  UNL     1       4.006  -0.544  -0.908  1.00  0.00     0.272 C 
ENDBRANCH   9  10
ENDBRANCH   8   9
ENDBRANCH   6   7
ENDBRANCH   1   6
BRANCH   5  14
HETATM   14  C12 UNL     1      -3.589  -1.773  -0.806  1.00  0.00     0.192 C 
BRANCH  14  15
HETATM   15  O3  UNL     1      -2.760  -2.887  -0.688  1.00  0.00    -0.399 OA
ATOM     16  H3  UNL     1      -3.043  -3.578  -1.275  1.00  0.00     0.209 HD
ENDBRANCH  14  15
ENDBRANCH   5  14
BRANCH   3  17
HETATM   17  O1  UNL     1      -3.753   2.783   0.609  1.00  0.00    -0.391 OA
ATOM     18  H1  UNL     1      -4.647   2.934   0.894  1.00  0.00     0.210 HD
ENDBRANCH   3  17
BRANCH   4  19
HETATM   19  O2  UNL     1      -5.283   0.052   0.803  1.00  0.00    -0.391 OA
ATOM     20  H2  UNL     1      -5.773  -0.597   0.311  1.00  0.00     0.210 HD
ENDBRANCH   4  19
TORSDOF 8
