REMARK  6 active torsions:
REMARK  status: ('A' for Active; 'I' for Inactive)
REMARK    1  A    between atoms: O1_1  and  C1_3 
REMARK    2  A    between atoms: C1_3  and  C2_4 
REMARK    3  A    between atoms: C3_5  and  C4_6 
REMARK    4  A    between atoms: C4_6  and  O2_7 
REMARK    5  A    between atoms: C11_19  and  C12_20 
REMARK    6  A    between atoms: C12_20  and  O3_21 
ROOT
HETATM    1  C2  UNL     1      -1.650  -0.653   0.382  1.00  0.00     0.043 C 
HETATM    2  C3  UNL     1      -1.368   0.745  -0.050  1.00  0.00     0.042 C 
HETATM    3  C5  UNL     1       0.045   0.701  -0.515  1.00  0.00     0.128 C 
HETATM    4  C6  UNL     1       1.006   1.583   0.203  1.00  0.00     0.173 C 
HETATM    5  N1  UNL     1       2.207   0.815   0.307  1.00  0.00    -0.191 N 
HETATM    6  C7  UNL     1       3.480   1.245   0.554  1.00  0.00     0.110 A 
HETATM    7  C8  UNL     1       4.534   0.357   0.629  1.00  0.00     0.035 A 
HETATM    8  C9  UNL     1       4.223  -0.973   0.440  1.00  0.00     0.107 A 
HETATM    9  N2  UNL     1       2.976  -1.402   0.196  1.00  0.00    -0.202 N 
ATOM     10  H2  UNL     1       2.786  -2.395   0.062  1.00  0.00     0.183 HD
HETATM   11  C10 UNL     1       1.955  -0.477   0.130  1.00  0.00     0.683 A 
HETATM   12  N3  UNL     1       0.571  -0.614  -0.111  1.00  0.00    -0.203 N 
HETATM   13  C11 UNL     1      -0.550  -1.506  -0.127  1.00  0.00     0.133 C 
ENDROOT
BRANCH   1  14
HETATM   14  C1  UNL     1      -3.026  -1.148   0.035  1.00  0.00     0.171 C 
BRANCH  14  15
HETATM   15  O1  UNL     1      -3.940  -0.308   0.667  1.00  0.00    -0.400 OA
ATOM     16  H1  UNL     1      -4.810  -0.621   0.448  1.00  0.00     0.209 HD
ENDBRANCH  14  15
ENDBRANCH   1  14
BRANCH   2  17
HETATM   17  C4  UNL     1      -1.634   1.781   1.018  1.00  0.00     0.171 C 
BRANCH  17  18
HETATM   18  O2  UNL     1      -1.330   3.020   0.481  1.00  0.00    -0.400 OA
ATOM     19  H2  UNL     1      -1.497   3.671   1.152  1.00  0.00     0.209 HD
ENDBRANCH  17  18
ENDBRANCH   2  17
BRANCH  13  20
HETATM   20  C12 UNL     1      -0.788  -2.088  -1.491  1.00  0.00     0.190 C 
BRANCH  20  21
HETATM   21  O3  UNL     1      -1.045  -1.166  -2.468  1.00  0.00    -0.399 OA
ATOM     22  H3  UNL     1      -1.196  -1.534  -3.331  1.00  0.00     0.209 HD
ENDBRANCH  20  21
ENDBRANCH  13  20
TORSDOF 6
