REMARK  5 active torsions:
REMARK  status: ('A' for Active; 'I' for Inactive)
REMARK    1  A    between atoms: C3_5  and  O2_6 
REMARK    2  A    between atoms: C4_8  and  O3_9 
REMARK    3  A    between atoms: N2_13  and  C7_14 
REMARK    4  A    between atoms: C7_14  and  C8_15 
REMARK    5  A    between atoms: C8_15  and  O4_16 
ROOT
HETATM    1  C1  UNL     1       0.604   2.257   0.098  1.00  0.00     0.398 C 
HETATM    2  N1  UNL     1      -0.067   0.997   0.351  1.00  0.00     0.187 N 
HETATM    3  O1  UNL     1      -0.374   1.004   1.691  1.00  0.00    -0.036 OA
HETATM    4  C2  UNL     1      -1.299   0.912  -0.379  1.00  0.00     0.325 C 
HETATM    5  C3  UNL     1      -2.425   0.318   0.436  1.00  0.00     0.189 C 
HETATM    6  C4  UNL     1      -2.543  -1.124   0.077  1.00  0.00     0.155 C 
HETATM    7  C5  UNL     1      -1.192  -1.395  -0.601  1.00  0.00     0.053 C 
HETATM    8  C6  UNL     1      -0.081  -1.282   0.393  1.00  0.00     0.288 C 
HETATM    9  N2  UNL     1       0.764  -0.106   0.158  1.00  0.00     0.133 N 
HETATM   10  C9  UNL     1       1.282  -0.206  -1.172  1.00  0.00     0.281 C 
HETATM   11  C10 UNL     1       0.180  -0.042  -2.172  1.00  0.00     0.038 C 
HETATM   12  C11 UNL     1      -1.138  -0.130  -1.471  1.00  0.00     0.040 C 
ENDROOT
BRANCH   9  13
HETATM   13  C7  UNL     1       1.773  -0.107   1.177  1.00  0.00     0.307 C 
BRANCH  13  14
HETATM   14  C8  UNL     1       3.171   0.039   0.655  1.00  0.00     0.195 C 
BRANCH  14  15
HETATM   15  O4  UNL     1       4.028   0.018   1.768  1.00  0.00    -0.399 OA
ATOM     16  H4  UNL     1       4.914   0.111   1.437  1.00  0.00     0.209 HD
ENDBRANCH  14  15
ENDBRANCH  13  14
ENDBRANCH   9  13
BRANCH   5  17
HETATM   17  O2  UNL     1      -3.587   1.025   0.073  1.00  0.00    -0.390 OA
ATOM     18  H2  UNL     1      -4.295   0.652   0.585  1.00  0.00     0.210 HD
ENDBRANCH   5  17
BRANCH   6  19
HETATM   19  O3  UNL     1      -2.757  -1.960   1.143  1.00  0.00    -0.392 OA
ATOM     20  H3  UNL     1      -2.832  -2.879   0.914  1.00  0.00     0.210 HD
ENDBRANCH   6  19
TORSDOF 5
