REMARK  3 active torsions:
REMARK  status: ('A' for Active; 'I' for Inactive)
REMARK       I    between atoms: N2_3  and  C2_5 
REMARK       I    between atoms: C2_5  and  N3_6 
REMARK    1  A    between atoms: N6_11  and  C4_13 
REMARK    2  A    between atoms: C4_13  and  C5_14 
REMARK    3  A    between atoms: N7_17  and  C8_18 
ROOT
HETATM    1  N1  UNL     1       1.068  -2.381   3.192  1.00  0.00    -0.171 NA
HETATM    2  C1  UNL     1       1.173  -1.355   2.629  1.00  0.00     0.196 C 
HETATM    3  N2  UNL     1       1.300  -0.121   1.979  1.00  0.00    -0.126 N 
ATOM      4  H2  UNL     1       1.178   0.745   2.504  1.00  0.00     0.197 HD
HETATM    5  C2  UNL     1       1.598  -0.072   0.594  1.00  0.00     0.689 C 
HETATM    6  N3  UNL     1       2.659  -0.885   0.123  1.00  0.00    -0.165 N 
ATOM      7  H3  UNL     1       2.502  -1.891   0.059  1.00  0.00     0.186 HD
HETATM    8  C3  UNL     1       3.804  -0.429  -0.227  1.00  0.00     0.215 C 
HETATM    9  N4  UNL     1       4.030   0.969  -0.143  1.00  0.00    -0.066 NA
HETATM   10  N5  UNL     1       4.786  -1.351  -0.683  1.00  0.00    -0.066 NA
HETATM   11  N6  UNL     1       0.969   0.660  -0.255  1.00  0.00    -0.220 N 
ATOM     12  H6  UNL     1       1.256   0.630  -1.233  1.00  0.00     0.178 HD
ENDROOT
BRANCH  11  13
HETATM   13  C4  UNL     1      -0.117   1.516   0.115  1.00  0.00     0.195 C 
BRANCH  13  14
HETATM   14  C5  UNL     1      -1.411   0.900  -0.294  1.00  0.00     0.029 A 
HETATM   15  C6  UNL     1      -2.103   0.061   0.558  1.00  0.00     0.044 A 
HETATM   16  C7  UNL     1      -3.292  -0.468   0.105  1.00  0.00     0.102 A 
HETATM   17  N7  UNL     1      -3.818  -0.219  -1.111  1.00  0.00    -0.296 N 
HETATM   18  C9  UNL     1      -3.112   0.607  -1.917  1.00  0.00     0.190 A 
HETATM   19  N8  UNL     1      -1.948   1.143  -1.512  1.00  0.00    -0.354 N 
ATOM     20  H8  UNL     1      -1.447   1.760  -2.151  1.00  0.00     0.166 HD
BRANCH  17  21
HETATM   21  C8  UNL     1      -5.038  -0.773  -1.553  1.00  0.00     0.360 C 
HETATM   22  O1  UNL     1      -5.465  -0.501  -2.688  1.00  0.00    -0.283 OA
ENDBRANCH  17  21
ENDBRANCH  13  14
ENDBRANCH  11  13
TORSDOF 3
