REMARK  4 active torsions:
REMARK  status: ('A' for Active; 'I' for Inactive)
REMARK    1  A    between atoms: C4_6  and  C5_7 
REMARK    2  A    between atoms: C5_7  and  N1_8 
REMARK    3  A    between atoms: C7_14  and  C8_15 
REMARK    4  A    between atoms: C8_15  and  O3_16 
ROOT
HETATM    1  C1  UNL     1      -3.534  -0.582  -0.827  1.00  0.00     0.013 C 
HETATM    2  C2  UNL     1      -2.596  -0.310   0.358  1.00  0.00     0.024 C 
HETATM    3  C3  UNL     1      -2.144  -1.597   0.913  1.00  0.00     0.118 C 
HETATM    4  S1  UNL     1      -0.630  -2.189   0.139  1.00  0.00     0.046 S 
HETATM    5  O1  UNL     1      -1.039  -2.609  -1.438  1.00  0.00    -0.255 OA
HETATM    6  C4  UNL     1       0.336  -0.676   0.039  1.00  0.00     0.232 C 
HETATM    7  O2  UNL     1      -0.445   0.212  -0.642  1.00  0.00    -0.364 OA
HETATM    8  C7  UNL     1      -1.560   0.680  -0.019  1.00  0.00     0.151 C 
ENDROOT
BRANCH   6   9
HETATM    9  C5  UNL     1       1.677  -0.911  -0.585  1.00  0.00     0.167 C 
BRANCH   9  10
HETATM   10  N1  UNL     1       2.382   0.325  -0.640  1.00  0.00    -0.364 N 
HETATM   11  C6  UNL     1       3.619   0.526  -0.535  1.00  0.00     0.197 C 
HETATM   12  N2  UNL     1       4.124   1.840  -0.618  1.00  0.00    -0.067 NA
HETATM   13  N3  UNL     1       4.502  -0.562  -0.335  1.00  0.00    -0.067 NA
ATOM     14  H1  UNL     1       1.809   1.156  -0.783  1.00  0.00     0.161 HD
ENDBRANCH   9  10
ENDBRANCH   6   9
BRANCH   8  15
HETATM   15  C8  UNL     1      -1.270   1.604   1.160  1.00  0.00     0.196 C 
BRANCH  15  16
HETATM   16  O3  UNL     1      -0.549   2.730   0.769  1.00  0.00    -0.398 OA
ATOM     17  H3  UNL     1      -0.368   3.305   1.503  1.00  0.00     0.209 HD
ENDBRANCH  15  16
ENDBRANCH   8  15
TORSDOF 4
