REMARK  6 active torsions:
REMARK  status: ('A' for Active; 'I' for Inactive)
REMARK    1  A    between atoms: O1_2  and  C2_3 
REMARK    2  A    between atoms: C6_7  and  C7_8 
REMARK    3  A    between atoms: C7_8  and  O2_10 
REMARK    4  A    between atoms: C9_12  and  C10_13 
REMARK    5  A    between atoms: C10_13  and  N1_14 
REMARK    6  A    between atoms: N1_14  and  N2_16 
ROOT
HETATM    1  C2  UNL     1      -1.268   0.732  -0.499  1.00  0.00     0.080 A 
HETATM    2  C3  UNL     1      -2.493   0.616  -1.104  1.00  0.00     0.038 A 
HETATM    3  C4  UNL     1      -3.149  -0.578  -0.986  1.00  0.00     0.004 A 
HETATM    4  C5  UNL     1      -2.641  -1.648  -0.299  1.00  0.00     0.015 A 
HETATM    5  C6  UNL     1      -1.381  -1.537   0.325  1.00  0.00     0.007 A 
HETATM    6  C9  UNL     1      -0.705  -0.342   0.219  1.00  0.00     0.027 A 
ENDROOT
BRANCH   6   7
HETATM    7  C10 UNL     1       0.475  -0.129   0.761  1.00  0.00     0.122 C 
BRANCH   7   8
HETATM    8  N1  UNL     1       1.177   1.129   0.643  1.00  0.00    -0.309 N 
ATOM      9  H1  UNL     1       0.924   1.946   1.199  1.00  0.00     0.186 HD
BRANCH   8  10
HETATM   10  N2  UNL     1       2.228   1.154  -0.285  1.00  0.00    -0.276 N 
HETATM   11  C11 UNL     1       3.461   1.093   0.052  1.00  0.00     0.215 C 
HETATM   12  N3  UNL     1       4.455   1.124  -0.947  1.00  0.00    -0.065 NA
HETATM   13  N4  UNL     1       3.809   0.996   1.413  1.00  0.00    -0.065 NA
ATOM     14  H2  UNL     1       1.999   1.224  -1.276  1.00  0.00     0.189 HD
ENDBRANCH   8  10
ENDBRANCH   7   8
ENDBRANCH   6   7
BRANCH   1  15
HETATM   15  O1  UNL     1      -0.584   1.930  -0.603  1.00  0.00    -0.355 OA
HETATM   16  C1  UNL     1      -1.029   3.056  -1.278  1.00  0.00     0.210 C 
ENDBRANCH   1  15
BRANCH   5  17
HETATM   17  C7  UNL     1      -0.918  -2.581   0.978  1.00  0.00     0.050 C 
HETATM   18  C8  UNL     1      -1.788  -3.819   0.998  1.00  0.00     0.077 C 
BRANCH  17  19
HETATM   19  O2  UNL     1       0.270  -2.688   1.650  1.00  0.00    -0.364 OA
ATOM     20  H2  UNL     1       0.604  -3.442   2.122  1.00  0.00     0.217 HD
ENDBRANCH  17  19
ENDBRANCH   5  17
TORSDOF 6
