REMARK  4 active torsions:
REMARK  status: ('A' for Active; 'I' for Inactive)
REMARK    1  A    between atoms: C5_8  and  C6_9 
REMARK    2  A    between atoms: C6_9  and  C7_10 
REMARK    3  A    between atoms: C7_10  and  N3_11 
REMARK       I    between atoms: C8_13  and  N5_15 
REMARK    4  A    between atoms: N5_15  and  C9_17 
ROOT
HETATM    1  N3  UNL     1      -1.432  -0.167   0.438  1.00  0.00    -0.364 N 
ATOM      2  H3  UNL     1      -1.739   0.383   1.240  1.00  0.00     0.162 HD
HETATM    3  C8  UNL     1      -2.148  -1.159   0.062  1.00  0.00     0.202 C 
HETATM    4  N4  UNL     1      -1.842  -2.007  -1.031  1.00  0.00    -0.063 NA
HETATM    5  N5  UNL     1      -3.334  -1.432   0.790  1.00  0.00    -0.161 N 
ATOM      6  H5  UNL     1      -3.397  -2.241   1.408  1.00  0.00     0.187 HD
ENDROOT
BRANCH   1   7
HETATM    7  C7  UNL     1      -0.191   0.208  -0.238  1.00  0.00     0.130 C 
BRANCH   7   8
HETATM    8  C6  UNL     1       0.920  -0.531   0.445  1.00  0.00     0.096 C 
BRANCH   8   9
HETATM    9  C5  UNL     1       2.254  -0.285  -0.094  1.00  0.00     0.084 A 
HETATM   10  N1  UNL     1       3.019   0.702   0.391  1.00  0.00    -0.351 N 
HETATM   11  C1  UNL     1       2.520   1.526   1.463  1.00  0.00     0.156 C 
HETATM   12  C2  UNL     1       4.266   0.947  -0.104  1.00  0.00     0.093 A 
HETATM   13  C3  UNL     1       4.778   0.180  -1.126  1.00  0.00     0.034 A 
HETATM   14  C4  UNL     1       3.975  -0.831  -1.612  1.00  0.00     0.090 A 
HETATM   15  N2  UNL     1       2.747  -1.048  -1.102  1.00  0.00    -0.355 N 
ATOM     16  H2  UNL     1       2.175  -1.802  -1.482  1.00  0.00     0.166 HD
ENDBRANCH   8   9
ENDBRANCH   7   8
ENDBRANCH   1   7
BRANCH   5  17
HETATM   17  C9  UNL     1      -4.334  -0.624   0.647  1.00  0.00     0.716 A 
HETATM   18  N6  UNL     1      -5.543  -0.693   1.236  1.00  0.00    -0.115 N 
HETATM   19  N7  UNL     1      -6.248   0.333   0.804  1.00  0.00    -0.213 N 
ATOM     20  H6  UNL     1      -5.855  -1.407   1.894  1.00  0.00     0.207 HD
HETATM   21  N8  UNL     1      -5.552   1.057  -0.034  1.00  0.00    -0.213 N 
ATOM     22  H7  UNL     1      -7.207   0.535   1.085  1.00  0.00     0.210 HD
HETATM   23  N9  UNL     1      -4.378   0.479  -0.137  1.00  0.00    -0.115 N 
ATOM     24  H8  UNL     1      -5.860   1.903  -0.513  1.00  0.00     0.210 HD
ATOM     25  H9  UNL     1      -3.611   0.812  -0.722  1.00  0.00     0.207 HD
ENDBRANCH   5  17
TORSDOF 4
