REMARK  6 active torsions:
REMARK  status: ('A' for Active; 'I' for Inactive)
REMARK    1  A    between atoms: O1_2  and  C2_3 
REMARK    2  A    between atoms: C3_4  and  O2_5 
REMARK    3  A    between atoms: C4_7  and  N1_8 
REMARK    4  A    between atoms: N1_8  and  C5_9 
REMARK    5  A    between atoms: C8_13  and  O4_14 
REMARK    6  A    between atoms: C10_17  and  O5_18 
ROOT
HETATM    1  C2  UNL     1      -1.162  -0.166  -0.200  1.00  0.00     0.181 C 
HETATM    2  C3  UNL     1       0.167  -0.681  -0.625  1.00  0.00     0.185 C 
HETATM    3  C4  UNL     1       1.179  -0.632   0.552  1.00  0.00     0.198 C 
HETATM    4  C6  UNL     1       1.639   0.840   0.710  1.00  0.00     0.050 C 
HETATM    5  C7  UNL     1       0.429   1.597   1.093  1.00  0.00     0.027 A 
HETATM    6  C8  UNL     1       0.133   2.988   0.879  1.00  0.00     0.130 A 
HETATM    7  C9  UNL     1      -0.187   2.110  -0.219  1.00  0.00     0.053 A 
HETATM    8  C10 UNL     1      -1.406   1.296  -0.445  1.00  0.00     0.156 C 
ENDROOT
BRANCH   3   9
HETATM    9  N1  UNL     1       2.172  -1.498   0.310  1.00  0.00    -0.414 NA
BRANCH   9  10
HETATM   10  C5  UNL     1       3.176  -2.375   0.065  1.00  0.00     0.435 C 
HETATM   11  O3  UNL     1       3.268  -3.611   0.250  1.00  0.00    -0.269 OA
ENDBRANCH   9  10
ENDBRANCH   3   9
BRANCH   2  12
HETATM   12  O2  UNL     1       0.681  -0.163  -1.782  1.00  0.00    -0.390 OA
ATOM     13  H2  UNL     1       1.530  -0.492  -2.053  1.00  0.00     0.210 HD
ENDBRANCH   2  12
BRANCH   1  14
HETATM   14  O1  UNL     1      -2.159  -0.875  -0.886  1.00  0.00    -0.385 OA
HETATM   15  C1  UNL     1      -2.968  -1.590   0.004  1.00  0.00     0.202 C 
ENDBRANCH   1  14
BRANCH   8  16
HETATM   16  O5  UNL     1      -1.874   1.532  -1.739  1.00  0.00    -0.392 OA
ATOM     17  H5  UNL     1      -2.028   2.456  -1.894  1.00  0.00     0.210 HD
ENDBRANCH   8  16
BRANCH   6  18
HETATM   18  O4  UNL     1       1.157   3.933   0.679  1.00  0.00    -0.395 OA
ATOM     19  H4  UNL     1       0.961   4.852   0.538  1.00  0.00     0.210 HD
ENDBRANCH   6  18
TORSDOF 6
