REMARK  7 active torsions:
REMARK  status: ('A' for Active; 'I' for Inactive)
REMARK    1  A    between atoms: N1_2  and  C2_3 
REMARK    2  A    between atoms: N1_2  and  C3_5 
REMARK    3  A    between atoms: C4_6  and  O2_7 
REMARK    4  A    between atoms: C5_9  and  O3_10 
REMARK    5  A    between atoms: C6_12  and  C7_13 
REMARK    6  A    between atoms: C7_13  and  N2_14 
REMARK    7  A    between atoms: C10_17  and  O4_19 
ROOT
HETATM    1  C3  UNL     1      -1.462  -0.436  -0.239  1.00  0.00     0.125 C 
HETATM    2  C4  UNL     1      -2.360  -1.380   0.554  1.00  0.00     0.170 C 
HETATM    3  C5  UNL     1      -1.184  -1.612   1.473  1.00  0.00     0.156 C 
HETATM    4  C6  UNL     1      -0.419  -0.459   0.823  1.00  0.00     0.069 C 
ENDROOT
BRANCH   4   5
HETATM    5  C7  UNL     1       0.948  -0.927   0.447  1.00  0.00     0.250 C 
BRANCH   5   6
HETATM    6  N2  UNL     1       1.614  -0.195  -0.557  1.00  0.00    -0.033 N 
HETATM    7  C8  UNL     1       1.774  -0.935  -1.823  1.00  0.00     0.276 C 
HETATM    8  C9  UNL     1       1.385   1.215  -0.759  1.00  0.00     0.309 A 
HETATM    9  C10 UNL     1       2.701   0.689  -0.300  1.00  0.00     0.248 A 
HETATM   10  C11 UNL     1       3.181   0.923   1.111  1.00  0.00     0.081 C 
BRANCH   9  11
HETATM   11  O4  UNL     1       3.731   0.833  -1.252  1.00  0.00    -0.363 OA
ATOM     12  H4  UNL     1       4.456   1.423  -1.081  1.00  0.00     0.212 HD
ENDBRANCH   9  11
ENDBRANCH   5   6
ENDBRANCH   4   5
BRANCH   1  13
HETATM   13  N1  UNL     1      -2.167   0.840  -0.375  1.00  0.00    -0.356 N 
HETATM   14  C1  UNL     1      -2.424   1.436  -1.664  1.00  0.00     0.152 C 
BRANCH  13  15
HETATM   15  C2  UNL     1      -2.599   1.488   0.796  1.00  0.00     0.350 C 
HETATM   16  O1  UNL     1      -3.203   2.576   0.715  1.00  0.00    -0.284 OA
ENDBRANCH  13  15
ENDBRANCH   1  13
BRANCH   3  17
HETATM   17  O3  UNL     1      -1.426  -1.465   2.818  1.00  0.00    -0.392 OA
ATOM     18  H3  UNL     1      -0.686  -1.611   3.396  1.00  0.00     0.210 HD
ENDBRANCH   3  17
BRANCH   2  19
HETATM   19  O2  UNL     1      -2.761  -2.468  -0.187  1.00  0.00    -0.391 OA
ATOM     20  H2  UNL     1      -3.320  -3.056   0.307  1.00  0.00     0.210 HD
ENDBRANCH   2  19
TORSDOF 7
