REMARK  11 active torsions:
REMARK  status: ('A' for Active; 'I' for Inactive)
REMARK    1  A    between atoms: C2_2  and  N1_3 
REMARK    2  A    between atoms: C2_2  and  C11_18 
REMARK       I    between atoms: N1_3  and  C3_5 
REMARK       I    between atoms: C3_5  and  N2_7 
REMARK    3  A    between atoms: N2_7  and  C4_9 
REMARK    4  A    between atoms: C4_9  and  C5_10 
REMARK    5  A    between atoms: C5_10  and  C6_11 
REMARK    6  A    between atoms: C6_11  and  C7_12 
REMARK    7  A    between atoms: C7_12  and  C8_13 
REMARK    8  A    between atoms: C8_13  and  O3_15 
REMARK    9  A    between atoms: O3_15  and  C9_16 
REMARK   10  A    between atoms: C16_23  and  O4_24 
REMARK   11  A    between atoms: C17_26  and  O5_27 
ROOT
HETATM    1  C11 UNL     1       0.156   0.535  -2.014  1.00  0.00     0.064 C 
HETATM    2  C12 UNL     1      -0.518   1.863  -2.000  1.00  0.00     0.016 C 
HETATM    3  C13 UNL     1      -1.993   1.828  -1.740  1.00  0.00     0.039 C 
HETATM    4  C14 UNL     1      -2.368   0.892  -0.574  1.00  0.00     0.068 C 
HETATM    5  C15 UNL     1      -3.025   1.755   0.459  1.00  0.00     0.073 C 
HETATM    6  C16 UNL     1      -4.523   1.690   0.467  1.00  0.00     0.150 C 
HETATM    7  C17 UNL     1      -5.098   0.726   1.408  1.00  0.00     0.155 C 
HETATM    8  C18 UNL     1      -4.935  -0.708   1.258  1.00  0.00    -0.008 C 
HETATM    9  C19 UNL     1      -5.704  -1.401   2.404  1.00  0.00     0.019 C 
HETATM   10  C20 UNL     1      -3.562  -1.249   1.097  1.00  0.00     0.018 C 
HETATM   11  C21 UNL     1      -3.782  -1.252  -0.392  1.00  0.00     0.002 C 
HETATM   12  C22 UNL     1      -3.209  -0.190  -1.181  1.00  0.00     0.025 C 
HETATM   13  C23 UNL     1      -2.272  -0.846  -2.228  1.00  0.00     0.010 C 
HETATM   14  C24 UNL     1      -1.116  -1.459  -1.489  1.00  0.00     0.033 C 
HETATM   15  C25 UNL     1      -0.363  -0.275  -0.863  1.00  0.00     0.132 C 
HETATM   16  O6  UNL     1      -1.173   0.453  -0.040  1.00  0.00    -0.374 OA
HETATM   17  C26 UNL     1      -5.245  -1.287  -0.103  1.00  0.00    -0.034 C 
HETATM   18  C27 UNL     1      -6.227  -0.611  -0.947  1.00  0.00     0.016 C 
HETATM   19  C28 UNL     1      -5.750  -2.731   0.143  1.00  0.00     0.016 C 
ENDROOT
BRANCH   1  20
HETATM   20  C2  UNL     1       1.637   0.789  -1.907  1.00  0.00     0.011 C 
HETATM   21  C1  UNL     1       2.367   0.332  -2.891  1.00  0.00     0.039 C 
BRANCH  20  22
HETATM   22  N1  UNL     1       2.157   1.479  -0.802  1.00  0.00    -0.313 N 
HETATM   23  C3  UNL     1       3.488   1.805  -0.532  1.00  0.00     0.320 C 
HETATM   24  O1  UNL     1       4.489   1.534  -1.247  1.00  0.00    -0.247 OA
HETATM   25  N2  UNL     1       3.854   2.531   0.670  1.00  0.00    -0.343 N 
ATOM     26  H2  UNL     1       3.101   2.796   1.306  1.00  0.00     0.164 HD
ATOM     27  H1  UNL     1       1.475   1.782  -0.106  1.00  0.00     0.170 HD
BRANCH  25  28
HETATM   28  C4  UNL     1       5.173   2.902   1.032  1.00  0.00     0.124 C 
BRANCH  28  29
HETATM   29  C5  UNL     1       6.134   1.737   1.226  1.00  0.00     0.020 C 
BRANCH  29  30
HETATM   30  C6  UNL     1       5.654   0.818   2.301  1.00  0.00     0.011 C 
BRANCH  30  31
HETATM   31  C7  UNL     1       6.517  -0.359   2.581  1.00  0.00     0.111 C 
BRANCH  31  32
HETATM   32  C8  UNL     1       6.706  -1.286   1.454  1.00  0.00     0.258 C 
HETATM   33  O2  UNL     1       6.159  -1.137   0.338  1.00  0.00    -0.265 OA
BRANCH  32  34
HETATM   34  O3  UNL     1       7.529  -2.409   1.579  1.00  0.00    -0.322 OA
BRANCH  34  35
HETATM   35  C9  UNL     1       7.704  -3.302   0.476  1.00  0.00     0.174 C 
HETATM   36  C10 UNL     1       8.294  -2.520  -0.670  1.00  0.00     0.034 C 
ENDBRANCH  34  35
ENDBRANCH  32  34
ENDBRANCH  31  32
ENDBRANCH  30  31
ENDBRANCH  29  30
ENDBRANCH  28  29
ENDBRANCH  25  28
ENDBRANCH  20  22
ENDBRANCH   1  20
BRANCH   6  37
HETATM   37  O4  UNL     1      -5.025   2.956   0.894  1.00  0.00    -0.393 OA
ATOM     38  H4  UNL     1      -5.974   2.915   0.899  1.00  0.00     0.210 HD
ENDBRANCH   6  37
BRANCH   7  39
HETATM   39  O5  UNL     1      -4.618   1.072   2.698  1.00  0.00    -0.392 OA
ATOM     40  H5  UNL     1      -4.991   0.447   3.308  1.00  0.00     0.210 HD
ENDBRANCH   7  39
TORSDOF 11
