REMARK  16 active torsions:
REMARK  status: ('A' for Active; 'I' for Inactive)
REMARK    1  A    between atoms: C2_2  and  N2_7 
REMARK    2  A    between atoms: N1_3  and  O1_5 
REMARK    3  A    between atoms: N2_7  and  N8_43 
REMARK    4  A    between atoms: N3_8  and  O2_10 
REMARK    5  A    between atoms: O2_10  and  C3_11 
REMARK    6  A    between atoms: C4_14  and  C5_15 
REMARK    7  A    between atoms: N6_19  and  C7_21 
REMARK    8  A    between atoms: C7_21  and  N7_22 
REMARK    9  A    between atoms: C7_21  and  O3_26 
REMARK   10  A    between atoms: C9_29  and  C10_30 
REMARK   11  A    between atoms: C10_30  and  O4_31 
REMARK   12  A    between atoms: C10_30  and  O5_33 
REMARK   13  A    between atoms: C12_39  and  C13_40 
REMARK   14  A    between atoms: N8_43  and  N9_45 
REMARK   15  A    between atoms: N9_45  and  O11_46 
REMARK   16  A    between atoms: N9_45  and  C14_48 
ROOT
HETATM    1  C3  UNL     1      -0.637   0.441  -1.312  1.00  0.00     0.197 A 
HETATM    2  N4  UNL     1       0.538   0.069  -0.665  1.00  0.00    -0.311 N 
ATOM      3  H4  UNL     1       0.503  -0.049   0.348  1.00  0.00     0.170 HD
HETATM    4  C4  UNL     1       1.693  -0.142  -1.265  1.00  0.00     0.205 A 
HETATM    5  O7  UNL     1       1.723   0.012  -2.565  1.00  0.00    -0.253 OA
HETATM    6  C11 UNL     1       0.676   0.358  -3.259  1.00  0.00     0.311 A 
HETATM    7  O8  UNL     1       0.759   0.496  -4.526  1.00  0.00    -0.258 OA
HETATM    8  C12 UNL     1      -0.580   0.598  -2.688  1.00  0.00     0.169 A 
ENDROOT
BRANCH   1   9
HETATM    9  O2  UNL     1      -1.723   0.620  -0.588  1.00  0.00    -0.201 OA
BRANCH   9  10
HETATM   10  N3  UNL     1      -2.935   0.907  -0.478  1.00  0.00    -0.176 N 
HETATM   11  N2  UNL     1      -3.596   1.716   0.220  1.00  0.00    -0.150 N 
ATOM     12  H3  UNL     1      -3.525   0.355  -1.101  1.00  0.00     0.218 HD
BRANCH  11  13
HETATM   13  C2  UNL     1      -2.933   2.557   1.138  1.00  0.00     0.140 C 
HETATM   14  C1  UNL     1      -2.506   2.069   2.483  1.00  0.00     0.095 C 
HETATM   15  N1  UNL     1      -2.700   3.779   0.781  1.00  0.00    -0.254 N 
ATOM     16  H1  UNL     1      -2.221   4.402   1.432  1.00  0.00     0.195 HD
BRANCH  15  17
HETATM   17  O1  UNL     1      -3.077   4.261  -0.444  1.00  0.00    -0.288 OA
ATOM     18  H1  UNL     1      -2.906   5.158  -0.706  1.00  0.00     0.244 HD
ENDBRANCH  15  17
ENDBRANCH  11  13
BRANCH  11  19
HETATM   19  N8  UNL     1      -4.975   1.774   0.082  1.00  0.00    -0.207 N 
ATOM     20  H8  UNL     1      -5.364   2.279  -0.714  1.00  0.00     0.207 HD
BRANCH  19  21
HETATM   21  N9  UNL     1      -5.855   1.172   0.984  1.00  0.00    -0.018 NA
BRANCH  21  22
HETATM   22  O11 UNL     1      -5.558   1.503   2.268  1.00  0.00    -0.286 OA
ATOM     23  H11 UNL     1      -6.157   1.093   2.882  1.00  0.00     0.239 HD
ENDBRANCH  21  22
BRANCH  21  24
HETATM   24  C14 UNL     1      -5.737  -0.234   0.823  1.00  0.00     0.223 A 
HETATM   25  N10 UNL     1      -4.872  -1.000   1.509  1.00  0.00    -0.270 N 
HETATM   26  N11 UNL     1      -5.024  -2.233   1.120  1.00  0.00    -0.271 N 
ATOM     27  H10 UNL     1      -4.211  -0.672   2.213  1.00  0.00     0.189 HD
HETATM   28  C15 UNL     1      -5.982  -2.294   0.182  1.00  0.00     0.209 A 
ATOM     29  H11 UNL     1      -4.496  -3.031   1.474  1.00  0.00     0.189 HD
HETATM   30  N12 UNL     1      -6.491  -3.404  -0.527  1.00  0.00    -0.062 NA
HETATM   31  N13 UNL     1      -6.416  -1.032   0.011  1.00  0.00    -0.301 N 
ATOM     32  H13 UNL     1      -7.147  -0.738  -0.637  1.00  0.00     0.171 HD
ENDBRANCH  21  24
ENDBRANCH  19  21
ENDBRANCH  11  19
ENDBRANCH   9  10
ENDBRANCH   1   9
BRANCH   8  33
HETATM   33  C13 UNL     1      -1.696   0.979  -3.526  1.00  0.00     0.220 C 
HETATM   34  O9  UNL     1      -2.864   1.228  -3.215  1.00  0.00    -0.644 OA
HETATM   35  O10 UNL     1      -1.438   1.088  -4.910  1.00  0.00    -0.644 OA
ENDBRANCH   8  33
BRANCH   4  36
HETATM   36  C5  UNL     1       2.913  -0.534  -0.551  1.00  0.00     0.202 A 
HETATM   37  N5  UNL     1       4.072  -0.740  -1.198  1.00  0.00    -0.319 N 
HETATM   38  C6  UNL     1       5.204  -1.094  -0.607  1.00  0.00     0.108 A 
ATOM     39  H5  UNL     1       4.081  -0.616  -2.210  1.00  0.00     0.169 HD
HETATM   40  N6  UNL     1       6.315  -1.293  -1.225  1.00  0.00    -0.328 N 
HETATM   41  C8  UNL     1       5.190  -1.261   0.763  1.00  0.00     0.086 A 
ATOM     42  H6  UNL     1       6.323  -1.170  -2.237  1.00  0.00     0.165 HD
HETATM   43  C9  UNL     1       3.981  -1.044   1.424  1.00  0.00     0.113 A 
HETATM   44  O6  UNL     1       2.894  -0.690   0.741  1.00  0.00    -0.289 OA
BRANCH  40  45
HETATM   45  C7  UNL     1       7.537  -1.674  -0.594  1.00  0.00     0.425 C 
BRANCH  45  46
HETATM   46  N7  UNL     1       8.128  -0.542   0.064  1.00  0.00    -0.035 N 
ATOM     47  H73 UNL     1       8.256   0.245  -0.572  1.00  0.00     0.279 HD
ATOM     48  H72 UNL     1       7.482  -0.101   0.719  1.00  0.00     0.279 HD
ATOM     49  H71 UNL     1       9.001  -0.814   0.515  1.00  0.00     0.279 HD
ENDBRANCH  45  46
BRANCH  45  50
HETATM   50  O3  UNL     1       8.428  -2.083  -1.603  1.00  0.00    -0.355 OA
ATOM     51  H3  UNL     1       9.241  -2.337  -1.183  1.00  0.00     0.213 HD
ENDBRANCH  45  50
ENDBRANCH  40  45
BRANCH  43  52
HETATM   52  C10 UNL     1       3.972  -1.224   2.885  1.00  0.00     0.312 C 
BRANCH  52  53
HETATM   53  O4  UNL     1       5.072  -0.626   3.490  1.00  0.00    -0.365 OA
ATOM     54  H4  UNL     1       5.066  -0.742   4.433  1.00  0.00     0.213 HD
ENDBRANCH  52  53
BRANCH  52  55
HETATM   55  O5  UNL     1       2.836  -0.693   3.482  1.00  0.00    -0.365 OA
ATOM     56  H5  UNL     1       2.830  -0.809   4.425  1.00  0.00     0.213 HD
ENDBRANCH  52  55
ENDBRANCH  43  52
ENDBRANCH   4  36
TORSDOF 16
