REMARK  15 active torsions:
REMARK  status: ('A' for Active; 'I' for Inactive)
REMARK    1  A    between atoms: O1_2  and  C2_3 
REMARK    2  A    between atoms: C2_3  and  C3_4 
REMARK       I    between atoms: C3_4  and  N1_6 
REMARK    3  A    between atoms: C4_7  and  O3_8 
REMARK    4  A    between atoms: C5_10  and  C6_11 
REMARK    5  A    between atoms: C6_11  and  O4_12 
REMARK    6  A    between atoms: O4_12  and  S1_13 
REMARK    7  A    between atoms: S1_13  and  N2_16 
REMARK    8  A    between atoms: N2_16  and  O7_18 
REMARK    9  A    between atoms: O7_18  and  C7_19 
REMARK   10  A    between atoms: C8_22  and  C9_23 
REMARK   11  A    between atoms: C11_29  and  N5_30 
REMARK   12  A    between atoms: C12_35  and  N7_36 
REMARK   13  A    between atoms: N9_42  and  O10_43 
REMARK   14  A    between atoms: C15_47  and  N10_48 
REMARK   15  A    between atoms: N10_48  and  O12_50 
ROOT
HETATM    1  N2  UNL     1       1.884   0.237   0.874  1.00  0.00    -0.161 N 
ATOM      2  H2  UNL     1       2.133  -0.599   1.403  1.00  0.00     0.210 HD
ENDROOT
BRANCH   1   3
HETATM    3  S1  UNL     1       0.537   1.003   1.076  1.00  0.00     0.381 S 
HETATM    4  O5  UNL     1       1.004   2.410   1.516  1.00  0.00    -0.174 OA
HETATM    5  O6  UNL     1      -0.205   1.196  -0.397  1.00  0.00    -0.174 OA
BRANCH   3   6
HETATM    6  O4  UNL     1      -0.485   0.374   2.207  1.00  0.00    -0.252 OA
BRANCH   6   7
HETATM    7  C6  UNL     1      -1.778   0.550   1.900  1.00  0.00     0.256 C 
BRANCH   7   8
HETATM    8  C5  UNL     1      -2.409  -0.215   0.817  1.00  0.00     0.120 A 
HETATM    9  C4  UNL     1      -3.706   0.199   0.457  1.00  0.00     0.179 A 
HETATM   10  N1  UNL     1      -4.436  -0.433  -0.453  1.00  0.00    -0.237 N 
HETATM   11  C3  UNL     1      -5.750  -0.029  -0.825  1.00  0.00     0.255 C 
HETATM   12  C15 UNL     1      -3.917  -1.544  -1.083  1.00  0.00     0.208 A 
HETATM   13  O2  UNL     1      -6.356  -0.693  -1.723  1.00  0.00    -0.270 OA
HETATM   14  C14 UNL     1      -2.663  -1.973  -0.756  1.00  0.00     0.318 A 
HETATM   15  N9  UNL     1      -1.954  -1.287   0.189  1.00  0.00    -0.182 N 
HETATM   16  O11 UNL     1      -2.126  -2.992  -1.301  1.00  0.00    -0.261 OA
BRANCH   9  17
HETATM   17  O3  UNL     1      -4.187   1.330   1.121  1.00  0.00    -0.344 OA
ATOM     18  H3  UNL     1      -3.664   1.783   1.773  1.00  0.00     0.219 HD
ENDBRANCH   9  17
BRANCH  11  19
HETATM   19  C2  UNL     1      -6.457   1.110  -0.237  1.00  0.00     0.270 C 
BRANCH  19  20
HETATM   20  O1  UNL     1      -7.720   1.360  -0.696  1.00  0.00    -0.387 OA
HETATM   21  C1  UNL     1      -8.696   0.445  -0.484  1.00  0.00     0.202 C 
ENDBRANCH  19  20
ENDBRANCH  11  19
BRANCH  12  22
HETATM   22  N10 UNL     1      -4.622  -2.159  -1.970  1.00  0.00    -0.248 N 
ATOM     23  H10 UNL     1      -5.558  -1.836  -2.213  1.00  0.00     0.196 HD
BRANCH  22  24
HETATM   24  O12 UNL     1      -4.076  -3.260  -2.576  1.00  0.00    -0.288 OA
ATOM     25  H12 UNL     1      -4.596  -3.713  -3.230  1.00  0.00     0.244 HD
ENDBRANCH  22  24
ENDBRANCH  12  22
BRANCH  15  26
HETATM   26  O10 UNL     1      -0.727  -1.820   0.565  1.00  0.00    -0.280 OA
ATOM     27  H10 UNL     1      -0.400  -2.590   0.114  1.00  0.00     0.245 HD
ENDBRANCH  15  26
ENDBRANCH   7   8
ENDBRANCH   6   7
ENDBRANCH   3   6
ENDBRANCH   1   3
BRANCH   1  28
HETATM   28  O7  UNL     1       2.716   0.799  -0.096  1.00  0.00    -0.206 OA
BRANCH  28  29
HETATM   29  C7  UNL     1       3.972   0.234  -0.300  1.00  0.00     0.202 A 
HETATM   30  N3  UNL     1       4.207  -0.679  -1.251  1.00  0.00    -0.314 N 
HETATM   31  C8  UNL     1       5.395  -1.243  -1.479  1.00  0.00     0.186 A 
ATOM     32  H3  UNL     1       3.425  -0.963  -1.841  1.00  0.00     0.170 HD
HETATM   33  N4  UNL     1       6.413  -0.855  -0.687  1.00  0.00    -0.332 N 
HETATM   34  C10 UNL     1       6.251   0.060   0.293  1.00  0.00     0.110 A 
ATOM     35  H4  UNL     1       7.336  -1.265  -0.832  1.00  0.00     0.168 HD
HETATM   36  C11 UNL     1       7.277   0.467   1.109  1.00  0.00     0.144 A 
HETATM   37  C13 UNL     1       5.004   0.639   0.516  1.00  0.00     0.133 A 
HETATM   38  N6  UNL     1       7.037   1.382   2.061  1.00  0.00    -0.175 N 
HETATM   39  C12 UNL     1       5.826   1.940   2.273  1.00  0.00     0.678 A 
ATOM     40  H6  UNL     1       7.812   1.672   2.657  1.00  0.00     0.186 HD
HETATM   41  N8  UNL     1       4.823   1.553   1.487  1.00  0.00    -0.185 N 
ATOM     42  H8  UNL     1       3.897   1.958   1.624  1.00  0.00     0.184 HD
BRANCH  31  43
HETATM   43  C9  UNL     1       5.586  -2.243  -2.538  1.00  0.00     0.245 C 
HETATM   44  O8  UNL     1       6.705  -2.741  -2.716  1.00  0.00    -0.642 OA
HETATM   45  O9  UNL     1       4.512  -2.620  -3.331  1.00  0.00    -0.642 OA
ENDBRANCH  31  43
BRANCH  36  46
HETATM   46  N5  UNL     1       8.449  -0.044   0.940  1.00  0.00    -0.383 N 
ATOM     47  H52 UNL     1       8.631  -0.739   0.216  1.00  0.00     0.157 HD
ATOM     48  H51 UNL     1       9.211   0.258   1.546  1.00  0.00     0.157 HD
ENDBRANCH  36  46
BRANCH  39  49
HETATM   49  N7  UNL     1       5.616   2.810   3.183  1.00  0.00    -0.234 N 
ATOM     50  H72 UNL     1       6.384   3.106   3.785  1.00  0.00     0.174 HD
ATOM     51  H71 UNL     1       4.701   3.232   3.343  1.00  0.00     0.174 HD
ENDBRANCH  39  49
ENDBRANCH  28  29
ENDBRANCH   1  28
TORSDOF 15
