REMARK  18 active torsions:
REMARK  status: ('A' for Active; 'I' for Inactive)
REMARK    1  A    between atoms: C1_2  and  O2_4 
REMARK    2  A    between atoms: O2_4  and  C2_5 
REMARK    3  A    between atoms: C3_6  and  C4_7 
REMARK    4  A    between atoms: C5_8  and  O3_9 
REMARK    5  A    between atoms: C6_12  and  C7_13 
REMARK    6  A    between atoms: C7_13  and  O5_14 
REMARK    7  A    between atoms: C7_13  and  O6_16 
REMARK    8  A    between atoms: C8_18  and  O7_19 
REMARK    9  A    between atoms: N4_25  and  C9_26 
REMARK   10  A    between atoms: C9_26  and  C10_27 
REMARK   11  A    between atoms: C10_27  and  O8_28 
REMARK   12  A    between atoms: C10_27  and  C11_30 
REMARK   13  A    between atoms: C11_30  and  O9_31 
REMARK   14  A    between atoms: C11_30  and  C12_33 
REMARK   15  A    between atoms: C12_33  and  N5_34 
REMARK   16  A    between atoms: C14_36  and  C15_37 
REMARK       I    between atoms: C15_37  and  N6_39 
REMARK   17  A    between atoms: N6_39  and  N7_41 
REMARK   18  A    between atoms: N7_41  and  C16_43 
ROOT
HETATM    1  C10 UNL     1       0.843   0.050   0.589  1.00  0.00     0.168 C 
ENDROOT
BRANCH   1   2
HETATM    2  C9  UNL     1       1.590   0.251  -0.685  1.00  0.00     0.187 C 
BRANCH   2   3
HETATM    3  N4  UNL     1       2.889   0.846  -0.367  1.00  0.00    -0.252 N 
HETATM    4  C2  UNL     1       4.042   0.216  -0.135  1.00  0.00     0.200 A 
HETATM    5  C3  UNL     1       4.965   1.189   0.137  1.00  0.00     0.120 A 
HETATM    6  N2  UNL     1       4.342   2.412   0.065  1.00  0.00    -0.281 N 
HETATM    7  N3  UNL     1       3.092   2.173  -0.242  1.00  0.00    -0.238 N 
ATOM      8  H2  UNL     1       4.769   3.325   0.220  1.00  0.00     0.188 HD
ATOM      9  H3  UNL     1       2.375   2.888  -0.368  1.00  0.00     0.208 HD
BRANCH   4  10
HETATM   10  O2  UNL     1       4.307  -1.140  -0.153  1.00  0.00    -0.242 OA
BRANCH  10  11
HETATM   11  C1  UNL     1       4.732  -1.772  -1.308  1.00  0.00     0.379 C 
HETATM   12  N1  UNL     1       4.989  -3.168  -1.248  1.00  0.00    -0.032 NA
HETATM   13  O1  UNL     1       4.867  -1.068  -2.340  1.00  0.00    -0.242 OA
ENDBRANCH  10  11
ENDBRANCH   4  10
BRANCH   5  14
HETATM   14  C4  UNL     1       6.366   1.005   0.457  1.00  0.00     0.090 A 
HETATM   15  C5  UNL     1       6.914   0.707   1.685  1.00  0.00     0.199 A 
HETATM   16  O4  UNL     1       8.234   0.656   1.584  1.00  0.00    -0.284 OA
HETATM   17  C6  UNL     1       8.621   0.902   0.358  1.00  0.00     0.144 A 
HETATM   18  C8  UNL     1       7.474   1.127  -0.388  1.00  0.00     0.118 A 
BRANCH  15  19
HETATM   19  O3  UNL     1       6.258   0.480   2.900  1.00  0.00    -0.340 OA
ATOM     20  H3  UNL     1       6.636   0.274   3.747  1.00  0.00     0.220 HD
ENDBRANCH  15  19
BRANCH  17  21
HETATM   21  C7  UNL     1      10.030   0.931  -0.129  1.00  0.00     0.315 C 
BRANCH  21  22
HETATM   22  O5  UNL     1      10.081   0.238  -1.329  1.00  0.00    -0.365 OA
ATOM     23  H5  UNL     1      10.979   0.256  -1.639  1.00  0.00     0.213 HD
ENDBRANCH  21  22
BRANCH  21  24
HETATM   24  O6  UNL     1      10.422   2.273  -0.366  1.00  0.00    -0.365 OA
ATOM     25  H6  UNL     1      11.320   2.291  -0.676  1.00  0.00     0.213 HD
ENDBRANCH  21  24
ENDBRANCH  17  21
BRANCH  18  26
HETATM   26  O7  UNL     1       7.374   1.422  -1.721  1.00  0.00    -0.357 OA
ATOM     27  H7  UNL     1       8.127   1.505  -2.295  1.00  0.00     0.217 HD
ENDBRANCH  18  26
ENDBRANCH   5  14
ENDBRANCH   2   3
ENDBRANCH   1   2
BRANCH   1  28
HETATM   28  O8  UNL     1       1.557  -0.815   1.414  1.00  0.00    -0.391 OA
ATOM     29  H8  UNL     1       1.081  -0.943   2.226  1.00  0.00     0.210 HD
ENDBRANCH   1  28
BRANCH   1  30
HETATM   30  C11 UNL     1      -0.562  -0.420   0.485  1.00  0.00     0.168 C 
BRANCH  30  31
HETATM   31  O9  UNL     1      -1.154  -0.406   1.747  1.00  0.00    -0.391 OA
ATOM     32  H9  UNL     1      -2.053  -0.707   1.680  1.00  0.00     0.210 HD
ENDBRANCH  30  31
BRANCH  30  33
HETATM   33  C12 UNL     1      -1.416   0.347  -0.463  1.00  0.00     0.184 C 
BRANCH  33  34
HETATM   34  N5  UNL     1      -2.767  -0.191  -0.423  1.00  0.00    -0.284 N 
HETATM   35  C13 UNL     1      -3.741   0.245   0.424  1.00  0.00     0.148 A 
HETATM   36  C14 UNL     1      -4.879  -0.498   0.130  1.00  0.00     0.136 A 
HETATM   37  N10 UNL     1      -4.560  -1.333  -0.859  1.00  0.00    -0.280 N 
HETATM   38  N11 UNL     1      -3.293  -1.121  -1.160  1.00  0.00    -0.240 N 
ATOM     39  H10 UNL     1      -5.181  -2.011  -1.301  1.00  0.00     0.189 HD
ATOM     40  H11 UNL     1      -2.787  -1.628  -1.886  1.00  0.00     0.208 HD
BRANCH  36  41
HETATM   41  C15 UNL     1      -6.143  -0.353   0.794  1.00  0.00     0.289 C 
HETATM   42  O10 UNL     1      -6.229   0.481   1.759  1.00  0.00    -0.264 OA
HETATM   43  N6  UNL     1      -7.291  -1.075   0.439  1.00  0.00    -0.262 N 
ATOM     44  H6  UNL     1      -7.228  -1.739  -0.333  1.00  0.00     0.190 HD
BRANCH  43  45
HETATM   45  N7  UNL     1      -8.514  -0.929   1.091  1.00  0.00    -0.269 N 
ATOM     46  H7  UNL     1      -8.585  -1.203   2.071  1.00  0.00     0.190 HD
BRANCH  45  47
HETATM   47  C16 UNL     1      -9.696  -0.398   0.422  1.00  0.00     0.190 C 
HETATM   48  N8  UNL     1     -10.190   0.747   0.670  1.00  0.00    -0.360 N 
HETATM   49  C17 UNL     1     -11.348   1.038  -0.118  1.00  0.00     0.142 C 
ATOM     50  H8  UNL     1      -9.801   1.391   1.359  1.00  0.00     0.162 HD
HETATM   51  C18 UNL     1     -11.441  -0.127  -1.066  1.00  0.00     0.142 C 
HETATM   52  N9  UNL     1     -10.456  -1.043  -0.566  1.00  0.00    -0.360 N 
ATOM     53  H9  UNL     1     -10.329  -2.006  -0.878  1.00  0.00     0.162 HD
ENDBRANCH  45  47
ENDBRANCH  43  45
ENDBRANCH  36  41
ENDBRANCH  33  34
ENDBRANCH  30  33
ENDBRANCH   1  30
TORSDOF 18
