REMARK  18 active torsions:
REMARK  status: ('A' for Active; 'I' for Inactive)
REMARK    1  A    between atoms: C2_2  and  C3_3 
REMARK    2  A    between atoms: C2_2  and  N1_6 
REMARK    3  A    between atoms: C3_3  and  O1_4 
REMARK    4  A    between atoms: C4_7  and  O2_8 
REMARK    5  A    between atoms: C6_13  and  N3_14 
REMARK    6  A    between atoms: N3_14  and  C7_15 
REMARK    7  A    between atoms: C7_15  and  O3_16 
REMARK    8  A    between atoms: C7_15  and  C8_18 
REMARK    9  A    between atoms: C9_21  and  N5_22 
REMARK   10  A    between atoms: N5_22  and  C10_24 
REMARK   11  A    between atoms: C10_24  and  C11_25 
REMARK   12  A    between atoms: C11_25  and  O4_26 
REMARK   13  A    between atoms: O4_26  and  C12_27 
REMARK   14  A    between atoms: C12_27  and  C13_29 
REMARK   15  A    between atoms: N8_34  and  C14_35 
REMARK   16  A    between atoms: C14_35  and  C15_36 
REMARK   17  A    between atoms: N12_46  and  N13_47 
REMARK   18  A    between atoms: C19_51  and  O8_52 
ROOT
HETATM    1  C8  UNL     1       0.735   0.410  -1.299  1.00  0.00     0.184 A 
HETATM    2  N4  UNL     1      -0.290   0.989  -1.816  1.00  0.00    -0.172 N 
ATOM      3  H4  UNL     1      -0.183   1.943  -2.160  1.00  0.00     0.186 HD
HETATM    4  C9  UNL     1      -1.573   0.365  -1.935  1.00  0.00     0.676 A 
HETATM    5  N10 UNL     1      -1.709  -0.823  -1.518  1.00  0.00    -0.210 N 
ATOM      6  H10 UNL     1      -2.633  -1.245  -1.610  1.00  0.00     0.179 HD
HETATM    7  C17 UNL     1      -0.680  -1.627  -0.929  1.00  0.00     0.263 A 
HETATM    8  N11 UNL     1       0.551  -0.883  -0.808  1.00  0.00    -0.355 N 
ATOM      9  H11 UNL     1       1.335  -1.330  -0.334  1.00  0.00     0.163 HD
ENDROOT
BRANCH   1  10
HETATM   10  C7  UNL     1       2.018   1.168  -1.224  1.00  0.00     0.263 C 
BRANCH  10  11
HETATM   11  N3  UNL     1       3.162   0.807  -0.710  1.00  0.00    -0.340 NA
BRANCH  11  12
HETATM   12  C6  UNL     1       4.199   0.464  -0.254  1.00  0.00     0.284 A 
HETATM   13  N2  UNL     1       4.871   1.268   0.651  1.00  0.00    -0.309 N 
HETATM   14  C5  UNL     1       6.019   0.730   1.000  1.00  0.00     0.121 A 
ATOM     15  H2  UNL     1       4.522   2.160   1.001  1.00  0.00     0.170 HD
HETATM   16  C4  UNL     1       7.169   0.868   1.770  1.00  0.00     0.174 A 
HETATM   17  C18 UNL     1       6.107  -0.450   0.311  1.00  0.00     0.142 A 
HETATM   18  N1  UNL     1       7.968  -0.179   1.583  1.00  0.00    -0.298 N 
HETATM   19  C19 UNL     1       7.319  -0.992   0.688  1.00  0.00     0.176 A 
HETATM   20  N12 UNL     1       5.009  -0.625  -0.452  1.00  0.00    -0.213 N 
BRANCH  16  21
HETATM   21  O2  UNL     1       7.386   1.969   2.592  1.00  0.00    -0.344 OA
ATOM     22  H2  UNL     1       6.815   2.717   2.726  1.00  0.00     0.219 HD
ENDBRANCH  16  21
BRANCH  18  23
HETATM   23  C2  UNL     1       9.291  -0.417   2.176  1.00  0.00     0.114 C 
HETATM   24  C1  UNL     1      10.121  -1.366   1.304  1.00  0.00     0.035 C 
BRANCH  23  25
HETATM   25  C3  UNL     1      10.087   0.883   2.168  1.00  0.00     0.189 C 
BRANCH  25  26
HETATM   26  O1  UNL     1      10.151   1.309   0.852  1.00  0.00    -0.399 OA
ATOM     27  H1  UNL     1      10.647   2.119   0.847  1.00  0.00     0.209 HD
ENDBRANCH  25  26
ENDBRANCH  23  25
ENDBRANCH  18  23
BRANCH  19  28
HETATM   28  O8  UNL     1       7.835  -2.208   0.226  1.00  0.00    -0.344 OA
ATOM     29  H8  UNL     1       7.386  -2.771  -0.394  1.00  0.00     0.219 HD
ENDBRANCH  19  28
BRANCH  20  30
HETATM   30  N13 UNL     1       4.742  -1.687  -1.270  1.00  0.00    -0.334 N 
ATOM     31 2H13 UNL     1       3.911  -1.819  -1.847  1.00  0.00     0.177 HD
ATOM     32 1H13 UNL     1       5.344  -2.497  -1.417  1.00  0.00     0.177 HD
ENDBRANCH  20  30
ENDBRANCH  11  12
ENDBRANCH  10  11
BRANCH  10  33
HETATM   33  O3  UNL     1       1.959   2.371  -1.752  1.00  0.00    -0.333 OA
ATOM     34  H3  UNL     1       1.126   2.634  -2.126  1.00  0.00     0.220 HD
ENDBRANCH  10  33
ENDBRANCH   1  10
BRANCH   4  35
HETATM   35  N5  UNL     1      -2.635   1.202  -2.439  1.00  0.00    -0.224 N 
ATOM     36  H5  UNL     1      -2.492   1.722  -3.305  1.00  0.00     0.177 HD
BRANCH  35  37
HETATM   37  C10 UNL     1      -3.874   1.317  -1.756  1.00  0.00     0.165 C 
BRANCH  37  38
HETATM   38  C11 UNL     1      -4.857   0.218  -1.971  1.00  0.00     0.199 C 
BRANCH  38  39
HETATM   39  O4  UNL     1      -5.985   0.541  -1.143  1.00  0.00    -0.315 OA
BRANCH  39  40
HETATM   40  C12 UNL     1      -7.249  -0.015  -1.333  1.00  0.00     0.315 C 
HETATM   41  O5  UNL     1      -7.435  -0.774  -2.269  1.00  0.00    -0.257 OA
BRANCH  40  42
HETATM   42  C13 UNL     1      -8.316   0.337  -0.407  1.00  0.00     0.167 A 
HETATM   43  N6  UNL     1      -8.169   1.057   0.714  1.00  0.00    -0.278 N 
HETATM   44  N7  UNL     1      -9.338   1.096   1.321  1.00  0.00    -0.238 N 
ATOM     45  H6  UNL     1      -7.307   1.496   1.039  1.00  0.00     0.189 HD
HETATM   46  N8  UNL     1     -10.259   0.438   0.659  1.00  0.00    -0.252 N 
ATOM     47  H7  UNL     1      -9.507   1.581   2.202  1.00  0.00     0.208 HD
HETATM   48  C16 UNL     1      -9.644  -0.055  -0.445  1.00  0.00     0.169 A 
HETATM   49  N9  UNL     1     -10.200  -0.831  -1.481  1.00  0.00    -0.078 NA
BRANCH  46  50
HETATM   50  C14 UNL     1     -11.665   0.207   0.913  1.00  0.00     0.265 C 
BRANCH  50  51
HETATM   51  C15 UNL     1     -11.860  -1.073   1.619  1.00  0.00     0.193 C 
HETATM   52  O6  UNL     1     -13.050  -1.458   1.857  1.00  0.00    -0.647 OA
HETATM   53  O7  UNL     1     -10.788  -1.828   2.008  1.00  0.00    -0.647 OA
ENDBRANCH  50  51
ENDBRANCH  46  50
ENDBRANCH  40  42
ENDBRANCH  39  40
ENDBRANCH  38  39
ENDBRANCH  37  38
ENDBRANCH  35  37
ENDBRANCH   4  35
TORSDOF 18
