REMARK  15 active torsions:
REMARK  status: ('A' for Active; 'I' for Inactive)
REMARK    1  A    between atoms: C3_3  and  O1_4 
REMARK    2  A    between atoms: C5_8  and  C6_9 
REMARK    3  A    between atoms: C6_9  and  O3_10 
REMARK    4  A    between atoms: C6_9  and  O4_12 
REMARK    5  A    between atoms: C7_14  and  N1_15 
REMARK    6  A    between atoms: C8_19  and  N5_20 
REMARK    7  A    between atoms: N6_24  and  C9_25 
REMARK    8  A    between atoms: N9_30  and  C10_31 
REMARK    9  A    between atoms: C11_34  and  N11_35 
REMARK   10  A    between atoms: C12_38  and  N12_39 
REMARK   11  A    between atoms: C14_46  and  S1_47 
REMARK   12  A    between atoms: S1_47  and  C15_48 
REMARK   13  A    between atoms: C15_48  and  C16_49 
REMARK   14  A    between atoms: C16_49  and  C17_50 
REMARK   15  A    between atoms: C17_50  and  O7_51 
ROOT
HETATM    1  C9  UNL     1      -0.463  -0.973  -0.799  1.00  0.00     0.166 A 
HETATM    2  N7  UNL     1      -0.343  -2.307  -1.117  1.00  0.00    -0.267 N 
ATOM      3  H7  UNL     1      -1.053  -2.887  -1.564  1.00  0.00     0.190 HD
HETATM    4  N8  UNL     1       0.855  -2.696  -0.739  1.00  0.00    -0.219 N 
ATOM      5  H8  UNL     1       1.218  -3.643  -0.851  1.00  0.00     0.209 HD
HETATM    6  N9  UNL     1       1.522  -1.701  -0.197  1.00  0.00    -0.061 N 
HETATM    7  C14 UNL     1       0.693  -0.595  -0.228  1.00  0.00     0.158 A 
ENDROOT
BRANCH   1   8
HETATM    8  N6  UNL     1      -1.662  -0.295  -1.092  1.00  0.00    -0.279 N 
HETATM    9  C2  UNL     1      -1.845   0.193  -2.328  1.00  0.00     0.053 A 
HETATM   10  C1  UNL     1      -0.812  -0.020  -3.405  1.00  0.00     0.072 C 
HETATM   11  C3  UNL     1      -2.995   0.849  -2.659  1.00  0.00     0.140 A 
HETATM   12  C4  UNL     1      -3.980   1.013  -1.728  1.00  0.00     0.221 A 
HETATM   13  O2  UNL     1      -5.041   1.628  -2.058  1.00  0.00    -0.284 OA
HETATM   14  C5  UNL     1      -3.804   0.505  -0.434  1.00  0.00     0.095 A 
HETATM   15  C7  UNL     1      -2.613  -0.152  -0.153  1.00  0.00     0.147 A 
BRANCH  11  16
HETATM   16  O1  UNL     1      -3.192   1.366  -3.954  1.00  0.00    -0.355 OA
ATOM     17  H1  UNL     1      -3.993   1.823  -4.184  1.00  0.00     0.218 HD
ENDBRANCH  11  16
BRANCH  14  18
HETATM   18  C6  UNL     1      -4.921   0.716   0.482  1.00  0.00     0.296 C 
BRANCH  18  19
HETATM   19  O3  UNL     1      -5.282  -0.387   1.248  1.00  0.00    -0.367 OA
ATOM     20  H3  UNL     1      -6.009  -0.250   1.844  1.00  0.00     0.213 HD
ENDBRANCH  18  19
BRANCH  18  21
HETATM   21  O4  UNL     1      -6.086   0.977  -0.308  1.00  0.00    -0.367 OA
ATOM     22  H4  UNL     1      -6.813   1.114   0.288  1.00  0.00     0.213 HD
ENDBRANCH  18  21
ENDBRANCH  14  18
BRANCH  15  23
HETATM   23  N1  UNL     1      -2.450  -0.737   1.144  1.00  0.00    -0.215 N 
HETATM   24  N2  UNL     1      -2.734  -2.037   1.511  1.00  0.00    -0.005 NA
HETATM   25  N3  UNL     1      -2.721  -2.140   2.861  1.00  0.00    -0.013 NA
HETATM   26  N4  UNL     1      -2.568  -0.868   3.395  1.00  0.00    -0.072 NA
HETATM   27  C8  UNL     1      -1.942  -0.089   2.314  1.00  0.00     0.415 C 
BRANCH  27  28
HETATM   28  N5  UNL     1      -2.274   1.274   2.499  1.00  0.00    -0.041 N 
ATOM     29  H53 UNL     1      -1.998   1.804   1.672  1.00  0.00     0.278 HD
ATOM     30  H52 UNL     1      -3.288   1.382   2.466  1.00  0.00     0.278 HD
ATOM     31  H51 UNL     1      -1.912   1.736   3.333  1.00  0.00     0.278 HD
ENDBRANCH  27  28
ENDBRANCH  15  23
ENDBRANCH   1   8
BRANCH   7  32
HETATM   32  S1  UNL     1       1.220   0.949   0.401  1.00  0.00    -0.106 SA
BRANCH  32  33
HETATM   33  C15 UNL     1       2.118   2.055  -0.614  1.00  0.00     0.083 C 
BRANCH  33  34
HETATM   34  C16 UNL     1       1.399   2.796  -1.697  1.00  0.00     0.036 C 
BRANCH  34  35
HETATM   35  C17 UNL     1       0.319   3.709  -1.146  1.00  0.00     0.165 C 
BRANCH  35  36
HETATM   36  O7  UNL     1      -0.625   3.003  -0.424  1.00  0.00    -0.401 OA
ATOM     37  H7  UNL     1      -1.301   3.574  -0.079  1.00  0.00     0.209 HD
ENDBRANCH  35  36
ENDBRANCH  34  35
ENDBRANCH  33  34
ENDBRANCH  32  33
ENDBRANCH   7  32
BRANCH   6  38
HETATM   38  C10 UNL     1       2.832  -1.684   0.338  1.00  0.00     0.708 A 
HETATM   39  N10 UNL     1       3.048  -1.185   1.590  1.00  0.00    -0.172 N 
HETATM   40  C11 UNL     1       4.282  -1.156   2.122  1.00  0.00     0.151 A 
ATOM     41  H10 UNL     1       2.260  -0.828   2.131  1.00  0.00     0.186 HD
HETATM   42  C12 UNL     1       5.385  -1.624   1.440  1.00  0.00     0.188 A 
HETATM   43  C13 UNL     1       5.155  -2.132   0.163  1.00  0.00     0.168 A 
HETATM   44  N13 UNL     1       6.290  -2.609  -0.528  1.00  0.00    -0.079 NA
HETATM   45  N14 UNL     1       3.918  -2.137  -0.313  1.00  0.00    -0.174 N 
ATOM     46  H14 UNL     1       3.778  -2.515  -1.250  1.00  0.00     0.185 HD
BRANCH  40  47
HETATM   47  N11 UNL     1       4.510  -0.682   3.319  1.00  0.00    -0.383 N 
ATOM     48 2H11 UNL     1       3.694  -0.336   3.824  1.00  0.00     0.157 HD
ATOM     49 1H11 UNL     1       5.446  -0.660   3.723  1.00  0.00     0.157 HD
ENDBRANCH  40  47
BRANCH  42  50
HETATM   50  N12 UNL     1       6.693  -1.602   1.985  1.00  0.00    -0.108 N 
HETATM   51  O5  UNL     1       7.304  -0.522   2.083  1.00  0.00    -0.532 OA
HETATM   52  O6  UNL     1       7.333  -2.737   2.421  1.00  0.00    -0.532 OA
ENDBRANCH  42  50
ENDBRANCH   6  38
TORSDOF 15
