REMARK  1 active torsions:
REMARK  status: ('A' for Active; 'I' for Inactive)
REMARK    1  A    between atoms: C3_6  and  C4_7 
ROOT
HETATM    1  C4  UNL     1       2.234  -0.437  -0.165  1.00  0.00     0.267 C 
HETATM    2  C5  UNL     1       2.555   0.056   1.184  1.00  0.00     0.086 C 
HETATM    3  N3  UNL     1       2.789   0.445   2.250  1.00  0.00    -0.195 NA
HETATM    4  C6  UNL     1       2.647   0.479  -1.207  1.00  0.00     0.086 C 
HETATM    5  N4  UNL     1       2.993   1.216  -2.032  1.00  0.00    -0.195 NA
ENDROOT
BRANCH   1   6
HETATM    6  C3  UNL     1       0.737  -0.608  -0.207  1.00  0.00     0.122 C 
HETATM    7  N2  UNL     1       0.054  -1.661  -0.423  1.00  0.00    -0.289 N 
HETATM    8  N1  UNL     1      -1.308  -1.364  -0.370  1.00  0.00    -0.115 NA
ATOM      9  H2  UNL     1       0.445  -2.585  -0.607  1.00  0.00     0.183 HD
HETATM   10  C2  UNL     1      -1.422   0.064  -0.442  1.00  0.00     0.193 C 
HETATM   11  C1  UNL     1      -2.427   0.603   0.555  1.00  0.00     0.053 C 
HETATM   12  N5  UNL     1      -0.118   0.517   0.015  1.00  0.00    -0.357 N 
ATOM     13  H5  UNL     1       0.130   1.427   0.404  1.00  0.00     0.162 HD
ENDBRANCH   1   6
TORSDOF 1
