REMARK  2 active torsions:
REMARK  status: ('A' for Active; 'I' for Inactive)
REMARK    1  A    between atoms: N1_2  and  N2_4 
REMARK    2  A    between atoms: N3_7  and  N4_8 
ROOT
HETATM    1  N2  UNL     1      -0.398  -0.197  -0.103  1.00  0.00    -0.243 N 
HETATM    2  C2  UNL     1      -0.110   0.938   0.581  1.00  0.00     0.138 A 
HETATM    3  C3  UNL     1       1.252   1.109   0.618  1.00  0.00     0.138 A 
HETATM    4  N3  UNL     1       1.814   0.084  -0.040  1.00  0.00    -0.245 N 
HETATM    5  C4  UNL     1       0.798  -0.687  -0.464  1.00  0.00     0.217 A 
HETATM    6  S1  UNL     1       0.984  -2.070  -1.324  1.00  0.00    -0.037 SA
ENDROOT
BRANCH   1   7
HETATM    7  N1  UNL     1      -1.659  -0.738  -0.373  1.00  0.00    -0.332 N 
HETATM    8  C1  UNL     1      -2.843  -0.070   0.097  1.00  0.00     0.168 C 
ATOM      9  H1  UNL     1      -1.739  -1.606  -0.903  1.00  0.00     0.180 HD
ENDBRANCH   1   7
BRANCH   4  10
HETATM   10  N4  UNL     1       3.183  -0.157  -0.257  1.00  0.00    -0.337 N 
ATOM     11  H42 UNL     1       3.954   0.428   0.065  1.00  0.00     0.177 HD
ATOM     12  H41 UNL     1       3.610  -0.936  -0.757  1.00  0.00     0.177 HD
ENDBRANCH   4  10
TORSDOF 2
