REMARK  3 active torsions:
REMARK  status: ('A' for Active; 'I' for Inactive)
REMARK    1  A    between atoms: N1_1  and  S1_4 
REMARK    2  A    between atoms: S1_4  and  N2_5 
REMARK    3  A    between atoms: N2_5  and  C1_7 
ROOT
HETATM    1  C1  UNL     1       0.381  -0.552   0.148  1.00  0.00     0.681 C 
HETATM    2  N3  UNL     1       0.277   0.729  -0.103  1.00  0.00    -0.226 N 
ATOM      3  H3  UNL     1       1.096   1.323   0.028  1.00  0.00     0.177 HD
HETATM    4  C2  UNL     1      -0.941   1.327  -0.554  1.00  0.00     0.139 C 
HETATM    5  C3  UNL     1      -2.185   0.686  -0.052  1.00  0.00     0.040 C 
HETATM    6  C4  UNL     1      -2.070  -0.772   0.223  1.00  0.00     0.139 C 
HETATM    7  N4  UNL     1      -0.787  -1.336  -0.051  1.00  0.00    -0.226 N 
ATOM      8  H4  UNL     1      -0.710  -2.296  -0.388  1.00  0.00     0.177 HD
ENDROOT
BRANCH   1   9
HETATM    9  N2  UNL     1       1.608  -1.086   0.591  1.00  0.00    -0.146 N 
ATOM     10  H2  UNL     1       1.670  -1.550   1.497  1.00  0.00     0.194 HD
BRANCH   9  11
HETATM   11  S1  UNL     1       3.021  -0.946  -0.425  1.00  0.00     0.074 SA
BRANCH  11  12
HETATM   12  N1  UNL     1       3.728   0.662  -0.129  1.00  0.00    -0.356 N 
ATOM     13  H12 UNL     1       3.363   1.361   0.518  1.00  0.00     0.165 HD
ATOM     14  H11 UNL     1       4.553   0.744  -0.723  1.00  0.00     0.165 HD
ENDBRANCH  11  12
ENDBRANCH   9  11
ENDBRANCH   1   9
TORSDOF 3
