REMARK  2 active torsions:
REMARK  status: ('A' for Active; 'I' for Inactive)
REMARK    1  A    between atoms: C2_2  and  N1_3 
REMARK    2  A    between atoms: C5_12  and  C6_13 
ROOT
HETATM    1  C1  UNL     1      -0.711  -1.704  -0.170  1.00  0.00     0.073 C 
HETATM    2  C2  UNL     1      -0.443  -0.222  -0.130  1.00  0.00     0.218 C 
HETATM    3  C4  UNL     1       0.566   0.181   0.945  1.00  0.00     0.101 C 
HETATM    4  C5  UNL     1       1.572   0.381  -0.176  1.00  0.00     0.230 C 
HETATM    5  N6  UNL     1       0.448   0.291  -1.109  1.00  0.00    -0.038 N 
ATOM      6  H61 UNL     1       0.175   1.129  -1.622  1.00  0.00     0.281 HD
ATOM      7  H62 UNL     1       0.575  -0.236  -1.973  1.00  0.00     0.281 HD
ENDROOT
BRANCH   2   8
HETATM    8  N1  UNL     1      -1.672   0.503   0.088  1.00  0.00    -0.234 N 
HETATM    9  C3  UNL     1      -2.140   1.625  -0.439  1.00  0.00     0.222 A 
HETATM   10  N2  UNL     1      -3.357   1.874   0.115  1.00  0.00    -0.279 N 
HETATM   11  N3  UNL     1      -3.588   0.898   0.959  1.00  0.00    -0.227 N 
ATOM     12  H2  UNL     1      -3.969   2.664  -0.087  1.00  0.00     0.189 HD
HETATM   13  N4  UNL     1      -2.585   0.071   0.952  1.00  0.00    -0.223 N 
ATOM     14  H3  UNL     1      -4.426   0.802   1.533  1.00  0.00     0.210 HD
ATOM     15  H4  UNL     1      -2.511  -0.774   1.519  1.00  0.00     0.210 HD
ENDBRANCH   2   8
BRANCH   4  16
HETATM   16  C6  UNL     1       2.487  -0.784  -0.229  1.00  0.00     0.086 C 
HETATM   17  N5  UNL     1       3.736  -0.637  -0.056  1.00  0.00    -0.409 N 
ATOM     18  H52 UNL     1       4.098   0.300   0.120  1.00  0.00     0.155 HD
ATOM     19  H51 UNL     1       4.366  -1.439  -0.092  1.00  0.00     0.155 HD
ENDBRANCH   4  16
TORSDOF 2
