REMARK  9 active torsions:
REMARK  status: ('A' for Active; 'I' for Inactive)
REMARK    1  A    between atoms: C2_2  and  C3_3 
REMARK    2  A    between atoms: C2_2  and  C7_12 
REMARK       I    between atoms: C3_3  and  N1_5 
REMARK    3  A    between atoms: N1_5  and  C4_7 
REMARK    4  A    between atoms: C4_7  and  C5_8 
REMARK    5  A    between atoms: C5_8  and  C6_9 
REMARK    6  A    between atoms: C6_9  and  O2_10 
REMARK    7  A    between atoms: C17_22  and  O3_23 
REMARK    8  A    between atoms: O3_23  and  C18_24 
REMARK    9  A    between atoms: C30_37  and  O5_38 
ROOT
HETATM    1  C18 UNL     1      -0.052  -1.126   0.851  1.00  0.00     0.156 C 
HETATM    2  C19 UNL     1      -1.123  -0.803   1.858  1.00  0.00     0.201 C 
HETATM    3  O4  UNL     1      -2.389  -0.666   1.352  1.00  0.00    -0.377 OA
HETATM    4  C20 UNL     1      -2.533   0.298   0.379  1.00  0.00     0.069 C 
HETATM    5  C21 UNL     1      -2.125   1.636   0.966  1.00  0.00     0.047 C 
HETATM    6  C22 UNL     1      -1.640  -0.096  -0.763  1.00  0.00     0.031 C 
HETATM    7  C23 UNL     1      -2.320  -0.165  -2.075  1.00  0.00     0.009 C 
HETATM    8  C24 UNL     1      -3.647  -0.855  -2.086  1.00  0.00     0.007 C 
HETATM    9  C25 UNL     1      -4.444  -0.648  -0.845  1.00  0.00     0.005 C 
HETATM   10  C26 UNL     1      -5.919  -0.702  -1.189  1.00  0.00    -0.035 C 
HETATM   11  C27 UNL     1      -6.053  -2.144  -1.757  1.00  0.00     0.016 C 
HETATM   12  C28 UNL     1      -6.286   0.174  -2.338  1.00  0.00     0.012 C 
HETATM   13  C29 UNL     1      -7.675   0.711  -2.335  1.00  0.00     0.033 C 
HETATM   14  C30 UNL     1      -8.296   0.949  -1.010  1.00  0.00     0.126 C 
HETATM   15  C31 UNL     1      -8.185  -0.260  -0.159  1.00  0.00    -0.017 C 
HETATM   16  C32 UNL     1      -9.055  -1.406  -0.629  1.00  0.00     0.018 C 
HETATM   17  C33 UNL     1      -8.768   0.113   1.216  1.00  0.00     0.018 C 
HETATM   18  C34 UNL     1      -6.739  -0.639   0.028  1.00  0.00     0.004 C 
HETATM   19  C35 UNL     1      -6.212   0.209   1.160  1.00  0.00     0.007 C 
HETATM   20  C36 UNL     1      -4.738   0.135   1.382  1.00  0.00     0.013 C 
HETATM   21  C37 UNL     1      -4.001   0.425   0.052  1.00  0.00    -0.008 C 
HETATM   22  C38 UNL     1      -4.330   1.833  -0.244  1.00  0.00     0.019 C 
HETATM   23  C39 UNL     1      -0.734  -1.263  -0.484  1.00  0.00    -0.013 C 
HETATM   24  C40 UNL     1      -1.372  -2.621  -0.506  1.00  0.00     0.018 C 
HETATM   25  C41 UNL     1       0.324  -1.299  -1.570  1.00  0.00     0.018 C 
ENDROOT
BRANCH   1  26
HETATM   26  O3  UNL     1       0.963  -0.250   0.767  1.00  0.00    -0.352 OA
BRANCH  26  27
HETATM   27  C17 UNL     1       2.239  -0.625   1.019  1.00  0.00     0.269 C 
HETATM   28  C14 UNL     1       2.687   0.052   2.290  1.00  0.00     0.006 C 
HETATM   29  C11 UNL     1       4.181   0.140   2.429  1.00  0.00     0.001 C 
HETATM   30  C15 UNL     1       2.193  -0.728   3.492  1.00  0.00     0.020 C 
HETATM   31  C16 UNL     1       2.140   1.451   2.430  1.00  0.00     0.020 C 
HETATM   32  C10 UNL     1       4.774  -0.924   1.482  1.00  0.00     0.044 C 
HETATM   33  C12 UNL     1       4.796   1.382   1.838  1.00  0.00     0.013 C 
HETATM   34  C9  UNL     1       4.366  -0.277   0.191  1.00  0.00     0.069 C 
HETATM   35  C8  UNL     1       5.362  -0.308  -0.914  1.00  0.00     0.044 C 
HETATM   36  C13 UNL     1       4.636   1.220   0.379  1.00  0.00     0.026 C 
HETATM   37  O6  UNL     1       3.056  -0.468  -0.045  1.00  0.00    -0.349 OA
HETATM   38  C7  UNL     1       5.802   1.053  -0.510  1.00  0.00     0.008 C 
BRANCH  38  39
HETATM   39  C2  UNL     1       7.182   1.252   0.051  1.00  0.00     0.078 C 
HETATM   40  C1  UNL     1       7.260   2.759   0.366  1.00  0.00     0.020 C 
BRANCH  39  41
HETATM   41  C3  UNL     1       8.178   1.034  -1.037  1.00  0.00     0.221 C 
HETATM   42  O1  UNL     1       8.651   2.025  -1.701  1.00  0.00    -0.273 OA
HETATM   43  N1  UNL     1       8.681  -0.222  -1.436  1.00  0.00    -0.361 N 
ATOM     44  H1  UNL     1       8.341  -1.044  -0.937  1.00  0.00     0.162 HD
BRANCH  43  45
HETATM   45  C4  UNL     1       9.627  -0.432  -2.482  1.00  0.00     0.124 C 
BRANCH  45  46
HETATM   46  C5  UNL     1      10.960   0.241  -2.277  1.00  0.00     0.046 C 
BRANCH  46  47
HETATM   47  C6  UNL     1      11.551  -0.314  -0.997  1.00  0.00     0.165 C 
BRANCH  47  48
HETATM   48  O2  UNL     1      12.791   0.234  -0.700  1.00  0.00    -0.401 OA
ATOM     49  H2  UNL     1      13.162  -0.114   0.103  1.00  0.00     0.209 HD
ENDBRANCH  47  48
ENDBRANCH  46  47
ENDBRANCH  45  46
ENDBRANCH  43  45
ENDBRANCH  39  41
ENDBRANCH  38  39
ENDBRANCH  26  27
ENDBRANCH   1  26
BRANCH  14  50
HETATM   50  O5  UNL     1      -9.623   1.323  -1.215  1.00  0.00    -0.395 OA
ATOM     51  H5  UNL     1     -10.021   1.476  -0.366  1.00  0.00     0.210 HD
ENDBRANCH  14  50
TORSDOF 9
