REMARK  9 active torsions:
REMARK  status: ('A' for Active; 'I' for Inactive)
REMARK    1  A    between atoms: C18_18  and  O1_19 
REMARK    2  A    between atoms: O1_19  and  C19_20 
REMARK    3  A    between atoms: C22_23  and  N1_24 
REMARK    4  A    between atoms: C23_28  and  C24_29 
REMARK    5  A    between atoms: C24_29  and  O2_30 
REMARK    6  A    between atoms: O2_30  and  C25_31 
REMARK    7  A    between atoms: C25_31  and  C26_32 
REMARK    8  A    between atoms: C26_32  and  C27_33 
REMARK    9  A    between atoms: C38_47  and  O6_48 
ROOT
HETATM    1  C1  UNL     1      -3.934   2.357  -2.061  1.00  0.00     0.011 C 
HETATM    2  C2  UNL     1      -3.710   2.564  -0.558  1.00  0.00    -0.006 C 
HETATM    3  C3  UNL     1      -2.569   1.763  -0.025  1.00  0.00     0.015 C 
HETATM    4  C4  UNL     1      -2.969   0.765   1.057  1.00  0.00    -0.032 C 
HETATM    5  C5  UNL     1      -3.066   1.569   2.314  1.00  0.00     0.016 C 
HETATM    6  C6  UNL     1      -4.232   0.195   0.536  1.00  0.00     0.003 C 
HETATM    7  C7  UNL     1      -4.592  -1.182   0.956  1.00  0.00     0.006 C 
HETATM    8  C8  UNL     1      -3.441  -2.092   0.821  1.00  0.00     0.006 C 
HETATM    9  C9  UNL     1      -2.132  -1.422   0.382  1.00  0.00     0.003 C 
HETATM   10  C10 UNL     1      -1.350  -2.496  -0.171  1.00  0.00    -0.035 C 
HETATM   11  C11 UNL     1      -2.204  -3.031  -1.394  1.00  0.00     0.016 C 
HETATM   12  C12 UNL     1      -1.091  -3.754   0.645  1.00  0.00     0.010 C 
HETATM   13  C13 UNL     1       0.404  -3.643   0.436  1.00  0.00     0.007 C 
HETATM   14  C14 UNL     1       0.057  -2.531  -0.485  1.00  0.00     0.004 C 
HETATM   15  C15 UNL     1       0.962  -1.425  -0.708  1.00  0.00    -0.016 C 
HETATM   16  C16 UNL     1       2.224  -2.118  -1.351  1.00  0.00     0.018 C 
HETATM   17  C17 UNL     1       0.486  -0.634  -1.937  1.00  0.00     0.018 C 
HETATM   18  C18 UNL     1       1.610  -0.595   0.316  1.00  0.00     0.140 C 
HETATM   19  C28 UNL     1       0.768   0.040   1.402  1.00  0.00    -0.020 C 
HETATM   20  C29 UNL     1       1.519   1.358   1.686  1.00  0.00     0.017 C 
HETATM   21  C30 UNL     1       1.013  -0.658   2.745  1.00  0.00     0.017 C 
HETATM   22  C31 UNL     1      -0.578   0.424   1.111  1.00  0.00     0.021 C 
HETATM   23  C32 UNL     1      -1.853  -0.312   1.276  1.00  0.00    -0.031 C 
HETATM   24  C33 UNL     1      -2.100  -0.770   2.696  1.00  0.00     0.016 C 
HETATM   25  C34 UNL     1      -5.429   1.033   0.478  1.00  0.00    -0.029 C 
HETATM   26  C35 UNL     1      -6.349   0.402  -0.593  1.00  0.00     0.016 C 
HETATM   27  C36 UNL     1      -6.359   1.208   1.624  1.00  0.00     0.013 C 
HETATM   28  C37 UNL     1      -7.655   1.819   1.050  1.00  0.00     0.040 C 
HETATM   29  C38 UNL     1      -7.405   3.127   0.330  1.00  0.00     0.188 C 
HETATM   30  C39 UNL     1      -6.170   3.076  -0.503  1.00  0.00     0.160 C 
HETATM   31  O7  UNL     1      -6.201   3.549  -1.607  1.00  0.00    -0.295 OA
HETATM   32  C40 UNL     1      -5.006   2.433   0.128  1.00  0.00     0.070 C 
ENDROOT
BRANCH  18  33
HETATM   33  O1  UNL     1       2.799  -1.089   0.863  1.00  0.00    -0.354 OA
BRANCH  33  34
HETATM   34  C19 UNL     1       3.983  -0.543   0.546  1.00  0.00     0.261 C 
HETATM   35  C20 UNL     1       4.736   0.129   1.703  1.00  0.00     0.063 C 
HETATM   36  C21 UNL     1       6.086  -0.518   1.964  1.00  0.00     0.040 C 
HETATM   37  C22 UNL     1       6.968  -0.468   0.721  1.00  0.00     0.214 C 
HETATM   38  C23 UNL     1       5.989  -0.460  -0.448  1.00  0.00     0.178 C 
HETATM   39  O5  UNL     1       4.958  -1.346  -0.048  1.00  0.00    -0.352 OA
BRANCH  37  40
HETATM   40  N1  UNL     1       7.661  -1.751   0.648  1.00  0.00    -0.072 N 
ATOM     41  H13 UNL     1       8.176  -1.980   1.498  1.00  0.00     0.274 HD
ATOM     42  H12 UNL     1       7.029  -2.552   0.662  1.00  0.00     0.274 HD
ATOM     43  H11 UNL     1       8.251  -1.718  -0.183  1.00  0.00     0.274 HD
ENDBRANCH  37  40
BRANCH  38  44
HETATM   44  C24 UNL     1       6.581  -1.004  -1.701  1.00  0.00     0.201 C 
BRANCH  44  45
HETATM   45  O2  UNL     1       7.608  -0.260  -2.210  1.00  0.00    -0.388 OA
BRANCH  45  46
HETATM   46  C25 UNL     1       7.252   1.032  -2.530  1.00  0.00     0.178 C 
BRANCH  46  47
HETATM   47  C26 UNL     1       8.453   1.797  -3.106  1.00  0.00     0.139 C 
BRANCH  47  48
HETATM   48  C27 UNL     1       8.943   1.121  -4.337  1.00  0.00     0.174 C 
HETATM   49  O3  UNL     1       8.375   0.094  -4.737  1.00  0.00    -0.648 OA
HETATM   50  O4  UNL     1      10.029   1.685  -4.985  1.00  0.00    -0.648 OA
ENDBRANCH  47  48
ENDBRANCH  46  47
ENDBRANCH  45  46
ENDBRANCH  44  45
ENDBRANCH  38  44
ENDBRANCH  33  34
ENDBRANCH  18  33
BRANCH  29  51
HETATM   51  O6  UNL     1      -7.380   4.168   1.254  1.00  0.00    -0.388 OA
ATOM     52  H6  UNL     1      -7.223   4.989   0.802  1.00  0.00     0.210 HD
ENDBRANCH  29  51
TORSDOF 9
