REMARK  10 active torsions:
REMARK  status: ('A' for Active; 'I' for Inactive)
REMARK    1  A    between atoms: C2_2  and  C4_4 
REMARK    2  A    between atoms: C2_2  and  C5_7 
REMARK    3  A    between atoms: C4_4  and  O1_5 
REMARK    4  A    between atoms: C6_8  and  O2_9 
REMARK    5  A    between atoms: C24_28  and  O3_29 
REMARK    6  A    between atoms: O3_29  and  S1_30 
REMARK    7  A    between atoms: S1_30  and  N1_33 
REMARK    8  A    between atoms: N1_33  and  C25_35 
REMARK    9  A    between atoms: C25_35  and  C26_36 
REMARK   10  A    between atoms: C26_36  and  N2_37 
ROOT
HETATM    1  C5  UNL     1      -6.427   0.769   0.710  1.00  0.00     0.029 C 
HETATM    2  C6  UNL     1      -5.909   2.153   0.736  1.00  0.00     0.123 C 
HETATM    3  C7  UNL     1      -5.188   2.602  -0.495  1.00  0.00     0.033 C 
HETATM    4  C8  UNL     1      -4.788   1.562  -1.464  1.00  0.00     0.012 C 
HETATM    5  C9  UNL     1      -4.658   0.154  -1.006  1.00  0.00    -0.035 C 
HETATM    6  C10 UNL     1      -5.099  -0.650  -2.267  1.00  0.00     0.016 C 
HETATM    7  C11 UNL     1      -5.604  -0.275   0.060  1.00  0.00     0.001 C 
HETATM    8  C12 UNL     1      -4.840  -1.149   1.058  1.00  0.00     0.007 C 
HETATM    9  C13 UNL     1      -3.582  -0.524   1.549  1.00  0.00     0.011 C 
HETATM   10  C14 UNL     1      -2.589  -0.174   0.478  1.00  0.00    -0.032 C 
HETATM   11  C15 UNL     1      -2.135   1.229   0.688  1.00  0.00     0.016 C 
HETATM   12  C16 UNL     1      -3.259  -0.370  -0.839  1.00  0.00     0.003 C 
HETATM   13  C17 UNL     1      -2.382  -0.056  -2.003  1.00  0.00     0.006 C 
HETATM   14  C18 UNL     1      -1.111  -0.903  -1.938  1.00  0.00     0.006 C 
HETATM   15  C19 UNL     1      -0.475  -0.648  -0.604  1.00  0.00     0.003 C 
HETATM   16  C20 UNL     1       0.958  -1.091  -0.518  1.00  0.00    -0.035 C 
HETATM   17  C21 UNL     1       1.177  -2.512  -0.934  1.00  0.00     0.016 C 
HETATM   18  C22 UNL     1       1.790  -0.219  -1.455  1.00  0.00     0.012 C 
HETATM   19  C23 UNL     1       3.243  -0.568  -1.428  1.00  0.00     0.035 C 
HETATM   20  C24 UNL     1       3.708  -1.252  -0.168  1.00  0.00     0.152 C 
HETATM   21  C31 UNL     1       2.929  -0.881   1.049  1.00  0.00    -0.016 C 
HETATM   22  C32 UNL     1       3.530   0.423   1.569  1.00  0.00     0.018 C 
HETATM   23  C33 UNL     1       3.285  -1.927   2.103  1.00  0.00     0.018 C 
HETATM   24  C34 UNL     1       1.465  -0.756   0.851  1.00  0.00     0.004 C 
HETATM   25  C35 UNL     1       0.703  -1.566   1.849  1.00  0.00     0.007 C 
HETATM   26  C36 UNL     1      -0.712  -1.064   1.870  1.00  0.00     0.011 C 
HETATM   27  C37 UNL     1      -1.369  -1.101   0.496  1.00  0.00    -0.032 C 
HETATM   28  C38 UNL     1      -1.768  -2.560   0.393  1.00  0.00     0.016 C 
ENDROOT
BRANCH  20  29
HETATM   29  O3  UNL     1       5.019  -0.822   0.023  1.00  0.00    -0.253 OA
BRANCH  29  30
HETATM   30  S1  UNL     1       6.077  -1.601  -1.127  1.00  0.00     0.358 S 
HETATM   31  O4  UNL     1       6.431  -0.553  -2.159  1.00  0.00    -0.176 OA
HETATM   32  O5  UNL     1       5.408  -2.725  -1.781  1.00  0.00    -0.176 OA
BRANCH  30  33
HETATM   33  N1  UNL     1       7.487  -2.001  -0.186  1.00  0.00    -0.295 N 
ATOM     34  H1  UNL     1       7.561  -2.740   0.513  1.00  0.00     0.174 HD
BRANCH  33  35
HETATM   35  C25 UNL     1       8.552  -1.069  -0.591  1.00  0.00     0.164 C 
BRANCH  35  36
HETATM   36  C26 UNL     1       8.261   0.253   0.127  1.00  0.00     0.293 C 
BRANCH  36  37
HETATM   37  N2  UNL     1       9.067   1.258  -0.607  1.00  0.00     0.094 N 
HETATM   38  C27 UNL     1      10.437   1.181  -0.212  1.00  0.00     0.298 C 
HETATM   39  C28 UNL     1      10.614   1.733   1.200  1.00  0.00     0.198 C 
HETATM   40  O6  UNL     1       9.891   2.907   1.390  1.00  0.00    -0.388 OA
HETATM   41  C29 UNL     1       9.477   3.476   0.190  1.00  0.00     0.198 C 
HETATM   42  C30 UNL     1       8.490   2.576  -0.505  1.00  0.00     0.298 C 
ENDBRANCH  36  37
ENDBRANCH  35  36
ENDBRANCH  33  35
ENDBRANCH  30  33
ENDBRANCH  29  30
ENDBRANCH  20  29
BRANCH   1  43
HETATM   43  C2  UNL     1      -7.940   0.627   0.464  1.00  0.00    -0.020 C 
HETATM   44  C1  UNL     1      -8.679   1.313   1.622  1.00  0.00     0.017 C 
HETATM   45  C3  UNL     1      -8.375  -0.788   0.438  1.00  0.00     0.017 C 
BRANCH  43  46
HETATM   46  C4  UNL     1      -8.426   1.289  -0.783  1.00  0.00     0.173 C 
BRANCH  46  47
HETATM   47  O1  UNL     1      -8.503   0.403  -1.871  1.00  0.00    -0.400 OA
ATOM     48  H1  UNL     1      -8.812   0.824  -2.664  1.00  0.00     0.209 HD
ENDBRANCH  46  47
ENDBRANCH  43  46
ENDBRANCH   1  43
BRANCH   2  49
HETATM   49  O2  UNL     1      -6.959   3.036   1.002  1.00  0.00    -0.395 OA
ATOM     50  H2  UNL     1      -6.626   3.926   1.019  1.00  0.00     0.210 HD
ENDBRANCH   2  49
TORSDOF 10
