REMARK  8 active torsions:
REMARK  status: ('A' for Active; 'I' for Inactive)
REMARK    1  A    between atoms: C5_5  and  O1_6 
REMARK    2  A    between atoms: O1_6  and  C6_7 
REMARK    3  A    between atoms: C6_7  and  C7_8 
REMARK    4  A    between atoms: C7_8  and  C8_9 
REMARK    5  A    between atoms: C8_9  and  N1_10 
REMARK    6  A    between atoms: C14_19  and  O2_20 
REMARK    7  A    between atoms: C26_33  and  O3_34 
REMARK    8  A    between atoms: O3_34  and  C27_35 
ROOT
HETATM    1  C1  UNL     1      -4.893   3.393   1.366  1.00  0.00     0.015 C 
HETATM    2  C2  UNL     1      -4.193   2.599   2.409  1.00  0.00    -0.045 C 
HETATM    3  C3  UNL     1      -4.715   3.170   3.746  1.00  0.00     0.015 C 
HETATM    4  C4  UNL     1      -4.705   1.180   2.384  1.00  0.00     0.041 C 
HETATM    5  C5  UNL     1      -4.286   0.594   1.059  1.00  0.00     0.129 C 
HETATM    6  C13 UNL     1      -2.760   0.519   0.956  1.00  0.00     0.051 C 
HETATM    7  C14 UNL     1      -2.261   0.581  -0.442  1.00  0.00     0.126 C 
HETATM    8  C15 UNL     1      -0.877   0.999  -0.725  1.00  0.00     0.046 C 
HETATM    9  C16 UNL     1      -0.147   1.818   0.304  1.00  0.00    -0.011 C 
HETATM   10  C17 UNL     1      -0.499   3.260  -0.021  1.00  0.00     0.021 C 
HETATM   11  C18 UNL     1      -0.618   1.347   1.613  1.00  0.00    -0.070 C 
HETATM   12  C19 UNL     1       0.233   0.829   2.493  1.00  0.00    -0.022 C 
HETATM   13  C20 UNL     1       1.693   0.655   2.290  1.00  0.00     0.033 C 
HETATM   14  C21 UNL     1       1.902   0.527   0.792  1.00  0.00     0.007 C 
HETATM   15  C22 UNL     1       3.179  -0.051   0.353  1.00  0.00    -0.035 C 
HETATM   16  C23 UNL     1       2.918  -1.449  -0.255  1.00  0.00     0.016 C 
HETATM   17  C24 UNL     1       4.206  -0.298   1.446  1.00  0.00     0.012 C 
HETATM   18  C25 UNL     1       5.489   0.445   1.263  1.00  0.00     0.033 C 
HETATM   19  C26 UNL     1       6.115  -0.014  -0.057  1.00  0.00     0.130 C 
HETATM   20  C34 UNL     1       5.171   0.290  -1.203  1.00  0.00    -0.017 C 
HETATM   21  C35 UNL     1       5.117  -0.788  -2.231  1.00  0.00     0.018 C 
HETATM   22  C36 UNL     1       5.790   1.511  -1.927  1.00  0.00     0.018 C 
HETATM   23  C37 UNL     1       3.875   0.775  -0.686  1.00  0.00     0.004 C 
HETATM   24  C38 UNL     1       2.900   1.175  -1.734  1.00  0.00     0.007 C 
HETATM   25  C39 UNL     1       1.808   2.074  -1.199  1.00  0.00     0.011 C 
HETATM   26  C40 UNL     1       1.373   1.786   0.201  1.00  0.00    -0.028 C 
HETATM   27  C41 UNL     1       1.818   3.002   1.052  1.00  0.00     0.016 C 
HETATM   28  C42 UNL     1      -2.063   1.346   1.982  1.00  0.00     0.024 C 
HETATM   29  C43 UNL     1      -2.685   2.629   2.355  1.00  0.00     0.018 C 
ENDROOT
BRANCH   5  30
HETATM   30  O1  UNL     1      -4.865  -0.627   0.815  1.00  0.00    -0.385 OA
BRANCH  30  31
HETATM   31  C6  UNL     1      -5.681  -0.757  -0.259  1.00  0.00     0.170 C 
BRANCH  31  32
HETATM   32  C7  UNL     1      -6.245  -2.159  -0.412  1.00  0.00     0.056 C 
BRANCH  32  33
HETATM   33  C8  UNL     1      -7.135  -2.246  -1.610  1.00  0.00     0.276 C 
BRANCH  33  34
HETATM   34  N1  UNL     1      -8.269  -1.380  -1.576  1.00  0.00     0.114 N 
HETATM   35  C9  UNL     1      -9.023  -1.614  -2.809  1.00  0.00     0.276 C 
HETATM   36  C10 UNL     1      -9.783  -2.919  -2.760  1.00  0.00     0.058 C 
HETATM   37  C11 UNL     1     -10.633  -2.940  -1.486  1.00  0.00     0.236 C 
HETATM   38  N2  UNL     1      -9.679  -2.861  -0.382  1.00  0.00    -0.049 N 
HETATM   39  C12 UNL     1      -9.082  -1.560  -0.405  1.00  0.00     0.502 C 
ATOM     40  H22 UNL     1     -10.100  -3.086   0.520  1.00  0.00     0.279 HD
ATOM     41  H21 UNL     1      -8.989  -3.612  -0.402  1.00  0.00     0.279 HD
ENDBRANCH  33  34
ENDBRANCH  32  33
ENDBRANCH  31  32
ENDBRANCH  30  31
ENDBRANCH   5  30
BRANCH   7  42
HETATM   42  O2  UNL     1      -3.124   1.491  -1.129  1.00  0.00    -0.395 OA
ATOM     43  H2  UNL     1      -2.805   1.531  -2.023  1.00  0.00     0.210 HD
ENDBRANCH   7  42
BRANCH  19  44
HETATM   44  O3  UNL     1       6.323  -1.348   0.019  1.00  0.00    -0.380 OA
BRANCH  44  45
HETATM   45  C27 UNL     1       7.602  -1.825   0.011  1.00  0.00     0.123 C 
HETATM   46  C28 UNL     1       8.010  -2.539   1.272  1.00  0.00     0.037 C 
HETATM   47  C29 UNL     1       9.328  -3.170   0.836  1.00  0.00     0.006 A 
HETATM   48  C30 UNL     1      10.390  -2.137   0.652  1.00  0.00     0.084 A 
HETATM   49  C32 UNL     1       9.255  -3.362  -0.635  1.00  0.00     0.062 A 
HETATM   50  C31 UNL     1      10.402  -2.429  -0.803  1.00  0.00     0.132 A 
HETATM   51  O4  UNL     1      11.112  -2.018  -1.714  1.00  0.00    -0.298 OA
HETATM   52  C33 UNL     1       7.909  -2.822  -1.041  1.00  0.00     0.044 C 
ENDBRANCH  44  45
ENDBRANCH  19  44
TORSDOF 8
