REMARK  8 active torsions:
REMARK  status: ('A' for Active; 'I' for Inactive)
REMARK    1  A    between atoms: C2_2  and  C3_3 
REMARK    2  A    between atoms: C3_3  and  N1_4 
REMARK       I    between atoms: N1_4  and  C4_6 
REMARK    3  A    between atoms: C4_6  and  C5_8 
REMARK    4  A    between atoms: C8_11  and  C9_12 
REMARK    5  A    between atoms: C25_29  and  O3_30 
REMARK    6  A    between atoms: C26_32  and  C27_33 
REMARK    7  A    between atoms: C27_33  and  O4_34 
REMARK    8  A    between atoms: O4_34  and  S1_35 
ROOT
HETATM    1  C5  UNL     1       4.666   0.574  -0.692  1.00  0.00     0.048 C 
HETATM    2  C6  UNL     1       4.944  -0.027  -2.087  1.00  0.00     0.020 C 
HETATM    3  C7  UNL     1       4.749  -1.503  -1.810  1.00  0.00     0.011 C 
HETATM    4  C8  UNL     1       4.034  -1.599  -0.439  1.00  0.00     0.021 C 
HETATM    5  C12 UNL     1       3.404  -0.264  -0.438  1.00  0.00     0.041 C 
HETATM    6  C13 UNL     1       2.685   0.216   0.755  1.00  0.00     0.136 C 
HETATM    7  O2  UNL     1       1.801  -0.691   1.328  1.00  0.00    -0.384 OA
HETATM    8  C14 UNL     1       0.529  -0.660   0.830  1.00  0.00     0.178 C 
HETATM    9  C15 UNL     1      -0.118   0.652   1.258  1.00  0.00    -0.007 C 
HETATM   10  C16 UNL     1       0.187   0.806   2.732  1.00  0.00     0.019 C 
HETATM   11  C17 UNL     1      -1.574   0.507   1.104  1.00  0.00    -0.030 C 
HETATM   12  C18 UNL     1      -2.088  -0.524   2.062  1.00  0.00     0.016 C 
HETATM   13  C19 UNL     1      -2.397   1.725   1.512  1.00  0.00     0.011 C 
HETATM   14  C20 UNL     1      -3.887   1.354   1.439  1.00  0.00     0.011 C 
HETATM   15  C21 UNL     1      -4.291   1.106   0.021  1.00  0.00    -0.034 C 
HETATM   16  C22 UNL     1      -4.395   2.441  -0.685  1.00  0.00     0.016 C 
HETATM   17  C23 UNL     1      -5.682   0.514  -0.062  1.00  0.00     0.019 C 
HETATM   18  C24 UNL     1      -5.992  -0.511   0.980  1.00  0.00     0.013 C 
HETATM   19  C25 UNL     1      -6.058   0.088  -1.447  1.00  0.00     0.128 C 
HETATM   20  C26 UNL     1      -5.030  -0.624  -2.232  1.00  0.00     0.040 C 
HETATM   21  C28 UNL     1      -3.629  -0.046  -2.096  1.00  0.00     0.015 C 
HETATM   22  C29 UNL     1      -3.370   0.125  -0.634  1.00  0.00    -0.001 C 
HETATM   23  C30 UNL     1      -1.921   0.268  -0.330  1.00  0.00    -0.001 C 
HETATM   24  C31 UNL     1      -1.320   1.340  -1.181  1.00  0.00     0.006 C 
HETATM   25  C32 UNL     1       0.171   1.489  -1.032  1.00  0.00     0.011 C 
HETATM   26  C33 UNL     1       0.596   1.660   0.400  1.00  0.00    -0.024 C 
HETATM   27  C34 UNL     1       0.272   3.117   0.738  1.00  0.00     0.017 C 
HETATM   28  C35 UNL     1       2.100   1.569   0.539  1.00  0.00    -0.009 C 
HETATM   29  C36 UNL     1       2.592   2.485   1.667  1.00  0.00     0.018 C 
HETATM   30  C37 UNL     1       2.749   2.154  -0.715  1.00  0.00     0.014 C 
HETATM   31  C38 UNL     1       4.247   1.980  -0.719  1.00  0.00     0.020 C 
ENDROOT
BRANCH   1  32
HETATM   32  C4  UNL     1       5.818   0.240   0.125  1.00  0.00     0.227 C 
HETATM   33  N1  UNL     1       6.139   0.715   1.420  1.00  0.00    -0.357 N 
ATOM     34  H1  UNL     1       5.501   1.381   1.855  1.00  0.00     0.162 HD
HETATM   35  O1  UNL     1       6.708  -0.588  -0.308  1.00  0.00    -0.273 OA
BRANCH  33  36
HETATM   36  C3  UNL     1       7.312   0.317   2.165  1.00  0.00     0.149 C 
BRANCH  36  37
HETATM   37  C2  UNL     1       7.336  -1.159   2.419  1.00  0.00    -0.018 C 
HETATM   38  C1  UNL     1       8.304  -1.913   1.986  1.00  0.00     0.008 C 
ENDBRANCH  36  37
ENDBRANCH  33  36
ENDBRANCH   1  32
BRANCH   4  39
HETATM   39  C9  UNL     1       3.109  -2.759  -0.545  1.00  0.00    -0.088 C 
HETATM   40  C10 UNL     1       3.024  -3.680   0.410  1.00  0.00     0.014 C 
HETATM   41  C11 UNL     1       2.246  -2.948  -1.757  1.00  0.00     0.043 C 
ENDBRANCH   4  39
BRANCH  20  42
HETATM   42  C27 UNL     1      -5.008  -2.125  -2.023  1.00  0.00     0.200 C 
BRANCH  42  43
HETATM   43  O4  UNL     1      -6.212  -2.687  -2.374  1.00  0.00    -0.257 OA
BRANCH  43  44
HETATM   44  S1  UNL     1      -6.144  -4.347  -2.126  1.00  0.00     0.251 S 
HETATM   45  O5  UNL     1      -4.754  -4.823  -2.501  1.00  0.00    -0.572 OA
HETATM   46  O6  UNL     1      -7.189  -5.066  -2.926  1.00  0.00    -0.572 OA
HETATM   47  O7  UNL     1      -6.370  -4.748  -0.510  1.00  0.00    -0.572 OA
ENDBRANCH  43  44
ENDBRANCH  42  43
ENDBRANCH  20  42
BRANCH  19  48
HETATM   48  O3  UNL     1      -7.175  -0.760  -1.324  1.00  0.00    -0.395 OA
ATOM     49  H3  UNL     1      -7.414  -1.030  -2.203  1.00  0.00     0.210 HD
ENDBRANCH  19  48
TORSDOF 8
