REMARK  9 active torsions:
REMARK  status: ('A' for Active; 'I' for Inactive)
REMARK    1  A    between atoms: C2_2  and  C3_3 
REMARK    2  A    between atoms: C2_2  and  N1_41 
REMARK    3  A    between atoms: C3_3  and  O1_4 
REMARK    4  A    between atoms: O1_4  and  C4_5 
REMARK    5  A    between atoms: C36_38  and  O3_39 
REMARK    6  A    between atoms: N1_41  and  C37_43 
REMARK    7  A    between atoms: C37_43  and  C38_44 
REMARK    8  A    between atoms: C38_44  and  S1_45 
REMARK    9  A    between atoms: S1_45  and  N2_46 
ROOT
HETATM    1  C4  UNL     1       3.632   0.397  -0.384  1.00  0.00     0.221 C 
HETATM    2  C5  UNL     1       3.663   1.234  -1.577  1.00  0.00     0.166 C 
HETATM    3  O2  UNL     1       4.484   2.083  -1.868  1.00  0.00    -0.294 OA
HETATM    4  C6  UNL     1       2.562   1.062  -2.602  1.00  0.00     0.020 C 
HETATM    5  C7  UNL     1       3.204   0.192  -3.686  1.00  0.00     0.023 C 
HETATM    6  C8  UNL     1       2.170   2.337  -3.234  1.00  0.00     0.023 C 
HETATM    7  C9  UNL     1       1.513   0.277  -1.935  1.00  0.00     0.012 C 
HETATM    8  C10 UNL     1       0.202   0.151  -2.694  1.00  0.00     0.007 C 
HETATM    9  C11 UNL     1      -0.423  -1.141  -2.143  1.00  0.00     0.011 C 
HETATM   10  C12 UNL     1      -0.791  -1.057  -0.688  1.00  0.00    -0.032 C 
HETATM   11  C13 UNL     1      -0.169  -2.329  -0.150  1.00  0.00     0.016 C 
HETATM   12  C14 UNL     1      -0.183   0.163  -0.117  1.00  0.00     0.005 C 
HETATM   13  C15 UNL     1      -0.285  -0.093   1.378  1.00  0.00     0.007 C 
HETATM   14  C16 UNL     1      -1.679  -0.450   1.806  1.00  0.00     0.007 C 
HETATM   15  C17 UNL     1      -2.728  -0.306   0.778  1.00  0.00     0.004 C 
HETATM   16  C18 UNL     1      -2.321  -1.018  -0.466  1.00  0.00    -0.032 C 
HETATM   17  C19 UNL     1      -2.640  -2.472  -0.568  1.00  0.00     0.016 C 
HETATM   18  C20 UNL     1      -2.963  -0.275  -1.617  1.00  0.00     0.010 C 
HETATM   19  C21 UNL     1      -4.279  -0.838  -2.043  1.00  0.00     0.001 C 
HETATM   20  C22 UNL     1      -5.340  -0.820  -1.016  1.00  0.00     0.006 C 
HETATM   21  C23 UNL     1      -5.101   0.043   0.184  1.00  0.00     0.003 C 
HETATM   22  C24 UNL     1      -6.466   0.535   0.541  1.00  0.00    -0.043 C 
HETATM   23  C25 UNL     1      -7.496  -0.556   0.664  1.00  0.00     0.015 C 
HETATM   24  C26 UNL     1      -6.947   1.414  -0.624  1.00  0.00     0.015 C 
HETATM   25  C27 UNL     1      -6.544   1.405   1.740  1.00  0.00     0.010 C 
HETATM   26  C28 UNL     1      -5.907   0.548   2.740  1.00  0.00     0.010 C 
HETATM   27  C29 UNL     1      -4.388   0.374   2.504  1.00  0.00    -0.040 C 
HETATM   28  C30 UNL     1      -4.032  -0.315   3.787  1.00  0.00     0.015 C 
HETATM   29  C31 UNL     1      -3.944   1.789   2.389  1.00  0.00     0.015 C 
HETATM   30  C32 UNL     1      -4.155  -0.465   1.224  1.00  0.00    -0.028 C 
HETATM   31  C33 UNL     1      -4.493  -1.864   1.711  1.00  0.00     0.016 C 
HETATM   32  C34 UNL     1       1.115   0.698  -0.541  1.00  0.00    -0.006 C 
HETATM   33  C35 UNL     1       0.995   2.243  -0.474  1.00  0.00     0.019 C 
HETATM   34  C36 UNL     1       2.303   0.421   0.352  1.00  0.00     0.163 C 
ENDROOT
BRANCH   1  35
HETATM   35  O1  UNL     1       4.023  -0.898  -0.687  1.00  0.00    -0.374 OA
BRANCH  35  36
HETATM   36  C3  UNL     1       5.180  -1.330  -0.119  1.00  0.00     0.193 C 
BRANCH  36  37
HETATM   37  C2  UNL     1       6.446  -0.620  -0.521  1.00  0.00     0.100 C 
HETATM   38  C1  UNL     1       6.694  -0.737  -2.012  1.00  0.00     0.034 C 
BRANCH  37  39
HETATM   39  N1  UNL     1       7.511  -1.231   0.239  1.00  0.00    -0.395 N 
ATOM     40  H1  UNL     1       7.345  -2.026   0.857  1.00  0.00     0.159 HD
BRANCH  39  41
HETATM   41  C37 UNL     1       8.788  -0.670   0.080  1.00  0.00     0.072 C 
BRANCH  41  42
HETATM   42  C38 UNL     1       9.060   0.689   0.598  1.00  0.00     0.206 C 
BRANCH  42  43
HETATM   43  S1  UNL     1       8.905   0.910   2.339  1.00  0.00     0.229 S 
HETATM   44  O4  UNL     1       9.865  -0.024   3.077  1.00  0.00    -0.206 OA
HETATM   45  O5  UNL     1       9.337   2.296   2.755  1.00  0.00    -0.206 OA
BRANCH  43  46
HETATM   46  N2  UNL     1       7.345   0.597   2.945  1.00  0.00    -0.328 N 
ATOM     47  H22 UNL     1       6.577   0.307   2.339  1.00  0.00     0.168 HD
ATOM     48  H21 UNL     1       7.255   0.725   3.953  1.00  0.00     0.168 HD
ENDBRANCH  43  46
ENDBRANCH  42  43
ENDBRANCH  41  42
ENDBRANCH  39  41
ENDBRANCH  37  39
ENDBRANCH  36  37
ENDBRANCH  35  36
ENDBRANCH   1  35
BRANCH  34  49
HETATM   49  O3  UNL     1       2.459   1.429   1.337  1.00  0.00    -0.392 OA
ATOM     50  H3  UNL     1       1.628   1.444   1.797  1.00  0.00     0.210 HD
ENDBRANCH  34  49
TORSDOF 9
