REMARK  11 active torsions:
REMARK  status: ('A' for Active; 'I' for Inactive)
REMARK    1  A    between atoms: C2_2  and  N1_3 
REMARK    2  A    between atoms: N1_3  and  C3_4 
REMARK    3  A    between atoms: N1_3  and  C5_6 
REMARK    4  A    between atoms: C5_6  and  C6_7 
REMARK    5  A    between atoms: C6_7  and  O2_9 
REMARK    6  A    between atoms: O2_9  and  C7_10 
REMARK    7  A    between atoms: C21_24  and  O3_25 
REMARK    8  A    between atoms: C22_27  and  O4_28 
REMARK    9  A    between atoms: C23_30  and  O5_31 
REMARK   10  A    between atoms: C33_41  and  C34_42 
REMARK   11  A    between atoms: C34_42  and  O6_43 
ROOT
HETATM    1  C7  UNL     1       3.966  -0.010  -1.473  1.00  0.00     0.140 C 
HETATM    2  C8  UNL     1       3.488  -1.187  -0.662  1.00  0.00     0.034 C 
HETATM    3  C9  UNL     1       3.368  -0.803   0.774  1.00  0.00     0.013 C 
HETATM    4  C10 UNL     1       2.434   0.327   1.115  1.00  0.00    -0.032 C 
HETATM    5  C11 UNL     1       3.177   1.065   2.273  1.00  0.00     0.016 C 
HETATM    6  C12 UNL     1       2.374   1.330   0.013  1.00  0.00     0.005 C 
HETATM    7  C13 UNL     1       0.931   1.652  -0.425  1.00  0.00     0.007 C 
HETATM    8  C14 UNL     1       0.266   2.020   0.870  1.00  0.00     0.006 C 
HETATM    9  C15 UNL     1      -0.029   0.752   1.677  1.00  0.00    -0.001 C 
HETATM   10  C16 UNL     1      -1.185   0.145   1.022  1.00  0.00     0.002 C 
HETATM   11  C17 UNL     1      -2.336   0.923   0.533  1.00  0.00     0.016 C 
HETATM   12  C18 UNL     1      -3.064  -0.156  -0.251  1.00  0.00    -0.029 C 
HETATM   13  C19 UNL     1      -2.334  -0.274  -1.595  1.00  0.00     0.016 C 
HETATM   14  C20 UNL     1      -4.435   0.278  -0.579  1.00  0.00     0.031 C 
HETATM   15  C21 UNL     1      -5.063   1.402   0.158  1.00  0.00     0.154 C 
HETATM   16  C22 UNL     1      -6.237   1.918  -0.727  1.00  0.00     0.176 C 
HETATM   17  C23 UNL     1      -7.248   0.769  -0.599  1.00  0.00     0.160 C 
HETATM   18  C25 UNL     1      -6.751  -0.478  -1.232  1.00  0.00    -0.015 C 
HETATM   19  C26 UNL     1      -6.897  -0.283  -2.751  1.00  0.00     0.018 C 
HETATM   20  C27 UNL     1      -7.733  -1.595  -0.888  1.00  0.00     0.018 C 
HETATM   21  C28 UNL     1      -5.363  -0.892  -0.854  1.00  0.00     0.003 C 
HETATM   22  C29 UNL     1      -5.274  -1.969   0.161  1.00  0.00     0.007 C 
HETATM   23  C30 UNL     1      -4.180  -1.869   1.175  1.00  0.00     0.011 C 
HETATM   24  C31 UNL     1      -2.865  -1.386   0.597  1.00  0.00    -0.026 C 
HETATM   25  C32 UNL     1      -2.471  -2.604  -0.228  1.00  0.00     0.017 C 
HETATM   26  C33 UNL     1      -1.818  -1.071   1.625  1.00  0.00    -0.007 C 
HETATM   27  C35 UNL     1      -0.633  -2.004   1.686  1.00  0.00     0.013 C 
HETATM   28  C36 UNL     1       0.669  -1.502   1.169  1.00  0.00     0.011 C 
HETATM   29  C37 UNL     1       1.159  -0.180   1.699  1.00  0.00    -0.032 C 
HETATM   30  C38 UNL     1       1.520  -0.486   3.170  1.00  0.00     0.016 C 
HETATM   31  C39 UNL     1       3.336   1.281  -1.094  1.00  0.00    -0.017 C 
HETATM   32  C40 UNL     1       2.627   1.828  -2.351  1.00  0.00     0.018 C 
HETATM   33  C41 UNL     1       4.495   2.295  -0.931  1.00  0.00     0.018 C 
ENDROOT
BRANCH   1  34
HETATM   34  O2  UNL     1       5.381   0.028  -1.304  1.00  0.00    -0.314 OA
BRANCH  34  35
HETATM   35  C6  UNL     1       6.299  -0.181  -2.295  1.00  0.00     0.287 C 
HETATM   36  O1  UNL     1       5.855  -0.423  -3.448  1.00  0.00    -0.263 OA
BRANCH  35  37
HETATM   37  C5  UNL     1       7.766  -0.145  -2.123  1.00  0.00     0.382 C 
BRANCH  37  38
HETATM   38  N1  UNL     1       8.149  -0.001  -0.725  1.00  0.00     0.097 N 
BRANCH  38  39
HETATM   39  C2  UNL     1       9.621   0.051  -0.731  1.00  0.00     0.268 C 
HETATM   40  C1  UNL     1      10.138   1.297  -1.399  1.00  0.00     0.037 C 
ENDBRANCH  38  39
BRANCH  38  41
HETATM   41  C3  UNL     1       7.856  -1.256  -0.005  1.00  0.00     0.268 C 
HETATM   42  C4  UNL     1       8.257  -1.111   1.438  1.00  0.00     0.037 C 
ENDBRANCH  38  41
ENDBRANCH  37  38
ENDBRANCH  35  37
ENDBRANCH  34  35
ENDBRANCH   1  34
BRANCH  26  43
HETATM   43  C34 UNL     1      -2.296  -0.893   3.024  1.00  0.00     0.174 C 
BRANCH  43  44
HETATM   44  O6  UNL     1      -3.216   0.089   3.263  1.00  0.00    -0.400 OA
ATOM     45  H6  UNL     1      -3.521   0.203   4.156  1.00  0.00     0.209 HD
ENDBRANCH  43  44
ENDBRANCH  26  43
BRANCH  15  46
HETATM   46  O3  UNL     1      -5.716   1.157   1.324  1.00  0.00    -0.392 OA
ATOM     47  H3  UNL     1      -6.118   1.877   1.796  1.00  0.00     0.210 HD
ENDBRANCH  15  46
BRANCH  16  48
HETATM   48  O4  UNL     1      -5.845   2.095  -2.031  1.00  0.00    -0.390 OA
ATOM     49  H4  UNL     1      -6.561   2.410  -2.571  1.00  0.00     0.210 HD
ENDBRANCH  16  48
BRANCH  17  50
HETATM   50  O5  UNL     1      -8.413   1.152  -1.255  1.00  0.00    -0.387 OA
HETATM   51  C24 UNL     1      -9.497   1.283  -0.412  1.00  0.00     0.202 C 
ENDBRANCH  17  50
TORSDOF 11
