REMARK  11 active torsions:
REMARK  status: ('A' for Active; 'I' for Inactive)
REMARK    1  A    between atoms: C2_2  and  C3_3 
REMARK    2  A    between atoms: C8_10  and  N2_11 
REMARK    3  A    between atoms: N2_11  and  C9_13 
REMARK    4  A    between atoms: C9_13  and  C10_14 
REMARK    5  A    between atoms: C10_14  and  N3_15 
REMARK    6  A    between atoms: N3_15  and  C11_17 
REMARK    7  A    between atoms: C11_17  and  C12_18 
REMARK    8  A    between atoms: C12_18  and  N4_19 
REMARK       I    between atoms: N4_19  and  C13_21 
REMARK    9  A    between atoms: C13_21  and  C14_23 
REMARK   10  A    between atoms: C14_23  and  N5_24 
REMARK   11  A    between atoms: N5_24  and  C17_27 
ROOT
HETATM    1  C9  UNL     1       1.842   0.251  -0.806  1.00  0.00     0.139 C 
ENDROOT
BRANCH   1   2
HETATM    2  N2  UNL     1       3.035  -0.205  -0.323  1.00  0.00    -0.387 N 
ATOM      3  H2  UNL     1       2.987  -1.222  -0.260  1.00  0.00     0.159 HD
BRANCH   2   4
HETATM    4  C8  UNL     1       4.162   0.159   0.070  1.00  0.00     0.055 A 
HETATM    5  C6  UNL     1       4.557   1.469   0.113  1.00  0.00    -0.012 A 
HETATM    6  C4  UNL     1       5.855   1.772   0.556  1.00  0.00     0.013 A 
HETATM    7  C7  UNL     1       3.683   2.589  -0.285  1.00  0.00     0.052 C 
HETATM    8  N1  UNL     1       6.727   0.829   0.940  1.00  0.00    -0.362 N 
HETATM    9  C5  UNL     1       6.253   3.203   0.586  1.00  0.00     0.068 C 
HETATM   10  C3  UNL     1       6.375  -0.467   0.911  1.00  0.00     0.029 A 
ATOM     11  H1  UNL     1       7.660   1.096   1.255  1.00  0.00     0.165 HD
HETATM   12  C19 UNL     1       5.121  -0.800   0.486  1.00  0.00     0.060 A 
HETATM   13 BR1  UNL     1       4.655  -2.629   0.440  1.00  0.00    -0.047 Br
BRANCH  10  14
HETATM   14  C2  UNL     1       7.372  -1.508   1.340  1.00  0.00     0.054 C 
HETATM   15  C1  UNL     1       7.945  -2.218   0.134  1.00  0.00     0.011 C 
ENDBRANCH  10  14
ENDBRANCH   2   4
ENDBRANCH   1   2
BRANCH   1  16
HETATM   16  C10 UNL     1       0.976  -0.917  -1.309  1.00  0.00     0.133 C 
BRANCH  16  17
HETATM   17  N3  UNL     1       0.625  -1.822  -0.276  1.00  0.00    -0.418 N 
ATOM     18  H3  UNL     1       1.015  -2.763  -0.215  1.00  0.00     0.153 HD
BRANCH  17  19
HETATM   19  C11 UNL     1      -0.336  -1.307   0.694  1.00  0.00     0.133 C 
BRANCH  19  20
HETATM   20  C12 UNL     1      -1.647  -1.180  -0.004  1.00  0.00     0.141 C 
BRANCH  20  21
HETATM   21  N4  UNL     1      -2.730  -0.681   0.793  1.00  0.00    -0.358 N 
HETATM   22  C13 UNL     1      -4.012  -0.533   0.212  1.00  0.00     0.243 C 
HETATM   23  O1  UNL     1      -4.135  -0.864  -1.014  1.00  0.00    -0.272 OA
ATOM     24  H4  UNL     1      -2.577  -0.435   1.771  1.00  0.00     0.162 HD
BRANCH  22  25
HETATM   25  C14 UNL     1      -5.174  -0.026   0.944  1.00  0.00     0.338 C 
BRANCH  25  26
HETATM   26  N5  UNL     1      -6.397   0.059   0.190  1.00  0.00    -0.067 N 
HETATM   27  C15 UNL     1      -6.655  -1.092  -0.624  1.00  0.00     0.272 C 
HETATM   28  C16 UNL     1      -6.296   1.225  -0.684  1.00  0.00     0.272 C 
BRANCH  26  29
HETATM   29  C17 UNL     1      -7.498   0.272   1.117  1.00  0.00     0.232 C 
HETATM   30  C18 UNL     1      -8.844   0.225   0.478  1.00  0.00     0.035 C 
ENDBRANCH  26  29
ENDBRANCH  25  26
ENDBRANCH  22  25
ENDBRANCH  20  21
ENDBRANCH  19  20
ENDBRANCH  17  19
ENDBRANCH  16  17
ENDBRANCH   1  16
TORSDOF 11
