REMARK  10 active torsions:
REMARK  status: ('A' for Active; 'I' for Inactive)
REMARK    1  A    between atoms: C2_2  and  N1_3 
REMARK    2  A    between atoms: C2_2  and  C8_14 
REMARK    3  A    between atoms: N1_3  and  C3_5 
REMARK    4  A    between atoms: C3_5  and  C4_6 
REMARK    5  A    between atoms: C4_6  and  C5_7 
REMARK    6  A    between atoms: C5_7  and  N2_8 
REMARK       I    between atoms: N2_8  and  C6_10 
REMARK    7  A    between atoms: C6_10  and  C7_12 
REMARK       I    between atoms: C8_14  and  N3_16 
REMARK    8  A    between atoms: N3_16  and  C9_18 
REMARK    9  A    between atoms: C9_18  and  C10_19 
REMARK   10  A    between atoms: C11_20  and  C12_21 
ROOT
HETATM    1  C1  UNL     1       1.007  -1.467   0.468  1.00  0.00     0.042 C 
HETATM    2  C2  UNL     1       1.018  -0.031   0.064  1.00  0.00     0.169 C 
ENDROOT
BRANCH   2   3
HETATM    3  N1  UNL     1       2.156   0.493  -0.531  1.00  0.00    -0.390 N 
ATOM      4  H1  UNL     1       2.078   0.829  -1.491  1.00  0.00     0.159 HD
BRANCH   3   5
HETATM    5  C3  UNL     1       3.393   0.591   0.090  1.00  0.00     0.058 C 
BRANCH   5   6
HETATM    6  C4  UNL     1       4.106  -0.685   0.359  1.00  0.00     0.064 C 
BRANCH   6   7
HETATM    7  C5  UNL     1       5.453  -0.467   1.024  1.00  0.00     0.128 C 
BRANCH   7   8
HETATM    8  N2  UNL     1       6.328   0.344   0.224  1.00  0.00    -0.355 N 
HETATM    9  C6  UNL     1       7.625   0.630   0.718  1.00  0.00     0.279 C 
HETATM   10  O1  UNL     1       8.010   0.185   1.832  1.00  0.00    -0.265 OA
ATOM     11  H2  UNL     1       6.023   0.706  -0.679  1.00  0.00     0.162 HD
BRANCH   9  12
HETATM   12  C7  UNL     1       8.545   1.450  -0.054  1.00  0.00     0.332 C 
HETATM   13  O2  UNL     1       8.192   1.912  -1.156  1.00  0.00    -0.297 OA
ENDBRANCH   9  12
ENDBRANCH   7   8
ENDBRANCH   6   7
ENDBRANCH   5   6
ENDBRANCH   3   5
ENDBRANCH   2   3
BRANCH   2  14
HETATM   14  C8  UNL     1      -0.120   0.137  -0.935  1.00  0.00     0.239 C 
HETATM   15  O3  UNL     1       0.088   0.596  -2.081  1.00  0.00    -0.271 OA
HETATM   16  N3  UNL     1      -1.434  -0.226  -0.572  1.00  0.00    -0.359 N 
ATOM     17  H3  UNL     1      -1.612  -0.596   0.362  1.00  0.00     0.162 HD
BRANCH  16  18
HETATM   18  C9  UNL     1      -2.526  -0.084  -1.495  1.00  0.00     0.128 C 
BRANCH  18  19
HETATM   19  C10 UNL     1      -3.848  -0.512  -0.863  1.00  0.00     0.020 A 
HETATM   20  C11 UNL     1      -4.268   0.234   0.331  1.00  0.00     0.023 A 
HETATM   21  C14 UNL     1      -5.016   0.372  -0.998  1.00  0.00    -0.035 A 
HETATM   22  C15 UNL     1      -6.372  -0.273  -1.131  1.00  0.00     0.016 C 
HETATM   23  C16 UNL     1      -4.923   1.737  -1.603  1.00  0.00     0.016 C 
BRANCH  20  24
HETATM   24  C12 UNL     1      -5.110  -0.309   1.403  1.00  0.00    -0.014 C 
HETATM   25  C13 UNL     1      -4.887  -1.418   2.071  1.00  0.00     0.052 C 
HETATM   26 BR1  UNL     1      -6.110  -1.960   3.444  1.00  0.00    -0.064 Br
ENDBRANCH  20  24
ENDBRANCH  18  19
ENDBRANCH  16  18
ENDBRANCH   2  14
TORSDOF 10
