REMARK  10 active torsions:
REMARK  status: ('A' for Active; 'I' for Inactive)
REMARK    1  A    between atoms: C2_2  and  C3_3 
REMARK    2  A    between atoms: C3_3  and  N1_4 
REMARK    3  A    between atoms: N1_4  and  C4_5 
REMARK    4  A    between atoms: N1_4  and  C6_8 
REMARK    5  A    between atoms: C4_5  and  C5_6 
REMARK    6  A    between atoms: C6_8  and  C7_9 
REMARK    7  A    between atoms: C7_9  and  N2_10 
REMARK       I    between atoms: N2_10  and  C8_12 
REMARK    8  A    between atoms: C8_12  and  C9_14 
REMARK    9  A    between atoms: C9_14  and  N3_15 
REMARK       I    between atoms: N3_15  and  C10_17 
REMARK   10  A    between atoms: C10_17  and  C11_19 
ROOT
HETATM    1  N2  UNL     1       1.304   0.113   1.492  1.00  0.00    -0.358 N 
ATOM      2  H2  UNL     1       1.633  -0.273   2.377  1.00  0.00     0.162 HD
HETATM    3  C8  UNL     1      -0.074   0.355   1.286  1.00  0.00     0.235 C 
HETATM    4  O1  UNL     1      -0.450   0.836   0.191  1.00  0.00    -0.272 OA
ENDROOT
BRANCH   3   5
HETATM    5  C9  UNL     1      -0.997   0.020   2.390  1.00  0.00     0.225 C 
BRANCH   5   6
HETATM    6  N3  UNL     1      -2.377   0.277   2.129  1.00  0.00    -0.352 N 
HETATM    7  C10 UNL     1      -3.112  -0.322   1.075  1.00  0.00     0.223 C 
HETATM    8  O2  UNL     1      -2.526  -1.126   0.324  1.00  0.00    -0.273 OA
ATOM      9  H3  UNL     1      -2.865   0.933   2.739  1.00  0.00     0.162 HD
BRANCH   7  10
HETATM   10  C11 UNL     1      -4.537  -0.023   0.844  1.00  0.00     0.095 A 
HETATM   11  C12 UNL     1      -4.971   0.379  -0.550  1.00  0.00    -0.027 A 
HETATM   12  C13 UNL     1      -3.885   0.376  -1.586  1.00  0.00     0.016 C 
HETATM   13  C14 UNL     1      -5.940   1.531  -0.703  1.00  0.00     0.016 C 
HETATM   14  C15 UNL     1      -5.446  -0.889   0.096  1.00  0.00    -0.027 A 
HETATM   15  C16 UNL     1      -5.072  -2.182  -0.541  1.00  0.00     0.016 C 
HETATM   16  C17 UNL     1      -6.906  -0.819   0.582  1.00  0.00     0.016 C 
ENDBRANCH   7  10
ENDBRANCH   5   6
ENDBRANCH   3   5
BRANCH   1  17
HETATM   17  C7  UNL     1       2.242   0.419   0.434  1.00  0.00     0.152 C 
BRANCH  17  18
HETATM   18  C6  UNL     1       3.655   0.111   0.800  1.00  0.00     0.292 C 
BRANCH  18  19
HETATM   19  N1  UNL     1       4.607   0.417  -0.281  1.00  0.00     0.090 N 
BRANCH  19  20
HETATM   20  C3  UNL     1       5.958   0.125   0.168  1.00  0.00     0.272 C 
BRANCH  20  21
HETATM   21  C2  UNL     1       6.981   0.677  -0.779  1.00  0.00     0.026 C 
HETATM   22  C1  UNL     1       6.821   2.198  -0.880  1.00  0.00     0.007 C 
ENDBRANCH  20  21
ENDBRANCH  19  20
BRANCH  19  23
HETATM   23  C4  UNL     1       4.263  -0.302  -1.469  1.00  0.00     0.283 C 
BRANCH  23  24
HETATM   24  C5  UNL     1       4.136  -1.794  -1.252  1.00  0.00     0.115 C 
HETATM   25 BR1  UNL     1       3.651  -2.581  -2.967  1.00  0.00    -0.095 Br
ENDBRANCH  23  24
ENDBRANCH  19  23
ENDBRANCH  18  19
ENDBRANCH  17  18
ENDBRANCH   1  17
TORSDOF 10
