REMARK  10 active torsions:
REMARK  status: ('A' for Active; 'I' for Inactive)
REMARK    1  A    between atoms: N1_6  and  C5_7 
REMARK    2  A    between atoms: C5_7  and  C6_8 
REMARK    3  A    between atoms: C6_8  and  C7_9 
REMARK    4  A    between atoms: C7_9  and  C8_10 
REMARK       I    between atoms: C8_10  and  N2_12 
REMARK    5  A    between atoms: N2_12  and  C9_14 
REMARK    6  A    between atoms: C9_14  and  C10_15 
REMARK    7  A    between atoms: C10_15  and  C11_16 
REMARK    8  A    between atoms: C12_18  and  C14_20 
REMARK       I    between atoms: C14_20  and  N3_22 
REMARK    9  A    between atoms: N3_22  and  C15_24 
REMARK   10  A    between atoms: C15_24  and  C16_25 
ROOT
HETATM    1  C1  UNL     1      -1.212   2.390   2.550  1.00  0.00     0.026 C 
HETATM    2  C2  UNL     1      -1.685   1.664   1.310  1.00  0.00     0.043 C 
HETATM    3  C3  UNL     1      -2.717   2.565   0.663  1.00  0.00     0.026 C 
HETATM    4  C4  UNL     1      -0.601   1.477   0.321  1.00  0.00     0.229 C 
HETATM    5  O1  UNL     1      -0.041   2.469  -0.252  1.00  0.00    -0.272 OA
HETATM    6  N1  UNL     1      -0.347   0.105   0.165  1.00  0.00    -0.333 N 
HETATM    7  C12 UNL     1      -1.585  -0.570   0.482  1.00  0.00     0.120 C 
HETATM    8  C13 UNL     1      -1.230  -1.952   0.995  1.00  0.00     0.050 C 
HETATM    9  C17 UNL     1      -2.164   0.283   1.589  1.00  0.00     0.002 C 
HETATM   10  C18 UNL     1      -1.596  -0.206   2.931  1.00  0.00     0.019 C 
HETATM   11  C19 UNL     1      -3.642   0.251   1.724  1.00  0.00     0.019 C 
ENDROOT
BRANCH   6  12
HETATM   12  C5  UNL     1       0.918  -0.462  -0.223  1.00  0.00     0.128 C 
BRANCH  12  13
HETATM   13  C6  UNL     1       1.096  -0.629  -1.689  1.00  0.00     0.029 C 
BRANCH  13  14
HETATM   14  C7  UNL     1       2.438  -1.211  -2.004  1.00  0.00     0.104 C 
BRANCH  14  15
HETATM   15  C8  UNL     1       3.602  -0.376  -1.633  1.00  0.00     0.217 C 
HETATM   16  O2  UNL     1       3.441   0.799  -1.250  1.00  0.00    -0.274 OA
HETATM   17  N2  UNL     1       4.930  -0.869  -1.699  1.00  0.00    -0.361 N 
ATOM     18  H2  UNL     1       5.067  -1.828  -2.017  1.00  0.00     0.162 HD
BRANCH  17  19
HETATM   19  C9  UNL     1       6.085  -0.111  -1.350  1.00  0.00     0.125 C 
BRANCH  19  20
HETATM   20  C10 UNL     1       6.099   0.334   0.079  1.00  0.00     0.051 C 
BRANCH  20  21
HETATM   21  C11 UNL     1       7.372   1.119   0.348  1.00  0.00     0.224 C 
HETATM   22  F1  UNL     1       7.369   1.520   1.674  1.00  0.00    -0.255 F 
ENDBRANCH  20  21
ENDBRANCH  19  20
ENDBRANCH  17  19
ENDBRANCH  14  15
ENDBRANCH  13  14
ENDBRANCH  12  13
ENDBRANCH   6  12
BRANCH   7  23
HETATM   23  C14 UNL     1      -2.469  -0.735  -0.682  1.00  0.00     0.247 C 
HETATM   24  O3  UNL     1      -2.244  -0.181  -1.810  1.00  0.00    -0.271 OA
HETATM   25  N3  UNL     1      -3.645  -1.535  -0.629  1.00  0.00    -0.349 N 
ATOM     26  H3  UNL     1      -3.873  -1.994   0.253  1.00  0.00     0.163 HD
BRANCH  25  27
HETATM   27  C15 UNL     1      -4.520  -1.733  -1.731  1.00  0.00     0.235 C 
BRANCH  27  28
HETATM   28  C16 UNL     1      -5.148  -0.537  -2.301  1.00  0.00     0.191 C 
HETATM   29  O4  UNL     1      -5.001   0.646  -1.931  1.00  0.00    -0.647 OA
HETATM   30  O5  UNL     1      -6.015  -0.743  -3.387  1.00  0.00    -0.647 OA
ENDBRANCH  27  28
ENDBRANCH  25  27
ENDBRANCH   7  23
TORSDOF 10
