REMARK  14 active torsions:
REMARK  status: ('A' for Active; 'I' for Inactive)
REMARK    1  A    between atoms: C2_2  and  N1_3 
REMARK    2  A    between atoms: N1_3  and  C3_4 
REMARK    3  A    between atoms: N1_3  and  C5_6 
REMARK    4  A    between atoms: C5_6  and  O1_7 
REMARK    5  A    between atoms: C5_6  and  C6_9 
REMARK    6  A    between atoms: C6_9  and  N2_10 
REMARK    7  A    between atoms: C6_9  and  C16_26 
REMARK       I    between atoms: N2_10  and  C7_12 
REMARK       I    between atoms: C7_12  and  N3_14 
REMARK    8  A    between atoms: N3_14  and  C8_16 
REMARK    9  A    between atoms: C8_16  and  C9_17 
REMARK   10  A    between atoms: C8_16  and  C10_19 
REMARK   11  A    between atoms: C10_19  and  C11_20 
REMARK   12  A    between atoms: C11_20  and  C12_21 
REMARK   13  A    between atoms: C13_22  and  C14_23 
REMARK   14  A    between atoms: C14_23  and  C15_24 
REMARK       I    between atoms: C16_26  and  N4_28 
ROOT
HETATM    1  N2  UNL     1       0.008   1.324  -1.124  1.00  0.00    -0.323 N 
ATOM      2  H2  UNL     1       0.332   1.551  -2.064  1.00  0.00     0.165 HD
HETATM    3  C7  UNL     1       0.918   1.383  -0.063  1.00  0.00     0.317 C 
HETATM    4  O2  UNL     1       0.495   1.090   1.081  1.00  0.00    -0.247 OA
HETATM    5  N3  UNL     1       2.275   1.752  -0.213  1.00  0.00    -0.332 N 
ATOM      6  H3  UNL     1       2.594   1.994  -1.151  1.00  0.00     0.165 HD
ENDROOT
BRANCH   1   7
HETATM    7  C6  UNL     1      -1.427   0.938  -0.926  1.00  0.00     0.253 C 
BRANCH   7   8
HETATM    8  C5  UNL     1      -1.683  -0.279  -1.691  1.00  0.00     0.146 C 
BRANCH   8   9
HETATM    9  N1  UNL     1      -2.794  -1.134  -1.712  1.00  0.00    -0.364 N 
BRANCH   9  10
HETATM   10  C2  UNL     1      -4.006  -1.088  -0.974  1.00  0.00     0.120 C 
HETATM   11  C1  UNL     1      -3.799  -1.875   0.320  1.00  0.00     0.026 C 
ENDBRANCH   9  10
BRANCH   9  12
HETATM   12  C3  UNL     1      -2.695  -2.288  -2.653  1.00  0.00     0.120 C 
HETATM   13  C4  UNL     1      -2.079  -3.464  -1.975  1.00  0.00     0.026 C 
ENDBRANCH   9  12
ENDBRANCH   8   9
BRANCH   8  14
HETATM   14  O1  UNL     1      -0.691  -0.608  -2.478  1.00  0.00    -0.347 OA
ATOM     15  H1  UNL     1       0.062  -0.029  -2.464  1.00  0.00     0.219 HD
ENDBRANCH   8  14
ENDBRANCH   7   8
BRANCH   7  16
HETATM   16  C16 UNL     1      -2.240   2.121  -1.286  1.00  0.00     0.248 C 
HETATM   17  O4  UNL     1      -1.812   2.822  -2.236  1.00  0.00    -0.271 OA
HETATM   18  N4  UNL     1      -3.422   2.508  -0.653  1.00  0.00    -0.363 N 
HETATM   19  C17 UNL     1      -4.124   3.692  -1.091  1.00  0.00     0.149 C 
ATOM     20  H4  UNL     1      -3.791   1.954   0.120  1.00  0.00     0.162 HD
ENDBRANCH   7  16
ENDBRANCH   1   7
BRANCH   5  21
HETATM   21  C8  UNL     1       3.238   1.813   0.848  1.00  0.00     0.148 C 
BRANCH  21  22
HETATM   22  C9  UNL     1       3.520   3.287   1.092  1.00  0.00     0.256 C 
HETATM   23  O3  UNL     1       2.959   4.130   0.455  1.00  0.00    -0.305 OA
ENDBRANCH  21  22
BRANCH  21  24
HETATM   24  C10 UNL     1       4.557   1.217   0.484  1.00  0.00     0.044 C 
BRANCH  24  25
HETATM   25  C11 UNL     1       4.548  -0.214   0.105  1.00  0.00     0.096 C 
BRANCH  25  26
HETATM   26  C12 UNL     1       4.094  -1.049   1.212  1.00  0.00    -0.106 C 
HETATM   27  C13 UNL     1       3.748  -1.770   2.134  1.00  0.00    -0.105 C 
BRANCH  27  28
HETATM   28  C14 UNL     1       3.375  -2.658   3.231  1.00  0.00     0.109 C 
BRANCH  28  29
HETATM   29  C15 UNL     1       2.891  -1.846   4.377  1.00  0.00     0.126 C 
HETATM   30 CL1  UNL     1       1.465  -0.892   3.980  1.00  0.00    -0.130 Cl
ENDBRANCH  28  29
ENDBRANCH  27  28
ENDBRANCH  25  26
ENDBRANCH  24  25
ENDBRANCH  21  24
ENDBRANCH   5  21
TORSDOF 14
