REMARK  10 active torsions:
REMARK  status: ('A' for Active; 'I' for Inactive)
REMARK    1  A    between atoms: S1_2  and  N1_4 
REMARK    2  A    between atoms: S1_2  and  N2_14 
REMARK    3  A    between atoms: N1_4  and  C1_6 
REMARK    4  A    between atoms: C1_6  and  C2_7 
REMARK    5  A    between atoms: C2_7  and  C3_8 
REMARK    6  A    between atoms: N2_14  and  S2_16 
REMARK    7  A    between atoms: S2_16  and  N3_19 
REMARK    8  A    between atoms: N3_19  and  C9_21 
REMARK    9  A    between atoms: C9_21  and  C10_22 
REMARK   10  A    between atoms: C10_22  and  C11_23 
ROOT
HETATM    1  N2  UNL     1      -0.026   0.301  -0.715  1.00  0.00    -0.177 N 
ATOM      2  H2  UNL     1       0.219   0.514  -1.682  1.00  0.00     0.195 HD
ENDROOT
BRANCH   1   3
HETATM    3  S1  UNL     1      -1.333   1.003   0.172  1.00  0.00     0.329 S 
HETATM    4  O1  UNL     1      -1.628   2.398  -0.321  1.00  0.00    -0.182 OA
HETATM    5  O2  UNL     1      -1.007   1.013   1.632  1.00  0.00    -0.182 OA
BRANCH   3   6
HETATM    6  N1  UNL     1      -2.708  -0.010  -0.079  1.00  0.00    -0.302 N 
ATOM      7  H1  UNL     1      -2.988  -0.807   0.492  1.00  0.00     0.173 HD
BRANCH   6   8
HETATM    8  C1  UNL     1      -3.388   0.491  -1.259  1.00  0.00     0.138 C 
BRANCH   8   9
HETATM    9  C2  UNL     1      -4.619  -0.319  -1.587  1.00  0.00     0.059 C 
BRANCH   9  10
HETATM   10  C3  UNL     1      -5.581  -0.281  -0.463  1.00  0.00    -0.057 A 
HETATM   11  C4  UNL     1      -6.560   0.682  -0.367  1.00  0.00     0.007 A 
HETATM   12  C5  UNL     1      -7.457   0.696   0.704  1.00  0.00     0.001 A 
HETATM   13  C6  UNL     1      -7.361  -0.271   1.683  1.00  0.00     0.000 A 
HETATM   14  C7  UNL     1      -6.390  -1.252   1.615  1.00  0.00     0.001 A 
HETATM   15  C8  UNL     1      -5.530  -1.228   0.547  1.00  0.00     0.007 A 
ENDBRANCH   9  10
ENDBRANCH   8   9
ENDBRANCH   6   8
ENDBRANCH   3   6
ENDBRANCH   1   3
BRANCH   1  16
HETATM   16  S2  UNL     1       0.793  -0.817   0.305  1.00  0.00     0.329 S 
HETATM   17  O3  UNL     1       1.324  -1.936  -0.580  1.00  0.00    -0.182 OA
HETATM   18  O4  UNL     1      -0.190  -1.480   1.249  1.00  0.00    -0.182 OA
BRANCH  16  19
HETATM   19  N3  UNL     1       2.075  -0.073   1.189  1.00  0.00    -0.302 N 
ATOM     20  H3  UNL     1       1.993   0.369   2.105  1.00  0.00     0.173 HD
BRANCH  19  21
HETATM   21  C9  UNL     1       3.283  -0.185   0.408  1.00  0.00     0.138 C 
BRANCH  21  22
HETATM   22  C10 UNL     1       4.472   0.442   1.104  1.00  0.00     0.062 C 
BRANCH  22  23
HETATM   23  C11 UNL     1       5.667   0.283   0.239  1.00  0.00    -0.018 A 
HETATM   24  C12 UNL     1       6.170   1.360  -0.493  1.00  0.00     0.010 A 
HETATM   25  C13 UNL     1       7.279   1.222  -1.298  1.00  0.00     0.001 A 
HETATM   26  C14 UNL     1       7.933   0.016  -1.410  1.00  0.00     0.003 A 
HETATM   27  C15 UNL     1       7.453  -1.071  -0.693  1.00  0.00     0.043 A 
HETATM   28  C16 UNL     1       6.334  -0.911   0.113  1.00  0.00     0.122 A 
HETATM   29  F1  UNL     1       5.868  -1.976   0.813  1.00  0.00    -0.206 F 
ENDBRANCH  22  23
ENDBRANCH  21  22
ENDBRANCH  19  21
ENDBRANCH  16  19
ENDBRANCH   1  16
TORSDOF 10
