REMARK  7 active torsions:
REMARK  status: ('A' for Active; 'I' for Inactive)
REMARK    1  A    between atoms: N1_2  and  C2_5 
REMARK    2  A    between atoms: C2_5  and  C3_6 
REMARK    3  A    between atoms: C3_6  and  N2_7 
REMARK    4  A    between atoms: N2_7  and  C4_10 
REMARK    5  A    between atoms: C6_12  and  N3_13 
REMARK    6  A    between atoms: C7_17  and  N4_18 
REMARK    7  A    between atoms: N4_18  and  C8_20 
ROOT
HETATM    1  C4  UNL     1      -0.552  -0.281   0.038  1.00  0.00     0.212 C 
HETATM    2  C5  UNL     1      -0.900  -1.106   1.285  1.00  0.00     0.070 C 
HETATM    3  C6  UNL     1      -2.318  -1.103   0.785  1.00  0.00     0.210 C 
HETATM    4  C7  UNL     1      -1.976   0.188   0.053  1.00  0.00     0.145 C 
ENDROOT
BRANCH   1   5
HETATM    5  N2  UNL     1       0.461   0.721   0.282  1.00  0.00    -0.067 N 
ATOM      6  H22 UNL     1       0.158   1.421   0.959  1.00  0.00     0.277 HD
ATOM      7  H21 UNL     1       0.593   1.341  -0.517  1.00  0.00     0.277 HD
BRANCH   5   8
HETATM    8  C3  UNL     1       1.692   0.068   0.681  1.00  0.00     0.260 C 
BRANCH   8   9
HETATM    9  C2  UNL     1       2.322  -0.714  -0.420  1.00  0.00     0.259 C 
BRANCH   9  10
HETATM   10  N1  UNL     1       2.682   0.054  -1.576  1.00  0.00    -0.077 N 
HETATM   11  C1  UNL     1       3.782   0.972  -1.281  1.00  0.00     0.267 C 
ATOM     12  H12 UNL     1       1.877   0.546  -1.965  1.00  0.00     0.276 HD
ATOM     13  H11 UNL     1       2.898  -0.546  -2.372  1.00  0.00     0.276 HD
ENDBRANCH   9  10
ENDBRANCH   8   9
ENDBRANCH   5   8
ENDBRANCH   1   5
BRANCH   4  14
HETATM   14  N4  UNL     1      -2.229   1.340   0.897  1.00  0.00    -0.360 N 
ATOM     15  H4  UNL     1      -1.848   1.379   1.842  1.00  0.00     0.162 HD
BRANCH  14  16
HETATM   16  C8  UNL     1      -3.010   2.411   0.396  1.00  0.00     0.348 C 
HETATM   17  O1  UNL     1      -3.494   2.390  -0.764  1.00  0.00    -0.284 OA
ENDBRANCH  14  16
ENDBRANCH   4  14
BRANCH   3  18
HETATM   18  N3  UNL     1      -2.544  -2.234  -0.076  1.00  0.00    -0.073 N 
ATOM     19  H33 UNL     1      -1.870  -2.271  -0.841  1.00  0.00     0.274 HD
ATOM     20  H32 UNL     1      -2.303  -3.114   0.380  1.00  0.00     0.274 HD
ATOM     21  H31 UNL     1      -3.506  -2.232  -0.415  1.00  0.00     0.274 HD
ENDBRANCH   3  18
TORSDOF 7
