REMARK  5 active torsions:
REMARK  status: ('A' for Active; 'I' for Inactive)
REMARK    1  A    between atoms: N1_2  and  C2_4 
REMARK    2  A    between atoms: C2_4  and  C3_5 
REMARK    3  A    between atoms: C3_5  and  N2_6 
REMARK    4  A    between atoms: N2_6  and  C4_8 
REMARK    5  A    between atoms: C4_8  and  N3_9 
ROOT
HETATM    1  N3  UNL     1      -1.769  -0.588  -0.190  1.00  0.00    -0.239 N 
HETATM    2  N4  UNL     1      -2.801  -1.383   0.152  1.00  0.00    -0.287 N 
ATOM      3  H4  UNL     1      -2.714  -2.355   0.448  1.00  0.00     0.188 HD
HETATM    4  C5  UNL     1      -3.952  -0.719   0.049  1.00  0.00     0.199 A 
HETATM    5  N5  UNL     1      -3.653   0.504  -0.361  1.00  0.00    -0.340 N 
ATOM      6  H5  UNL     1      -4.319   1.256  -0.536  1.00  0.00     0.168 HD
HETATM    7  C6  UNL     1      -2.305   0.583  -0.508  1.00  0.00     0.101 A 
HETATM    8  C7  UNL     1      -1.594   1.823  -0.957  1.00  0.00     0.091 C 
ENDROOT
BRANCH   1   9
HETATM    9  C4  UNL     1      -0.423  -1.075  -0.185  1.00  0.00     0.208 C 
BRANCH   9  10
HETATM   10  N2  UNL     1       0.307  -0.850   1.017  1.00  0.00    -0.359 N 
ATOM     11  H2  UNL     1      -0.082  -0.275   1.764  1.00  0.00     0.166 HD
BRANCH  10  12
HETATM   12  C3  UNL     1       1.574  -1.438   1.150  1.00  0.00     0.105 C 
BRANCH  12  13
HETATM   13  C2  UNL     1       2.720  -1.002   0.332  1.00  0.00     0.099 C 
BRANCH  13  14
HETATM   14  N1  UNL     1       3.197   0.320   0.439  1.00  0.00    -0.402 N 
HETATM   15  C1  UNL     1       2.385   1.367  -0.080  1.00  0.00     0.145 C 
ATOM     16  H1  UNL     1       4.097   0.520   0.875  1.00  0.00     0.158 HD
ENDBRANCH  13  14
ENDBRANCH  12  13
ENDBRANCH  10  12
ENDBRANCH   9  10
ENDBRANCH   1   9
TORSDOF 5
