REMARK  5 active torsions:
REMARK  status: ('A' for Active; 'I' for Inactive)
REMARK    1  A    between atoms: N1_2  and  C3_4 
REMARK    2  A    between atoms: C5_6  and  N2_7 
REMARK    3  A    between atoms: N2_7  and  C6_10 
REMARK    4  A    between atoms: C6_10  and  C7_11 
REMARK    5  A    between atoms: C7_11  and  N3_12 
REMARK       I    between atoms: N3_12  and  C8_14 
ROOT
HETATM    1  N2  UNL     1       0.111  -1.144   0.943  1.00  0.00    -0.067 N 
ATOM      2  H21 UNL     1       0.123  -2.012   0.407  1.00  0.00     0.277 HD
ATOM      3  H22 UNL     1       0.473  -1.503   1.826  1.00  0.00     0.277 HD
ENDROOT
BRANCH   1   4
HETATM    4  C5  UNL     1      -1.236  -0.622   1.088  1.00  0.00     0.221 A 
HETATM    5  C3  UNL     1      -1.940  -0.243  -0.131  1.00  0.00     0.254 A 
HETATM    6  C4  UNL     1      -1.459   0.828   0.883  1.00  0.00     0.073 A 
BRANCH   5   7
HETATM    7  N1  UNL     1      -3.338  -0.372  -0.370  1.00  0.00     0.086 N 
HETATM    8  C1  UNL     1      -4.144  -0.756   0.742  1.00  0.00     0.310 C 
HETATM    9  C2  UNL     1      -3.826   0.896  -0.887  1.00  0.00     0.310 C 
ENDBRANCH   5   7
ENDBRANCH   1   4
BRANCH   1  10
HETATM   10  C6  UNL     1       0.991  -0.149   0.369  1.00  0.00     0.252 C 
BRANCH  10  11
HETATM   11  C7  UNL     1       2.395  -0.674   0.190  1.00  0.00     0.150 C 
BRANCH  11  12
HETATM   12  N3  UNL     1       3.228   0.359  -0.385  1.00  0.00    -0.363 N 
HETATM   13  C8  UNL     1       4.600   0.128  -0.670  1.00  0.00     0.181 C 
HETATM   14  N4  UNL     1       5.463   0.017   0.280  1.00  0.00    -0.374 N 
HETATM   15  N5  UNL     1       5.041   0.014  -2.024  1.00  0.00    -0.064 NA
ATOM     16  H42 UNL     1       5.148   0.098   1.247  1.00  0.00     0.158 HD
ATOM     17  H41 UNL     1       6.448  -0.149   0.075  1.00  0.00     0.158 HD
ATOM     18  H3  UNL     1       2.822   1.272  -0.590  1.00  0.00     0.162 HD
ENDBRANCH  11  12
ENDBRANCH  10  11
ENDBRANCH   1  10
TORSDOF 5
