REMARK  5 active torsions:
REMARK  status: ('A' for Active; 'I' for Inactive)
REMARK    1  A    between atoms: N1_2  and  C2_5 
REMARK    2  A    between atoms: C2_5  and  C3_6 
REMARK    3  A    between atoms: C3_6  and  N2_7 
REMARK    4  A    between atoms: N2_7  and  C4_9 
REMARK    5  A    between atoms: C4_9  and  C5_10 
ROOT
HETATM    1  N2  UNL     1       0.476  -0.819  -0.457  1.00  0.00    -0.394 N 
ATOM      2  H2  UNL     1       0.642  -0.004  -1.047  1.00  0.00     0.159 HD
ENDROOT
BRANCH   1   3
HETATM    3  C3  UNL     1       1.522  -1.711  -0.081  1.00  0.00     0.146 C 
BRANCH   3   4
HETATM    4  C2  UNL     1       2.863  -0.974  -0.393  1.00  0.00     0.251 C 
BRANCH   4   5
HETATM    5  N1  UNL     1       2.677   0.228   0.448  1.00  0.00    -0.077 N 
HETATM    6  C1  UNL     1       3.611   1.270   0.136  1.00  0.00     0.267 C 
ATOM      7  H12 UNL     1       2.711  -0.010   1.439  1.00  0.00     0.276 HD
ATOM      8  H11 UNL     1       1.717   0.568   0.393  1.00  0.00     0.276 HD
ENDBRANCH   4   5
ENDBRANCH   3   4
ENDBRANCH   1   3
BRANCH   1   9
HETATM    9  C4  UNL     1      -0.797  -1.137   0.039  1.00  0.00     0.132 C 
BRANCH   9  10
HETATM   10  C5  UNL     1      -1.837  -0.182  -0.410  1.00  0.00     0.122 A 
HETATM   11  N3  UNL     1      -2.142   0.146  -1.684  1.00  0.00    -0.350 N 
HETATM   12  C6  UNL     1      -3.122   1.065  -1.689  1.00  0.00     0.107 A 
ATOM     13  H3  UNL     1      -1.697  -0.244  -2.515  1.00  0.00     0.166 HD
HETATM   14  C7  UNL     1      -3.406   1.289  -0.365  1.00  0.00     0.109 A 
HETATM   15  N4  UNL     1      -2.623   0.529   0.389  1.00  0.00    -0.345 N 
HETATM   16  C8  UNL     1      -2.666   0.562   1.873  1.00  0.00     0.157 C 
ENDBRANCH   9  10
ENDBRANCH   1   9
TORSDOF 5
