REMARK  16 active torsions:
REMARK  status: ('A' for Active; 'I' for Inactive)
REMARK    1  A    between atoms: C2_2  and  C3_3 
REMARK    2  A    between atoms: C3_3  and  O1_4 
REMARK    3  A    between atoms: O1_4  and  C4_5 
REMARK    4  A    between atoms: C4_5  and  C5_7 
REMARK    5  A    between atoms: C5_7  and  C6_8 
REMARK    6  A    between atoms: C5_7  and  N2_14 
REMARK       I    between atoms: C6_8  and  N1_10 
REMARK    7  A    between atoms: N1_10  and  C7_12 
REMARK    8  A    between atoms: N2_14  and  C9_15 
REMARK       I    between atoms: N2_14  and  C21_32 
REMARK    9  A    between atoms: C9_15  and  C10_16 
REMARK   10  A    between atoms: C10_16  and  C11_17 
REMARK       I    between atoms: C11_17  and  N3_19 
REMARK   11  A    between atoms: N3_19  and  C12_21 
REMARK   12  A    between atoms: C12_21  and  C13_22 
REMARK   13  A    between atoms: C12_21  and  C18_29 
REMARK   14  A    between atoms: C13_22  and  O6_24 
REMARK   15  A    between atoms: O6_24  and  C14_25 
REMARK       I    between atoms: C21_32  and  N4_34 
REMARK   16  A    between atoms: N4_34  and  C22_36 
ROOT
HETATM    1  N2  UNL     1      -2.127  -0.914   0.638  1.00  0.00    -0.311 N 
HETATM    2  C21 UNL     1      -2.702   0.320   1.039  1.00  0.00     0.320 C 
HETATM    3  O7  UNL     1      -3.931   0.480   0.858  1.00  0.00    -0.247 OA
HETATM    4  N4  UNL     1      -1.977   1.383   1.632  1.00  0.00    -0.335 N 
ATOM      5  H4  UNL     1      -0.975   1.265   1.783  1.00  0.00     0.165 HD
ENDROOT
BRANCH   1   6
HETATM    6  C5  UNL     1      -2.875  -1.977   0.032  1.00  0.00     0.281 C 
BRANCH   6   7
HETATM    7  C4  UNL     1      -3.851  -2.483   1.049  1.00  0.00     0.291 C 
HETATM    8  O2  UNL     1      -3.872  -2.027   2.226  1.00  0.00    -0.262 OA
BRANCH   7   9
HETATM    9  O1  UNL     1      -4.789  -3.472   0.780  1.00  0.00    -0.316 OA
BRANCH   9  10
HETATM   10  C3  UNL     1      -5.701  -3.934   1.753  1.00  0.00     0.205 C 
BRANCH  10  11
HETATM   11  C2  UNL     1      -6.593  -2.903   2.291  1.00  0.00    -0.011 C 
HETATM   12  C1  UNL     1      -6.599  -2.614   3.581  1.00  0.00     0.009 C 
ENDBRANCH  10  11
ENDBRANCH   9  10
ENDBRANCH   7   9
ENDBRANCH   6   7
BRANCH   6  13
HETATM   13  C6  UNL     1      -3.482  -1.626  -1.251  1.00  0.00     0.250 C 
HETATM   14  O3  UNL     1      -3.420  -0.479  -1.791  1.00  0.00    -0.271 OA
HETATM   15  N1  UNL     1      -4.202  -2.624  -1.974  1.00  0.00    -0.359 N 
ATOM     16  H1  UNL     1      -4.277  -3.562  -1.581  1.00  0.00     0.162 HD
BRANCH  15  17
HETATM   17  C7  UNL     1      -4.831  -2.344  -3.251  1.00  0.00     0.118 C 
HETATM   18  C8  UNL     1      -5.856  -1.256  -3.115  1.00  0.00     0.026 C 
ENDBRANCH  15  17
ENDBRANCH   6  13
ENDBRANCH   1   6
BRANCH   1  19
HETATM   19  C9  UNL     1      -0.708  -1.089   0.871  1.00  0.00     0.138 C 
BRANCH  19  20
HETATM   20  C10 UNL     1       0.128  -0.608  -0.305  1.00  0.00     0.122 C 
BRANCH  20  21
HETATM   21  C11 UNL     1       1.567  -0.791  -0.054  1.00  0.00     0.219 C 
HETATM   22  O4  UNL     1       1.944  -1.308   1.018  1.00  0.00    -0.274 OA
HETATM   23  N3  UNL     1       2.517  -0.388  -1.015  1.00  0.00    -0.347 N 
ATOM     24  H3  UNL     1       2.192   0.032  -1.886  1.00  0.00     0.163 HD
BRANCH  23  25
HETATM   25  C12 UNL     1       3.954  -0.553  -0.802  1.00  0.00     0.187 C 
BRANCH  25  26
HETATM   26  C13 UNL     1       4.611   0.793  -0.690  1.00  0.00     0.282 C 
HETATM   27  O5  UNL     1       3.968   1.867  -0.792  1.00  0.00    -0.263 OA
BRANCH  26  28
HETATM   28  O6  UNL     1       5.973   0.900  -0.466  1.00  0.00    -0.310 OA
BRANCH  28  29
HETATM   29  C14 UNL     1       6.582   2.167  -0.359  1.00  0.00     0.060 C 
HETATM   30  C15 UNL     1       6.003   2.977   0.781  1.00  0.00     0.045 C 
HETATM   31  C16 UNL     1       8.043   1.911  -0.024  1.00  0.00     0.045 C 
HETATM   32  C17 UNL     1       6.522   3.002  -1.592  1.00  0.00     0.045 C 
ENDBRANCH  28  29
ENDBRANCH  26  28
ENDBRANCH  25  26
BRANCH  25  33
HETATM   33  C18 UNL     1       4.579  -1.406  -1.858  1.00  0.00     0.010 C 
HETATM   34  C19 UNL     1       4.427  -0.845  -3.243  1.00  0.00     0.012 C 
HETATM   35  C20 UNL     1       6.036  -1.659  -1.566  1.00  0.00     0.012 C 
ENDBRANCH  25  33
ENDBRANCH  23  25
ENDBRANCH  20  21
ENDBRANCH  19  20
ENDBRANCH   1  19
BRANCH   4  36
HETATM   36  C22 UNL     1      -2.594   2.627   2.033  1.00  0.00     0.023 C 
HETATM   37  C23 UNL     1      -3.258   3.327   0.869  1.00  0.00     0.037 C 
HETATM   38  C24 UNL     1      -3.579   2.355   3.126  1.00  0.00     0.037 C 
HETATM   39  C25 UNL     1      -1.539   3.586   2.571  1.00  0.00     0.037 C 
ENDBRANCH   4  36
TORSDOF 16
