REMARK  12 active torsions:
REMARK  status: ('A' for Active; 'I' for Inactive)
REMARK    1  A    between atoms: C2_2  and  C3_3 
REMARK    2  A    between atoms: N2_12  and  C9_13 
REMARK    3  A    between atoms: C9_13  and  C10_14 
REMARK    4  A    between atoms: C10_14  and  C11_15 
REMARK    5  A    between atoms: C11_15  and  C12_16 
REMARK       I    between atoms: C12_16  and  N3_18 
REMARK    6  A    between atoms: C15_21  and  O2_22 
REMARK    7  A    between atoms: C15_21  and  C16_24 
REMARK    8  A    between atoms: C16_24  and  N4_25 
REMARK    9  A    between atoms: N4_25  and  C17_27 
REMARK   10  A    between atoms: C17_27  and  C18_28 
REMARK   11  A    between atoms: C18_28  and  C19_29 
REMARK   12  A    between atoms: C19_29  and  N5_30 
ROOT
HETATM    1  C12 UNL     1       1.297   0.109   2.126  1.00  0.00     0.219 C 
HETATM    2  O1  UNL     1       1.660   0.424   3.313  1.00  0.00    -0.273 OA
HETATM    3  N3  UNL     1       0.152   0.704   1.535  1.00  0.00    -0.352 N 
HETATM    4  C13 UNL     1      -0.613   1.662   2.305  1.00  0.00     0.129 C 
HETATM    5  C14 UNL     1      -1.201   2.655   1.327  1.00  0.00     0.059 C 
HETATM    6  C15 UNL     1      -2.245   1.981   0.447  1.00  0.00     0.076 C 
HETATM    7  C24 UNL     1      -1.808   0.581   0.073  1.00  0.00     0.059 C 
HETATM    8  C25 UNL     1      -0.309   0.419   0.199  1.00  0.00     0.129 C 
ENDROOT
BRANCH   1   9
HETATM    9  C11 UNL     1       2.108  -0.882   1.418  1.00  0.00     0.104 C 
BRANCH   9  10
HETATM   10  C10 UNL     1       3.311  -1.381   2.086  1.00  0.00     0.029 C 
BRANCH  10  11
HETATM   11  C9  UNL     1       4.477  -0.528   2.367  1.00  0.00     0.135 C 
BRANCH  11  12
HETATM   12  N2  UNL     1       5.209  -0.005   1.255  1.00  0.00    -0.290 N 
HETATM   13  C8  UNL     1       5.085   1.206   0.771  1.00  0.00     0.181 A 
HETATM   14  N1  UNL     1       5.788   1.601  -0.332  1.00  0.00    -0.332 N 
HETATM   15  S1  UNL     1       4.152   2.387   1.462  1.00  0.00    -0.040 SA
HETATM   16  C7  UNL     1       6.627   0.770  -0.953  1.00  0.00     0.051 A 
ATOM     17  H1  UNL     1       5.669   2.550  -0.688  1.00  0.00     0.168 HD
HETATM   18  C6  UNL     1       7.330   1.189  -2.084  1.00  0.00     0.030 A 
HETATM   19  C27 UNL     1       6.807  -0.537  -0.482  1.00  0.00     0.069 A 
HETATM   20  C5  UNL     1       8.174   0.302  -2.692  1.00  0.00     0.003 A 
HETATM   21  C4  UNL     1       8.353  -0.971  -2.238  1.00  0.00     0.012 A 
HETATM   22  C3  UNL     1       7.659  -1.410  -1.108  1.00  0.00    -0.019 A 
HETATM   23  C26 UNL     1       6.072  -0.875   0.625  1.00  0.00     0.263 A 
HETATM   24  O3  UNL     1       6.186  -2.037   1.092  1.00  0.00    -0.267 OA
BRANCH  22  25
HETATM   25  C2  UNL     1       7.894  -2.758  -0.700  1.00  0.00     0.002 C 
HETATM   26  C1  UNL     1       8.207  -3.729  -1.592  1.00  0.00     0.012 C 
ENDBRANCH  22  25
ENDBRANCH  11  12
ENDBRANCH  10  11
ENDBRANCH   9  10
ENDBRANCH   1   9
BRANCH   6  27
HETATM   27  O2  UNL     1      -2.299   2.725  -0.718  1.00  0.00    -0.388 OA
ATOM     28  H2  UNL     1      -2.950   2.304  -1.267  1.00  0.00     0.210 HD
ENDBRANCH   6  27
BRANCH   6  29
HETATM   29  C16 UNL     1      -3.534   2.021   1.171  1.00  0.00     0.151 C 
BRANCH  29  30
HETATM   30  N4  UNL     1      -4.693   1.513   0.532  1.00  0.00    -0.418 N 
ATOM     31  H4  UNL     1      -5.141   0.659   0.863  1.00  0.00     0.153 HD
BRANCH  30  32
HETATM   32  C17 UNL     1      -5.213   2.223  -0.580  1.00  0.00     0.115 C 
BRANCH  32  33
HETATM   33  C18 UNL     1      -6.472   1.639  -1.185  1.00  0.00     0.049 C 
BRANCH  33  34
HETATM   34  C19 UNL     1      -6.314   0.253  -1.717  1.00  0.00     0.274 C 
BRANCH  34  35
HETATM   35  N5  UNL     1      -5.956  -0.671  -0.694  1.00  0.00     0.088 N 
HETATM   36  C20 UNL     1      -7.040  -0.910   0.246  1.00  0.00     0.272 C 
HETATM   37  C21 UNL     1      -7.811  -2.078  -0.284  1.00  0.00     0.032 C 
HETATM   38  C22 UNL     1      -6.812  -2.870  -1.054  1.00  0.00     0.032 C 
HETATM   39  C23 UNL     1      -5.640  -1.972  -1.257  1.00  0.00     0.272 C 
ENDBRANCH  34  35
ENDBRANCH  33  34
ENDBRANCH  32  33
ENDBRANCH  30  32
ENDBRANCH  29  30
ENDBRANCH   6  29
TORSDOF 12
