REMARK  11 active torsions:
REMARK  status: ('A' for Active; 'I' for Inactive)
REMARK    1  A    between atoms: N1_6  and  C5_8 
REMARK    2  A    between atoms: C5_8  and  C6_9 
REMARK    3  A    between atoms: C6_9  and  C7_10 
REMARK    4  A    between atoms: C7_10  and  C8_11 
REMARK    5  A    between atoms: C8_11  and  C9_12 
REMARK    6  A    between atoms: C9_12  and  C10_13 
REMARK    7  A    between atoms: C17_28  and  O2_29 
REMARK    8  A    between atoms: O2_29  and  C18_30 
REMARK    9  A    between atoms: C18_30  and  C19_31 
REMARK   10  A    between atoms: C19_31  and  C20_32 
REMARK   11  A    between atoms: C20_32  and  C21_33 
REMARK       I    between atoms: C21_33  and  N5_35 
ROOT
HETATM    1  C1  UNL     1      -0.855  -2.945   0.532  1.00  0.00     0.030 C 
HETATM    2  C2  UNL     1      -0.894  -1.485   0.062  1.00  0.00     0.035 C 
HETATM    3  C3  UNL     1      -1.441  -1.546  -1.371  1.00  0.00     0.030 C 
HETATM    4  S1  UNL     1       0.775  -0.886  -0.012  1.00  0.00    -0.082 SA
HETATM    5  C4  UNL     1       0.743   0.908  -0.208  1.00  0.00     0.143 C 
HETATM    6  N1  UNL     1       1.522   1.445  -1.058  1.00  0.00    -0.371 N 
ATOM      7  H1  UNL     1       1.481   2.460  -1.148  1.00  0.00     0.161 HD
HETATM    8  N4  UNL     1      -0.116   1.759   0.545  1.00  0.00    -0.308 N 
ATOM      9  H4  UNL     1      -0.142   2.732   0.239  1.00  0.00     0.171 HD
HETATM   10  C15 UNL     1      -0.955   1.446   1.678  1.00  0.00     0.226 C 
HETATM   11  O1  UNL     1      -1.398   2.390   2.370  1.00  0.00    -0.273 OA
HETATM   12  C16 UNL     1      -1.303   0.035   2.040  1.00  0.00     0.136 C 
HETATM   13  C17 UNL     1      -1.874  -0.713   0.872  1.00  0.00     0.148 C 
ENDROOT
BRANCH   6  14
HETATM   14  C5  UNL     1       2.448   0.757  -1.897  1.00  0.00     0.121 C 
BRANCH  14  15
HETATM   15  C6  UNL     1       3.543   1.684  -2.415  1.00  0.00     0.020 C 
BRANCH  15  16
HETATM   16  C7  UNL     1       4.316   2.277  -1.268  1.00  0.00     0.002 C 
BRANCH  16  17
HETATM   17  C8  UNL     1       4.983   1.248  -0.395  1.00  0.00     0.002 C 
BRANCH  17  18
HETATM   18  C9  UNL     1       5.944   0.456  -1.223  1.00  0.00     0.024 C 
BRANCH  18  19
HETATM   19  C10 UNL     1       6.659  -0.606  -0.371  1.00  0.00     0.078 C 
HETATM   20  C11 UNL     1       7.588  -1.352  -1.233  1.00  0.00     0.052 C 
HETATM   21  C12 UNL     1       9.045  -1.157  -0.954  1.00  0.00     0.234 C 
HETATM   22  N2  UNL     1       9.405  -1.207   0.423  1.00  0.00    -0.074 N 
HETATM   23  C13 UNL     1       9.590   0.154   0.891  1.00  0.00     0.251 C 
ATOM     24  H22 UNL     1       8.734  -1.729   0.987  1.00  0.00     0.277 HD
ATOM     25  H21 UNL     1      10.219  -1.797   0.596  1.00  0.00     0.277 HD
HETATM   26  C14 UNL     1       8.320   0.910   0.497  1.00  0.00     0.141 C 
HETATM   27  N3  UNL     1       7.217   0.055   0.757  1.00  0.00    -0.415 N 
ATOM     28  H3  UNL     1       6.847  -0.077   1.698  1.00  0.00     0.153 HD
ENDBRANCH  18  19
ENDBRANCH  17  18
ENDBRANCH  16  17
ENDBRANCH  15  16
ENDBRANCH  14  15
ENDBRANCH   6  14
BRANCH  13  29
HETATM   29  O2  UNL     1      -2.573   0.204   0.100  1.00  0.00    -0.384 OA
BRANCH  29  30
HETATM   30  C18 UNL     1      -3.942   0.004   0.059  1.00  0.00     0.168 C 
BRANCH  30  31
HETATM   31  C19 UNL     1      -4.628   0.107   1.389  1.00  0.00     0.035 C 
BRANCH  31  32
HETATM   32  C20 UNL     1      -6.101  -0.104   1.353  1.00  0.00     0.105 C 
BRANCH  32  33
HETATM   33  C21 UNL     1      -6.878   0.830   0.552  1.00  0.00     0.220 C 
HETATM   34  O3  UNL     1      -6.337   1.817   0.007  1.00  0.00    -0.273 OA
HETATM   35  N5  UNL     1      -8.267   0.652   0.364  1.00  0.00    -0.348 N 
HETATM   36  C22 UNL     1      -9.063   1.563  -0.425  1.00  0.00     0.152 C 
HETATM   37  C25 UNL     1      -8.922  -0.478   0.981  1.00  0.00     0.152 C 
HETATM   38  C23 UNL     1     -10.328   1.911   0.301  1.00  0.00     0.187 C 
HETATM   39  O4  UNL     1     -10.924   0.858   0.946  1.00  0.00    -0.388 OA
HETATM   40  C24 UNL     1     -10.412  -0.380   0.637  1.00  0.00     0.187 C 
ENDBRANCH  32  33
ENDBRANCH  31  32
ENDBRANCH  30  31
ENDBRANCH  29  30
ENDBRANCH  13  29
TORSDOF 11
