REMARK  9 active torsions:
REMARK  status: ('A' for Active; 'I' for Inactive)
REMARK    1  A    between atoms: C1_2  and  C2_4 
REMARK    2  A    between atoms: C5_7  and  C6_8 
REMARK    3  A    between atoms: C6_8  and  N2_9 
REMARK    4  A    between atoms: C10_13  and  C11_14 
REMARK       I    between atoms: C11_14  and  N3_16 
REMARK    5  A    between atoms: N3_16  and  C12_18 
REMARK    6  A    between atoms: C12_18  and  C13_19 
REMARK    7  A    between atoms: C13_19  and  C14_20 
REMARK    8  A    between atoms: C14_20  and  N4_21 
REMARK    9  A    between atoms: N4_21  and  C15_23 
ROOT
HETATM    1  C11 UNL     1       0.536   1.770  -0.700  1.00  0.00     0.253 C 
HETATM    2  O2  UNL     1       1.095   2.873  -0.476  1.00  0.00    -0.268 OA
HETATM    3  N3  UNL     1       1.113   0.585  -0.203  1.00  0.00    -0.357 N 
ATOM      4  H3  UNL     1       0.640  -0.298  -0.396  1.00  0.00     0.162 HD
ENDROOT
BRANCH   1   5
HETATM    5  C10 UNL     1      -0.690   1.761  -1.467  1.00  0.00     0.047 A 
HETATM    6  C9  UNL     1      -1.209   2.963  -1.964  1.00  0.00     0.020 A 
HETATM    7  C8  UNL     1      -2.366   3.022  -2.698  1.00  0.00     0.018 A 
HETATM    8  C7  UNL     1      -3.031   1.831  -2.946  1.00  0.00     0.090 A 
HETATM    9  N2  UNL     1      -2.558   0.669  -2.484  1.00  0.00    -0.361 N 
HETATM   10  C19 UNL     1      -1.417   0.635  -1.763  1.00  0.00     0.107 A 
BRANCH   9  11
HETATM   11  C6  UNL     1      -3.256  -0.567  -2.747  1.00  0.00     0.166 C 
BRANCH  11  12
HETATM   12  C5  UNL     1      -4.238  -0.826  -1.663  1.00  0.00    -0.040 A 
HETATM   13  C4  UNL     1      -3.818  -1.536  -0.569  1.00  0.00     0.010 A 
HETATM   14  C3  UNL     1      -4.725  -1.780   0.440  1.00  0.00     0.017 A 
HETATM   15  C2  UNL     1      -6.031  -1.323   0.362  1.00  0.00     0.029 A 
HETATM   16  C21 UNL     1      -6.415  -0.614  -0.750  1.00  0.00     0.017 A 
HETATM   17  C20 UNL     1      -5.511  -0.369  -1.761  1.00  0.00     0.010 A 
BRANCH  15  18
HETATM   18  C1  UNL     1      -6.969  -1.589   1.434  1.00  0.00     0.264 C 
HETATM   19  N1  UNL     1      -6.552  -2.299   2.573  1.00  0.00    -0.057 NA
HETATM   20  O1  UNL     1      -8.146  -1.182   1.334  1.00  0.00    -0.271 OA
ENDBRANCH  15  18
ENDBRANCH  11  12
ENDBRANCH   9  11
ENDBRANCH   1   5
BRANCH   3  21
HETATM   21  C12 UNL     1       2.327   0.549   0.558  1.00  0.00     0.124 C 
BRANCH  21  22
HETATM   22  C13 UNL     1       3.517   1.078  -0.185  1.00  0.00     0.039 C 
BRANCH  22  23
HETATM   23  C14 UNL     1       4.755   0.989   0.708  1.00  0.00     0.123 C 
BRANCH  23  24
HETATM   24  N4  UNL     1       5.006  -0.388   1.085  1.00  0.00    -0.375 N 
ATOM     25  H4  UNL     1       4.313  -1.105   0.868  1.00  0.00     0.161 HD
BRANCH  24  26
HETATM   26  C15 UNL     1       6.094  -0.717   1.691  1.00  0.00     0.115 A 
HETATM   27  C16 UNL     1       6.357  -2.019   2.061  1.00  0.00     0.052 A 
HETATM   28  C17 UNL     1       7.519  -2.379   2.711  1.00  0.00     0.042 A 
HETATM   29  C18 UNL     1       8.443  -1.396   2.996  1.00  0.00     0.094 A 
HETATM   30 BR1  UNL     1      10.086  -1.830   3.901  1.00  0.00    -0.030 Br
HETATM   31  N5  UNL     1       8.169  -0.131   2.628  1.00  0.00    -0.292 N 
HETATM   32  N6  UNL     1       7.031   0.197   1.996  1.00  0.00    -0.285 N 
ATOM     33  H5  UNL     1       8.847   0.602   2.836  1.00  0.00     0.187 HD
ATOM     34  H6  UNL     1       6.872   1.171   1.739  1.00  0.00     0.188 HD
ENDBRANCH  24  26
ENDBRANCH  23  24
ENDBRANCH  22  23
ENDBRANCH  21  22
ENDBRANCH   3  21
TORSDOF 9
