REMARK  13 active torsions:
REMARK  status: ('A' for Active; 'I' for Inactive)
REMARK    1  A    between atoms: C2_2  and  S1_3 
REMARK    2  A    between atoms: S1_3  and  N1_6 
REMARK    3  A    between atoms: N1_6  and  C3_8 
REMARK    4  A    between atoms: C3_8  and  C4_9 
REMARK    5  A    between atoms: C4_9  and  C5_10 
REMARK    6  A    between atoms: C5_10  and  C6_11 
REMARK    7  A    between atoms: C6_11  and  N2_12 
REMARK    8  A    between atoms: C6_11  and  C7_17 
REMARK    9  A    between atoms: C6_11  and  C13_23 
REMARK   10  A    between atoms: C17_27  and  C18_28 
REMARK   11  A    between atoms: C19_29  and  C20_30 
REMARK   12  A    between atoms: C20_30  and  O3_32 
REMARK   13  A    between atoms: C20_30  and  C22_34 
ROOT
HETATM    1  C22 UNL     1      -3.968   3.803  -0.671  1.00  0.00     0.174 C 
HETATM    2  C23 UNL     1      -3.467   4.073   0.678  1.00  0.00     0.063 C 
HETATM    3  N4  UNL     1      -3.065   4.289   1.735  1.00  0.00    -0.197 NA
ENDROOT
BRANCH   1   4
HETATM    4  C20 UNL     1      -4.840   2.577  -0.593  1.00  0.00     0.129 C 
HETATM    5  C21 UNL     1      -6.011   2.838   0.336  1.00  0.00     0.061 C 
BRANCH   4   6
HETATM    6  C19 UNL     1      -4.004   1.480  -0.102  1.00  0.00    -0.062 C 
HETATM    7  C18 UNL     1      -3.324   0.554   0.316  1.00  0.00    -0.064 C 
BRANCH   7   8
HETATM    8  C17 UNL     1      -2.540  -0.534   0.829  1.00  0.00     0.018 A 
HETATM    9  C16 UNL     1      -3.076  -1.474   1.715  1.00  0.00     0.020 A 
HETATM   10  C15 UNL     1      -2.324  -2.511   2.203  1.00  0.00     0.002 A 
HETATM   11  C14 UNL     1      -1.014  -2.634   1.816  1.00  0.00     0.010 A 
HETATM   12  C13 UNL     1      -0.412  -1.728   0.932  1.00  0.00    -0.023 A 
HETATM   13  C24 UNL     1      -1.223  -0.713   0.481  1.00  0.00     0.030 A 
BRANCH  12  14
HETATM   14  C6  UNL     1       0.973  -1.961   0.594  1.00  0.00     0.099 C 
BRANCH  14  15
HETATM   15  C5  UNL     1       1.694  -0.882  -0.128  1.00  0.00     0.044 C 
BRANCH  15  16
HETATM   16  C4  UNL     1       1.860   0.348   0.740  1.00  0.00     0.023 C 
BRANCH  16  17
HETATM   17  C3  UNL     1       2.572   1.473   0.052  1.00  0.00     0.132 C 
BRANCH  17  18
HETATM   18  N1  UNL     1       3.898   1.126  -0.367  1.00  0.00    -0.316 N 
ATOM     19  H1  UNL     1       4.322   0.210  -0.218  1.00  0.00     0.172 HD
BRANCH  18  20
HETATM   20  S1  UNL     1       4.693   2.444  -1.155  1.00  0.00     0.247 S 
HETATM   21  O1  UNL     1       4.019   2.809  -2.448  1.00  0.00    -0.201 OA
HETATM   22  O2  UNL     1       6.092   1.965  -1.505  1.00  0.00    -0.201 OA
BRANCH  20  23
HETATM   23  C2  UNL     1       4.867   3.802  -0.091  1.00  0.00     0.121 C 
HETATM   24  C1  UNL     1       5.843   4.669  -0.272  1.00  0.00     0.025 C 
ENDBRANCH  20  23
ENDBRANCH  18  20
ENDBRANCH  17  18
ENDBRANCH  16  17
ENDBRANCH  15  16
ENDBRANCH  14  15
BRANCH  14  25
HETATM   25  N2  UNL     1       1.732  -2.287   1.763  1.00  0.00    -0.324 N 
HETATM   26  N3  UNL     1       1.443  -1.920   2.910  1.00  0.00    -0.348 N 
ATOM     27  H32 UNL     1       0.605  -1.348   3.011  1.00  0.00     0.176 HD
ATOM     28  H31 UNL     1       1.984  -2.152   3.743  1.00  0.00     0.176 HD
ATOM     29  H2  UNL     1       2.567  -2.860   1.643  1.00  0.00     0.181 HD
ENDBRANCH  14  25
BRANCH  14  30
HETATM   30  C7  UNL     1       0.988  -3.191  -0.280  1.00  0.00    -0.024 A 
HETATM   31  C8  UNL     1       0.593  -3.034  -1.593  1.00  0.00     0.010 A 
HETATM   32  C9  UNL     1       0.571  -4.098  -2.460  1.00  0.00     0.001 A 
HETATM   33  C10 UNL     1       0.942  -5.340  -2.038  1.00  0.00     0.000 A 
HETATM   34  C11 UNL     1       1.336  -5.498  -0.729  1.00  0.00     0.001 A 
HETATM   35  C12 UNL     1       1.355  -4.426   0.135  1.00  0.00     0.010 A 
ENDBRANCH  14  30
ENDBRANCH  12  14
ENDBRANCH   7   8
ENDBRANCH   4   6
BRANCH   4  36
HETATM   36  O3  UNL     1      -5.394   2.282  -1.851  1.00  0.00    -0.377 OA
ATOM     37  H3  UNL     1      -5.936   2.994  -2.170  1.00  0.00     0.211 HD
ENDBRANCH   4  36
ENDBRANCH   1   4
TORSDOF 13
