REMARK  10 active torsions:
REMARK  status: ('A' for Active; 'I' for Inactive)
REMARK    1  A    between atoms: C8_9  and  S1_10 
REMARK    2  A    between atoms: S1_10  and  N1_13 
REMARK    3  A    between atoms: N1_13  and  C9_15 
REMARK    4  A    between atoms: C9_15  and  C10_16 
REMARK    5  A    between atoms: C13_19  and  C14_20 
REMARK    6  A    between atoms: C14_20  and  C15_21 
REMARK    7  A    between atoms: C15_21  and  C16_22 
REMARK    8  A    between atoms: C16_22  and  N2_23 
REMARK    9  A    between atoms: N2_23  and  S2_25 
REMARK   10  A    between atoms: S2_25  and  N3_26 
ROOT
HETATM    1  C1  UNL     1      -7.809  -2.042  -1.137  1.00  0.00     0.018 C 
HETATM    2  C2  UNL     1      -7.244  -1.008  -0.872  1.00  0.00    -0.076 C 
HETATM    3  C3  UNL     1      -6.590   0.222  -0.539  1.00  0.00     0.041 A 
HETATM    4  C4  UNL     1      -7.361   1.337  -0.296  1.00  0.00     0.041 A 
HETATM    5  C5  UNL     1      -6.733   2.535   0.028  1.00  0.00     0.012 A 
HETATM    6 BR1  UNL     1      -7.743   4.122   0.378  1.00  0.00    -0.051 Br
HETATM    7  C6  UNL     1      -5.362   2.568   0.094  1.00  0.00     0.020 A 
HETATM    8  C7  UNL     1      -4.569   1.440  -0.152  1.00  0.00     0.028 A 
HETATM    9  C8  UNL     1      -5.193   0.274  -0.467  1.00  0.00     0.098 A 
ENDROOT
BRANCH   9  10
HETATM   10  S1  UNL     1      -4.342  -1.172  -0.825  1.00  0.00     0.260 S 
HETATM   11  O1  UNL     1      -4.874  -2.364  -0.068  1.00  0.00    -0.200 OA
HETATM   12  O2  UNL     1      -4.563  -1.486  -2.287  1.00  0.00    -0.200 OA
BRANCH  10  13
HETATM   13  N1  UNL     1      -2.661  -1.120  -0.568  1.00  0.00    -0.311 N 
ATOM     14  H1  UNL     1      -1.991  -1.242  -1.328  1.00  0.00     0.172 HD
BRANCH  13  15
HETATM   15  C9  UNL     1      -2.248  -0.894   0.784  1.00  0.00     0.170 C 
BRANCH  15  16
HETATM   16  C10 UNL     1      -0.765  -0.860   0.850  1.00  0.00    -0.040 A 
HETATM   17  C11 UNL     1      -0.131   0.009   1.747  1.00  0.00     0.009 A 
HETATM   18  C12 UNL     1       1.241   0.057   1.829  1.00  0.00     0.007 A 
HETATM   19  C13 UNL     1       2.048  -0.738   1.042  1.00  0.00    -0.058 A 
HETATM   20  C17 UNL     1       1.432  -1.584   0.169  1.00  0.00     0.007 A 
HETATM   21  C18 UNL     1       0.042  -1.645   0.073  1.00  0.00     0.009 A 
BRANCH  19  22
HETATM   22  C14 UNL     1       3.529  -0.699   1.116  1.00  0.00     0.040 C 
BRANCH  22  23
HETATM   23  C15 UNL     1       4.092   0.326   0.150  1.00  0.00     0.025 C 
BRANCH  23  24
HETATM   24  C16 UNL     1       5.601   0.320   0.269  1.00  0.00     0.134 C 
BRANCH  24  25
HETATM   25  N2  UNL     1       6.196   1.287  -0.635  1.00  0.00    -0.303 N 
ATOM     26  H2  UNL     1       5.663   1.887  -1.264  1.00  0.00     0.173 HD
BRANCH  25  27
HETATM   27  S2  UNL     1       7.902   1.296  -0.515  1.00  0.00     0.312 S 
HETATM   28  O3  UNL     1       8.287   0.886   0.880  1.00  0.00    -0.183 OA
HETATM   29  O4  UNL     1       8.508   2.634  -0.812  1.00  0.00    -0.183 OA
BRANCH  27  30
HETATM   30  N3  UNL     1       8.547   0.153  -1.656  1.00  0.00    -0.312 N 
ATOM     31  H32 UNL     1       7.987  -0.421  -2.286  1.00  0.00     0.170 HD
ATOM     32  H31 UNL     1       9.564   0.158  -1.584  1.00  0.00     0.170 HD
ENDBRANCH  27  30
ENDBRANCH  25  27
ENDBRANCH  24  25
ENDBRANCH  23  24
ENDBRANCH  22  23
ENDBRANCH  19  22
ENDBRANCH  15  16
ENDBRANCH  13  15
ENDBRANCH  10  13
ENDBRANCH   9  10
TORSDOF 10
