REMARK  13 active torsions:
REMARK  status: ('A' for Active; 'I' for Inactive)
REMARK    1  A    between atoms: C2_2  and  C3_3 
REMARK    2  A    between atoms: C3_3  and  C4_4 
REMARK    3  A    between atoms: C4_4  and  C5_5 
REMARK    4  A    between atoms: C5_5  and  C6_6 
REMARK    5  A    between atoms: C7_7  and  C8_8 
REMARK    6  A    between atoms: C8_8  and  C9_9 
REMARK    7  A    between atoms: C19_20  and  C20_21 
REMARK    8  A    between atoms: C20_21  and  C21_22 
REMARK    9  A    between atoms: C21_22  and  C22_23 
REMARK   10  A    between atoms: C22_23  and  C23_24 
REMARK   11  A    between atoms: C23_24  and  C24_25 
REMARK   12  A    between atoms: C26_32  and  C27_33 
REMARK   13  A    between atoms: C27_33  and  C28_34 
ROOT
HETATM    1  C9  UNL     1       2.737  -0.881  -0.453  1.00  0.00     0.081 C 
HETATM    2  C10 UNL     1       2.098  -1.600   0.660  1.00  0.00     0.014 C 
HETATM    3  C11 UNL     1       1.659  -0.649   1.792  1.00  0.00     0.001 C 
HETATM    4  C12 UNL     1       1.639  -1.421   3.083  1.00  0.00     0.004 C 
HETATM    5  C13 UNL     1       0.310  -1.337   3.802  1.00  0.00     0.027 C 
HETATM    6  C14 UNL     1      -0.412  -0.078   3.479  1.00  0.00    -0.030 C 
HETATM    7  C15 UNL     1      -1.722  -0.008   3.302  1.00  0.00    -0.021 C 
HETATM    8  C16 UNL     1      -2.657  -1.160   3.397  1.00  0.00     0.100 C 
HETATM    9  S1  UNL     1      -2.855  -1.910   1.764  1.00  0.00    -0.165 SA
HETATM   10  C17 UNL     1      -4.176  -1.072   0.807  1.00  0.00     0.076 C 
HETATM   11  C18 UNL     1      -3.654   0.181   0.156  1.00  0.00     0.035 C 
HETATM   12  C19 UNL     1      -3.786   0.218  -1.328  1.00  0.00     0.085 C 
HETATM   13  N1  UNL     1      -2.565   0.512  -2.049  1.00  0.00    -0.355 N 
ATOM     14  H1  UNL     1      -2.697   0.994  -2.938  1.00  0.00     0.162 HD
HETATM   15  C25 UNL     1      -1.246   0.243  -1.723  1.00  0.00     0.241 C 
HETATM   16  O3  UNL     1      -0.435   1.242  -1.644  1.00  0.00    -0.271 OA
HETATM   17  C26 UNL     1      -0.588  -1.060  -1.440  1.00  0.00     0.186 C 
HETATM   18  N2  UNL     1       0.706  -1.063  -2.089  1.00  0.00    -0.347 N 
ATOM     19  H2  UNL     1       0.726  -1.494  -3.013  1.00  0.00     0.163 HD
HETATM   20  C29 UNL     1       1.930  -0.565  -1.640  1.00  0.00     0.222 C 
HETATM   21  O6  UNL     1       2.483   0.340  -2.384  1.00  0.00    -0.273 OA
ENDROOT
BRANCH   1  22
HETATM   22  C8  UNL     1       3.952  -1.639  -0.973  1.00  0.00     0.041 C 
BRANCH  22  23
HETATM   23  C7  UNL     1       5.020  -1.851  -0.018  1.00  0.00    -0.030 C 
HETATM   24  C6  UNL     1       6.233  -1.385  -0.215  1.00  0.00    -0.031 C 
BRANCH  24  25
HETATM   25  C5  UNL     1       6.760  -0.613  -1.337  1.00  0.00     0.027 C 
BRANCH  25  26
HETATM   26  C4  UNL     1       7.267   0.725  -0.805  1.00  0.00     0.007 C 
BRANCH  26  27
HETATM   27  C3  UNL     1       6.136   1.486  -0.162  1.00  0.00     0.026 C 
BRANCH  27  28
HETATM   28  C2  UNL     1       6.639   2.778   0.348  1.00  0.00    -0.037 C 
HETATM   29  C1  UNL     1       7.908   3.102   0.216  1.00  0.00     0.007 C 
ENDBRANCH  27  28
ENDBRANCH  26  27
ENDBRANCH  25  26
ENDBRANCH  24  25
ENDBRANCH  22  23
ENDBRANCH   1  22
BRANCH  17  30
HETATM   30  C27 UNL     1      -1.418  -2.227  -1.946  1.00  0.00     0.147 C 
BRANCH  30  31
HETATM   31  C28 UNL     1      -0.720  -3.507  -1.653  1.00  0.00     0.175 C 
HETATM   32  O4  UNL     1      -0.839  -4.021  -0.509  1.00  0.00    -0.648 OA
HETATM   33  O5  UNL     1       0.058  -4.126  -2.644  1.00  0.00    -0.648 OA
ENDBRANCH  30  31
ENDBRANCH  17  30
BRANCH  12  34
HETATM   34  C20 UNL     1      -4.831   1.309  -1.643  1.00  0.00     0.025 C 
BRANCH  34  35
HETATM   35  C21 UNL     1      -6.162   0.992  -1.012  1.00  0.00     0.002 C 
BRANCH  35  36
HETATM   36  C22 UNL     1      -7.118   2.098  -1.376  1.00  0.00     0.010 C 
BRANCH  36  37
HETATM   37  C23 UNL     1      -6.716   3.457  -0.936  1.00  0.00     0.113 C 
BRANCH  37  38
HETATM   38  C24 UNL     1      -6.578   3.659   0.508  1.00  0.00     0.172 C 
HETATM   39  O1  UNL     1      -6.822   2.763   1.322  1.00  0.00    -0.648 OA
HETATM   40  O2  UNL     1      -6.162   4.886   1.003  1.00  0.00    -0.648 OA
ENDBRANCH  37  38
ENDBRANCH  36  37
ENDBRANCH  35  36
ENDBRANCH  34  35
ENDBRANCH  12  34
TORSDOF 13
