REMARK  14 active torsions:
REMARK  status: ('A' for Active; 'I' for Inactive)
REMARK    1  A    between atoms: C2_2  and  C3_3 
REMARK    2  A    between atoms: C3_3  and  O1_4 
REMARK    3  A    between atoms: C3_3  and  C4_6 
REMARK    4  A    between atoms: C3_3  and  C32_41 
REMARK    5  A    between atoms: C5_7  and  C6_8 
REMARK    6  A    between atoms: C6_8  and  C7_9 
REMARK    7  A    between atoms: C7_9  and  C8_10 
REMARK    8  A    between atoms: C8_10  and  C9_11 
REMARK    9  A    between atoms: C9_11  and  O2_12 
REMARK   10  A    between atoms: C9_11  and  N1_14 
REMARK   11  A    between atoms: N1_14  and  C10_16 
REMARK   12  A    between atoms: N2_29  and  C23_30 
REMARK   13  A    between atoms: C23_30  and  C24_31 
REMARK   14  A    between atoms: C30_37  and  C31_38 
ROOT
HETATM    1  C10 UNL     1       0.198   0.810   1.105  1.00  0.00     0.036 A 
HETATM    2  C11 UNL     1       0.629  -0.028   2.134  1.00  0.00     0.030 A 
HETATM    3  C12 UNL     1       1.942  -0.507   2.223  1.00  0.00     0.010 A 
HETATM    4  C13 UNL     1       2.794  -0.113   1.251  1.00  0.00    -0.045 A 
HETATM    5  C14 UNL     1       2.459   0.716   0.203  1.00  0.00    -0.033 A 
HETATM    6  C15 UNL     1       1.125   1.138   0.195  1.00  0.00    -0.024 A 
HETATM    7  C16 UNL     1       0.786   1.888  -1.053  1.00  0.00     0.042 C 
HETATM    8  C17 UNL     1       1.239   0.834  -2.134  1.00  0.00     0.016 C 
HETATM    9  C18 UNL     1       2.669   0.371  -1.793  1.00  0.00    -0.010 A 
HETATM   10  C19 UNL     1       3.693   1.066  -2.248  1.00  0.00     0.027 A 
HETATM   11  C20 UNL     1       3.235   1.297  -0.908  1.00  0.00    -0.001 A 
HETATM   12  C21 UNL     1       4.266   2.007  -0.292  1.00  0.00     0.035 C 
HETATM   13  C22 UNL     1       5.491   1.249   0.239  1.00  0.00     0.123 C 
HETATM   14  N2  UNL     1       5.634  -0.055  -0.266  1.00  0.00    -0.384 N 
HETATM   15  C27 UNL     1       4.773  -1.098   0.187  1.00  0.00     0.008 C 
HETATM   16  C28 UNL     1       4.087  -0.861   1.513  1.00  0.00     0.095 C 
HETATM   17  C29 UNL     1       3.982  -1.636  -0.915  1.00  0.00     0.014 C 
HETATM   18  C30 UNL     1       2.737  -1.098  -1.437  1.00  0.00     0.121 C 
ENDROOT
BRANCH   1  19
HETATM   19  N1  UNL     1      -1.156   1.280   1.084  1.00  0.00    -0.363 N 
ATOM     20  H1  UNL     1      -1.423   1.950   0.362  1.00  0.00     0.162 HD
BRANCH  19  21
HETATM   21  C9  UNL     1      -2.168   0.855   2.034  1.00  0.00     0.217 C 
BRANCH  21  22
HETATM   22  C8  UNL     1      -3.402   1.661   1.755  1.00  0.00     0.054 C 
BRANCH  22  23
HETATM   23  C7  UNL     1      -4.614   1.346   2.546  1.00  0.00     0.008 C 
BRANCH  23  24
HETATM   24  C6  UNL     1      -5.138  -0.023   2.341  1.00  0.00     0.027 C 
BRANCH  24  25
HETATM   25  C5  UNL     1      -5.486  -0.208   0.905  1.00  0.00    -0.028 C 
HETATM   26  C4  UNL     1      -6.742  -0.504   0.595  1.00  0.00     0.006 C 
BRANCH  26  27
HETATM   27  C3  UNL     1      -7.112  -0.694  -0.843  1.00  0.00     0.075 C 
BRANCH  27  28
HETATM   28  C2  UNL     1      -8.469  -0.058  -1.041  1.00  0.00     0.037 C 
HETATM   29  C1  UNL     1      -8.327   1.407  -0.682  1.00  0.00     0.008 C 
ENDBRANCH  27  28
BRANCH  27  30
HETATM   30  O1  UNL     1      -6.206  -0.063  -1.674  1.00  0.00    -0.386 OA
ATOM     31  H1  UNL     1      -5.353  -0.463  -1.550  1.00  0.00     0.211 HD
ENDBRANCH  27  30
BRANCH  27  32
HETATM   32  C32 UNL     1      -7.132  -2.173  -1.195  1.00  0.00     0.037 C 
HETATM   33  C33 UNL     1      -8.112  -2.929  -0.336  1.00  0.00     0.008 C 
ENDBRANCH  27  32
ENDBRANCH  26  27
ENDBRANCH  24  25
ENDBRANCH  23  24
ENDBRANCH  22  23
ENDBRANCH  21  22
BRANCH  21  34
HETATM   34  O2  UNL     1      -2.402  -0.483   1.781  1.00  0.00    -0.377 OA
ATOM     35  H2  UNL     1      -1.621  -0.993   1.958  1.00  0.00     0.212 HD
ENDBRANCH  21  34
ENDBRANCH  19  21
ENDBRANCH   1  19
BRANCH  18  36
HETATM   36  C31 UNL     1       2.505  -1.783  -2.764  1.00  0.00     0.181 C 
HETATM   37  O3  UNL     1       3.403  -2.527  -3.210  1.00  0.00    -0.647 OA
HETATM   38  O4  UNL     1       1.371  -1.645  -3.520  1.00  0.00    -0.647 OA
ENDBRANCH  18  36
BRANCH  14  39
HETATM   39  C23 UNL     1       6.942  -0.484  -0.632  1.00  0.00     0.127 C 
BRANCH  39  40
HETATM   40  C24 UNL     1       7.924  -0.705   0.451  1.00  0.00     0.003 A 
HETATM   41  C25 UNL     1       8.407   0.275   1.416  1.00  0.00     0.007 A 
HETATM   42  C26 UNL     1       9.277   0.007   0.223  1.00  0.00     0.007 A 
ENDBRANCH  39  40
ENDBRANCH  14  39
TORSDOF 14
