REMARK  15 active torsions:
REMARK  status: ('A' for Active; 'I' for Inactive)
REMARK    1  A    between atoms: C4_4  and  O1_5 
REMARK    2  A    between atoms: C5_7  and  C6_8 
REMARK    3  A    between atoms: C6_8  and  O2_9 
REMARK    4  A    between atoms: C6_8  and  C7_11 
REMARK    5  A    between atoms: C7_11  and  C8_12 
REMARK    6  A    between atoms: C8_12  and  C9_13 
REMARK    7  A    between atoms: C9_13  and  C10_14 
REMARK    8  A    between atoms: C10_14  and  C11_15 
REMARK    9  A    between atoms: C11_15  and  C12_16 
REMARK   10  A    between atoms: C12_16  and  O3_17 
REMARK   11  A    between atoms: C14_19  and  C15_20 
REMARK   12  A    between atoms: C16_21  and  O4_22 
REMARK   13  A    between atoms: C19_26  and  C20_27 
REMARK   14  A    between atoms: C25_32  and  C26_33 
REMARK   15  A    between atoms: C26_33  and  C27_34 
ROOT
HETATM    1  C1  UNL     1       3.023  -4.510   0.560  1.00  0.00     0.015 C 
HETATM    2  C2  UNL     1       2.586  -3.373   0.018  1.00  0.00    -0.083 C 
HETATM    3  C3  UNL     1       3.601  -2.665  -0.824  1.00  0.00     0.065 C 
HETATM    4  C4  UNL     1       2.916  -1.556  -1.519  1.00  0.00     0.129 C 
HETATM    5  C5  UNL     1       2.125  -0.653  -0.601  1.00  0.00     0.049 C 
HETATM    6  C14 UNL     1       0.974  -1.429  -0.001  1.00  0.00     0.009 C 
HETATM    7  C31 UNL     1       1.212  -2.867   0.236  1.00  0.00     0.015 C 
HETATM    8  C32 UNL     1       0.827  -3.309   1.639  1.00  0.00     0.015 C 
ENDROOT
BRANCH   6   9
HETATM    9  C15 UNL     1      -0.266  -1.076  -0.735  1.00  0.00     0.028 C 
HETATM   10  C16 UNL     1      -0.565   0.388  -0.530  1.00  0.00     0.127 C 
HETATM   11  C17 UNL     1      -1.980   0.488  -1.127  1.00  0.00     0.066 C 
HETATM   12  C18 UNL     1      -2.605  -0.699  -0.499  1.00  0.00    -0.073 C 
HETATM   13  C19 UNL     1      -3.880  -0.802  -0.176  1.00  0.00     0.003 C 
HETATM   14  C29 UNL     1      -1.525  -1.725  -0.316  1.00  0.00     0.017 C 
HETATM   15  C30 UNL     1      -1.942  -2.882  -1.211  1.00  0.00     0.015 C 
BRANCH  10  16
HETATM   16  O4  UNL     1      -0.756   0.674   0.842  1.00  0.00    -0.395 OA
ATOM     17  H4  UNL     1      -0.944   1.596   0.971  1.00  0.00     0.210 HD
ENDBRANCH  10  16
BRANCH  13  18
HETATM   18  C20 UNL     1      -4.815   0.272  -0.414  1.00  0.00     0.003 C 
HETATM   19  C21 UNL     1      -6.105   0.154  -0.083  1.00  0.00    -0.080 C 
HETATM   20  C22 UNL     1      -6.520  -1.117   0.531  1.00  0.00     0.034 C 
HETATM   21  C28 UNL     1      -7.006   1.277  -0.351  1.00  0.00     0.039 C 
HETATM   22  C23 UNL     1      -8.012  -1.228   0.682  1.00  0.00     0.005 C 
HETATM   23  C24 UNL     1      -8.477   0.079   1.300  1.00  0.00     0.005 C 
HETATM   24  C25 UNL     1      -8.388   1.102   0.162  1.00  0.00    -0.001 C 
BRANCH  24  25
HETATM   25  C26 UNL     1      -8.993   2.377   0.701  1.00  0.00     0.118 C 
BRANCH  25  26
HETATM   26  C27 UNL     1      -9.009   3.493  -0.238  1.00  0.00     0.172 C 
HETATM   27  O5  UNL     1      -9.476   4.601   0.118  1.00  0.00    -0.648 OA
HETATM   28  O6  UNL     1      -8.518   3.356  -1.522  1.00  0.00    -0.648 OA
ENDBRANCH  25  26
ENDBRANCH  24  25
ENDBRANCH  13  18
ENDBRANCH   6   9
BRANCH   5  29
HETATM   29  C6  UNL     1       2.940   0.058   0.441  1.00  0.00     0.125 C 
BRANCH  29  30
HETATM   30  O2  UNL     1       3.624  -0.749   1.304  1.00  0.00    -0.395 OA
ATOM     31  H2  UNL     1       4.140  -0.299   1.963  1.00  0.00     0.210 HD
ENDBRANCH  29  30
BRANCH  29  32
HETATM   32  C7  UNL     1       3.757   1.179  -0.119  1.00  0.00     0.032 C 
BRANCH  32  33
HETATM   33  C8  UNL     1       4.523   1.801   1.058  1.00  0.00     0.002 C 
BRANCH  33  34
HETATM   34  C9  UNL     1       5.378   2.949   0.582  1.00  0.00     0.000 C 
BRANCH  34  35
HETATM   35  C10 UNL     1       6.395   2.548  -0.438  1.00  0.00     0.002 C 
BRANCH  35  36
HETATM   36  C11 UNL     1       7.371   1.514   0.044  1.00  0.00     0.026 C 
BRANCH  36  37
HETATM   37  C12 UNL     1       8.171   1.950   1.222  1.00  0.00     0.167 C 
BRANCH  37  38
HETATM   38  O3  UNL     1       8.897   3.072   0.978  1.00  0.00    -0.396 OA
HETATM   39  C13 UNL     1       9.817   2.947  -0.037  1.00  0.00     0.201 C 
ENDBRANCH  37  38
ENDBRANCH  36  37
ENDBRANCH  35  36
ENDBRANCH  34  35
ENDBRANCH  33  34
ENDBRANCH  32  33
ENDBRANCH  29  32
ENDBRANCH   5  29
BRANCH   4  40
HETATM   40  O1  UNL     1       3.733  -0.897  -2.390  1.00  0.00    -0.395 OA
ATOM     41  H1  UNL     1       3.292  -0.184  -2.837  1.00  0.00     0.210 HD
ENDBRANCH   4  40
TORSDOF 15
