REMARK  14 active torsions:
REMARK  status: ('A' for Active; 'I' for Inactive)
REMARK    1  A    between atoms: C4_4  and  S1_5 
REMARK    2  A    between atoms: S1_5  and  N1_8 
REMARK    3  A    between atoms: N1_8  and  C5_10 
REMARK    4  A    between atoms: C5_10  and  C6_11 
REMARK    5  A    between atoms: C6_11  and  C7_12 
REMARK    6  A    between atoms: C7_12  and  C8_13 
REMARK    7  A    between atoms: C8_13  and  C9_14 
REMARK    8  A    between atoms: C16_23  and  N3_24 
REMARK    9  A    between atoms: N3_24  and  C17_26 
REMARK   10  A    between atoms: C17_26  and  N4_28 
REMARK   11  A    between atoms: N4_28  and  C18_30 
REMARK   12  A    between atoms: C18_30  and  C19_31 
REMARK   13  A    between atoms: C19_31  and  S3_32 
REMARK   14  A    between atoms: S3_32  and  C20_33 
ROOT
HETATM    1  C1  UNL     1       0.015   0.599  -4.361  1.00  0.00     0.050 C 
HETATM    2  C2  UNL     1       0.239  -0.207  -3.146  1.00  0.00    -0.034 A 
HETATM    3  C3  UNL     1       1.520  -0.565  -2.786  1.00  0.00     0.034 A 
HETATM    4  C4  UNL     1       1.786  -1.309  -1.665  1.00  0.00     0.080 A 
HETATM    5  C14 UNL     1       0.714  -1.691  -0.902  1.00  0.00     0.027 A 
HETATM    6  C15 UNL     1      -0.597  -1.328  -1.267  1.00  0.00     0.031 A 
HETATM    7  C16 UNL     1      -0.871  -0.588  -2.380  1.00  0.00     0.040 A 
ENDROOT
BRANCH   4   8
HETATM    8  S1  UNL     1       3.431  -1.735  -1.238  1.00  0.00     0.258 S 
HETATM    9  O1  UNL     1       4.247  -1.698  -2.499  1.00  0.00    -0.201 OA
HETATM   10  O2  UNL     1       3.512  -3.135  -0.708  1.00  0.00    -0.201 OA
BRANCH   8  11
HETATM   11  N1  UNL     1       4.114  -0.630  -0.134  1.00  0.00    -0.315 N 
ATOM     12  H1  UNL     1       4.428  -0.894   0.800  1.00  0.00     0.172 HD
BRANCH  11  13
HETATM   13  C5  UNL     1       4.204   0.694  -0.641  1.00  0.00     0.132 C 
BRANCH  13  14
HETATM   14  C6  UNL     1       4.801   1.632   0.350  1.00  0.00     0.020 C 
BRANCH  14  15
HETATM   15  C7  UNL     1       6.203   1.412   0.779  1.00  0.00     0.004 C 
BRANCH  15  16
HETATM   16  C8  UNL     1       6.443   0.113   1.416  1.00  0.00     0.025 C 
BRANCH  16  17
HETATM   17  C9  UNL     1       7.904  -0.012   1.927  1.00  0.00     0.080 C 
HETATM   18  C10 UNL     1       8.882   0.123   0.835  1.00  0.00     0.025 C 
HETATM   19  C11 UNL     1       9.869   1.249   0.989  1.00  0.00     0.007 C 
HETATM   20  C12 UNL     1      10.390   1.192   2.414  1.00  0.00     0.044 C 
HETATM   21  C13 UNL     1       9.231   1.517   3.297  1.00  0.00     0.056 C 
HETATM   22  N2  UNL     1       8.065   0.755   3.099  1.00  0.00    -0.398 N 
ATOM     23  H2  UNL     1       7.332   0.757   3.808  1.00  0.00     0.159 HD
ENDBRANCH  16  17
ENDBRANCH  15  16
ENDBRANCH  14  15
ENDBRANCH  13  14
ENDBRANCH  11  13
ENDBRANCH   8  11
ENDBRANCH   4   8
BRANCH   7  24
HETATM   24  N3  UNL     1      -2.136  -0.194  -2.841  1.00  0.00    -0.333 N 
ATOM     25  H3  UNL     1      -2.126   0.254  -3.757  1.00  0.00     0.168 HD
BRANCH  24  26
HETATM   26  C17 UNL     1      -3.407  -0.304  -2.272  1.00  0.00     0.172 C 
HETATM   27  S2  UNL     1      -3.695  -0.915  -0.813  1.00  0.00    -0.041 SA
BRANCH  26  28
HETATM   28  N4  UNL     1      -4.548   0.185  -2.993  1.00  0.00    -0.366 N 
ATOM     29  H4  UNL     1      -4.401   0.609  -3.909  1.00  0.00     0.161 HD
BRANCH  28  30
HETATM   30  C18 UNL     1      -5.884   0.104  -2.483  1.00  0.00     0.132 C 
BRANCH  30  31
HETATM   31  C19 UNL     1      -6.467  -1.273  -2.416  1.00  0.00     0.094 C 
BRANCH  31  32
HETATM   32  S3  UNL     1      -8.172  -1.169  -1.738  1.00  0.00    -0.163 SA
BRANCH  32  33
HETATM   33  C20 UNL     1      -8.116  -0.602  -0.017  1.00  0.00     0.047 C 
HETATM   34  C21 UNL     1      -7.447  -1.595   0.905  1.00  0.00     0.015 C 
HETATM   35  C22 UNL     1      -7.214  -0.882   2.230  1.00  0.00     0.001 C 
HETATM   36  C23 UNL     1      -8.456  -0.743   3.045  1.00  0.00     0.000 C 
HETATM   37  C24 UNL     1      -9.209   0.540   2.840  1.00  0.00     0.000 C 
HETATM   38  C25 UNL     1      -9.354   0.928   1.403  1.00  0.00     0.001 C 
HETATM   39  C26 UNL     1      -9.468  -0.311   0.542  1.00  0.00     0.015 C 
ENDBRANCH  32  33
ENDBRANCH  31  32
ENDBRANCH  30  31
ENDBRANCH  28  30
ENDBRANCH  26  28
ENDBRANCH  24  26
ENDBRANCH   7  24
TORSDOF 14
