REMARK  3 active torsions:
REMARK  status: ('A' for Active; 'I' for Inactive)
REMARK    1  A    between atoms: N1_1  and  N2_4 
REMARK    2  A    between atoms: C1_5  and  C2_6 
REMARK    3  A    between atoms: C4_8  and  C5_9 
ROOT
HETATM    1  N2  UNL     1       2.279   0.381   0.398  1.00  0.00    -0.217 N 
HETATM    2  C1  UNL     1       1.456  -0.512  -0.135  1.00  0.00     0.156 A 
HETATM    3  N3  UNL     1       2.269  -1.509  -0.580  1.00  0.00    -0.281 N 
ATOM      4  H3  UNL     1       1.942  -2.355  -1.046  1.00  0.00     0.188 HD
HETATM    5  N4  UNL     1       3.520  -1.241  -0.333  1.00  0.00    -0.273 N 
ATOM      6  H4  UNL     1       4.318  -1.831  -0.569  1.00  0.00     0.189 HD
HETATM    7  C9  UNL     1       3.574  -0.054   0.286  1.00  0.00     0.213 A 
HETATM    8  S1  UNL     1       4.895   0.712   0.798  1.00  0.00    -0.037 SA
ENDROOT
BRANCH   2   9
HETATM    9  C2  UNL     1       0.022  -0.508  -0.257  1.00  0.00     0.034 A 
HETATM   10  C3  UNL     1      -0.841   0.461   0.175  1.00  0.00     0.029 A 
HETATM   11  C4  UNL     1      -2.227   0.396   0.021  1.00  0.00     0.010 A 
HETATM   12  C6  UNL     1      -2.775  -0.700  -0.601  1.00  0.00     0.126 A 
HETATM   13  F2  UNL     1      -4.115  -0.786  -0.763  1.00  0.00    -0.205 F 
HETATM   14  C7  UNL     1      -1.938  -1.704  -1.054  1.00  0.00     0.067 A 
HETATM   15  C8  UNL     1      -0.578  -1.609  -0.887  1.00  0.00     0.051 A 
HETATM   16 CL1  UNL     1       0.400  -2.944  -1.500  1.00  0.00    -0.083 Cl
BRANCH  11  17
HETATM   17  C5  UNL     1      -3.106   1.488   0.516  1.00  0.00     0.263 C 
HETATM   18  F1  UNL     1      -3.569   2.302  -0.489  1.00  0.00    -0.250 F 
ENDBRANCH  11  17
ENDBRANCH   2   9
BRANCH   1  19
HETATM   19  N1  UNL     1       1.957   1.597   0.997  1.00  0.00    -0.335 N 
ATOM     20  H12 UNL     1       0.993   1.921   1.080  1.00  0.00     0.177 HD
ATOM     21  H11 UNL     1       2.590   2.284   1.407  1.00  0.00     0.177 HD
ENDBRANCH   1  19
TORSDOF 3
