REMARK  4 active torsions:
REMARK  status: ('A' for Active; 'I' for Inactive)
REMARK    1  A    between atoms: C2_2  and  C3_3 
REMARK    2  A    between atoms: C4_8  and  C5_9 
REMARK    3  A    between atoms: C5_9  and  C6_10 
REMARK    4  A    between atoms: C10_16  and  O1_17 
ROOT
HETATM    1  C6  UNL     1      -1.717   0.208   0.521  1.00  0.00    -0.024 A 
HETATM    2  C7  UNL     1      -1.485  -0.112  -0.784  1.00  0.00     0.053 A 
HETATM    3  C8  UNL     1      -2.554  -0.416  -1.622  1.00  0.00     0.141 A 
HETATM    4  F1  UNL     1      -2.305  -0.732  -2.917  1.00  0.00    -0.204 F 
HETATM    5  C9  UNL     1      -3.864  -0.402  -1.157  1.00  0.00     0.107 A 
HETATM    6 CL1  UNL     1      -5.217  -0.788  -2.225  1.00  0.00    -0.078 Cl
HETATM    7  C10 UNL     1      -4.099  -0.077   0.167  1.00  0.00     0.112 A 
HETATM    8  C11 UNL     1      -3.027   0.219   0.973  1.00  0.00     0.075 A 
HETATM    9 CL2  UNL     1      -3.378   0.628   2.657  1.00  0.00    -0.081 Cl
ENDROOT
BRANCH   1  10
HETATM   10  C5  UNL     1      -0.666   0.549   1.505  1.00  0.00     0.118 C 
BRANCH  10  11
HETATM   11  C4  UNL     1       0.685   0.504   0.912  1.00  0.00     0.101 A 
HETATM   12  N2  UNL     1       1.340   1.517   0.318  1.00  0.00    -0.287 N 
HETATM   13  N1  UNL     1       2.546   1.098  -0.098  1.00  0.00    -0.288 N 
ATOM     14  H2  UNL     1       0.975   2.462   0.201  1.00  0.00     0.188 HD
HETATM   15  C3  UNL     1       2.670  -0.181   0.226  1.00  0.00     0.096 A 
ATOM     16  H1  UNL     1       3.244   1.665  -0.579  1.00  0.00     0.188 HD
HETATM   17  N3  UNL     1       1.542  -0.546   0.840  1.00  0.00    -0.333 N 
ATOM     18  H3  UNL     1       1.352  -1.480   1.203  1.00  0.00     0.168 HD
BRANCH  15  19
HETATM   19  C2  UNL     1       3.864  -1.040  -0.055  1.00  0.00     0.073 C 
HETATM   20  C1  UNL     1       4.932  -0.273  -0.762  1.00  0.00     0.013 C 
ENDBRANCH  15  19
ENDBRANCH  10  11
ENDBRANCH   1  10
BRANCH   7  21
HETATM   21  O1  UNL     1      -5.405  -0.055   0.658  1.00  0.00    -0.357 OA
ATOM     22  H1  UNL     1      -5.566   0.168   1.567  1.00  0.00     0.217 HD
ENDBRANCH   7  21
TORSDOF 4
