REMARK  3 active torsions:
REMARK  status: ('A' for Active; 'I' for Inactive)
REMARK    1  A    between atoms: C2_2  and  C3_3 
REMARK    2  A    between atoms: N3_8  and  N4_9 
REMARK    3  A    between atoms: N4_9  and  C4_11 
ROOT
HETATM    1  N4  UNL     1      -0.008   0.211  -0.286  1.00  0.00    -0.275 N 
ATOM      2  H4  UNL     1       0.331   1.165  -0.413  1.00  0.00     0.189 HD
ENDROOT
BRANCH   1   3
HETATM    3  N3  UNL     1       0.946  -0.780  -0.434  1.00  0.00    -0.168 N 
HETATM    4  C3  UNL     1       2.280  -0.662  -0.727  1.00  0.00     0.138 A 
HETATM    5  N1  UNL     1       2.351  -1.992  -0.666  1.00  0.00    -0.270 N 
HETATM    6  N2  UNL     1       1.039  -2.076  -0.380  1.00  0.00    -0.218 N 
ATOM      7  H1  UNL     1       3.100  -2.673  -0.788  1.00  0.00     0.190 HD
ATOM      8  H2  UNL     1       0.388  -2.839  -0.197  1.00  0.00     0.210 HD
BRANCH   4   9
HETATM    9  C2  UNL     1       3.245   0.465  -0.998  1.00  0.00     0.077 C 
HETATM   10  C1  UNL     1       3.831   0.876   0.331  1.00  0.00     0.013 C 
ENDBRANCH   4   9
ENDBRANCH   1   3
BRANCH   1  11
HETATM   11  C4  UNL     1      -1.372   0.095   0.013  1.00  0.00     0.075 A 
HETATM   12  C5  UNL     1      -2.000  -1.087   0.215  1.00  0.00     0.056 A 
HETATM   13  C6  UNL     1      -3.379  -1.153   0.514  1.00  0.00     0.037 A 
HETATM   14 CL1  UNL     1      -4.171  -2.676   0.771  1.00  0.00    -0.084 Cl
HETATM   15  C7  UNL     1      -4.111   0.012   0.605  1.00  0.00     0.049 A 
HETATM   16  C8  UNL     1      -3.500   1.227   0.406  1.00  0.00     0.059 A 
HETATM   17 CL2  UNL     1      -4.381   2.741   0.509  1.00  0.00    -0.082 Cl
HETATM   18  C9  UNL     1      -2.153   1.247   0.116  1.00  0.00     0.084 A 
HETATM   19 CL3  UNL     1      -1.372   2.785  -0.139  1.00  0.00    -0.080 Cl
ENDBRANCH   1  11
TORSDOF 3
