REMARK  4 active torsions:
REMARK  status: ('A' for Active; 'I' for Inactive)
REMARK    1  A    between atoms: C2_2  and  N2_6 
REMARK    2  A    between atoms: C5_9  and  N3_10 
REMARK       I    between atoms: N3_10  and  C6_12 
REMARK    3  A    between atoms: C6_12  and  C7_14 
REMARK    4  A    between atoms: C7_14  and  N4_15 
ROOT
HETATM    1  N3  UNL     1       0.113  -0.080   0.759  1.00  0.00    -0.353 N 
ATOM      2  H3  UNL     1       0.051   0.861   0.371  1.00  0.00     0.163 HD
HETATM    3  C6  UNL     1      -1.079  -0.701   1.174  1.00  0.00     0.246 C 
HETATM    4  O1  UNL     1      -1.059  -1.890   1.681  1.00  0.00    -0.272 OA
ENDROOT
BRANCH   1   5
HETATM    5  C5  UNL     1       1.414  -0.688   0.847  1.00  0.00     0.104 C 
HETATM    6  C4  UNL     1       2.345  -0.010   1.784  1.00  0.00     0.046 C 
HETATM    7  C3  UNL     1       3.677  -0.624   1.387  1.00  0.00     0.126 C 
HETATM    8  N2  UNL     1       3.544  -0.712  -0.072  1.00  0.00    -0.369 N 
HETATM    9  C13 UNL     1       2.148  -0.805  -0.426  1.00  0.00     0.149 C 
BRANCH   8  10
HETATM   10  C2  UNL     1       4.678  -0.699  -0.939  1.00  0.00     0.068 C 
HETATM   11  C1  UNL     1       5.651   0.424  -0.878  1.00  0.00     0.088 C 
HETATM   12  N1  UNL     1       4.874  -1.654  -1.785  1.00  0.00    -0.389 N 
ATOM     13  H12 UNL     1       5.684  -1.645  -2.404  1.00  0.00     0.157 HD
ATOM     14  H11 UNL     1       4.207  -2.424  -1.827  1.00  0.00     0.157 HD
ENDBRANCH   8  10
ENDBRANCH   1   5
BRANCH   3  15
HETATM   15  C7  UNL     1      -2.440  -0.153   1.117  1.00  0.00     0.375 C 
BRANCH  15  16
HETATM   16  N4  UNL     1      -2.609   1.121   0.504  1.00  0.00     0.103 N 
HETATM   17  C8  UNL     1      -3.944   1.576   0.992  1.00  0.00     0.293 C 
HETATM   18  C9  UNL     1      -4.904   0.603   0.342  1.00  0.00     0.112 C 
HETATM   19 CL1  UNL     1      -6.484   1.328   0.021  1.00  0.00    -0.123 Cl
HETATM   20  C10 UNL     1      -4.259   0.241  -0.975  1.00  0.00     0.057 C 
HETATM   21  C11 UNL     1      -2.956   1.019  -0.908  1.00  0.00     0.221 C 
HETATM   22  C12 UNL     1      -1.957   0.353  -1.777  1.00  0.00     0.043 C 
ENDBRANCH  15  16
ENDBRANCH   3  15
TORSDOF 4
