REMARK  3 active torsions:
REMARK  status: ('A' for Active; 'I' for Inactive)
REMARK    1  A    between atoms: C1_2  and  C2_3 
REMARK       I    between atoms: C1_2  and  N3_14 
REMARK    2  A    between atoms: C2_3  and  N1_4 
REMARK       I    between atoms: N1_4  and  C3_6 
REMARK       I    between atoms: C3_6  and  N2_8 
REMARK    3  A    between atoms: N3_14  and  C9_16 
ROOT
HETATM    1  O1  UNL     1       0.845   0.568  -1.271  1.00  0.00    -0.272 OA
HETATM    2  C1  UNL     1       0.996   0.256  -0.062  1.00  0.00     0.235 C 
HETATM    3  N3  UNL     1       2.279   0.241   0.555  1.00  0.00    -0.352 N 
ATOM      4  H3  UNL     1       2.335  -0.020   1.539  1.00  0.00     0.163 HD
ENDROOT
BRANCH   2   5
HETATM    5  C2  UNL     1      -0.196  -0.103   0.732  1.00  0.00     0.227 C 
BRANCH   5   6
HETATM    6  N1  UNL     1      -1.365  -0.013  -0.106  1.00  0.00    -0.334 N 
HETATM    7  C3  UNL     1      -2.637  -0.309   0.418  1.00  0.00     0.318 C 
HETATM    8  O2  UNL     1      -2.731  -0.655   1.636  1.00  0.00    -0.247 OA
HETATM    9  N2  UNL     1      -3.792  -0.223  -0.401  1.00  0.00    -0.334 N 
HETATM   10  C4  UNL     1      -3.673   0.166  -1.758  1.00  0.00     0.127 C 
HETATM   11  C8  UNL     1      -5.082  -0.538   0.167  1.00  0.00     0.127 C 
HETATM   12  C5  UNL     1      -4.908   0.458  -2.496  1.00  0.00     0.020 C 
HETATM   13  C6  UNL     1      -6.174   0.498  -1.735  1.00  0.00     0.003 C 
HETATM   14  C7  UNL     1      -6.002   0.595  -0.239  1.00  0.00     0.020 C 
ATOM     15  H1  UNL     1      -1.270   0.266  -1.082  1.00  0.00     0.164 HD
ENDBRANCH   5   6
ENDBRANCH   2   5
BRANCH   3  16
HETATM   16  C9  UNL     1       3.492   0.570  -0.124  1.00  0.00     0.107 C 
HETATM   17  C10 UNL     1       4.475   1.163   0.708  1.00  0.00    -0.006 C 
HETATM   18  C11 UNL     1       5.308   1.253   1.305  1.00  0.00    -0.026 C 
HETATM   19  C12 UNL     1       6.479   0.885   2.021  1.00  0.00     0.064 C 
HETATM   20  C13 UNL     1       6.417  -0.695   1.472  1.00  0.00     0.173 C 
HETATM   21  F1  UNL     1       6.903  -1.363   2.533  1.00  0.00    -0.249 F 
HETATM   22  C14 UNL     1       4.987  -1.029   1.219  1.00  0.00     0.040 C 
HETATM   23  C15 UNL     1       4.305  -0.885  -0.092  1.00  0.00     0.032 C 
ENDBRANCH   3  16
TORSDOF 3
