REMARK  3 active torsions:
REMARK  status: ('A' for Active; 'I' for Inactive)
REMARK    1  A    between atoms: C4_4  and  N1_5 
REMARK       I    between atoms: N1_5  and  C5_7 
REMARK    2  A    between atoms: C5_7  and  C6_9 
REMARK       I    between atoms: N2_13  and  C10_14 
REMARK       I    between atoms: C10_14  and  N3_16 
REMARK    3  A    between atoms: N3_16  and  C11_18 
ROOT
HETATM    1  C6  UNL     1      -1.152  -1.495   0.480  1.00  0.00     0.096 C 
HETATM    2  C7  UNL     1      -0.206  -1.743   1.631  1.00  0.00     0.017 C 
HETATM    3  C8  UNL     1       1.086  -2.385   1.240  1.00  0.00     0.021 C 
HETATM    4  C9  UNL     1       1.397  -2.162  -0.244  1.00  0.00     0.127 C 
HETATM    5  N2  UNL     1       0.923  -0.835  -0.537  1.00  0.00    -0.333 N 
HETATM    6  C10 UNL     1       1.821   0.230  -0.744  1.00  0.00     0.318 C 
HETATM    7  O2  UNL     1       1.335   1.385  -1.005  1.00  0.00    -0.247 OA
HETATM    8  N3  UNL     1       3.226   0.125  -0.687  1.00  0.00    -0.338 N 
ATOM      9  H3  UNL     1       3.656  -0.777  -0.482  1.00  0.00     0.164 HD
HETATM   10  C15 UNL     1      -0.512  -0.652  -0.603  1.00  0.00     0.141 C 
ENDROOT
BRANCH   8  11
HETATM   11  C11 UNL     1       4.067   1.284  -0.916  1.00  0.00     0.091 C 
HETATM   12  C12 UNL     1       5.204   1.370   0.088  1.00  0.00     0.062 C 
HETATM   13  C13 UNL     1       5.969   0.414  -0.833  1.00  0.00     0.174 C 
HETATM   14  F1  UNL     1       7.293   0.722  -0.993  1.00  0.00    -0.249 F 
HETATM   15  C14 UNL     1       5.115   0.987  -1.969  1.00  0.00     0.062 C 
ENDBRANCH   8  11
BRANCH   1  16
HETATM   16  C5  UNL     1      -2.291  -0.700   1.022  1.00  0.00     0.223 C 
HETATM   17  N1  UNL     1      -3.333  -0.328   0.138  1.00  0.00    -0.356 N 
ATOM     18  H1  UNL     1      -3.278  -0.611  -0.840  1.00  0.00     0.162 HD
HETATM   19  O1  UNL     1      -2.374  -0.342   2.221  1.00  0.00    -0.273 OA
BRANCH  17  20
HETATM   20  C4  UNL     1      -4.472   0.442   0.584  1.00  0.00     0.088 A 
HETATM   21  C2  UNL     1      -5.061   1.410  -0.350  1.00  0.00     0.006 A 
HETATM   22  C1  UNL     1      -5.747   2.669   0.134  1.00  0.00     0.012 C 
HETATM   23  C3  UNL     1      -5.776   0.132  -0.078  1.00  0.00     0.031 A 
ENDBRANCH  17  20
ENDBRANCH   1  16
TORSDOF 3
