REMARK  6 active torsions:
REMARK  status: ('A' for Active; 'I' for Inactive)
REMARK    1  A    between atoms: C2_2  and  O1_3 
REMARK    2  A    between atoms: O1_3  and  C3_4 
REMARK    3  A    between atoms: C3_4  and  C4_6 
REMARK    4  A    between atoms: C4_6  and  C5_7 
REMARK    5  A    between atoms: C13_17  and  N1_18 
REMARK    6  A    between atoms: N1_18  and  C14_20 
ROOT
HETATM    1  C5  UNL     1      -1.779   0.120   0.449  1.00  0.00     0.162 C 
HETATM    2  S1  UNL     1      -0.085   0.643   0.381  1.00  0.00    -0.105 SA
HETATM    3  C6  UNL     1       0.902  -0.748  -0.091  1.00  0.00     0.021 C 
HETATM    4  C7  UNL     1       0.399  -1.922  -0.456  1.00  0.00     0.069 C 
HETATM    5  C8  UNL     1       1.341  -2.971  -0.817  1.00  0.00     0.165 C 
HETATM    6  O3  UNL     1       0.992  -3.803  -1.690  1.00  0.00    -0.292 OA
HETATM    7  C9  UNL     1       2.705  -3.105  -0.195  1.00  0.00     0.095 C 
HETATM    8  C10 UNL     1       2.955  -1.866   0.647  1.00  0.00    -0.016 C 
HETATM    9  C11 UNL     1       4.450  -1.642   0.676  1.00  0.00     0.018 C 
HETATM   10  C12 UNL     1       2.451  -1.972   2.044  1.00  0.00     0.018 C 
HETATM   11  C13 UNL     1       2.366  -0.637  -0.090  1.00  0.00     0.126 C 
HETATM   12  C19 UNL     1      -1.062  -2.137  -0.487  1.00  0.00     0.119 C 
HETATM   13  N2  UNL     1      -1.437  -3.309  -0.854  1.00  0.00    -0.354 N 
ATOM     14  H2  UNL     1      -0.694  -3.969  -1.085  1.00  0.00     0.166 HD
HETATM   15  C20 UNL     1      -2.755  -3.788  -0.974  1.00  0.00     0.073 C 
HETATM   16  C21 UNL     1      -3.780  -2.905  -0.352  1.00  0.00     0.001 C 
HETATM   17  C22 UNL     1      -5.096  -3.117  -1.114  1.00  0.00     0.022 C 
HETATM   18  C23 UNL     1      -4.059  -3.322   1.071  1.00  0.00     0.022 C 
HETATM   19  C24 UNL     1      -3.431  -1.452  -0.417  1.00  0.00     0.140 C 
HETATM   20  N3  UNL     1      -2.017  -1.179  -0.153  1.00  0.00    -0.351 N 
ENDROOT
BRANCH  11  21
HETATM   21  N1  UNL     1       2.954   0.499   0.435  1.00  0.00    -0.408 N 
ATOM     22  H1  UNL     1       3.517   0.391   1.279  1.00  0.00     0.154 HD
BRANCH  21  23
HETATM   23  C14 UNL     1       2.837   1.774  -0.098  1.00  0.00     0.077 C 
HETATM   24  C15 UNL     1       3.380   1.952  -1.501  1.00  0.00     0.024 C 
HETATM   25  C16 UNL     1       3.729   3.434  -1.474  1.00  0.00     0.002 C 
HETATM   26  C17 UNL     1       4.638   3.420  -0.238  1.00  0.00     0.002 C 
HETATM   27  C18 UNL     1       3.757   2.693   0.743  1.00  0.00     0.024 C 
ENDBRANCH  21  23
ENDBRANCH  11  21
BRANCH   1  28
HETATM   28  C4  UNL     1      -2.634   1.179  -0.249  1.00  0.00     0.147 C 
BRANCH  28  29
HETATM   29  C3  UNL     1      -2.519   2.502   0.393  1.00  0.00     0.261 C 
HETATM   30  O2  UNL     1      -1.335   2.987   0.491  1.00  0.00    -0.265 OA
BRANCH  29  31
HETATM   31  O1  UNL     1      -3.600   3.242   0.892  1.00  0.00    -0.322 OA
BRANCH  31  32
HETATM   32  C2  UNL     1      -3.366   4.504   1.486  1.00  0.00     0.174 C 
HETATM   33  C1  UNL     1      -2.757   5.418   0.418  1.00  0.00     0.034 C 
ENDBRANCH  31  32
ENDBRANCH  29  31
ENDBRANCH  28  29
ENDBRANCH   1  28
TORSDOF 6
