REMARK  5 active torsions:
REMARK  status: ('A' for Active; 'I' for Inactive)
REMARK    1  A    between atoms: C2_2  and  O1_3 
REMARK    2  A    between atoms: O1_3  and  C3_4 
REMARK    3  A    between atoms: C14_22  and  O4_23 
REMARK    4  A    between atoms: O4_23  and  C15_24 
REMARK    5  A    between atoms: N4_30  and  C21_31 
ROOT
HETATM    1  C3  UNL     1       3.476  -0.476   0.240  1.00  0.00     0.104 A 
HETATM    2  C4  UNL     1       4.249  -0.015  -0.838  1.00  0.00     0.043 A 
HETATM    3  C5  UNL     1       5.736  -0.252  -0.893  1.00  0.00     0.071 C 
HETATM    4  N1  UNL     1       3.621   0.630  -1.822  1.00  0.00    -0.323 N 
ATOM      5  H1  UNL     1       4.170   0.972  -2.611  1.00  0.00     0.169 HD
HETATM    6  C6  UNL     1       2.281   0.850  -1.817  1.00  0.00     0.273 A 
HETATM    7  O2  UNL     1       1.847   1.457  -2.793  1.00  0.00    -0.266 OA
HETATM    8  C7  UNL     1       1.465   0.433  -0.812  1.00  0.00     0.118 A 
HETATM    9  C8  UNL     1       2.107  -0.251   0.235  1.00  0.00     0.044 A 
HETATM   10  C9  UNL     1       1.128  -0.625   1.090  1.00  0.00     0.012 A 
HETATM   11  C10 UNL     1       1.321  -1.361   2.245  1.00  0.00     0.043 C 
HETATM   12  C11 UNL     1       0.482  -1.311   3.356  1.00  0.00     0.113 C 
HETATM   13  C12 UNL     1       1.059  -1.846   4.535  1.00  0.00     0.105 C 
HETATM   14  N2  UNL     1       1.525  -2.264   5.491  1.00  0.00    -0.191 NA
HETATM   15  C13 UNL     1      -0.815  -0.814   3.443  1.00  0.00     0.268 C 
HETATM   16  O3  UNL     1      -1.348  -0.813   4.556  1.00  0.00    -0.266 OA
HETATM   17  N3  UNL     1      -1.596  -0.317   2.439  1.00  0.00    -0.301 N 
ATOM     18  H3  UNL     1      -2.467   0.138   2.711  1.00  0.00     0.171 HD
HETATM   19  C14 UNL     1      -1.319  -0.373   1.117  1.00  0.00     0.174 C 
HETATM   20  C20 UNL     1      -0.078  -0.160   0.555  1.00  0.00     0.098 A 
HETATM   21  N4  UNL     1       0.138   0.489  -0.605  1.00  0.00    -0.333 N 
ENDROOT
BRANCH  19  22
HETATM   22  O4  UNL     1      -2.312  -0.664   0.206  1.00  0.00    -0.329 OA
BRANCH  22  23
HETATM   23  C15 UNL     1      -3.650  -0.937   0.582  1.00  0.00     0.130 C 
HETATM   24  C16 UNL     1      -4.075  -2.326   0.227  1.00  0.00     0.032 C 
HETATM   25  C17 UNL     1      -5.182  -2.231  -0.766  1.00  0.00     0.002 C 
HETATM   26  C18 UNL     1      -5.503  -0.782  -0.937  1.00  0.00     0.002 C 
HETATM   27  C19 UNL     1      -4.654   0.012   0.029  1.00  0.00     0.032 C 
ENDBRANCH  22  23
ENDBRANCH  19  22
BRANCH   1  28
HETATM   28  O1  UNL     1       4.187  -1.120   1.204  1.00  0.00    -0.349 OA
BRANCH  28  29
HETATM   29  C2  UNL     1       4.944  -0.464   2.179  1.00  0.00     0.171 C 
HETATM   30  C1  UNL     1       4.285   0.516   3.069  1.00  0.00     0.034 C 
ENDBRANCH  28  29
ENDBRANCH   1  28
BRANCH  21  31
HETATM   31  C21 UNL     1      -0.840   1.124  -1.385  1.00  0.00     0.091 C 
HETATM   32  C22 UNL     1      -1.193   0.645  -2.739  1.00  0.00     0.026 C 
HETATM   33  C23 UNL     1      -1.655   1.852  -3.544  1.00  0.00     0.002 C 
HETATM   34  C24 UNL     1      -1.335   3.082  -2.740  1.00  0.00     0.002 C 
HETATM   35  C25 UNL     1      -0.698   2.666  -1.463  1.00  0.00     0.026 C 
ENDBRANCH  21  31
TORSDOF 5
