REMARK  8 active torsions:
REMARK  status: ('A' for Active; 'I' for Inactive)
REMARK    1  A    between atoms: O1_2  and  C2_3 
REMARK    2  A    between atoms: N1_5  and  C3_6 
REMARK    3  A    between atoms: C3_6  and  C4_7 
REMARK    4  A    between atoms: C4_7  and  C5_8 
REMARK    5  A    between atoms: C14_18  and  C15_19 
REMARK    6  A    between atoms: C18_22  and  O4_23 
REMARK    7  A    between atoms: C23_29  and  O5_30 
REMARK    8  A    between atoms: O5_30  and  C24_31 
ROOT
HETATM    1  C5  UNL     1      -0.756   0.877  -0.829  1.00  0.00     0.054 C 
HETATM    2  O3  UNL     1      -0.486   1.987  -1.601  1.00  0.00    -0.351 OA
HETATM    3  C6  UNL     1      -0.941   3.219  -1.047  1.00  0.00     0.202 C 
HETATM    4  C7  UNL     1      -2.355   3.187  -0.638  1.00  0.00    -0.004 C 
HETATM    5  C8  UNL     1      -3.151   3.617   0.266  1.00  0.00    -0.029 C 
HETATM    6  C9  UNL     1      -4.590   3.548   0.629  1.00  0.00     0.027 C 
HETATM    7  C10 UNL     1      -4.957   2.233   1.341  1.00  0.00     0.004 C 
HETATM    8  C11 UNL     1      -5.216   1.117   0.389  1.00  0.00     0.000 C 
HETATM    9  C12 UNL     1      -4.475  -0.182   0.750  1.00  0.00     0.000 C 
HETATM   10  C13 UNL     1      -4.080  -0.869  -0.507  1.00  0.00     0.007 C 
HETATM   11  C14 UNL     1      -2.845  -1.715  -0.514  1.00  0.00     0.018 C 
HETATM   12  C18 UNL     1      -1.887  -1.329  -1.530  1.00  0.00     0.132 C 
HETATM   13  C19 UNL     1      -0.726  -0.446  -1.431  1.00  0.00     0.067 C 
HETATM   14  C20 UNL     1      -0.383  -0.199  -2.935  1.00  0.00     0.020 C 
ENDROOT
BRANCH   1  15
HETATM   15  C4  UNL     1      -0.136   1.067   0.498  1.00  0.00     0.052 C 
BRANCH  15  16
HETATM   16  C3  UNL     1       1.263   1.321   0.783  1.00  0.00     0.119 C 
BRANCH  16  17
HETATM   17  N1  UNL     1       2.330   0.485   0.453  1.00  0.00    -0.267 N 
HETATM   18  O2  UNL     1       3.345   0.472   1.344  1.00  0.00    -0.243 OA
HETATM   19  C2  UNL     1       4.196  -0.602   1.102  1.00  0.00     0.317 C 
HETATM   20  C23 UNL     1       4.975  -0.356  -0.149  1.00  0.00     0.191 C 
HETATM   21  C22 UNL     1       4.301   0.697  -0.957  1.00  0.00     0.060 C 
HETATM   22  C21 UNL     1       2.795   0.370  -0.881  1.00  0.00     0.158 C 
BRANCH  19  23
HETATM   23  O1  UNL     1       5.096  -0.704   2.147  1.00  0.00    -0.361 OA
HETATM   24  C1  UNL     1       4.995  -1.925   2.780  1.00  0.00     0.205 C 
ENDBRANCH  19  23
BRANCH  20  25
HETATM   25  O5  UNL     1       6.343  -0.143   0.064  1.00  0.00    -0.311 OA
BRANCH  25  26
HETATM   26  C24 UNL     1       7.378  -0.915  -0.376  1.00  0.00     0.255 C 
HETATM   27  C25 UNL     1       8.789  -0.595  -0.091  1.00  0.00     0.126 C 
HETATM   28  O6  UNL     1       7.097  -1.935  -1.050  1.00  0.00    -0.266 OA
ENDBRANCH  25  26
ENDBRANCH  20  25
ENDBRANCH  16  17
ENDBRANCH  15  16
ENDBRANCH   1  15
BRANCH  12  29
HETATM   29  O4  UNL     1      -2.672  -0.826  -2.620  1.00  0.00    -0.394 OA
ATOM     30  H4  UNL     1      -2.044  -0.573  -3.286  1.00  0.00     0.210 HD
ENDBRANCH  12  29
BRANCH  11  31
HETATM   31  C15 UNL     1      -2.407  -2.170   0.841  1.00  0.00    -0.016 C 
HETATM   32  C16 UNL     1      -3.504  -3.007   1.495  1.00  0.00     0.010 C 
HETATM   33  C17 UNL     1      -1.186  -3.023   0.778  1.00  0.00     0.010 C 
ENDBRANCH  11  31
TORSDOF 8
