REMARK  5 active torsions:
REMARK  status: ('A' for Active; 'I' for Inactive)
REMARK    1  A    between atoms: C2_2  and  N1_3 
REMARK    2  A    between atoms: N2_6  and  C5_7 
REMARK    3  A    between atoms: C9_14  and  N4_15 
REMARK    4  A    between atoms: N5_19  and  O1_21 
REMARK    5  A    between atoms: O1_21  and  C13_22 
ROOT
HETATM    1  C5  UNL     1      -3.983  -1.328   0.211  1.00  0.00     0.683 A 
HETATM    2  N3  UNL     1      -4.115  -2.595  -0.218  1.00  0.00    -0.181 N 
ATOM      3  H3  UNL     1      -5.041  -3.021  -0.180  1.00  0.00     0.185 HD
HETATM    4  C6  UNL     1      -3.097  -3.333  -0.694  1.00  0.00     0.126 A 
HETATM    5  S1  UNL     1      -3.307  -4.887  -1.211  1.00  0.00    -0.059 SA
HETATM    6  C7  UNL     1      -1.848  -2.778  -0.752  1.00  0.00     0.021 A 
HETATM    7  C8  UNL     1      -0.708  -3.570  -1.269  1.00  0.00     0.056 C 
HETATM    8  C9  UNL     1      -1.674  -1.484  -0.321  1.00  0.00     0.128 A 
HETATM    9  N6  UNL     1      -2.739  -0.788   0.149  1.00  0.00    -0.176 N 
ATOM     10  H6  UNL     1      -2.601   0.172   0.466  1.00  0.00     0.186 HD
ENDROOT
BRANCH   8  11
HETATM   11  N4  UNL     1      -0.377  -0.920  -0.386  1.00  0.00    -0.366 N 
HETATM   12  C10 UNL     1       0.537  -1.081   0.729  1.00  0.00     0.130 C 
HETATM   13  C11 UNL     1       1.946  -0.887   0.267  1.00  0.00     0.074 C 
HETATM   14  C12 UNL     1       2.076   0.488  -0.282  1.00  0.00     0.013 C 
HETATM   15  N5  UNL     1       3.157   1.175  -0.121  1.00  0.00    -0.274 N 
HETATM   16  C20 UNL     1       0.903   1.052  -1.029  1.00  0.00     0.074 C 
ATOM     17  H5  UNL     1       3.238   2.118  -0.501  1.00  0.00     0.193 HD
HETATM   18  C21 UNL     1       0.113  -0.161  -1.534  1.00  0.00     0.130 C 
BRANCH  15  19
HETATM   19  O1  UNL     1       4.190   0.609   0.570  1.00  0.00    -0.275 OA
BRANCH  19  20
HETATM   20  C13 UNL     1       5.568   0.700   0.138  1.00  0.00     0.153 C 
HETATM   21  C14 UNL     1       5.868  -0.762  -0.182  1.00  0.00     0.045 C 
HETATM   22  C15 UNL     1       7.366  -0.967  -0.602  1.00  0.00     0.082 C 
HETATM   23  C16 UNL     1       8.048   0.176  -0.166  1.00  0.00    -0.183 C 
HETATM   24  C17 UNL     1       8.680   1.343   0.285  1.00  0.00     0.080 C 
HETATM   25  C18 UNL     1       7.537   2.257   0.854  1.00  0.00     0.014 C 
HETATM   26  C19 UNL     1       6.269   1.446   1.140  1.00  0.00     0.035 C 
ENDBRANCH  19  20
ENDBRANCH  15  19
ENDBRANCH   8  11
BRANCH   1  27
HETATM   27  N2  UNL     1      -5.084  -0.573   0.711  1.00  0.00    -0.214 N 
HETATM   28  C4  UNL     1      -6.372  -1.185   0.761  1.00  0.00     0.171 C 
HETATM   29  C3  UNL     1      -7.536  -0.264   0.636  1.00  0.00     0.292 C 
HETATM   30  N1  UNL     1      -7.256   1.118   0.865  1.00  0.00     0.091 N 
HETATM   31  C23 UNL     1      -6.154   1.303   1.787  1.00  0.00     0.292 C 
HETATM   32  C22 UNL     1      -4.888   0.771   1.152  1.00  0.00     0.171 C 
BRANCH  30  33
HETATM   33  C2  UNL     1      -7.079   1.848  -0.364  1.00  0.00     0.268 C 
HETATM   34  C1  UNL     1      -6.789   3.290  -0.095  1.00  0.00     0.037 C 
ENDBRANCH  30  33
ENDBRANCH   1  27
TORSDOF 5
