REMARK  6 active torsions:
REMARK  status: ('A' for Active; 'I' for Inactive)
REMARK       I    between atoms: C1_2  and  N1_3 
REMARK    1  A    between atoms: C1_2  and  C18_29 
REMARK    2  A    between atoms: N1_3  and  C2_5 
REMARK    3  A    between atoms: C3_10  and  S1_11 
REMARK    4  A    between atoms: S1_11  and  C4_12 
REMARK    5  A    between atoms: C4_12  and  C5_14 
REMARK    6  A    between atoms: N4_17  and  C8_18 
ROOT
HETATM    1  S1  UNL     1       1.911  -0.474  -1.838  1.00  0.00    -0.025 SA
ENDROOT
BRANCH   1   2
HETATM    2  C3  UNL     1       3.709  -0.471  -1.679  1.00  0.00     0.137 A 
HETATM    3  N3  UNL     1       4.472   0.049  -0.730  1.00  0.00    -0.286 N 
HETATM    4  N2  UNL     1       5.733  -0.052  -0.793  1.00  0.00    -0.278 N 
ATOM      5  H3  UNL     1       4.041   0.534   0.057  1.00  0.00     0.188 HD
HETATM    6  C2  UNL     1       6.279  -0.693  -1.830  1.00  0.00     0.168 A 
ATOM      7  H2  UNL     1       6.322   0.350  -0.064  1.00  0.00     0.189 HD
HETATM    8  S2  UNL     1       4.888  -1.149  -2.724  1.00  0.00    -0.026 SA
BRANCH   6   9
HETATM    9  N1  UNL     1       7.547  -0.903  -2.097  1.00  0.00    -0.300 N 
HETATM   10  C1  UNL     1       8.493  -0.399  -1.193  1.00  0.00     0.281 C 
HETATM   11  O1  UNL     1       9.212   0.583  -1.537  1.00  0.00    -0.265 OA
ATOM     12  H1  UNL     1       7.834  -1.414  -2.932  1.00  0.00     0.171 HD
BRANCH  10  13
HETATM   13  C18 UNL     1       8.667  -0.971   0.122  1.00  0.00     0.142 A 
HETATM   14  C19 UNL     1       9.557  -0.572   1.077  1.00  0.00     0.045 A 
HETATM   15  C20 UNL     1       9.383  -1.385   2.171  1.00  0.00     0.027 A 
HETATM   16  C21 UNL     1       8.359  -2.265   1.801  1.00  0.00     0.143 A 
HETATM   17  O3  UNL     1       7.957  -1.995   0.584  1.00  0.00    -0.317 OA
ENDBRANCH  10  13
ENDBRANCH   6   9
ENDBRANCH   1   2
BRANCH   1  18
HETATM   18  C4  UNL     1       1.249   0.370  -0.402  1.00  0.00     0.197 C 
HETATM   19  O2  UNL     1       1.932   0.795   0.509  1.00  0.00    -0.285 OA
BRANCH  18  20
HETATM   20  C5  UNL     1      -0.229   0.573  -0.298  1.00  0.00     0.070 C 
HETATM   21  C6  UNL     1      -0.608   1.594  -1.350  1.00  0.00     0.043 C 
HETATM   22  C7  UNL     1      -2.044   1.980  -1.298  1.00  0.00     0.273 C 
HETATM   23  N4  UNL     1      -2.681   1.810  -0.010  1.00  0.00     0.093 N 
HETATM   24  C16 UNL     1      -1.742   1.956   1.026  1.00  0.00     0.273 C 
HETATM   25  C17 UNL     1      -0.605   0.997   1.072  1.00  0.00     0.043 C 
BRANCH  23  26
HETATM   26  C8  UNL     1      -3.530   0.680  -0.051  1.00  0.00     0.223 C 
HETATM   27  C9  UNL     1      -3.790  -0.064   1.192  1.00  0.00     0.036 C 
HETATM   28  C10 UNL     1      -5.208  -0.111   1.678  1.00  0.00     0.002 C 
HETATM   29  C11 UNL     1      -6.165  -0.918   0.896  1.00  0.00     0.000 C 
HETATM   30  C12 UNL     1      -5.594  -1.923  -0.045  1.00  0.00     0.000 C 
HETATM   31  C13 UNL     1      -5.085  -1.388  -1.338  1.00  0.00     0.000 C 
HETATM   32  C14 UNL     1      -5.390   0.036  -1.634  1.00  0.00     0.002 C 
HETATM   33  C15 UNL     1      -4.812   1.085  -0.782  1.00  0.00     0.036 C 
ENDBRANCH  23  26
ENDBRANCH  18  20
ENDBRANCH   1  18
TORSDOF 6
