REMARK  9 active torsions:
REMARK  status: ('A' for Active; 'I' for Inactive)
REMARK    1  A    between atoms: N1_1  and  C1_4 
REMARK    2  A    between atoms: C3_9  and  N4_10 
REMARK    3  A    between atoms: N5_12  and  C4_14 
REMARK    4  A    between atoms: C4_14  and  C5_15 
REMARK    5  A    between atoms: C5_15  and  C6_16 
REMARK    6  A    between atoms: C6_16  and  S1_17 
REMARK    7  A    between atoms: S1_17  and  C7_18 
REMARK    8  A    between atoms: C7_18  and  C8_19 
REMARK    9  A    between atoms: C9_22  and  N6_23 
ROOT
HETATM    1  C1  UNL     1      -4.691   1.805  -0.497  1.00  0.00     0.678 A 
HETATM    2  N2  UNL     1      -4.270   1.169   0.600  1.00  0.00    -0.177 N 
ATOM      3  H2  UNL     1      -4.757   1.324   1.482  1.00  0.00     0.185 HD
HETATM    4  C2  UNL     1      -3.225   0.334   0.570  1.00  0.00     0.163 A 
HETATM    5  N3  UNL     1      -2.789  -0.345   1.776  1.00  0.00    -0.080 NA
HETATM    6  C3  UNL     1      -2.554   0.112  -0.613  1.00  0.00     0.134 A 
HETATM    7  C9  UNL     1      -3.002   0.777  -1.735  1.00  0.00     0.146 A 
HETATM    8  N7  UNL     1      -4.055   1.608  -1.662  1.00  0.00    -0.175 N 
ATOM      9  H7  UNL     1      -4.374   2.094  -2.500  1.00  0.00     0.186 HD
ENDROOT
BRANCH   6  10
HETATM   10  N4  UNL     1      -1.468  -0.783  -0.617  1.00  0.00    -0.299 N 
HETATM   11  N5  UNL     1      -0.325  -0.539  -0.176  1.00  0.00    -0.336 N 
ATOM     12  H5  UNL     1      -0.131   0.378   0.228  1.00  0.00     0.180 HD
ATOM     13  H4  UNL     1      -1.628  -1.709  -1.013  1.00  0.00     0.186 HD
BRANCH  11  14
HETATM   14  C4  UNL     1       0.730  -1.527  -0.225  1.00  0.00     0.140 C 
BRANCH  14  15
HETATM   15  C5  UNL     1       1.945  -1.110   0.575  1.00  0.00     0.031 C 
BRANCH  15  16
HETATM   16  C6  UNL     1       2.980  -2.170   0.482  1.00  0.00     0.076 C 
BRANCH  16  17
HETATM   17  S1  UNL     1       4.488  -1.790   1.391  1.00  0.00    -0.158 SA
BRANCH  17  18
HETATM   18  C7  UNL     1       5.400  -0.454   0.621  1.00  0.00     0.186 C 
BRANCH  18  19
HETATM   19  C8  UNL     1       4.703   0.833   0.668  1.00  0.00     0.182 C 
HETATM   20  O1  UNL     1       4.269   1.338   1.745  1.00  0.00    -0.647 OA
HETATM   21  O2  UNL     1       4.505   1.534  -0.528  1.00  0.00    -0.647 OA
ENDBRANCH  18  19
ENDBRANCH  17  18
ENDBRANCH  16  17
ENDBRANCH  15  16
ENDBRANCH  14  15
ENDBRANCH  11  14
ENDBRANCH   6  10
BRANCH   7  22
HETATM   22  N6  UNL     1      -2.385   0.565  -2.821  1.00  0.00    -0.383 N 
ATOM     23  H62 UNL     1      -1.585  -0.066  -2.876  1.00  0.00     0.157 HD
ATOM     24  H61 UNL     1      -2.716   1.057  -3.651  1.00  0.00     0.157 HD
ENDBRANCH   7  22
BRANCH   1  25
HETATM   25  N1  UNL     1      -5.723   2.600  -0.383  1.00  0.00    -0.234 N 
ATOM     26  H12 UNL     1      -6.206   2.750   0.503  1.00  0.00     0.174 HD
ATOM     27  H11 UNL     1      -6.044   3.086  -1.220  1.00  0.00     0.174 HD
ENDBRANCH   1  25
TORSDOF 9
