REMARK  8 active torsions:
REMARK  status: ('A' for Active; 'I' for Inactive)
REMARK    1  A    between atoms: N1_1  and  C1_4 
REMARK    2  A    between atoms: C2_10  and  C3_11 
REMARK       I    between atoms: C3_11  and  N4_13 
REMARK    3  A    between atoms: N4_13  and  C4_15 
REMARK    4  A    between atoms: C6_23  and  N7_24 
REMARK    5  A    between atoms: N7_24  and  C7_26 
REMARK    6  A    between atoms: C7_26  and  C8_27 
REMARK    7  A    between atoms: C8_27  and  C9_28 
REMARK    8  A    between atoms: C9_28  and  N8_29 
ROOT
HETATM    1  C4  UNL     1       1.235  -1.841   0.356  1.00  0.00     0.203 A 
HETATM    2  O3  UNL     1       1.471  -3.131   0.712  1.00  0.00    -0.215 OA
HETATM    3  N5  UNL     1       0.374  -3.769   0.865  1.00  0.00    -0.241 N 
ATOM      4  H5  UNL     1       0.292  -4.750   1.132  1.00  0.00     0.196 HD
HETATM    5  C5  UNL     1      -0.649  -2.942   0.619  1.00  0.00     0.150 A 
HETATM    6  N6  UNL     1      -1.881  -3.220   0.676  1.00  0.00    -0.382 N 
ATOM      7  H61 UNL     1      -2.661  -2.590   0.489  1.00  0.00     0.157 HD
ATOM      8  H62 UNL     1      -2.275  -4.129   0.919  1.00  0.00     0.157 HD
HETATM    9  C6  UNL     1      -0.102  -1.682   0.282  1.00  0.00     0.128 A 
ENDROOT
BRANCH   1  10
HETATM   10  N4  UNL     1       2.323  -0.982   0.147  1.00  0.00    -0.298 N 
HETATM   11  C3  UNL     1       2.456   0.384   0.022  1.00  0.00     0.280 C 
HETATM   12  O2  UNL     1       1.551   1.201   0.098  1.00  0.00    -0.265 OA
ATOM     13  H4  UNL     1       3.212  -1.477   0.071  1.00  0.00     0.171 HD
BRANCH  11  14
HETATM   14  C2  UNL     1       3.809   0.950  -0.227  1.00  0.00     0.169 A 
HETATM   15  C1  UNL     1       4.133   2.279  -0.353  1.00  0.00     0.155 A 
HETATM   16  N2  UNL     1       5.482   2.303  -0.573  1.00  0.00    -0.224 N 
HETATM   17  O1  UNL     1       5.922   1.102  -0.578  1.00  0.00    -0.155 OA
ATOM     18  H2  UNL     1       6.046   3.142  -0.711  1.00  0.00     0.198 HD
HETATM   19  N3  UNL     1       4.961   0.254  -0.375  1.00  0.00    -0.233 N 
ATOM     20  H3  UNL     1       5.057  -0.761  -0.334  1.00  0.00     0.197 HD
BRANCH  15  21
HETATM   21  N1  UNL     1       3.401   3.292  -0.288  1.00  0.00    -0.382 N 
ATOM     22  H12 UNL     1       3.642   4.279  -0.382  1.00  0.00     0.157 HD
ATOM     23  H11 UNL     1       2.394   3.274  -0.124  1.00  0.00     0.157 HD
ENDBRANCH  15  21
ENDBRANCH  11  14
ENDBRANCH   1  10
BRANCH   9  24
HETATM   24  N7  UNL     1      -0.874  -0.572  -0.148  1.00  0.00    -0.383 N 
ATOM     25  H7  UNL     1      -0.426   0.184  -0.665  1.00  0.00     0.159 HD
BRANCH  24  26
HETATM   26  C7  UNL     1      -2.306  -0.500   0.142  1.00  0.00     0.121 C 
BRANCH  26  27
HETATM   27  C8  UNL     1      -2.819   0.871  -0.316  1.00  0.00     0.047 C 
BRANCH  27  28
HETATM   28  C9  UNL     1      -4.286   0.911  -0.001  1.00  0.00     0.231 C 
BRANCH  28  29
HETATM   29  N8  UNL     1      -4.819   2.209  -0.424  1.00  0.00    -0.079 N 
ATOM     30  H83 UNL     1      -4.310   2.993  -0.015  1.00  0.00     0.274 HD
ATOM     31  H82 UNL     1      -4.624   2.411  -1.405  1.00  0.00     0.274 HD
ATOM     32  H81 UNL     1      -5.816   2.236  -0.210  1.00  0.00     0.274 HD
ENDBRANCH  28  29
ENDBRANCH  27  28
ENDBRANCH  26  27
ENDBRANCH  24  26
ENDBRANCH   9  24
TORSDOF 8
