REMARK  7 active torsions:
REMARK  status: ('A' for Active; 'I' for Inactive)
REMARK    1  A    between atoms: N1_1  and  C1_4 
REMARK    2  A    between atoms: C4_11  and  N5_12 
REMARK    3  A    between atoms: N5_12  and  C5_14 
REMARK    4  A    between atoms: C7_16  and  C8_17 
REMARK    5  A    between atoms: C8_17  and  C9_18 
REMARK    6  A    between atoms: C9_18  and  N6_19 
REMARK    7  A    between atoms: C11_26  and  C12_27 
ROOT
HETATM    1  C1  UNL     1      -3.672  -1.572  -0.561  1.00  0.00     0.115 A 
HETATM    2  N2  UNL     1      -4.137  -0.423  -1.133  1.00  0.00    -0.329 N 
ATOM      3  H2  UNL     1      -4.879  -0.481  -1.830  1.00  0.00     0.168 HD
HETATM    4  C2  UNL     1      -3.644   0.781  -0.803  1.00  0.00     0.144 A 
HETATM    5  N3  UNL     1      -4.151   1.961  -1.415  1.00  0.00    -0.081 NA
HETATM    6  C3  UNL     1      -2.632   0.803   0.150  1.00  0.00     0.115 A 
HETATM    7  N4  UNL     1      -2.150   2.093   0.481  1.00  0.00    -0.096 NA
HETATM    8  C4  UNL     1      -2.128  -0.307   0.751  1.00  0.00     0.075 A 
HETATM    9  C11 UNL     1      -2.671  -1.544   0.382  1.00  0.00     0.073 A 
ENDROOT
BRANCH   8  10
HETATM   10  N5  UNL     1      -1.086  -0.201   1.710  1.00  0.00    -0.361 N 
ATOM     11  H5  UNL     1      -1.372  -0.275   2.686  1.00  0.00     0.162 HD
BRANCH  10  12
HETATM   12  C5  UNL     1       0.287  -0.008   1.488  1.00  0.00     0.233 C 
HETATM   13  C6  UNL     1       1.010  -0.887   0.536  1.00  0.00     0.092 C 
HETATM   14  C7  UNL     1       2.339  -0.125   0.439  1.00  0.00    -0.026 C 
HETATM   15  C10 UNL     1       2.043   1.126   0.676  1.00  0.00     0.156 C 
HETATM   16  N7  UNL     1       2.963   2.212   0.694  1.00  0.00    -0.075 NA
HETATM   17  O1  UNL     1       0.643   1.268   0.921  1.00  0.00    -0.312 OA
BRANCH  14  18
HETATM   18  C8  UNL     1       3.590  -0.829   0.110  1.00  0.00     0.065 C 
BRANCH  18  19
HETATM   19  C9  UNL     1       4.798  -0.035  -0.168  1.00  0.00     0.234 C 
BRANCH  19  20
HETATM   20  N6  UNL     1       4.745   0.834  -1.308  1.00  0.00    -0.079 N 
ATOM     21  H63 UNL     1       4.489   0.297  -2.137  1.00  0.00     0.274 HD
ATOM     22  H62 UNL     1       3.938   1.453  -1.230  1.00  0.00     0.274 HD
ATOM     23  H61 UNL     1       5.582   1.384  -1.501  1.00  0.00     0.274 HD
ENDBRANCH  19  20
ENDBRANCH  18  19
ENDBRANCH  14  18
ENDBRANCH  10  12
ENDBRANCH   8  10
BRANCH   9  24
HETATM   24  C12 UNL     1      -2.277  -2.786   1.021  1.00  0.00     0.276 C 
HETATM   25  O2  UNL     1      -1.457  -2.856   1.977  1.00  0.00    -0.301 OA
ENDBRANCH   9  24
BRANCH   1  26
HETATM   26  N1  UNL     1      -4.218  -2.648  -0.957  1.00  0.00    -0.385 N 
ATOM     27  H12 UNL     1      -4.960  -2.669  -1.656  1.00  0.00     0.157 HD
ATOM     28  H11 UNL     1      -3.871  -3.507  -0.530  1.00  0.00     0.157 HD
ENDBRANCH   1  26
TORSDOF 7
