REMARK  9 active torsions:
REMARK  status: ('A' for Active; 'I' for Inactive)
REMARK    1  A    between atoms: C2_2  and  C3_3 
REMARK    2  A    between atoms: C3_3  and  C4_4 
REMARK    3  A    between atoms: C4_4  and  N1_5 
REMARK    4  A    between atoms: N1_5  and  C5_8 
REMARK    5  A    between atoms: C5_8  and  C6_9 
REMARK    6  A    between atoms: C6_9  and  N2_10 
REMARK    7  A    between atoms: C8_14  and  N4_15 
REMARK    8  A    between atoms: C9_20  and  N6_21 
REMARK    9  A    between atoms: C11_29  and  N9_30 
ROOT
HETATM    1  N2  UNL     1       0.749  -0.283  -0.838  1.00  0.00    -0.122 N 
HETATM    2  N3  UNL     1       1.810  -1.067  -0.792  1.00  0.00    -0.277 N 
ATOM      3  H3  UNL     1       1.825  -1.841  -0.128  1.00  0.00     0.188 HD
HETATM    4  C7  UNL     1       2.854  -0.878  -1.582  1.00  0.00     0.138 A 
HETATM    5  C8  UNL     1       3.982  -1.668  -1.572  1.00  0.00     0.146 A 
HETATM    6  N5  UNL     1       4.976  -1.395  -2.406  1.00  0.00    -0.175 N 
ATOM      7  H5  UNL     1       5.802  -1.994  -2.383  1.00  0.00     0.186 HD
HETATM    8  C9  UNL     1       4.958  -0.374  -3.281  1.00  0.00     0.679 A 
HETATM    9  N7  UNL     1       3.870   0.408  -3.308  1.00  0.00    -0.174 N 
ATOM     10  H7  UNL     1       3.831   1.189  -3.963  1.00  0.00     0.186 HD
HETATM   11  C10 UNL     1       2.816   0.179  -2.477  1.00  0.00     0.168 A 
HETATM   12  N8  UNL     1       1.731   0.962  -2.507  1.00  0.00    -0.172 N 
ATOM     13  H8  UNL     1       1.696   1.742  -3.164  1.00  0.00     0.186 HD
HETATM   14  C11 UNL     1       0.683   0.742  -1.688  1.00  0.00     0.694 A 
ENDROOT
BRANCH   1  15
HETATM   15  C6  UNL     1      -0.334  -0.590   0.057  1.00  0.00     0.195 C 
BRANCH  15  16
HETATM   16  C5  UNL     1      -0.201   0.161   1.359  1.00  0.00     0.254 C 
BRANCH  16  17
HETATM   17  N1  UNL     1      -1.285  -0.158   2.230  1.00  0.00    -0.074 N 
ATOM     18  H12 UNL     1      -1.090   0.167   3.177  1.00  0.00     0.277 HD
ATOM     19  H11 UNL     1      -1.326  -1.164   2.396  1.00  0.00     0.277 HD
BRANCH  17  20
HETATM   20  C4  UNL     1      -2.563   0.331   1.783  1.00  0.00     0.232 C 
BRANCH  20  21
HETATM   21  C3  UNL     1      -3.597  -0.098   2.826  1.00  0.00     0.027 C 
BRANCH  21  22
HETATM   22  C2  UNL     1      -4.952   0.416   2.353  1.00  0.00    -0.003 C 
HETATM   23  C1  UNL     1      -4.949   1.917   2.224  1.00  0.00     0.005 C 
ENDBRANCH  21  22
ENDBRANCH  20  21
ENDBRANCH  17  20
ENDBRANCH  16  17
ENDBRANCH  15  16
ENDBRANCH   1  15
BRANCH  14  24
HETATM   24  N9  UNL     1      -0.351   1.554  -1.753  1.00  0.00    -0.233 N 
ATOM     25  H92 UNL     1      -1.144   1.388  -1.133  1.00  0.00     0.174 HD
ATOM     26  H91 UNL     1      -0.401   2.338  -2.403  1.00  0.00     0.174 HD
ENDBRANCH  14  24
BRANCH   5  27
HETATM   27  N4  UNL     1       3.987  -2.651  -0.721  1.00  0.00    -0.383 N 
ATOM     28  H42 UNL     1       3.222  -2.861  -0.079  1.00  0.00     0.157 HD
ATOM     29  H41 UNL     1       4.822  -3.236  -0.714  1.00  0.00     0.157 HD
ENDBRANCH   5  27
BRANCH   8  30
HETATM   30  N6  UNL     1       5.974  -0.154  -4.082  1.00  0.00    -0.234 N 
ATOM     31  H62 UNL     1       6.802  -0.749  -4.061  1.00  0.00     0.174 HD
ATOM     32  H61 UNL     1       5.960   0.620  -4.746  1.00  0.00     0.174 HD
ENDBRANCH   8  30
TORSDOF 9
