REMARK  8 active torsions:
REMARK  status: ('A' for Active; 'I' for Inactive)
REMARK       I    between atoms: N1_1  and  C1_5 
REMARK       I    between atoms: C1_5  and  N2_6 
REMARK       I    between atoms: C1_5  and  N3_10 
REMARK    1  A    between atoms: N3_10  and  C2_12 
REMARK    2  A    between atoms: C2_12  and  C3_13 
REMARK    3  A    between atoms: C3_13  and  S1_14 
REMARK    4  A    between atoms: S1_14  and  S2_15 
REMARK    5  A    between atoms: S2_15  and  C4_16 
REMARK    6  A    between atoms: C9_21  and  N4_22 
REMARK    7  A    between atoms: C9_21  and  N5_26 
REMARK    8  A    between atoms: N5_26  and  O1_27 
ROOT
HETATM    1  S1  UNL     1       0.847  -2.303   0.325  1.00  0.00    -0.096 SA
ENDROOT
BRANCH   1   2
HETATM    2  C3  UNL     1       2.107  -1.118  -0.323  1.00  0.00     0.105 C 
BRANCH   2   3
HETATM    3  C2  UNL     1       3.376  -1.455   0.388  1.00  0.00     0.128 C 
BRANCH   3   4
HETATM    4  N3  UNL     1       4.537  -0.713   0.067  1.00  0.00    -0.373 N 
HETATM    5  C1  UNL     1       4.575   0.646   0.477  1.00  0.00     0.476 C 
HETATM    6  N1  UNL     1       5.947   1.132   0.169  1.00  0.00    -0.033 N 
HETATM    7  N2  UNL     1       3.616   1.485  -0.181  1.00  0.00    -0.033 N 
ATOM      8  H13 UNL     1       6.117   1.200  -0.834  1.00  0.00     0.278 HD
ATOM      9  H12 UNL     1       6.070   2.117   0.403  1.00  0.00     0.278 HD
ATOM     10  H11 UNL     1       6.629   0.535   0.637  1.00  0.00     0.278 HD
ATOM     11  H23 UNL     1       3.739   2.470   0.053  1.00  0.00     0.278 HD
ATOM     12  H22 UNL     1       3.786   1.553  -1.184  1.00  0.00     0.278 HD
ATOM     13  H21 UNL     1       2.675   1.152   0.030  1.00  0.00     0.278 HD
ATOM     14  H3  UNL     1       5.315  -1.137  -0.438  1.00  0.00     0.156 HD
ENDBRANCH   3   4
ENDBRANCH   2   3
ENDBRANCH   1   2
BRANCH   1  15
HETATM   15  S2  UNL     1      -0.967  -1.857  -0.687  1.00  0.00    -0.089 SA
BRANCH  15  16
HETATM   16  C4  UNL     1      -1.860  -0.615   0.298  1.00  0.00     0.113 C 
HETATM   17  C5  UNL     1      -1.165   0.700   0.349  1.00  0.00     0.020 C 
HETATM   18  C6  UNL     1      -2.040   1.891   0.397  1.00  0.00     0.001 C 
HETATM   19  C7  UNL     1      -3.402   1.669   0.973  1.00  0.00     0.004 C 
HETATM   20  C8  UNL     1      -4.062   0.400   0.560  1.00  0.00     0.060 C 
HETATM   21  C9  UNL     1      -3.245  -0.494  -0.303  1.00  0.00     0.231 C 
BRANCH  21  22
HETATM   22  N4  UNL     1      -3.211  -0.142  -1.686  1.00  0.00    -0.053 N 
ATOM     23  H43 UNL     1      -2.670   0.710  -1.835  1.00  0.00     0.277 HD
ATOM     24  H42 UNL     1      -2.636  -0.796  -2.217  1.00  0.00     0.277 HD
ATOM     25  H41 UNL     1      -4.144  -0.061  -2.091  1.00  0.00     0.277 HD
ENDBRANCH  21  22
BRANCH  21  26
HETATM   26  N5  UNL     1      -3.823  -1.848  -0.206  1.00  0.00    -0.062 NA
BRANCH  26  27
HETATM   27  O1  UNL     1      -3.858  -2.202   1.102  1.00  0.00    -0.294 OA
ATOM     28  H1  UNL     1      -4.230  -3.074   1.164  1.00  0.00     0.238 HD
ENDBRANCH  26  27
ENDBRANCH  21  26
ENDBRANCH  15  16
ENDBRANCH   1  15
TORSDOF 8
