REMARK  9 active torsions:
REMARK  status: ('A' for Active; 'I' for Inactive)
REMARK    1  A    between atoms: C3_3  and  O1_4 
REMARK    2  A    between atoms: C4_6  and  O2_7 
REMARK    3  A    between atoms: C7_12  and  O4_13 
REMARK    4  A    between atoms: C9_15  and  O5_16 
REMARK    5  A    between atoms: C11_18  and  C12_19 
REMARK    6  A    between atoms: C12_19  and  O6_21 
REMARK    7  A    between atoms: C14_23  and  O7_24 
REMARK    8  A    between atoms: C15_26  and  O8_27 
REMARK    9  A    between atoms: O8_27  and  O9_28 
ROOT
HETATM    1  C1  UNL     1       2.685   1.053  -1.934  1.00  0.00     0.020 C 
HETATM    2  C2  UNL     1       2.029   0.603  -0.878  1.00  0.00    -0.018 C 
HETATM    3  C3  UNL     1       2.923   0.049   0.186  1.00  0.00     0.204 C 
HETATM    4  C4  UNL     1       2.487  -1.423   0.298  1.00  0.00     0.291 C 
HETATM    5  O3  UNL     1       1.275  -1.363   0.921  1.00  0.00    -0.342 OA
HETATM    6  C5  UNL     1       0.173  -1.567   0.138  1.00  0.00     0.130 C 
HETATM    7  C6  UNL     1       0.101  -3.044  -0.221  1.00  0.00     0.052 C 
HETATM    8  C7  UNL     1      -1.064  -1.184   0.914  1.00  0.00     0.197 C 
HETATM    9  C9  UNL     1      -1.194   0.036  -0.058  1.00  0.00     0.139 C 
HETATM   10  C11 UNL     1      -0.169   1.074   0.322  1.00  0.00     0.097 C 
HETATM   11  C14 UNL     1       0.570   0.715  -0.910  1.00  0.00     0.132 C 
HETATM   12  C15 UNL     1      -0.167  -0.607  -0.902  1.00  0.00     0.198 C 
ENDROOT
BRANCH  10  13
HETATM   13  C12 UNL     1      -0.730   2.467   0.369  1.00  0.00     0.124 C 
HETATM   14  C13 UNL     1       0.365   3.475   0.741  1.00  0.00     0.040 C 
BRANCH  13  15
HETATM   15  O6  UNL     1      -1.667   2.596   1.405  1.00  0.00    -0.395 OA
ATOM     16  H6  UNL     1      -2.022   3.477   1.435  1.00  0.00     0.210 HD
ENDBRANCH  13  15
ENDBRANCH  10  13
BRANCH   9  17
HETATM   17  O5  UNL     1      -2.416   0.219  -0.326  1.00  0.00    -0.378 OA
HETATM   18  C10 UNL     1      -3.228   0.926  -1.011  1.00  0.00     0.202 C 
ENDBRANCH   9  17
BRANCH  11  19
HETATM   19  O7  UNL     1       0.143   1.496  -1.985  1.00  0.00    -0.381 OA
ATOM     20  H7  UNL     1      -0.804   1.569  -2.006  1.00  0.00     0.211 HD
ENDBRANCH  11  19
BRANCH   8  21
HETATM   21  O4  UNL     1      -2.129  -2.028   0.864  1.00  0.00    -0.384 OA
HETATM   22  C8  UNL     1      -2.689  -2.134   2.135  1.00  0.00     0.202 C 
ENDBRANCH   8  21
BRANCH  12  23
HETATM   23  O8  UNL     1      -0.389  -0.991  -2.171  1.00  0.00    -0.222 OA
BRANCH  23  24
HETATM   24  O9  UNL     1      -1.301  -1.811  -2.477  1.00  0.00    -0.249 OA
ATOM     25  H9  UNL     1      -1.458  -2.082  -3.374  1.00  0.00     0.253 HD
ENDBRANCH  23  24
ENDBRANCH  12  23
BRANCH   3  26
HETATM   26  O1  UNL     1       4.253   0.152  -0.132  1.00  0.00    -0.386 OA
ATOM     27  H1  UNL     1       4.821  -0.200   0.544  1.00  0.00     0.210 HD
ENDBRANCH   3  26
BRANCH   4  28
HETATM   28  O2  UNL     1       3.441  -2.154   1.004  1.00  0.00    -0.368 OA
ATOM     29  H2  UNL     1       3.172  -3.062   1.073  1.00  0.00     0.212 HD
ENDBRANCH   4  28
TORSDOF 9
