REMARK  3 active torsions:
REMARK  status: ('A' for Active; 'I' for Inactive)
REMARK    1  A    between atoms: N1_2  and  N2_3 
REMARK       I    between atoms: N1_2  and  C2_6 
REMARK       I    between atoms: C2_6  and  N3_8 
REMARK       I    between atoms: N3_8  and  C3_9 
REMARK       I    between atoms: C3_9  and  N5_13 
REMARK    2  A    between atoms: N5_13  and  N6_15 
REMARK    3  A    between atoms: N7_17  and  N8_19 
ROOT
HETATM    1  C1  UNL     1      -2.632  -0.508  -1.050  1.00  0.00     0.183 C 
HETATM    2  N1  UNL     1      -2.528   0.211   0.196  1.00  0.00    -0.242 N 
HETATM    3  C2  UNL     1      -1.283   0.222   0.950  1.00  0.00     0.416 C 
HETATM    4  O1  UNL     1      -1.414   0.905   2.037  1.00  0.00    -0.228 OA
HETATM    5  N3  UNL     1      -0.203  -0.425   0.492  1.00  0.00    -0.314 NA
HETATM    6  C3  UNL     1       0.902  -1.086   0.024  1.00  0.00     0.273 C 
HETATM    7  N4  UNL     1       0.928  -1.748  -1.111  1.00  0.00    -0.358 N 
ATOM      8  H41 UNL     1       1.751  -2.240  -1.459  1.00  0.00     0.160 HD
ATOM      9  H42 UNL     1       0.014  -1.678  -1.558  1.00  0.00     0.160 HD
HETATM   10  N5  UNL     1       2.202  -1.186   0.659  1.00  0.00    -0.244 N 
ATOM     11  H5  UNL     1       2.356  -1.844   1.423  1.00  0.00     0.192 HD
ENDROOT
BRANCH  10  12
HETATM   12  N6  UNL     1       3.239  -0.368   0.209  1.00  0.00    -0.225 N 
HETATM   13  N7  UNL     1       3.174   0.865   0.078  1.00  0.00    -0.235 N 
ATOM     14  H7  UNL     1       2.314   1.365   0.305  1.00  0.00     0.209 HD
ATOM     15  H6  UNL     1       4.121  -0.819  -0.032  1.00  0.00     0.210 HD
BRANCH  13  16
HETATM   16  N8  UNL     1       4.285   1.552  -0.380  1.00  0.00    -0.330 N 
ATOM     17  H82 UNL     1       5.137   1.038  -0.602  1.00  0.00     0.178 HD
ATOM     18  H81 UNL     1       4.232   2.565  -0.488  1.00  0.00     0.178 HD
ENDBRANCH  13  16
ENDBRANCH  10  12
BRANCH   2  19
HETATM   19  N2  UNL     1      -3.649   0.877   0.643  1.00  0.00    -0.339 N 
ATOM     20  H22 UNL     1      -4.521   0.869   0.115  1.00  0.00     0.177 HD
ATOM     21  H21 UNL     1      -3.575   1.385   1.524  1.00  0.00     0.177 HD
ENDBRANCH   2  19
TORSDOF 3
