REMARK  2 active torsions:
REMARK  status: ('A' for Active; 'I' for Inactive)
REMARK    1  A    between atoms: C1_2  and  C2_4 
REMARK    2  A    between atoms: N4_13  and  N5_14 
ROOT
HETATM    1  C2  UNL     1      -0.166  -0.276  -0.044  1.00  0.00     0.155 A 
HETATM    2  C3  UNL     1       0.974  -1.051  -0.093  1.00  0.00     0.148 A 
HETATM    3  N2  UNL     1       0.878  -2.461  -0.280  1.00  0.00    -0.094 NA
HETATM    4  C4  UNL     1       2.192  -0.432   0.042  1.00  0.00     0.276 A 
HETATM    5  O2  UNL     1       3.234  -1.128  -0.002  1.00  0.00    -0.266 OA
HETATM    6  N3  UNL     1       2.302   0.910   0.221  1.00  0.00    -0.272 N 
ATOM      7  H3  UNL     1       3.206   1.372   0.322  1.00  0.00     0.174 HD
HETATM    8  C5  UNL     1       1.143   1.590   0.257  1.00  0.00     0.348 A 
HETATM    9  O3  UNL     1       1.220   2.847   0.423  1.00  0.00    -0.245 OA
HETATM   10  N4  UNL     1      -0.070   1.075   0.136  1.00  0.00    -0.205 N 
ENDROOT
BRANCH   1  11
HETATM   11  C1  UNL     1      -1.480  -0.868  -0.180  1.00  0.00     0.285 C 
HETATM   12  N1  UNL     1      -2.665  -0.090  -0.132  1.00  0.00    -0.056 NA
HETATM   13  O1  UNL     1      -1.566  -2.107  -0.344  1.00  0.00    -0.269 OA
ENDBRANCH   1  11
BRANCH  10  14
HETATM   14  N5  UNL     1      -1.250   1.836   0.181  1.00  0.00    -0.334 N 
ATOM     15  H52 UNL     1      -2.185   1.439   0.088  1.00  0.00     0.177 HD
ATOM     16  H51 UNL     1      -1.178   2.845   0.315  1.00  0.00     0.177 HD
ENDBRANCH  10  14
TORSDOF 2
