REMARK  16 active torsions:
REMARK  status: ('A' for Active; 'I' for Inactive)
REMARK    1  A    between atoms: C3_5  and  N2_6 
REMARK    2  A    between atoms: N2_6  and  C4_8 
REMARK    3  A    between atoms: C4_8  and  C5_9 
REMARK    4  A    between atoms: C5_9  and  N3_10 
REMARK    5  A    between atoms: N3_10  and  C6_12 
REMARK    6  A    between atoms: C7_15  and  N5_16 
REMARK    7  A    between atoms: C8_21  and  N7_22 
REMARK    8  A    between atoms: N7_22  and  C9_24 
REMARK    9  A    between atoms: C9_24  and  C10_25 
REMARK   10  A    between atoms: C10_25  and  C11_26 
REMARK   11  A    between atoms: C11_26  and  C12_27 
REMARK   12  A    between atoms: C12_27  and  C13_28 
REMARK   13  A    between atoms: C13_28  and  C14_29 
REMARK   14  A    between atoms: C14_29  and  C15_30 
REMARK   15  A    between atoms: C19_36  and  N9_37 
REMARK   16  A    between atoms: C20_42  and  N11_43 
ROOT
HETATM    1  C6  UNL     1      -2.853  -0.741   1.000  1.00  0.00     0.707 A 
HETATM    2  N4  UNL     1      -2.614  -2.050   0.827  1.00  0.00    -0.022 N 
ATOM      3  H4  UNL     1      -3.331  -2.720   1.104  1.00  0.00     0.203 HD
HETATM    4  C7  UNL     1      -1.465  -2.513   0.302  1.00  0.00     0.705 A 
HETATM    5  N6  UNL     1      -0.542  -1.595  -0.052  1.00  0.00    -0.022 N 
ATOM      6  H6  UNL     1       0.337  -1.924  -0.452  1.00  0.00     0.203 HD
HETATM    7  C8  UNL     1      -0.719  -0.266   0.095  1.00  0.00     0.707 A 
HETATM    8  N13 UNL     1      -1.893   0.135   0.628  1.00  0.00    -0.022 N 
ATOM      9  H13 UNL     1      -2.061   1.133   0.754  1.00  0.00     0.203 HD
ENDROOT
BRANCH   7  10
HETATM   10  N7  UNL     1       0.186   0.585  -0.264  1.00  0.00    -0.225 N 
ATOM     11  H7  UNL     1      -0.015   1.575  -0.123  1.00  0.00     0.177 HD
BRANCH  10  12
HETATM   12  C9  UNL     1       1.456   0.241  -0.847  1.00  0.00     0.138 C 
BRANCH  12  13
HETATM   13  C10 UNL     1       2.517  -0.084   0.186  1.00  0.00     0.020 C 
BRANCH  13  14
HETATM   14  C11 UNL     1       3.833  -0.436  -0.483  1.00  0.00     0.002 C 
BRANCH  14  15
HETATM   15  C12 UNL     1       4.353   0.687  -1.327  1.00  0.00     0.000 C 
BRANCH  15  16
HETATM   16  C13 UNL     1       4.625   1.951  -0.600  1.00  0.00     0.006 C 
BRANCH  16  17
HETATM   17  C14 UNL     1       5.663   1.903   0.465  1.00  0.00     0.057 C 
BRANCH  17  18
HETATM   18  C15 UNL     1       7.007   1.544  -0.030  1.00  0.00     0.009 A 
HETATM   19  C16 UNL     1       7.926   2.474  -0.466  1.00  0.00     0.027 A 
HETATM   20  C17 UNL     1       9.174   2.112  -0.922  1.00  0.00     0.034 A 
HETATM   21  C18 UNL     1       9.512   0.783  -0.943  1.00  0.00     0.079 A 
HETATM   22  N8  UNL     1      10.726   0.398  -1.385  1.00  0.00    -0.190 N 
HETATM   23  C21 UNL     1       8.584  -0.141  -0.505  1.00  0.00     0.104 A 
HETATM   24  C19 UNL     1      11.059  -0.914  -1.406  1.00  0.00     0.678 A 
ATOM     25  H8  UNL     1      11.396   1.098  -1.705  1.00  0.00     0.184 HD
HETATM   26  N10 UNL     1      10.191  -1.849  -0.989  1.00  0.00    -0.175 N 
HETATM   27  C20 UNL     1       8.957  -1.468  -0.540  1.00  0.00     0.144 A 
ATOM     28  H10 UNL     1      10.450  -2.835  -1.007  1.00  0.00     0.186 HD
HETATM   29  N12 UNL     1       7.372   0.257  -0.065  1.00  0.00    -0.355 N 
ATOM     30  H12 UNL     1       6.709  -0.450   0.253  1.00  0.00     0.166 HD
BRANCH  24  31
HETATM   31  N9  UNL     1      12.211  -1.335  -1.818  1.00  0.00    -0.234 N 
ATOM     32  H92 UNL     1      12.871  -0.624  -2.135  1.00  0.00     0.174 HD
ATOM     33  H91 UNL     1      12.462  -2.324  -1.834  1.00  0.00     0.174 HD
ENDBRANCH  24  31
BRANCH  27  34
HETATM   34  N11 UNL     1       8.121  -2.358  -0.140  1.00  0.00    -0.383 N 
ATOM     35 2H11 UNL     1       8.397  -3.340  -0.166  1.00  0.00     0.157 HD
ATOM     36 1H11 UNL     1       7.200  -2.074   0.195  1.00  0.00     0.157 HD
ENDBRANCH  27  34
ENDBRANCH  17  18
ENDBRANCH  16  17
ENDBRANCH  15  16
ENDBRANCH  14  15
ENDBRANCH  13  14
ENDBRANCH  12  13
ENDBRANCH  10  12
ENDBRANCH   7  10
BRANCH   4  37
HETATM   37  N5  UNL     1      -1.267  -3.776   0.151  1.00  0.00    -0.234 N 
ATOM     38  H52 UNL     1      -1.965  -4.470   0.419  1.00  0.00     0.174 HD
ATOM     39  H51 UNL     1      -0.396  -4.127  -0.247  1.00  0.00     0.174 HD
ENDBRANCH   4  37
BRANCH   1  40
HETATM   40  N3  UNL     1      -4.081  -0.315   1.553  1.00  0.00    -0.224 N 
ATOM     41  H3  UNL     1      -4.270   0.678   1.689  1.00  0.00     0.177 HD
BRANCH  40  42
HETATM   42  C5  UNL     1      -5.067  -1.308   1.924  1.00  0.00     0.158 C 
BRANCH  42  43
HETATM   43  C4  UNL     1      -6.315  -0.661   2.493  1.00  0.00     0.158 C 
BRANCH  43  44
HETATM   44  N2  UNL     1      -6.945   0.221   1.580  1.00  0.00    -0.224 N 
ATOM     45  H2  UNL     1      -6.389   1.024   1.286  1.00  0.00     0.177 HD
BRANCH  44  46
HETATM   46  C3  UNL     1      -8.120   0.144   1.074  1.00  0.00     0.680 A 
HETATM   47  N1  UNL     1      -8.493   1.129   0.211  1.00  0.00    -0.194 N 
HETATM   48  C2  UNL     1      -9.695   1.161  -0.384  1.00  0.00     0.053 A 
ATOM     49  H1  UNL     1      -7.829   1.876   0.008  1.00  0.00     0.184 HD
HETATM   50  C1  UNL     1     -10.085   2.239  -1.321  1.00  0.00     0.071 C 
HETATM   51  C24 UNL     1     -10.586   0.156  -0.108  1.00  0.00     0.101 A 
HETATM   52  C22 UNL     1     -10.206  -0.906   0.813  1.00  0.00     0.150 A 
HETATM   53  N16 UNL     1     -11.845  -0.121  -0.514  1.00  0.00    -0.348 N 
HETATM   54  N14 UNL     1      -8.969  -0.853   1.365  1.00  0.00    -0.174 N 
HETATM   55  N15 UNL     1     -11.264  -1.732   0.885  1.00  0.00    -0.336 N 
ATOM     56  H14 UNL     1      -8.678  -1.585   2.014  1.00  0.00     0.186 HD
HETATM   57  C23 UNL     1     -12.255  -1.267   0.089  1.00  0.00     0.182 A 
ATOM     58  H15 UNL     1     -11.313  -2.579   1.452  1.00  0.00     0.168 HD
ATOM     59  H16 UNL     1     -12.396   0.438  -1.165  1.00  0.00     0.167 HD
ENDBRANCH  44  46
ENDBRANCH  43  44
ENDBRANCH  42  43
ENDBRANCH  40  42
ENDBRANCH   1  40
TORSDOF 16
