REMARK  18 active torsions:
REMARK  status: ('A' for Active; 'I' for Inactive)
REMARK    1  A    between atoms: N1_1  and  C1_4 
REMARK    2  A    between atoms: C2_7  and  N3_8 
REMARK    3  A    between atoms: N3_8  and  C3_10 
REMARK    4  A    between atoms: C9_16  and  N4_17 
REMARK    5  A    between atoms: N4_17  and  C10_19 
REMARK    6  A    between atoms: N7_28  and  C14_29 
REMARK    7  A    between atoms: C16_31  and  C17_32 
REMARK    8  A    between atoms: C17_32  and  N8_33 
REMARK    9  A    between atoms: N8_33  and  C18_35 
REMARK   10  A    between atoms: C18_35  and  C19_36 
REMARK   11  A    between atoms: C19_36  and  C20_37 
REMARK   12  A    between atoms: C20_37  and  C21_38 
REMARK   13  A    between atoms: C21_38  and  C22_39 
REMARK   14  A    between atoms: C22_39  and  C23_40 
REMARK   15  A    between atoms: C23_40  and  C24_41 
REMARK   16  A    between atoms: C24_41  and  N9_42 
REMARK   17  A    between atoms: C24_41  and  N10_46 
REMARK   18  A    between atoms: N11_50  and  N12_52 
ROOT
HETATM    1  C1  UNL     1      -2.824   3.394  -0.987  1.00  0.00     0.679 A 
HETATM    2  N2  UNL     1      -4.110   3.022  -0.808  1.00  0.00    -0.176 N 
ATOM      3  H2  UNL     1      -4.868   3.673  -1.012  1.00  0.00     0.186 HD
HETATM    4  C2  UNL     1      -4.379   1.796  -0.362  1.00  0.00     0.135 A 
HETATM    5  C8  UNL     1      -3.327   0.913  -0.086  1.00  0.00     0.099 A 
HETATM    6  C9  UNL     1      -3.299  -0.374   0.373  1.00  0.00     0.135 A 
HETATM    7  N6  UNL     1      -2.014  -0.710   0.446  1.00  0.00    -0.279 N 
ATOM      8  H6  UNL     1      -1.680  -1.621   0.759  1.00  0.00     0.189 HD
HETATM    9  N7  UNL     1      -1.220   0.279   0.064  1.00  0.00    -0.244 N 
HETATM   10  C25 UNL     1      -2.019   1.313  -0.275  1.00  0.00     0.158 A 
HETATM   11  N13 UNL     1      -1.778   2.563  -0.730  1.00  0.00    -0.174 N 
ATOM     12  H13 UNL     1      -0.820   2.880  -0.879  1.00  0.00     0.186 HD
ENDROOT
BRANCH   9  13
HETATM   13  C14 UNL     1       0.213   0.326  -0.012  1.00  0.00     0.249 C 
HETATM   14  C15 UNL     1       0.804   1.426   0.798  1.00  0.00     0.089 C 
HETATM   15  C16 UNL     1       1.869   0.346   1.034  1.00  0.00     0.146 C 
HETATM   16  O1  UNL     1       0.880  -0.583   0.804  1.00  0.00    -0.358 OA
BRANCH  15  17
HETATM   17  C17 UNL     1       2.908   0.453  -0.078  1.00  0.00     0.153 C 
BRANCH  17  18
HETATM   18  N8  UNL     1       3.584  -0.774  -0.298  1.00  0.00    -0.376 N 
ATOM     19  H8  UNL     1       3.348  -1.567   0.298  1.00  0.00     0.160 HD
BRANCH  18  20
HETATM   20  C18 UNL     1       4.568  -0.959  -1.298  1.00  0.00     0.091 C 
HETATM   21  N11 UNL     1       5.084  -0.029  -2.021  1.00  0.00    -0.296 N 
ATOM     22  H11 UNL     1       5.786  -0.313  -2.705  1.00  0.00     0.187 HD
BRANCH  20  23
HETATM   23  C19 UNL     1       5.052  -2.342  -1.619  1.00  0.00     0.077 C 
BRANCH  23  24
HETATM   24  C20 UNL     1       6.501  -2.507  -1.813  1.00  0.00     0.007 C 
BRANCH  24  25
HETATM   25  C21 UNL     1       7.421  -2.288  -0.680  1.00  0.00     0.001 C 
BRANCH  25  26
HETATM   26  C22 UNL     1       7.456  -0.957  -0.039  1.00  0.00     0.004 C 
BRANCH  26  27
HETATM   27  C23 UNL     1       8.496  -0.930   1.104  1.00  0.00     0.062 C 
BRANCH  27  28
HETATM   28  C24 UNL     1       8.444   0.458   1.674  1.00  0.00     0.378 C 
BRANCH  28  29
HETATM   29  N9  UNL     1       9.366   0.653   2.763  1.00  0.00    -0.051 N 
ATOM     30  H93 UNL     1       9.222  -0.046   3.492  1.00  0.00     0.276 HD
ATOM     31  H92 UNL     1      10.316   0.409   2.484  1.00  0.00     0.276 HD
ATOM     32  H91 UNL     1       9.331   1.596   3.150  1.00  0.00     0.276 HD
ENDBRANCH  28  29
BRANCH  28  33
HETATM   33  N10 UNL     1       8.661   1.398   0.599  1.00  0.00    -0.051 N 
ATOM     34 3H10 UNL     1       9.524   1.216   0.086  1.00  0.00     0.276 HD
ATOM     35 2H10 UNL     1       8.010   1.267  -0.175  1.00  0.00     0.276 HD
ATOM     36 1H10 UNL     1       8.626   2.341   0.986  1.00  0.00     0.276 HD
ENDBRANCH  28  33
ENDBRANCH  27  28
ENDBRANCH  26  27
ENDBRANCH  25  26
ENDBRANCH  24  25
ENDBRANCH  23  24
ENDBRANCH  20  23
BRANCH  21  37
HETATM   37  N12 UNL     1       4.781   1.312  -1.961  1.00  0.00    -0.344 N 
ATOM     38 2H12 UNL     1       4.078   1.577  -1.271  1.00  0.00     0.176 HD
ATOM     39 1H12 UNL     1       5.190   2.050  -2.534  1.00  0.00     0.176 HD
ENDBRANCH  21  37
ENDBRANCH  18  20
ENDBRANCH  17  18
ENDBRANCH  15  17
ENDBRANCH   9  13
BRANCH   6  40
HETATM   40  N4  UNL     1      -4.367  -1.043   0.648  1.00  0.00    -0.347 N 
ATOM     41  H4  UNL     1      -5.273  -0.593   0.518  1.00  0.00     0.163 HD
BRANCH  40  42
HETATM   42  C10 UNL     1      -4.334  -2.388   1.127  1.00  0.00     0.285 C 
HETATM   43  C11 UNL     1      -5.193  -3.320   0.266  1.00  0.00     0.056 C 
HETATM   44  C12 UNL     1      -5.252  -4.550   1.151  1.00  0.00     0.031 C 
HETATM   45  C13 UNL     1      -4.940  -4.032   2.551  1.00  0.00     0.235 C 
HETATM   46  N5  UNL     1      -4.956  -2.567   2.424  1.00  0.00    -0.054 N 
ATOM     47  H52 UNL     1      -4.519  -2.057   3.192  1.00  0.00     0.279 HD
ATOM     48  H51 UNL     1      -5.871  -2.129   2.534  1.00  0.00     0.279 HD
ENDBRANCH  40  42
ENDBRANCH   6  40
BRANCH   4  49
HETATM   49  N3  UNL     1      -5.575   1.402  -0.187  1.00  0.00    -0.370 N 
ATOM     50  H3  UNL     1      -5.718   0.453   0.157  1.00  0.00     0.161 HD
BRANCH  49  51
HETATM   51  C3  UNL     1      -6.730   2.199  -0.440  1.00  0.00     0.083 C 
HETATM   52  C4  UNL     1      -7.966   1.673   0.264  1.00  0.00     0.025 C 
HETATM   53  C5  UNL     1      -9.111   2.280  -0.498  1.00  0.00     0.002 C 
HETATM   54  C6  UNL     1      -8.645   2.486  -1.907  1.00  0.00     0.002 C 
HETATM   55  C7  UNL     1      -7.169   2.157  -1.889  1.00  0.00     0.025 C 
ENDBRANCH  49  51
ENDBRANCH   4  49
BRANCH   1  56
HETATM   56  N1  UNL     1      -2.599   4.591  -1.421  1.00  0.00    -0.234 N 
ATOM     57  H12 UNL     1      -3.383   5.214  -1.614  1.00  0.00     0.174 HD
ATOM     58  H11 UNL     1      -1.628   4.872  -1.556  1.00  0.00     0.174 HD
ENDBRANCH   1  56
TORSDOF 18
