REMARK  13 active torsions:
REMARK  status: ('A' for Active; 'I' for Inactive)
REMARK    1  A    between atoms: C3_4  and  N2_5 
REMARK    2  A    between atoms: C6_14  and  C7_15 
REMARK    3  A    between atoms: C7_15  and  N5_16 
REMARK    4  A    between atoms: N5_16  and  C8_19 
REMARK    5  A    between atoms: C8_19  and  C9_20 
REMARK    6  A    between atoms: C9_20  and  C10_21 
REMARK    7  A    between atoms: C10_21  and  N6_22 
REMARK    8  A    between atoms: C12_27  and  C13_28 
REMARK    9  A    between atoms: C15_30  and  C16_31 
REMARK   10  A    between atoms: C16_31  and  C17_33 
REMARK       I    between atoms: C17_33  and  N7_35 
REMARK   11  A    between atoms: N7_35  and  C18_37 
REMARK   12  A    between atoms: C18_37  and  C19_38 
REMARK   13  A    between atoms: N9_40  and  N10_42 
ROOT
HETATM    1  N1  UNL     1       0.601  -4.655  -0.466  1.00  0.00    -0.191 NA
HETATM    2  C1  UNL     1      -0.333  -4.095  -0.848  1.00  0.00     0.104 C 
HETATM    3  C2  UNL     1      -1.526  -3.477  -1.374  1.00  0.00     0.102 A 
HETATM    4  C3  UNL     1      -2.003  -3.976  -2.591  1.00  0.00     0.135 A 
HETATM    5  N3  UNL     1      -3.171  -3.595  -3.115  1.00  0.00    -0.284 N 
ATOM      6  H3  UNL     1      -3.488  -3.979  -4.005  1.00  0.00     0.188 HD
HETATM    7  N4  UNL     1      -3.909  -2.716  -2.467  1.00  0.00    -0.298 N 
ATOM      8  H4  UNL     1      -4.801  -2.430  -2.871  1.00  0.00     0.187 HD
HETATM    9  C4  UNL     1      -3.529  -2.183  -1.294  1.00  0.00     0.061 A 
HETATM   10  C5  UNL     1      -4.358  -1.305  -0.641  1.00  0.00     0.040 A 
HETATM   11  C6  UNL     1      -3.977  -0.800   0.568  1.00  0.00    -0.030 A 
HETATM   12  C11 UNL     1      -2.796  -1.146   1.132  1.00  0.00     0.022 A 
HETATM   13  C12 UNL     1      -1.921  -2.053   0.472  1.00  0.00    -0.004 A 
HETATM   14  C22 UNL     1      -2.292  -2.560  -0.709  1.00  0.00     0.028 A 
ENDROOT
BRANCH   4  15
HETATM   15  N2  UNL     1      -1.315  -4.822  -3.239  1.00  0.00    -0.383 N 
ATOM     16  H22 UNL     1      -0.423  -5.113  -2.839  1.00  0.00     0.157 HD
ATOM     17  H21 UNL     1      -1.663  -5.186  -4.126  1.00  0.00     0.157 HD
ENDBRANCH   4  15
BRANCH  13  18
HETATM   18  C13 UNL     1      -0.660  -2.247   1.173  1.00  0.00     0.018 A 
HETATM   19  C14 UNL     1       0.529  -1.638   0.854  1.00  0.00     0.037 A 
HETATM   20  C15 UNL     1       1.562  -1.751   1.726  1.00  0.00     0.046 A 
HETATM   21  C21 UNL     1       1.288  -2.491   2.873  1.00  0.00     0.067 A 
HETATM   22  S1  UNL     1       2.404  -2.853   4.257  1.00  0.00    -0.043 SA
HETATM   23  S2  UNL     1      -0.333  -2.964   2.668  1.00  0.00    -0.081 SA
BRANCH  20  24
HETATM   24  C16 UNL     1       2.918  -1.196   1.554  1.00  0.00     0.251 C 
HETATM   25  O1  UNL     1       3.845  -1.602   2.295  1.00  0.00    -0.281 OA
BRANCH  24  26
HETATM   26  C17 UNL     1       3.230  -0.211   0.578  1.00  0.00     0.292 C 
HETATM   27  O2  UNL     1       2.397   0.301  -0.186  1.00  0.00    -0.264 OA
HETATM   28  N7  UNL     1       4.585   0.242   0.441  1.00  0.00    -0.347 N 
ATOM     29  H7  UNL     1       5.301  -0.153   1.050  1.00  0.00     0.163 HD
BRANCH  28  30
HETATM   30  C18 UNL     1       4.966   1.234  -0.526  1.00  0.00     0.197 C 
BRANCH  30  31
HETATM   31  C19 UNL     1       6.421   1.476  -0.420  1.00  0.00     0.125 C 
HETATM   32  N8  UNL     1       7.321   0.408  -0.618  1.00  0.00    -0.084 NA
HETATM   33  N9  UNL     1       6.833   2.663  -0.151  1.00  0.00    -0.288 N 
ATOM     34  H9  UNL     1       6.165   3.421  -0.013  1.00  0.00     0.188 HD
BRANCH  33  35
HETATM   35  N10 UNL     1       8.189   2.901  -0.051  1.00  0.00    -0.275 N 
HETATM   36  C20 UNL     1       8.826   3.346  -1.075  1.00  0.00     0.215 C 
HETATM   37  N11 UNL     1       8.143   3.590  -2.293  1.00  0.00    -0.065 NA
HETATM   38  N12 UNL     1      10.237   3.591  -0.958  1.00  0.00    -0.065 NA
ATOM     39  H10 UNL     1       8.680   2.726   0.826  1.00  0.00     0.189 HD
ENDBRANCH  33  35
ENDBRANCH  30  31
ENDBRANCH  28  30
ENDBRANCH  24  26
ENDBRANCH  20  24
ENDBRANCH  13  18
BRANCH  11  40
HETATM   40  C7  UNL     1      -4.827   0.156   1.358  1.00  0.00     0.270 C 
BRANCH  40  41
HETATM   41  N5  UNL     1      -6.186   0.105   0.967  1.00  0.00    -0.071 N 
ATOM     42  H52 UNL     1      -6.296   0.296  -0.029  1.00  0.00     0.277 HD
ATOM     43  H51 UNL     1      -6.544  -0.850   0.984  1.00  0.00     0.277 HD
BRANCH  41  44
HETATM   44  C8  UNL     1      -6.989   0.980   1.760  1.00  0.00     0.234 C 
BRANCH  44  45
HETATM   45  C9  UNL     1      -6.677   2.417   1.456  1.00  0.00     0.055 C 
BRANCH  45  46
HETATM   46  C10 UNL     1      -6.946   2.689  -0.009  1.00  0.00     0.231 C 
BRANCH  46  47
HETATM   47  N6  UNL     1      -6.668   4.059  -0.358  1.00  0.00    -0.079 N 
ATOM     48  H63 UNL     1      -7.181   4.706   0.240  1.00  0.00     0.274 HD
ATOM     49  H62 UNL     1      -5.717   4.323  -0.100  1.00  0.00     0.274 HD
ATOM     50  H61 UNL     1      -6.849   4.242  -1.345  1.00  0.00     0.274 HD
ENDBRANCH  46  47
ENDBRANCH  45  46
ENDBRANCH  44  45
ENDBRANCH  41  44
ENDBRANCH  40  41
ENDBRANCH  11  40
TORSDOF 13
