REMARK  1 active torsions:
REMARK  status: ('A' for Active; 'I' for Inactive)
REMARK    1  A    between atoms: C3_4  and  C4_5 
ROOT
HETATM    1  C4  UNL     1       0.986   0.104   0.418  1.00  0.00     0.047 A 
HETATM    2  C5  UNL     1       1.344   0.170  -0.913  1.00  0.00     0.032 A 
HETATM    3  C6  UNL     1       2.732   0.327  -0.938  1.00  0.00     0.019 A 
HETATM    4  C7  UNL     1       3.164   0.351   0.345  1.00  0.00     0.088 A 
HETATM    5  N2  UNL     1       2.125   0.218   1.161  1.00  0.00    -0.365 N 
ATOM      6  H2  UNL     1       2.171   0.203   2.180  1.00  0.00     0.165 HD
ENDROOT
BRANCH   1   7
HETATM    7  C3  UNL     1      -0.342  -0.057   0.979  1.00  0.00     0.114 C 
HETATM    8  N1  UNL     1      -1.466  -0.173   0.434  1.00  0.00    -0.397 N 
HETATM    9  C1  UNL     1      -2.656  -0.325   1.309  1.00  0.00     0.148 C 
HETATM   10  C2  UNL     1      -1.695  -0.172  -0.971  1.00  0.00     0.148 C 
ENDBRANCH   1   7
TORSDOF 1
