REMARK  1 active torsions:
REMARK  status: ('A' for Active; 'I' for Inactive)
REMARK       I    between atoms: N1_2  and  C2_4 
REMARK    1  A    between atoms: C2_4  and  C3_6 
ROOT
HETATM    1  C3  UNL     1      -0.244  -0.409  -0.073  1.00  0.00     0.100 A 
HETATM    2  C4  UNL     1      -0.668   0.692   0.662  1.00  0.00     0.036 A 
HETATM    3  C5  UNL     1      -2.023   0.824   0.473  1.00  0.00     0.019 A 
HETATM    4  C6  UNL     1      -2.434  -0.184  -0.369  1.00  0.00     0.088 A 
HETATM    5  N2  UNL     1      -1.340  -0.897  -0.672  1.00  0.00    -0.361 N 
ATOM      6  H2  UNL     1      -1.341  -1.713  -1.285  1.00  0.00     0.165 HD
ENDROOT
BRANCH   1   7
HETATM    7  C2  UNL     1       1.111  -0.919  -0.167  1.00  0.00     0.271 C 
HETATM    8  N1  UNL     1       2.143  -0.265   0.542  1.00  0.00    -0.342 N 
HETATM    9  C1  UNL     1       2.978   0.546   0.015  1.00  0.00     0.121 C 
ATOM     10  H1  UNL     1       2.227  -0.453   1.541  1.00  0.00     0.167 HD
HETATM   11  O1  UNL     1       1.352  -1.924  -0.869  1.00  0.00    -0.266 OA
ENDBRANCH   1   7
TORSDOF 1
