REMARK  1 active torsions:
REMARK  status: ('A' for Active; 'I' for Inactive)
REMARK    1  A    between atoms: C2_2  and  C3_3 
REMARK       I    between atoms: C3_3  and  N1_4 
ROOT
HETATM    1  C1  UNL     1      -0.189  -1.507  -0.551  1.00  0.00     0.027 C 
HETATM    2  C2  UNL     1      -0.202  -0.022  -0.281  1.00  0.00     0.055 A 
HETATM    3  C4  UNL     1      -1.276   0.443   0.676  1.00  0.00     0.041 A 
HETATM    4  C5  UNL     1      -1.254   0.896  -0.744  1.00  0.00     0.101 A 
HETATM    5 CL1  UNL     1      -0.747   2.614  -0.933  1.00  0.00    -0.124 Cl
ENDROOT
BRANCH   2   6
HETATM    6  C3  UNL     1       1.181   0.544  -0.023  1.00  0.00     0.225 C 
HETATM    7  N1  UNL     1       1.986   0.054   0.972  1.00  0.00    -0.369 N 
ATOM      8  H12 UNL     1       1.700  -0.701   1.595  1.00  0.00     0.159 HD
ATOM      9  H11 UNL     1       2.916   0.435   1.146  1.00  0.00     0.159 HD
HETATM   10  O1  UNL     1       1.528   1.461  -0.779  1.00  0.00    -0.273 OA
ENDBRANCH   2   6
TORSDOF 1
