REMARK  1 active torsions:
REMARK  status: ('A' for Active; 'I' for Inactive)
REMARK    1  A    between atoms: C1_2  and  C2_4 
ROOT
HETATM    1  C2  UNL     1       0.440  -0.363  -1.022  1.00  0.00     0.084 A 
HETATM    2  C3  UNL     1      -0.639   0.626  -1.238  1.00  0.00     0.025 A 
HETATM    3  C4  UNL     1      -0.682  -0.259  -0.142  1.00  0.00    -0.028 A 
HETATM    4  C5  UNL     1      -0.832  -0.094   1.261  1.00  0.00     0.011 A 
HETATM    5  C6  UNL     1      -1.566  -1.188   0.429  1.00  0.00     0.011 A 
ENDROOT
BRANCH   1   6
HETATM    6  C1  UNL     1       1.765   0.006  -0.513  1.00  0.00     0.236 C 
HETATM    7  N1  UNL     1       1.824   1.022   0.463  1.00  0.00    -0.062 NA
HETATM    8  O1  UNL     1       2.833  -0.510  -0.880  1.00  0.00    -0.276 OA
ENDBRANCH   1   6
TORSDOF 1
