REMARK  1 active torsions:
REMARK  status: ('A' for Active; 'I' for Inactive)
REMARK    1  A    between atoms: C1_4  and  C2_5 
ROOT
HETATM    1  C2  UNL     1       0.701  -0.144   0.834  1.00  0.00     0.053 A 
HETATM    2  C3  UNL     1      -0.367  -0.855   0.199  1.00  0.00     0.021 A 
HETATM    3  C4  UNL     1      -1.834  -0.581   0.116  1.00  0.00     0.009 C 
HETATM    4  C5  UNL     1      -1.304   0.584  -0.745  1.00  0.00     0.027 C 
HETATM    5  C6  UNL     1      -0.343   0.717   0.409  1.00  0.00     0.050 A 
HETATM    6 CL1  UNL     1      -1.266   1.344   1.826  1.00  0.00    -0.118 Cl
ENDROOT
BRANCH   1   7
HETATM    7  C1  UNL     1       2.036   0.109   0.176  1.00  0.00     0.059 C 
HETATM    8  N1  UNL     1       3.145   0.004   0.764  1.00  0.00    -0.411 N 
ATOM      9  H12 UNL     1       3.122  -0.270   1.746  1.00  0.00     0.155 HD
ATOM     10  H11 UNL     1       4.047   0.175   0.319  1.00  0.00     0.155 HD
ENDBRANCH   1   7
TORSDOF 1
