REMARK  1 active torsions:
REMARK  status: ('A' for Active; 'I' for Inactive)
REMARK    1  A    between atoms: C1_2  and  C2_4 
ROOT
HETATM    1  C2  UNL     1       0.684   0.161  -0.487  1.00  0.00     0.271 C 
HETATM    2  C3  UNL     1      -0.317   1.124   0.111  1.00  0.00     0.044 C 
HETATM    3  C4  UNL     1      -1.588   0.298  -0.056  1.00  0.00     0.030 C 
HETATM    4  C5  UNL     1      -1.064  -1.045   0.473  1.00  0.00     0.233 C 
HETATM    5  N1  UNL     1       0.292  -1.129  -0.021  1.00  0.00    -0.063 N 
ATOM      6  H11 UNL     1       0.938  -1.508   0.671  1.00  0.00     0.278 HD
ATOM      7  H12 UNL     1       0.406  -1.853  -0.730  1.00  0.00     0.278 HD
ENDROOT
BRANCH   1   8
HETATM    8  C1  UNL     1       2.074   0.521  -0.156  1.00  0.00     0.249 C 
HETATM    9  O1  UNL     1       2.744  -0.281   0.462  1.00  0.00    -0.278 OA
HETATM   10 CL1  UNL     1       2.796   2.045  -0.613  1.00  0.00    -0.042 Cl
ENDBRANCH   1   8
TORSDOF 1
