REMARK  5 active torsions:
REMARK  status: ('A' for Active; 'I' for Inactive)
REMARK    1  A    between atoms: C2_2  and  C3_3 
REMARK    2  A    between atoms: C3_3  and  C4_4 
REMARK    3  A    between atoms: C5_5  and  C6_6 
REMARK    4  A    between atoms: C7_7  and  C8_8 
REMARK    5  A    between atoms: C8_8  and  N1_10 
ROOT
HETATM    1  C6  UNL     1      -0.001   0.451   0.826  1.00  0.00    -0.077 C 
HETATM    2  C7  UNL     1      -1.160   0.514   0.462  1.00  0.00    -0.069 C 
ENDROOT
BRANCH   2   3
HETATM    3  C8  UNL     1      -2.568   0.608   0.045  1.00  0.00     0.260 C 
HETATM    4  C9  UNL     1      -2.688   0.360  -1.450  1.00  0.00     0.054 C 
BRANCH   3   5
HETATM    5  N1  UNL     1      -3.269  -0.411   0.796  1.00  0.00    -0.065 N 
HETATM    6  C10 UNL     1      -4.729  -0.282   0.654  1.00  0.00     0.268 C 
ATOM      7  H12 UNL     1      -2.951  -1.346   0.541  1.00  0.00     0.278 HD
ATOM      8  H11 UNL     1      -2.989  -0.410   1.777  1.00  0.00     0.278 HD
ENDBRANCH   3   5
ENDBRANCH   2   3
BRANCH   1   9
HETATM    9  C5  UNL     1       1.356   0.394   1.276  1.00  0.00     0.060 C 
HETATM   10  C4  UNL     1       2.160  -0.521   0.772  1.00  0.00    -0.014 C 
BRANCH  10  11
HETATM   11  C3  UNL     1       3.585  -0.651   1.184  1.00  0.00     0.054 C 
BRANCH  11  12
HETATM   12  C2  UNL     1       4.444  -0.460  -0.014  1.00  0.00    -0.033 C 
HETATM   13  C1  UNL     1       5.320   0.523  -0.028  1.00  0.00     0.007 C 
ENDBRANCH  11  12
ENDBRANCH  10  11
ENDBRANCH   1   9
TORSDOF 5
