REMARK  4 active torsions:
REMARK  status: ('A' for Active; 'I' for Inactive)
REMARK    1  A    between atoms: C2_2  and  C3_3 
REMARK    2  A    between atoms: C3_3  and  C4_4 
REMARK    3  A    between atoms: C4_4  and  C5_6 
REMARK    4  A    between atoms: C5_6  and  N1_8 
ROOT
HETATM    1  C5  UNL     1      -0.421   0.680  -0.094  1.00  0.00     0.254 C 
HETATM    2  C6  UNL     1      -0.365   1.531   1.140  1.00  0.00     0.049 C 
ENDROOT
BRANCH   1   3
HETATM    3  C4  UNL     1       0.862  -0.007  -0.382  1.00  0.00     0.160 C 
HETATM    4  O1  UNL     1       0.816  -1.206  -0.584  1.00  0.00    -0.295 OA
BRANCH   3   5
HETATM    5  C3  UNL     1       2.165   0.648  -0.439  1.00  0.00     0.107 C 
BRANCH   5   6
HETATM    6  C2  UNL     1       3.255  -0.318  -0.750  1.00  0.00    -0.029 C 
HETATM    7  C1  UNL     1       4.269  -0.535   0.054  1.00  0.00     0.007 C 
ENDBRANCH   5   6
ENDBRANCH   3   5
ENDBRANCH   1   3
BRANCH   1   8
HETATM    8  N1  UNL     1      -1.541  -0.223  -0.102  1.00  0.00    -0.068 N 
HETATM    9  C7  UNL     1      -1.359  -1.374   0.747  1.00  0.00     0.272 C 
HETATM   10  C8  UNL     1      -1.730  -0.735  -1.462  1.00  0.00     0.272 C 
HETATM   11  C9  UNL     1      -2.782   0.412   0.268  1.00  0.00     0.272 C 
ENDBRANCH   1   8
TORSDOF 4
