REMARK  3 active torsions:
REMARK  status: ('A' for Active; 'I' for Inactive)
REMARK    1  A    between atoms: C5_5  and  C6_6 
REMARK    2  A    between atoms: C6_6  and  C7_7 
REMARK    3  A    between atoms: C7_7  and  N1_8 
REMARK       I    between atoms: N1_8  and  C8_10 
ROOT
HETATM    1  C1  UNL     1      -4.559  -1.635  -0.851  1.00  0.00     0.012 C 
HETATM    2  C2  UNL     1      -3.630  -0.888  -0.609  1.00  0.00    -0.112 C 
HETATM    3  C3  UNL     1      -2.517   0.006  -0.318  1.00  0.00     0.068 A 
HETATM    4  C4  UNL     1      -2.532   0.598   1.090  1.00  0.00     0.023 A 
HETATM    5  C5  UNL     1      -1.491  -0.406   0.678  1.00  0.00     0.004 A 
ENDROOT
BRANCH   5   6
HETATM    6  C6  UNL     1      -0.086   0.140   0.582  1.00  0.00     0.025 C 
BRANCH   6   7
HETATM    7  C7  UNL     1       0.571  -0.217  -0.725  1.00  0.00     0.123 C 
BRANCH   7   8
HETATM    8  N1  UNL     1       1.894   0.336  -0.761  1.00  0.00    -0.361 N 
HETATM    9  C8  UNL     1       2.950   0.036   0.126  1.00  0.00     0.213 C 
HETATM   10  C9  UNL     1       4.294   0.677  -0.002  1.00  0.00     0.117 C 
HETATM   11  O1  UNL     1       2.823  -0.786   1.074  1.00  0.00    -0.274 OA
ATOM     12  H1  UNL     1       2.091   1.012  -1.499  1.00  0.00     0.162 HD
ENDBRANCH   7   8
ENDBRANCH   6   7
ENDBRANCH   5   6
TORSDOF 3
