REMARK  3 active torsions:
REMARK  status: ('A' for Active; 'I' for Inactive)
REMARK    1  A    between atoms: N1_2  and  C4_5 
REMARK    2  A    between atoms: C4_5  and  C5_6 
REMARK    3  A    between atoms: C6_7  and  C7_8 
ROOT
HETATM    1  C4  UNL     1      -0.803  -1.115   0.152  1.00  0.00     0.263 C 
ENDROOT
BRANCH   1   2
HETATM    2  N1  UNL     1      -1.759  -0.055  -0.083  1.00  0.00    -0.075 N 
HETATM    3  C1  UNL     1      -1.770   0.399  -1.443  1.00  0.00     0.272 C 
HETATM    4  C2  UNL     1      -1.494   1.083   0.775  1.00  0.00     0.272 C 
HETATM    5  C3  UNL     1      -3.075  -0.609   0.264  1.00  0.00     0.272 C 
ENDBRANCH   1   2
BRANCH   1   6
HETATM    6  C5  UNL     1       0.577  -0.731  -0.154  1.00  0.00    -0.003 C 
HETATM    7  C6  UNL     1       1.505  -0.762   0.786  1.00  0.00    -0.024 C 
BRANCH   7   8
HETATM    8  C7  UNL     1       2.925  -0.390   0.562  1.00  0.00     0.008 A 
HETATM    9  C8  UNL     1       3.127   1.088   0.302  1.00  0.00     0.009 A 
HETATM   10  C9  UNL     1       3.400   0.051  -0.767  1.00  0.00     0.009 A 
ENDBRANCH   7   8
ENDBRANCH   1   6
TORSDOF 3
