REMARK  3 active torsions:
REMARK  status: ('A' for Active; 'I' for Inactive)
REMARK    1  A    between atoms: C3_3  and  N1_4 
REMARK    2  A    between atoms: N1_4  and  C4_6 
REMARK    3  A    between atoms: C4_6  and  C5_7 
ROOT
HETATM    1  C5  UNL     1      -0.457  -0.125  -0.474  1.00  0.00     0.032 C 
HETATM    2  C6  UNL     1      -1.859   0.130  -1.069  1.00  0.00    -0.005 C 
HETATM    3  C7  UNL     1      -2.708   0.608   0.065  1.00  0.00     0.006 C 
HETATM    4  C8  UNL     1      -2.174  -0.329   1.166  1.00  0.00     0.006 C 
HETATM    5  C9  UNL     1      -1.182  -1.115   0.364  1.00  0.00    -0.005 C 
HETATM    6  C10 UNL     1      -2.000  -1.392  -0.911  1.00  0.00     0.010 C 
ENDROOT
BRANCH   1   7
HETATM    7  C4  UNL     1       0.111   1.094   0.131  1.00  0.00     0.061 C 
BRANCH   7   8
HETATM    8  N1  UNL     1       1.367   1.036   0.726  1.00  0.00    -0.397 N 
ATOM      9  H1  UNL     1       1.431   1.141   1.739  1.00  0.00     0.159 HD
BRANCH   8  10
HETATM   10  C3  UNL     1       2.544   0.841   0.002  1.00  0.00     0.080 A 
HETATM   11  C1  UNL     1       2.966  -0.306  -0.783  1.00  0.00     0.027 A 
HETATM   12  C2  UNL     1       3.584  -0.151   0.599  1.00  0.00     0.027 A 
ENDBRANCH   8  10
ENDBRANCH   7   8
ENDBRANCH   1   7
TORSDOF 3
