REMARK  4 active torsions:
REMARK  status: ('A' for Active; 'I' for Inactive)
REMARK    1  A    between atoms: N1_1  and  C1_5 
REMARK    2  A    between atoms: C1_5  and  C2_6 
REMARK    3  A    between atoms: C1_5  and  C7_11 
REMARK    4  A    between atoms: C3_7  and  C4_8 
ROOT
HETATM    1  C1  UNL     1      -0.622   0.748  -0.368  1.00  0.00     0.210 C 
ENDROOT
BRANCH   1   2
HETATM    2  N1  UNL     1      -0.493   1.724  -1.438  1.00  0.00    -0.071 N 
ATOM      3  H13 UNL     1       0.309   2.335  -1.284  1.00  0.00     0.275 HD
ATOM      4  H12 UNL     1      -0.195   1.281  -2.307  1.00  0.00     0.275 HD
ATOM      5  H11 UNL     1      -1.347   2.264  -1.574  1.00  0.00     0.275 HD
ENDBRANCH   1   2
BRANCH   1   6
HETATM    6  C2  UNL     1       0.615  -0.034  -0.171  1.00  0.00     0.002 C 
HETATM    7  C3  UNL     1       1.479   0.304   0.761  1.00  0.00    -0.024 C 
BRANCH   7   8
HETATM    8  C4  UNL     1       2.744  -0.425   1.025  1.00  0.00     0.008 A 
HETATM    9  C5  UNL     1       3.684  -0.749  -0.066  1.00  0.00     0.009 A 
HETATM   10  C6  UNL     1       3.982   0.412   0.861  1.00  0.00     0.009 A 
ENDBRANCH   7   8
ENDBRANCH   1   6
BRANCH   1  11
HETATM   11  C7  UNL     1      -1.739  -0.216  -0.770  1.00  0.00     0.020 A 
HETATM   12  C8  UNL     1      -1.999  -1.299   0.244  1.00  0.00     0.007 A 
HETATM   13  C9  UNL     1      -3.366  -0.701   0.483  1.00  0.00     0.001 A 
HETATM   14  C10 UNL     1      -3.124   0.332  -0.580  1.00  0.00     0.007 A 
ENDBRANCH   1  11
TORSDOF 4
