REMARK  3 active torsions:
REMARK  status: ('A' for Active; 'I' for Inactive)
REMARK    1  A    between atoms: C3_3  and  C4_4 
REMARK    2  A    between atoms: C6_6  and  C7_7 
REMARK    3  A    between atoms: C7_7  and  N1_8 
ROOT
HETATM    1  C1  UNL     1      -4.224   0.779  -0.908  1.00  0.00     0.096 C 
HETATM    2  C2  UNL     1      -3.596  -0.192  -0.266  1.00  0.00    -0.187 C 
HETATM    3  C3  UNL     1      -2.919  -1.130   0.331  1.00  0.00     0.084 C 
ENDROOT
BRANCH   3   4
HETATM    4  C4  UNL     1      -1.475  -0.962   0.356  1.00  0.00    -0.004 C 
HETATM    5  C5  UNL     1      -1.099   0.301   1.138  1.00  0.00     0.011 C 
HETATM    6  C6  UNL     1      -0.068   0.574   0.069  1.00  0.00     0.015 C 
HETATM    7  C10 UNL     1      -0.950  -0.261  -0.883  1.00  0.00     0.011 C 
BRANCH   6   8
HETATM    8  C7  UNL     1       1.217  -0.146   0.410  1.00  0.00     0.275 C 
BRANCH   8   9
HETATM    9  N1  UNL     1       2.270   0.043  -0.553  1.00  0.00     0.080 N 
HETATM   10  C8  UNL     1       3.311  -0.953  -0.201  1.00  0.00     0.309 C 
HETATM   11  C9  UNL     1       2.936   1.326  -0.227  1.00  0.00     0.309 C 
ENDBRANCH   8   9
ENDBRANCH   6   8
ENDBRANCH   3   4
TORSDOF 3
