REMARK  3 active torsions:
REMARK  status: ('A' for Active; 'I' for Inactive)
REMARK    1  A    between atoms: C2_2  and  C3_3 
REMARK    2  A    between atoms: C4_4  and  C5_5 
REMARK    3  A    between atoms: C8_8  and  N1_9 
ROOT
HETATM    1  C5  UNL     1      -0.037  -0.841   0.153  1.00  0.00    -0.023 C 
HETATM    2  C6  UNL     1      -0.305  -2.244  -0.313  1.00  0.00     0.019 C 
HETATM    3  C7  UNL     1      -1.097  -0.430   1.187  1.00  0.00     0.037 C 
HETATM    4  C8  UNL     1      -2.016  -0.284  -0.017  1.00  0.00     0.078 C 
HETATM    5  C10 UNL     1      -0.753   0.156  -0.769  1.00  0.00     0.037 C 
ENDROOT
BRANCH   1   6
HETATM    6  C4  UNL     1       1.338  -0.529   0.487  1.00  0.00    -0.017 C 
HETATM    7  C3  UNL     1       2.215  -0.016  -0.347  1.00  0.00    -0.004 C 
BRANCH   7   8
HETATM    8  C2  UNL     1       3.579   0.274   0.045  1.00  0.00    -0.011 C 
HETATM    9  C1  UNL     1       4.407   0.787  -0.837  1.00  0.00     0.011 C 
ENDBRANCH   7   8
ENDBRANCH   1   6
BRANCH   4  10
HETATM   10  N1  UNL     1      -3.061   0.658   0.064  1.00  0.00    -0.421 N 
HETATM   11  C9  UNL     1      -2.683   2.020   0.217  1.00  0.00     0.140 C 
ATOM     12  H1  UNL     1      -4.040   0.377   0.015  1.00  0.00     0.153 HD
ENDBRANCH   4  10
TORSDOF 3
