REMARK  9 active torsions:
REMARK  status: ('A' for Active; 'I' for Inactive)
REMARK    1  A    between atoms: N1_2  and  C2_4 
REMARK    2  A    between atoms: C2_4  and  C3_6 
REMARK    3  A    between atoms: N3_8  and  C5_9 
REMARK    4  A    between atoms: C5_9  and  C6_10 
REMARK    5  A    between atoms: C6_10  and  C7_11 
REMARK    6  A    between atoms: C7_11  and  C8_12 
REMARK    7  A    between atoms: C8_12  and  C9_13 
REMARK    8  A    between atoms: C9_13  and  C10_14 
REMARK    9  A    between atoms: C16_23  and  N6_24 
ROOT
HETATM    1  C8  UNL     1       1.929   2.173  -0.437  1.00  0.00     0.005 C 
ENDROOT
BRANCH   1   2
HETATM    2  C7  UNL     1       0.676   1.706   0.257  1.00  0.00     0.002 C 
BRANCH   2   3
HETATM    3  C6  UNL     1       0.011   2.868   0.966  1.00  0.00     0.020 C 
BRANCH   3   4
HETATM    4  C5  UNL     1      -1.194   2.418   1.689  1.00  0.00     0.129 C 
BRANCH   4   5
HETATM    5  N3  UNL     1      -2.250   1.834   0.924  1.00  0.00    -0.352 N 
HETATM    6  C4  UNL     1      -2.285   0.506   0.695  1.00  0.00     0.108 A 
HETATM    7  C3  UNL     1      -3.295  -0.136  -0.024  1.00  0.00     0.043 A 
HETATM    8  C20 UNL     1      -4.331   0.646  -0.537  1.00  0.00     0.023 A 
HETATM    9  N8  UNL     1      -4.259   1.984  -0.282  1.00  0.00    -0.350 N 
HETATM   10  C21 UNL     1      -5.431   0.096  -1.339  1.00  0.00     0.069 C 
HETATM   11  C18 UNL     1      -3.265   2.548   0.415  1.00  0.00     0.185 A 
HETATM   12  C19 UNL     1      -5.348   2.839  -0.789  1.00  0.00     0.156 C 
BRANCH   7  13
HETATM   13  C2  UNL     1      -3.281  -1.573  -0.225  1.00  0.00     0.129 C 
HETATM   14  N2  UNL     1      -4.357  -2.245  -0.930  1.00  0.00    -0.082 NA
BRANCH  13  15
HETATM   15  N1  UNL     1      -2.405  -2.347   0.180  1.00  0.00    -0.364 N 
HETATM   16  C1  UNL     1      -1.236  -2.537   0.829  1.00  0.00     0.119 C 
ATOM     17  H1  UNL     1      -2.707  -3.276  -0.113  1.00  0.00     0.165 HD
ENDBRANCH  13  15
ENDBRANCH   7  13
ENDBRANCH   4   5
ENDBRANCH   3   4
ENDBRANCH   2   3
ENDBRANCH   1   2
BRANCH   1  18
HETATM   18  C9  UNL     1       2.711   1.118  -1.130  1.00  0.00     0.042 C 
BRANCH  18  19
HETATM   19  C10 UNL     1       3.245   0.046  -0.280  1.00  0.00    -0.014 A 
HETATM   20  C11 UNL     1       3.381   0.201   1.082  1.00  0.00     0.099 A 
HETATM   21  N4  UNL     1       3.869  -0.802   1.835  1.00  0.00    -0.369 N 
HETATM   22  C12 UNL     1       3.996  -0.623   3.263  1.00  0.00     0.154 C 
HETATM   23  C13 UNL     1       4.246  -1.993   1.308  1.00  0.00     0.105 A 
HETATM   24  C14 UNL     1       4.128  -2.197  -0.063  1.00  0.00     0.023 A 
HETATM   25  C15 UNL     1       4.514  -3.396  -0.641  1.00  0.00     0.121 A 
HETATM   26  C17 UNL     1       3.631  -1.180  -0.841  1.00  0.00     0.069 A 
HETATM   27  N5  UNL     1       4.390  -3.544  -1.989  1.00  0.00    -0.201 N 
HETATM   28  C16 UNL     1       3.907  -2.560  -2.755  1.00  0.00     0.676 A 
ATOM     29  H5  UNL     1       4.671  -4.423  -2.423  1.00  0.00     0.183 HD
HETATM   30  N7  UNL     1       3.535  -1.393  -2.167  1.00  0.00    -0.191 N 
ATOM     31  H7  UNL     1       3.167  -0.646  -2.756  1.00  0.00     0.184 HD
BRANCH  28  32
HETATM   32  N6  UNL     1       3.819  -2.763  -4.029  1.00  0.00    -0.234 N 
ATOM     33  H62 UNL     1       4.098  -3.639  -4.470  1.00  0.00     0.174 HD
ATOM     34  H61 UNL     1       3.451  -2.012  -4.613  1.00  0.00     0.174 HD
ENDBRANCH  28  32
ENDBRANCH  18  19
ENDBRANCH   1  18
TORSDOF 9
