REMARK  8 active torsions:
REMARK  status: ('A' for Active; 'I' for Inactive)
REMARK    1  A    between atoms: C4_7  and  C5_8 
REMARK    2  A    between atoms: C5_8  and  C6_9 
REMARK    3  A    between atoms: C6_9  and  C7_10 
REMARK    4  A    between atoms: C7_10  and  N3_11 
REMARK    5  A    between atoms: N5_20  and  C14_21 
REMARK    6  A    between atoms: C14_21  and  C15_22 
REMARK    7  A    between atoms: C15_22  and  C16_23 
REMARK    8  A    between atoms: C20_30  and  N8_31 
ROOT
HETATM    1  N3  UNL     1      -0.144  -0.907  -1.078  1.00  0.00    -0.168 N 
HETATM    2  C8  UNL     1      -0.015  -2.170  -0.571  1.00  0.00     0.135 A 
HETATM    3  N4  UNL     1      -0.888  -3.110  -0.898  1.00  0.00    -0.351 N 
ATOM      4  H4  UNL     1      -1.659  -2.876  -1.524  1.00  0.00     0.166 HD
HETATM    5  C9  UNL     1      -0.784  -4.365  -0.426  1.00  0.00     0.090 A 
HETATM    6  C10 UNL     1       0.247  -4.685   0.412  1.00  0.00     0.018 A 
HETATM    7  C11 UNL     1       1.197  -3.777   0.802  1.00  0.00     0.018 A 
HETATM    8  C12 UNL     1       1.094  -2.497   0.323  1.00  0.00     0.025 A 
HETATM    9  C13 UNL     1       2.030  -1.521   0.665  1.00  0.00     0.124 A 
HETATM   10  N5  UNL     1       1.836  -0.315   0.129  1.00  0.00    -0.192 N 
HETATM   11  C20 UNL     1       0.795  -0.025  -0.703  1.00  0.00     0.681 A 
ENDROOT
BRANCH   1  12
HETATM   12  C7  UNL     1      -1.247  -0.556  -1.912  1.00  0.00     0.149 C 
BRANCH  12  13
HETATM   13  C6  UNL     1      -2.392   0.117  -1.210  1.00  0.00     0.027 C 
BRANCH  13  14
HETATM   14  C5  UNL     1      -3.033  -0.656  -0.102  1.00  0.00     0.060 C 
BRANCH  14  15
HETATM   15  C4  UNL     1      -4.137   0.215   0.441  1.00  0.00     0.024 A 
HETATM   16  N2  UNL     1      -3.923   1.086   1.443  1.00  0.00    -0.367 N 
HETATM   17  C3  UNL     1      -4.887   1.877   1.949  1.00  0.00     0.105 A 
ATOM     18  H2  UNL     1      -2.985   1.150   1.838  1.00  0.00     0.165 HD
HETATM   19  C2  UNL     1      -6.160   1.768   1.390  1.00  0.00     0.107 A 
HETATM   20  N1  UNL     1      -6.424   0.910   0.385  1.00  0.00    -0.367 N 
HETATM   21  C1  UNL     1      -7.772   0.852  -0.146  1.00  0.00     0.154 C 
HETATM   22  C21 UNL     1      -5.415   0.148  -0.075  1.00  0.00     0.114 A 
ENDBRANCH  14  15
ENDBRANCH  13  14
ENDBRANCH  12  13
ENDBRANCH   1  12
BRANCH  11  23
HETATM   23  N8  UNL     1       0.769   1.185  -1.095  1.00  0.00    -0.234 N 
ATOM     24  H82 UNL     1      -0.010   1.402  -1.717  1.00  0.00     0.174 HD
ATOM     25  H81 UNL     1       1.483   1.856  -0.810  1.00  0.00     0.174 HD
ENDBRANCH  11  23
BRANCH  10  26
HETATM   26  C14 UNL     1       2.817   0.723   0.480  1.00  0.00     0.154 C 
BRANCH  26  27
HETATM   27  C15 UNL     1       3.959   0.724  -0.515  1.00  0.00     0.097 C 
BRANCH  27  28
HETATM   28  C16 UNL     1       4.927   1.781  -0.130  1.00  0.00     0.084 A 
HETATM   29  N6  UNL     1       4.880   3.063  -0.560  1.00  0.00    -0.354 N 
HETATM   30  C17 UNL     1       5.899   3.754  -0.025  1.00  0.00     0.106 A 
ATOM     31  H6  UNL     1       4.178   3.446  -1.193  1.00  0.00     0.166 HD
HETATM   32  C18 UNL     1       6.584   2.841   0.761  1.00  0.00     0.108 A 
HETATM   33  N7  UNL     1       5.988   1.634   0.696  1.00  0.00    -0.350 N 
HETATM   34  C19 UNL     1       6.397   0.410   1.374  1.00  0.00     0.156 C 
ENDBRANCH  27  28
ENDBRANCH  26  27
ENDBRANCH  10  26
TORSDOF 8
