REMARK  10 active torsions:
REMARK  status: ('A' for Active; 'I' for Inactive)
REMARK    1  A    between atoms: N2_4  and  N3_6 
REMARK    2  A    between atoms: N4_11  and  C4_12 
REMARK    3  A    between atoms: C4_12  and  C5_13 
REMARK    4  A    between atoms: C6_14  and  C7_15 
REMARK    5  A    between atoms: C10_18  and  C11_19 
REMARK    6  A    between atoms: C11_19  and  C12_20 
REMARK    7  A    between atoms: C12_20  and  C13_21 
REMARK    8  A    between atoms: C13_21  and  N5_22 
REMARK    9  A    between atoms: C16_25  and  C17_26 
REMARK   10  A    between atoms: C17_26  and  O1_27 
ROOT
HETATM    1  C7  UNL     1       1.491  -0.408   1.382  1.00  0.00     0.017 A 
HETATM    2  C8  UNL     1       0.926   0.580   2.163  1.00  0.00     0.021 A 
HETATM    3  C9  UNL     1      -0.383   0.992   1.997  1.00  0.00     0.008 A 
HETATM    4  C10 UNL     1      -1.186   0.422   1.031  1.00  0.00    -0.058 A 
HETATM    5  C20 UNL     1      -0.641  -0.555   0.253  1.00  0.00     0.008 A 
HETATM    6  C21 UNL     1       0.668  -0.967   0.418  1.00  0.00     0.021 A 
ENDROOT
BRANCH   1   7
HETATM    7  C6  UNL     1       2.853  -0.836   1.555  1.00  0.00    -0.065 C 
HETATM    8  C5  UNL     1       3.997  -1.195   1.721  1.00  0.00    -0.081 C 
BRANCH   8   9
HETATM    9  C4  UNL     1       5.387  -1.619   1.944  1.00  0.00     0.223 C 
BRANCH   9  10
HETATM   10  N4  UNL     1       6.137  -1.282   0.778  1.00  0.00    -0.342 N 
HETATM   11  C3  UNL     1       6.730  -0.082   0.695  1.00  0.00     0.096 A 
HETATM   12  C2  UNL     1       7.473   0.287  -0.429  1.00  0.00     0.067 A 
HETATM   13  C1  UNL     1       7.582  -0.628  -1.464  1.00  0.00     0.123 A 
HETATM   14  N3  UNL     1       8.262  -0.332  -2.530  1.00  0.00    -0.271 N 
HETATM   15  N6  UNL     1       6.975  -1.832  -1.357  1.00  0.00    -0.337 N 
ATOM     16  H3  UNL     1       8.343  -1.004  -3.293  1.00  0.00     0.190 HD
HETATM   17  C22 UNL     1       6.259  -2.145  -0.236  1.00  0.00     0.185 A 
ATOM     18  H6  UNL     1       7.052  -2.509  -2.116  1.00  0.00     0.168 HD
BRANCH  14  19
HETATM   19  N2  UNL     1       8.879   0.912  -2.621  1.00  0.00    -0.248 N 
HETATM   20  N1  UNL     1       8.600   1.720  -3.542  1.00  0.00    -0.331 N 
ATOM     21  H12 UNL     1       7.902   1.442  -4.232  1.00  0.00     0.178 HD
ATOM     22  H11 UNL     1       9.052   2.632  -3.609  1.00  0.00     0.178 HD
ATOM     23  H2  UNL     1       9.575   1.174  -1.923  1.00  0.00     0.207 HD
ENDBRANCH  14  19
ENDBRANCH   9  10
ENDBRANCH   8   9
ENDBRANCH   1   7
BRANCH   4  24
HETATM   24  C11 UNL     1      -2.591   0.903   0.895  1.00  0.00     0.040 C 
BRANCH  24  25
HETATM   25  C12 UNL     1      -2.723   2.036  -0.059  1.00  0.00     0.025 C 
BRANCH  25  26
HETATM   26  C13 UNL     1      -4.134   2.484  -0.160  1.00  0.00     0.128 C 
BRANCH  26  27
HETATM   27  N5  UNL     1      -5.079   1.517  -0.607  1.00  0.00    -0.366 N 
HETATM   28  C14 UNL     1      -5.705   0.742   0.286  1.00  0.00     0.091 A 
HETATM   29  C15 UNL     1      -6.631  -0.209  -0.123  1.00  0.00     0.026 A 
HETATM   30  C16 UNL     1      -6.926  -0.377  -1.457  1.00  0.00    -0.032 A 
HETATM   31  C18 UNL     1      -6.284   0.417  -2.367  1.00  0.00     0.026 A 
HETATM   32  C19 UNL     1      -5.379   1.339  -1.905  1.00  0.00     0.091 A 
BRANCH  30  33
HETATM   33  C17 UNL     1      -7.916  -1.390  -1.938  1.00  0.00     0.203 C 
BRANCH  33  34
HETATM   34  O1  UNL     1      -7.299  -2.620  -2.201  1.00  0.00    -0.396 OA
ATOM     35  H1  UNL     1      -7.928  -3.263  -2.506  1.00  0.00     0.209 HD
ENDBRANCH  33  34
ENDBRANCH  30  33
ENDBRANCH  26  27
ENDBRANCH  25  26
ENDBRANCH  24  25
ENDBRANCH   4  24
TORSDOF 10
