REMARK  9 active torsions:
REMARK  status: ('A' for Active; 'I' for Inactive)
REMARK    1  A    between atoms: C3_3  and  C4_4 
REMARK    2  A    between atoms: C4_4  and  C5_5 
REMARK    3  A    between atoms: C6_6  and  C7_7 
REMARK    4  A    between atoms: C7_7  and  N1_8 
REMARK    5  A    between atoms: N1_8  and  C9_10 
REMARK    6  A    between atoms: N1_8  and  C16_24 
REMARK    7  A    between atoms: C9_10  and  C10_11 
REMARK       I    between atoms: C10_11  and  N2_13 
REMARK    8  A    between atoms: C13_17  and  C14_18 
REMARK    9  A    between atoms: C16_24  and  C17_25 
ROOT
HETATM    1  C1  UNL     1      -3.754  -7.050  -0.392  1.00  0.00     0.012 C 
HETATM    2  C2  UNL     1      -3.571  -5.866  -0.568  1.00  0.00    -0.117 C 
HETATM    3  C3  UNL     1      -3.332  -4.429  -0.761  1.00  0.00     0.105 C 
ENDROOT
BRANCH   3   4
HETATM    4  C4  UNL     1      -2.710  -3.887   0.523  1.00  0.00     0.106 C 
BRANCH   4   5
HETATM    5  C5  UNL     1      -2.466  -2.462   0.351  1.00  0.00    -0.104 C 
HETATM    6  C6  UNL     1      -2.245  -1.278   0.216  1.00  0.00    -0.079 C 
BRANCH   6   7
HETATM    7  C7  UNL     1      -1.998   0.182   0.042  1.00  0.00     0.331 C 
BRANCH   7   8
HETATM    8  N1  UNL     1      -0.717   0.431   0.666  1.00  0.00    -0.050 N 
HETATM    9  C8  UNL     1      -0.793  -0.200   1.988  1.00  0.00     0.274 C 
BRANCH   8  10
HETATM   10  C9  UNL     1       0.236  -0.355  -0.100  1.00  0.00     0.340 C 
BRANCH  10  11
HETATM   11  C10 UNL     1       1.555  -0.354   0.567  1.00  0.00     0.249 C 
HETATM   12  O1  UNL     1       1.734   0.258   1.627  1.00  0.00    -0.271 OA
HETATM   13  N2  UNL     1       2.679  -1.052   0.026  1.00  0.00    -0.311 N 
HETATM   14  C11 UNL     1       3.766  -0.385  -0.248  1.00  0.00     0.124 A 
ATOM     15  H2  UNL     1       2.632  -2.057  -0.143  1.00  0.00     0.170 HD
HETATM   16  C12 UNL     1       4.910  -0.951  -0.772  1.00  0.00     0.080 A 
HETATM   17  N4  UNL     1       4.012   0.925  -0.096  1.00  0.00    -0.285 N 
HETATM   18  C13 UNL     1       5.814   0.060  -0.916  1.00  0.00     0.051 A 
HETATM   19  N3  UNL     1       5.235   1.220  -0.489  1.00  0.00    -0.299 N 
ATOM     20  H3  UNL     1       5.668   2.143  -0.476  1.00  0.00     0.187 HD
ATOM     21  H4  UNL     1       3.343   1.601   0.274  1.00  0.00     0.188 HD
BRANCH  18  22
HETATM   22  C14 UNL     1       7.169  -0.057  -1.433  1.00  0.00     0.021 C 
HETATM   23  C15 UNL     1       7.609  -1.238  -1.813  1.00  0.00     0.013 C 
ENDBRANCH  18  22
ENDBRANCH  10  11
ENDBRANCH   8  10
BRANCH   8  24
HETATM   24  C16 UNL     1      -0.269   1.758   0.706  1.00  0.00     0.273 C 
BRANCH  24  25
HETATM   25  C17 UNL     1      -1.160   2.870   0.319  1.00  0.00     0.205 C 
HETATM   26  N5  UNL     1      -1.682   2.881  -0.992  1.00  0.00    -0.328 N 
HETATM   27  C18 UNL     1      -2.904   3.603  -0.945  1.00  0.00     0.325 C 
ATOM     28  H5  UNL     1      -1.262   2.452  -1.816  1.00  0.00     0.165 HD
HETATM   29  O2  UNL     1      -3.546   4.019  -1.960  1.00  0.00    -0.247 OA
HETATM   30  N6  UNL     1      -3.294   3.786   0.421  1.00  0.00    -0.273 N 
HETATM   31  C19 UNL     1      -4.499   4.484   0.877  1.00  0.00     0.164 C 
HETATM   32  C20 UNL     1      -2.288   3.163   1.192  1.00  0.00     0.252 C 
HETATM   33  O3  UNL     1      -2.378   2.918   2.412  1.00  0.00    -0.271 OA
ENDBRANCH  24  25
ENDBRANCH   8  24
ENDBRANCH   7   8
ENDBRANCH   6   7
ENDBRANCH   4   5
ENDBRANCH   3   4
TORSDOF 9
