REMARK  5 active torsions:
REMARK  status: ('A' for Active; 'I' for Inactive)
REMARK    1  A    between atoms: C2_2  and  C3_3 
REMARK    2  A    between atoms: C2_2  and  N1_15 
REMARK    3  A    between atoms: C3_3  and  C4_4 
REMARK    4  A    between atoms: N1_15  and  O1_16 
REMARK    5  A    between atoms: N1_15  and  C15_18 
ROOT
HETATM    1  C4  UNL     1       0.022   0.347   0.201  1.00  0.00    -0.037 C 
HETATM    2  C5  UNL     1      -0.242   0.811  -1.182  1.00  0.00     0.014 C 
HETATM    3  C6  UNL     1      -1.737   0.739  -1.535  1.00  0.00    -0.013 C 
HETATM    4  C7  UNL     1      -2.463   1.708  -0.675  1.00  0.00     0.009 C 
HETATM    5  C8  UNL     1      -2.270   1.259   0.761  1.00  0.00    -0.013 C 
HETATM    6  C9  UNL     1      -2.811  -0.148   0.959  1.00  0.00     0.014 C 
HETATM    7  C10 UNL     1      -1.979  -1.073   0.096  1.00  0.00    -0.043 C 
HETATM    8  C11 UNL     1      -2.528  -2.481   0.327  1.00  0.00     0.015 C 
HETATM    9  C12 UNL     1      -2.205  -0.681  -1.329  1.00  0.00     0.014 C 
HETATM   10  C13 UNL     1      -0.524  -1.053   0.433  1.00  0.00     0.018 C 
HETATM   11  C14 UNL     1      -0.828   1.237   1.141  1.00  0.00     0.014 C 
ENDROOT
BRANCH   1  12
HETATM   12  C3  UNL     1       1.427   0.497   0.639  1.00  0.00     0.037 C 
BRANCH  12  13
HETATM   13  C2  UNL     1       2.519  -0.182  -0.072  1.00  0.00     0.114 C 
HETATM   14  C1  UNL     1       2.771   0.135  -1.496  1.00  0.00     0.035 C 
BRANCH  13  15
HETATM   15  N1  UNL     1       3.752   0.165   0.643  1.00  0.00    -0.232 N 
BRANCH  15  16
HETATM   16  O1  UNL     1       4.204   1.433   0.698  1.00  0.00    -0.285 OA
ATOM     17  H1  UNL     1       5.002   1.658   1.161  1.00  0.00     0.245 HD
ENDBRANCH  15  16
BRANCH  15  18
HETATM   18  C15 UNL     1       4.491  -0.840   1.291  1.00  0.00     0.376 C 
HETATM   19  O2  UNL     1       5.546  -0.609   1.915  1.00  0.00    -0.281 OA
ENDBRANCH  15  18
ENDBRANCH  13  15
ENDBRANCH  12  13
ENDBRANCH   1  12
TORSDOF 5
