REMARK  6 active torsions:
REMARK  status: ('A' for Active; 'I' for Inactive)
REMARK    1  A    between atoms: C1_2  and  N1_3 
REMARK    2  A    between atoms: C1_2  and  O1_10 
REMARK    3  A    between atoms: N1_3  and  C2_5 
REMARK    4  A    between atoms: O1_10  and  C7_11 
REMARK    5  A    between atoms: C7_11  and  C8_12 
REMARK    6  A    between atoms: C8_12  and  C9_13 
ROOT
HETATM    1  S1  UNL     1       0.846  -2.501   2.115  1.00  0.00    -0.033 SA
HETATM    2  C1  UNL     1       1.488  -1.248   1.265  1.00  0.00     0.210 C 
ENDROOT
BRANCH   2   3
HETATM    3  N1  UNL     1       2.680  -1.444   0.547  1.00  0.00    -0.357 N 
ATOM      4  H1  UNL     1       3.132  -2.358   0.551  1.00  0.00     0.162 HD
BRANCH   3   5
HETATM    5  C2  UNL     1       3.261  -0.362  -0.190  1.00  0.00     0.084 C 
HETATM    6  C3  UNL     1       4.554  -0.759  -0.877  1.00  0.00     0.025 C 
HETATM    7  C4  UNL     1       5.494   0.421  -0.759  1.00  0.00     0.002 C 
HETATM    8  C5  UNL     1       4.639   1.525  -0.177  1.00  0.00     0.002 C 
HETATM    9  C6  UNL     1       3.758   0.716   0.785  1.00  0.00     0.025 C 
ENDBRANCH   3   5
ENDBRANCH   2   3
BRANCH   2  10
HETATM   10  O1  UNL     1       0.875  -0.022   1.254  1.00  0.00    -0.327 OA
BRANCH  10  11
HETATM   11  C7  UNL     1      -0.161   0.262   0.362  1.00  0.00     0.178 C 
BRANCH  11  12
HETATM   12  C8  UNL     1      -1.304  -0.682   0.591  1.00  0.00     0.031 C 
BRANCH  12  13
HETATM   13  C9  UNL     1      -2.405  -0.305  -0.390  1.00  0.00    -0.013 C 
HETATM   14  C10 UNL     1      -3.588  -1.208  -0.226  1.00  0.00     0.005 C 
HETATM   15  C11 UNL     1      -4.577  -0.626   0.762  1.00  0.00     0.000 C 
HETATM   16  C12 UNL     1      -5.192   0.652   0.176  1.00  0.00     0.000 C 
HETATM   17  C13 UNL     1      -4.215   1.281  -0.803  1.00  0.00     0.000 C 
HETATM   18  C14 UNL     1      -2.831   1.118  -0.164  1.00  0.00     0.005 C 
ENDBRANCH  12  13
ENDBRANCH  11  12
ENDBRANCH  10  11
ENDBRANCH   2  10
TORSDOF 6
