REMARK  6 active torsions:
REMARK  status: ('A' for Active; 'I' for Inactive)
REMARK    1  A    between atoms: C4_4  and  C5_5 
REMARK    2  A    between atoms: C5_5  and  C6_6 
REMARK    3  A    between atoms: C6_6  and  S1_7 
REMARK    4  A    between atoms: S1_7  and  C7_8 
REMARK    5  A    between atoms: C7_8  and  N1_10 
REMARK    6  A    between atoms: N1_10  and  C8_12 
ROOT
HETATM    1  C7  UNL     1       0.556  -0.081   0.267  1.00  0.00     0.134 C 
HETATM    2  S2  UNL     1       0.848  -0.928   1.617  1.00  0.00    -0.053 SA
ENDROOT
BRANCH   1   3
HETATM    3  S1  UNL     1      -1.146  -0.003  -0.328  1.00  0.00    -0.101 SA
BRANCH   3   4
HETATM    4  C6  UNL     1      -2.201  -0.957   0.785  1.00  0.00     0.082 C 
BRANCH   4   5
HETATM    5  C5  UNL     1      -3.627  -0.921   0.329  1.00  0.00     0.015 C 
BRANCH   5   6
HETATM    6  C4  UNL     1      -4.101   0.495   0.308  1.00  0.00    -0.010 A 
HETATM    7  C2  UNL     1      -5.521   0.799  -0.121  1.00  0.00    -0.014 A 
HETATM    8  C1  UNL     1      -6.341  -0.425  -0.515  1.00  0.00     0.010 C 
HETATM    9  C3  UNL     1      -5.089   0.905   1.332  1.00  0.00     0.009 A 
ENDBRANCH   5   6
ENDBRANCH   4   5
ENDBRANCH   3   4
ENDBRANCH   1   3
BRANCH   1  10
HETATM   10  N1  UNL     1       1.587   0.588  -0.432  1.00  0.00    -0.371 N 
ATOM     11  H1  UNL     1       1.367   1.119  -1.275  1.00  0.00     0.161 HD
BRANCH  10  12
HETATM   12  C8  UNL     1       2.942   0.524   0.038  1.00  0.00     0.083 C 
HETATM   13  C9  UNL     1       3.790   1.375  -0.846  1.00  0.00     0.025 C 
HETATM   14  C10 UNL     1       5.241   1.102  -0.858  1.00  0.00     0.002 C 
HETATM   15  C11 UNL     1       5.624  -0.123  -0.074  1.00  0.00     0.000 C 
HETATM   16  C12 UNL     1       4.658  -1.207  -0.576  1.00  0.00     0.002 C 
HETATM   17  C13 UNL     1       3.346  -0.914   0.116  1.00  0.00     0.025 C 
ENDBRANCH  10  12
ENDBRANCH   1  10
TORSDOF 6
