REMARK  18 active torsions:
REMARK  status: ('A' for Active; 'I' for Inactive)
REMARK    1  A    between atoms: O1_2  and  C2_3 
REMARK    2  A    between atoms: C2_3  and  C3_5 
REMARK    3  A    between atoms: C8_10  and  C9_11 
REMARK    4  A    between atoms: C9_11  and  O3_12 
REMARK    5  A    between atoms: C10_15  and  C11_16 
REMARK    6  A    between atoms: C13_22  and  O9_23 
REMARK    7  A    between atoms: C15_26  and  O10_27 
REMARK    8  A    between atoms: O10_27  and  C16_28 
REMARK    9  A    between atoms: C17_30  and  C18_31 
REMARK   10  A    between atoms: C17_30  and  C19_34 
REMARK   11  A    between atoms: C18_31  and  O12_32 
REMARK   12  A    between atoms: C19_34  and  O13_35 
REMARK   13  A    between atoms: C20_38  and  O15_39 
REMARK   14  A    between atoms: C20_38  and  O16_41 
REMARK   15  A    between atoms: C22_43  and  O17_44 
REMARK   16  A    between atoms: C23_46  and  C25_48 
REMARK   17  A    between atoms: C25_48  and  O18_49 
REMARK   18  A    between atoms: O18_49  and  C26_50 
ROOT
HETATM    1  C3  UNL     1      -0.959   1.603  -0.675  1.00  0.00     0.109 C 
HETATM    2  C4  UNL     1      -0.105   0.567  -1.353  1.00  0.00     0.063 C 
HETATM    3  C5  UNL     1      -0.605  -0.054  -2.585  1.00  0.00     0.139 C 
HETATM    4  C6  UNL     1      -2.005   0.220  -3.007  1.00  0.00     0.035 C 
HETATM    5  C7  UNL     1      -2.690  -0.987  -3.636  1.00  0.00     0.036 C 
HETATM    6  C8  UNL     1      -3.651  -1.657  -2.666  1.00  0.00     0.148 C 
HETATM    7  O4  UNL     1      -3.373  -1.646  -1.377  1.00  0.00    -0.347 OA
HETATM    8  C10 UNL     1      -2.343  -2.234  -0.757  1.00  0.00     0.286 C 
HETATM    9  C12 UNL     1      -1.255  -2.434  -1.754  1.00  0.00     0.312 C 
HETATM   10  O7  UNL     1      -0.934  -3.587  -2.056  1.00  0.00    -0.261 OA
HETATM   11  O8  UNL     1      -0.503  -1.485  -2.435  1.00  0.00    -0.312 OA
HETATM   12  C13 UNL     1      -1.856  -1.582   0.500  1.00  0.00     0.104 C 
HETATM   13  C14 UNL     1      -1.011  -0.445   0.631  1.00  0.00    -0.006 C 
HETATM   14  C15 UNL     1       0.249  -0.353  -0.217  1.00  0.00     0.164 C 
HETATM   15  C23 UNL     1      -1.457   0.977   0.622  1.00  0.00     0.020 C 
HETATM   16  C24 UNL     1      -0.850   1.793   1.778  1.00  0.00     0.023 C 
ENDROOT
BRANCH  14  17
HETATM   17  O10 UNL     1       1.274   0.306   0.509  1.00  0.00    -0.348 OA
BRANCH  17  18
HETATM   18  C16 UNL     1       2.426  -0.453   0.677  1.00  0.00     0.301 C 
HETATM   19  O11 UNL     1       2.771  -0.707   1.940  1.00  0.00    -0.318 OA
HETATM   20  C17 UNL     1       3.913  -1.360   2.203  1.00  0.00     0.214 C 
HETATM   21  O14 UNL     1       5.029  -0.892   1.515  1.00  0.00    -0.289 OA
HETATM   22  C20 UNL     1       4.805   0.209   0.735  1.00  0.00     0.314 C 
HETATM   23  C22 UNL     1       3.562   0.160  -0.099  1.00  0.00     0.266 C 
BRANCH  20  24
HETATM   24  C18 UNL     1       4.154  -1.176   3.732  1.00  0.00     0.235 C 
BRANCH  24  25
HETATM   25  O12 UNL     1       3.034  -1.748   4.337  1.00  0.00    -0.395 OA
ATOM     26  H12 UNL     1       3.181  -1.636   5.269  1.00  0.00     0.209 HD
ENDBRANCH  24  25
ENDBRANCH  20  24
BRANCH  20  27
HETATM   27  C19 UNL     1       3.866  -2.854   1.983  1.00  0.00     0.235 C 
BRANCH  27  28
HETATM   28  O13 UNL     1       3.598  -3.255   0.705  1.00  0.00    -0.395 OA
ATOM     29  H13 UNL     1       3.568  -4.194   0.567  1.00  0.00     0.209 HD
ENDBRANCH  27  28
ENDBRANCH  20  27
BRANCH  22  30
HETATM   30  O15 UNL     1       5.878   0.238  -0.204  1.00  0.00    -0.341 OA
ATOM     31  H15 UNL     1       5.722   1.003  -0.746  1.00  0.00     0.215 HD
ENDBRANCH  22  30
BRANCH  22  32
HETATM   32  O16 UNL     1       4.875   1.416   1.438  1.00  0.00    -0.336 OA
HETATM   33  C21 UNL     1       6.115   1.622   2.016  1.00  0.00     0.208 C 
ENDBRANCH  22  32
BRANCH  23  34
HETATM   34  O17 UNL     1       3.784  -0.522  -1.299  1.00  0.00    -0.383 OA
ATOM     35  H17 UNL     1       4.501  -0.135  -1.788  1.00  0.00     0.210 HD
ENDBRANCH  23  34
ENDBRANCH  17  18
ENDBRANCH  14  17
BRANCH   1  36
HETATM   36  C2  UNL     1      -0.164   2.857  -0.433  1.00  0.00     0.264 C 
HETATM   37  O2  UNL     1       1.037   2.907  -0.796  1.00  0.00    -0.265 OA
BRANCH  36  38
HETATM   38  O1  UNL     1      -0.659   3.994   0.173  1.00  0.00    -0.326 OA
HETATM   39  C1  UNL     1       0.067   5.161   0.402  1.00  0.00     0.213 C 
ENDBRANCH  36  38
ENDBRANCH   1  36
BRANCH  12  40
HETATM   40  O9  UNL     1      -2.972  -1.447   1.332  1.00  0.00    -0.360 OA
ATOM     41  H9  UNL     1      -2.663  -1.033   2.129  1.00  0.00     0.217 HD
ENDBRANCH  12  40
BRANCH  15  42
HETATM   42  C25 UNL     1      -2.925   1.215   0.787  1.00  0.00     0.193 C 
BRANCH  42  43
HETATM   43  O18 UNL     1      -3.082   2.647   0.807  1.00  0.00    -0.321 OA
BRANCH  43  44
HETATM   44  C26 UNL     1      -4.313   3.251   0.946  1.00  0.00     0.254 C 
HETATM   45  C27 UNL     1      -4.443   4.749   0.964  1.00  0.00     0.126 C 
HETATM   46  O19 UNL     1      -5.322   2.509   1.057  1.00  0.00    -0.266 OA
ENDBRANCH  43  44
ENDBRANCH  42  43
ENDBRANCH  15  42
BRANCH   8  47
HETATM   47  C11 UNL     1      -2.788  -3.613  -0.375  1.00  0.00     0.227 C 
HETATM   48  O5  UNL     1      -3.934  -4.074  -0.577  1.00  0.00    -0.645 OA
HETATM   49  O6  UNL     1      -1.927  -4.509   0.253  1.00  0.00    -0.645 OA
ENDBRANCH   8  47
BRANCH   6  50
HETATM   50  C9  UNL     1      -4.173  -2.870  -3.363  1.00  0.00     0.196 C 
BRANCH  50  51
HETATM   51  O3  UNL     1      -4.348  -2.500  -4.725  1.00  0.00    -0.398 OA
ATOM     52  H3  UNL     1      -4.680  -3.272  -5.168  1.00  0.00     0.209 HD
ENDBRANCH  50  51
ENDBRANCH   6  50
TORSDOF 18
