REMARK  18 active torsions:
REMARK  status: ('A' for Active; 'I' for Inactive)
REMARK    1  A    between atoms: S1_2  and  C2_5 
REMARK    2  A    between atoms: N1_7  and  C4_8 
REMARK    3  A    between atoms: C5_9  and  C6_10 
REMARK    4  A    between atoms: C6_10  and  O3_11 
REMARK    5  A    between atoms: C6_10  and  C15_41 
REMARK    6  A    between atoms: O3_11  and  C7_12 
REMARK    7  A    between atoms: C7_12  and  C8_14 
REMARK    8  A    between atoms: C8_14  and  S2_15 
REMARK    9  A    between atoms: S2_15  and  C9_16 
REMARK   10  A    between atoms: C10_19  and  O5_20 
REMARK   11  A    between atoms: C11_22  and  C12_23 
REMARK   12  A    between atoms: C12_23  and  C13_24 
REMARK       I    between atoms: C13_24  and  N3_26 
REMARK   13  A    between atoms: N3_26  and  C14_28 
REMARK   14  A    between atoms: N8_37  and  N9_38 
REMARK   15  A    between atoms: C16_44  and  S3_45 
REMARK   16  A    between atoms: S3_45  and  N10_46 
REMARK   17  A    between atoms: C17_51  and  O11_52 
REMARK   18  A    between atoms: O11_52  and  C18_53 
ROOT
HETATM    1  C7  UNL     1       0.844  -0.817   1.150  1.00  0.00     0.269 C 
HETATM    2  O4  UNL     1       1.303   0.212   1.722  1.00  0.00    -0.264 OA
ENDROOT
BRANCH   1   3
HETATM    3  O3  UNL     1       0.066  -0.601   0.023  1.00  0.00    -0.300 OA
BRANCH   3   4
HETATM    4  C6  UNL     1      -0.223   0.661  -0.497  1.00  0.00     0.256 C 
BRANCH   4   5
HETATM    5  C5  UNL     1      -1.713   0.855  -0.372  1.00  0.00     0.034 C 
HETATM    6  C4  UNL     1      -2.520  -0.133  -0.572  1.00  0.00     0.096 C 
BRANCH   6   7
HETATM    7  N1  UNL     1      -3.929  -0.200  -0.519  1.00  0.00    -0.318 N 
HETATM    8  C3  UNL     1      -4.573  -1.412  -0.564  1.00  0.00     0.123 A 
HETATM    9  C2  UNL     1      -5.918  -1.260  -0.513  1.00  0.00     0.111 A 
HETATM   10  C17 UNL     1      -6.149   0.076  -0.435  1.00  0.00     0.144 A 
HETATM   11  C16 UNL     1      -4.896   0.717  -0.441  1.00  0.00     0.191 A 
BRANCH   9  12
HETATM   12  S1  UNL     1      -7.099  -2.568  -0.536  1.00  0.00     0.176 S 
HETATM   13  C1  UNL     1      -8.066  -2.508   0.958  1.00  0.00     0.167 C 
HETATM   14  O1  UNL     1      -6.364  -3.900  -0.518  1.00  0.00    -0.223 OA
HETATM   15  O2  UNL     1      -7.961  -2.539  -1.752  1.00  0.00    -0.223 OA
ENDBRANCH   9  12
BRANCH  10  16
HETATM   16  O11 UNL     1      -7.415   0.641  -0.363  1.00  0.00    -0.259 OA
BRANCH  16  17
HETATM   17  C18 UNL     1      -8.159   0.939  -1.507  1.00  0.00     0.378 C 
HETATM   18  N11 UNL     1      -9.446   1.509  -1.384  1.00  0.00    -0.032 NA
HETATM   19  O12 UNL     1      -7.680   0.697  -2.661  1.00  0.00    -0.242 OA
ENDBRANCH  16  17
ENDBRANCH  10  16
BRANCH  11  20
HETATM   20  S3  UNL     1      -4.731   2.433  -0.423  1.00  0.00     0.275 S 
HETATM   21  O9  UNL     1      -6.126   3.046  -0.743  1.00  0.00    -0.199 OA
HETATM   22  O10 UNL     1      -3.888   3.001  -1.525  1.00  0.00    -0.199 OA
BRANCH  20  23
HETATM   23  N10 UNL     1      -4.374   3.090   1.133  1.00  0.00    -0.323 N 
ATOM     24 2H10 UNL     1      -4.273   2.501   1.960  1.00  0.00     0.169 HD
ATOM     25 1H10 UNL     1      -4.276   4.105   1.144  1.00  0.00     0.169 HD
ENDBRANCH  20  23
ENDBRANCH  11  20
ENDBRANCH   6   7
ENDBRANCH   4   5
BRANCH   4  26
HETATM   26  C15 UNL     1       0.267   0.871  -1.864  1.00  0.00     0.207 C 
HETATM   27  O7  UNL     1       0.100   1.946  -2.494  1.00  0.00    -0.646 OA
HETATM   28  O8  UNL     1       0.959  -0.130  -2.558  1.00  0.00    -0.646 OA
ENDBRANCH   4  26
ENDBRANCH   3   4
ENDBRANCH   1   3
BRANCH   1  29
HETATM   29  C8  UNL     1       1.144  -2.166   1.687  1.00  0.00     0.193 C 
BRANCH  29  30
HETATM   30  S2  UNL     1       2.661  -2.881   1.026  1.00  0.00    -0.082 SA
BRANCH  30  31
HETATM   31  C9  UNL     1       4.035  -1.887   1.619  1.00  0.00     0.168 A 
HETATM   32  N2  UNL     1       4.711  -2.093   2.787  1.00  0.00    -0.314 N 
HETATM   33  C10 UNL     1       5.679  -1.170   2.921  1.00  0.00     0.167 A 
ATOM     34  H2  UNL     1       4.512  -2.836   3.457  1.00  0.00     0.170 HD
HETATM   35  C11 UNL     1       5.623  -0.346   1.802  1.00  0.00     0.095 A 
HETATM   36  N8  UNL     1       4.612  -0.819   1.042  1.00  0.00    -0.240 N 
BRANCH  33  37
HETATM   37  O5  UNL     1       6.546  -1.104   4.003  1.00  0.00    -0.345 OA
ATOM     38  H5  UNL     1       7.230  -0.452   4.098  1.00  0.00     0.219 HD
ENDBRANCH  33  37
BRANCH  35  39
HETATM   39  C12 UNL     1       6.511   0.815   1.539  1.00  0.00     0.167 C 
BRANCH  39  40
HETATM   40  C13 UNL     1       7.851   0.402   1.101  1.00  0.00     0.241 C 
HETATM   41  O6  UNL     1       8.122  -0.813   0.982  1.00  0.00    -0.272 OA
HETATM   42  N3  UNL     1       8.822   1.386   0.819  1.00  0.00    -0.157 N 
ATOM     43  H3  UNL     1       9.046   2.089   1.524  1.00  0.00     0.187 HD
BRANCH  42  44
HETATM   44  C14 UNL     1       9.437   1.409  -0.330  1.00  0.00     0.716 A 
HETATM   45  N4  UNL     1      10.386   2.322  -0.686  1.00  0.00    -0.115 N 
HETATM   46  N5  UNL     1      10.753   1.997  -1.913  1.00  0.00    -0.213 N 
ATOM     47  H4  UNL     1      10.739   3.095  -0.122  1.00  0.00     0.207 HD
HETATM   48  N6  UNL     1      10.091   0.945  -2.335  1.00  0.00    -0.213 N 
ATOM     49  H5  UNL     1      11.456   2.496  -2.458  1.00  0.00     0.210 HD
HETATM   50  N7  UNL     1       9.275   0.580  -1.354  1.00  0.00    -0.115 N 
ATOM     51  H6  UNL     1      10.186   0.493  -3.245  1.00  0.00     0.210 HD
ATOM     52  H7  UNL     1       8.629  -0.209  -1.382  1.00  0.00     0.207 HD
ENDBRANCH  42  44
ENDBRANCH  39  40
ENDBRANCH  35  39
BRANCH  36  53
HETATM   53  N9  UNL     1       4.235  -0.258  -0.185  1.00  0.00    -0.336 N 
ATOM     54  H92 UNL     1       3.471  -0.615  -0.759  1.00  0.00     0.177 HD
ATOM     55  H91 UNL     1       4.673   0.553  -0.623  1.00  0.00     0.177 HD
ENDBRANCH  36  53
ENDBRANCH  30  31
ENDBRANCH  29  30
ENDBRANCH   1  29
TORSDOF 18
