REMARK  12 active torsions:
REMARK  status: ('A' for Active; 'I' for Inactive)
REMARK    1  A    between atoms: S1_2  and  C2_3 
REMARK    2  A    between atoms: C2_3  and  O1_4 
REMARK    3  A    between atoms: C2_3  and  C3_6 
REMARK    4  A    between atoms: C3_6  and  N1_7 
REMARK    5  A    between atoms: C3_6  and  C9_25 
REMARK       I    between atoms: N1_7  and  C4_9 
REMARK    6  A    between atoms: C4_9  and  C5_11 
REMARK    7  A    between atoms: C5_11  and  N2_12 
REMARK    8  A    between atoms: C6_13  and  N3_14 
REMARK    9  A    between atoms: C11_29  and  N7_30 
REMARK       I    between atoms: N7_30  and  C12_32 
REMARK   10  A    between atoms: C12_32  and  C13_34 
REMARK   11  A    between atoms: C19_49  and  S3_50 
REMARK   12  A    between atoms: S3_50  and  C20_51 
ROOT
HETATM    1  C9  UNL     1      -0.623  -1.489  -0.440  1.00  0.00    -0.001 C 
HETATM    2  C10 UNL     1       0.417  -0.641  -0.437  1.00  0.00     0.033 C 
HETATM    3  N6  UNL     1       0.980   0.680  -0.386  1.00  0.00    -0.369 N 
ATOM      4  H6  UNL     1       0.694   1.610  -0.693  1.00  0.00     0.161 HD
HETATM    5  C11 UNL     1       2.118   0.123   0.284  1.00  0.00     0.204 C 
HETATM    6  C16 UNL     1       1.828  -1.106  -0.596  1.00  0.00     0.140 C 
HETATM    7  S2  UNL     1       2.221  -2.587   0.316  1.00  0.00    -0.149 SA
HETATM    8  C17 UNL     1       0.703  -3.551   0.430  1.00  0.00     0.114 C 
HETATM    9  C18 UNL     1      -0.296  -2.914  -0.477  1.00  0.00    -0.032 C 
HETATM   10  C19 UNL     1      -0.901  -3.656  -1.325  1.00  0.00     0.061 C 
ENDROOT
BRANCH   1  11
HETATM   11  C3  UNL     1      -1.945  -0.951  -0.357  1.00  0.00     0.159 C 
BRANCH  11  12
HETATM   12  C2  UNL     1      -3.031  -1.246  -1.304  1.00  0.00     0.206 C 
BRANCH  12  13
HETATM   13  S1  UNL     1      -2.865  -0.528  -2.944  1.00  0.00    -0.140 SA
HETATM   14  C1  UNL     1      -4.320  -0.956  -3.933  1.00  0.00     0.092 C 
ENDBRANCH  12  13
BRANCH  12  15
HETATM   15  O1  UNL     1      -4.153  -0.535  -0.740  1.00  0.00    -0.383 OA
ATOM     16  H1  UNL     1      -4.241  -0.914   0.127  1.00  0.00     0.211 HD
ENDBRANCH  12  15
ENDBRANCH  11  12
BRANCH  11  17
HETATM   17  N1  UNL     1      -1.839   0.522  -0.353  1.00  0.00    -0.348 N 
HETATM   18  C4  UNL     1      -2.225   1.314   0.732  1.00  0.00     0.236 C 
HETATM   19  O2  UNL     1      -2.681   0.735   1.736  1.00  0.00    -0.272 OA
ATOM     20  H1  UNL     1      -1.466   0.984  -1.182  1.00  0.00     0.163 HD
BRANCH  18  21
HETATM   21  C5  UNL     1      -2.124   2.778   0.749  1.00  0.00     0.239 C 
BRANCH  21  22
HETATM   22  N2  UNL     1      -2.664   3.386   1.924  1.00  0.00    -0.257 N 
HETATM   23  C6  UNL     1      -1.953   3.599   3.044  1.00  0.00     0.260 A 
HETATM   24  N4  UNL     1      -2.599   4.218   4.092  1.00  0.00    -0.275 N 
HETATM   25  C7  UNL     1      -3.869   4.595   4.021  1.00  0.00     0.331 A 
ATOM     26  H4  UNL     1      -2.082   4.393   4.954  1.00  0.00     0.173 HD
HETATM   27  O5  UNL     1      -4.472   5.162   4.972  1.00  0.00    -0.246 OA
HETATM   28  N5  UNL     1      -4.558   4.369   2.890  1.00  0.00    -0.260 N 
HETATM   29  C8  UNL     1      -3.975   3.773   1.847  1.00  0.00     0.333 A 
ATOM     30  H5  UNL     1      -5.535   4.655   2.828  1.00  0.00     0.175 HD
HETATM   31  O6  UNL     1      -4.655   3.581   0.810  1.00  0.00    -0.246 OA
BRANCH  23  32
HETATM   32  N3  UNL     1      -0.607   3.211   3.236  1.00  0.00    -0.079 N 
HETATM   33  O3  UNL     1       0.044   2.613   2.401  1.00  0.00    -0.529 OA
HETATM   34  O4  UNL     1       0.010   3.502   4.427  1.00  0.00    -0.529 OA
ENDBRANCH  23  32
ENDBRANCH  21  22
ENDBRANCH  18  21
ENDBRANCH  11  17
ENDBRANCH   1  11
BRANCH  10  35
HETATM   35  S3  UNL     1      -0.542  -5.406  -1.408  1.00  0.00    -0.064 SA
BRANCH  35  36
HETATM   36  C20 UNL     1      -2.045  -6.354  -1.279  1.00  0.00     0.164 A 
HETATM   37  N12 UNL     1      -3.273  -5.809  -1.138  1.00  0.00    -0.331 N 
HETATM   38  C21 UNL     1      -4.197  -6.778  -1.068  1.00  0.00     0.199 A 
ATOM     39  H12 UNL     1      -3.468  -4.809  -1.092  1.00  0.00     0.168 HD
HETATM   40  N13 UNL     1      -3.549  -7.940  -1.166  1.00  0.00    -0.294 N 
HETATM   41  N14 UNL     1      -2.249  -7.679  -1.294  1.00  0.00    -0.279 N 
ATOM     42  H13 UNL     1      -3.975  -8.867  -1.146  1.00  0.00     0.187 HD
ATOM     43  H14 UNL     1      -1.517  -8.383  -1.389  1.00  0.00     0.189 HD
ENDBRANCH  35  36
ENDBRANCH  10  35
BRANCH   5  44
HETATM   44  N7  UNL     1       3.374   0.760  -0.048  1.00  0.00    -0.333 N 
HETATM   45  C12 UNL     1       4.397   1.017   0.878  1.00  0.00     0.275 C 
HETATM   46  O7  UNL     1       4.246   0.687   2.079  1.00  0.00    -0.266 OA
ATOM     47  H7  UNL     1       3.526   1.040  -1.017  1.00  0.00     0.165 HD
BRANCH  45  48
HETATM   48  C13 UNL     1       5.639   1.661   0.489  1.00  0.00     0.162 A 
HETATM   49  N8  UNL     1       5.927   2.050  -0.769  1.00  0.00    -0.276 N 
HETATM   50  N9  UNL     1       7.149   2.601  -0.743  1.00  0.00    -0.236 N 
ATOM     51  H8  UNL     1       5.328   1.945  -1.588  1.00  0.00     0.189 HD
HETATM   52  C14 UNL     1       7.859   3.155  -1.876  1.00  0.00     0.200 C 
HETATM   53  N10 UNL     1       7.631   2.569   0.495  1.00  0.00    -0.267 N 
HETATM   54  C15 UNL     1       6.706   1.986   1.279  1.00  0.00     0.149 A 
ATOM     55  H10 UNL     1       8.539   2.923   0.797  1.00  0.00     0.190 HD
HETATM   56  N11 UNL     1       6.795   1.767   2.562  1.00  0.00    -0.382 N 
ATOM     57 2H11 UNL     1       6.094   1.325   3.156  1.00  0.00     0.157 HD
ATOM     58 1H11 UNL     1       7.591   2.010   3.152  1.00  0.00     0.157 HD
ENDBRANCH  45  48
ENDBRANCH   5  44
TORSDOF 12
