REMARK  5 active torsions:
REMARK  status: ('A' for Active; 'I' for Inactive)
REMARK    1  A    between atoms: N1_1  and  N2_4 
REMARK    2  A    between atoms: N2_4  and  C1_6 
REMARK    3  A    between atoms: C2_9  and  N4_10 
REMARK    4  A    between atoms: N4_10  and  C3_12 
REMARK    5  A    between atoms: N6_17  and  N7_18 
ROOT
HETATM    1  C1  UNL     1       2.196  -0.127   0.179  1.00  0.00     0.747 A 
HETATM    2  N3  UNL     1       1.107  -0.788  -0.300  1.00  0.00    -0.017 N 
ATOM      3  H3  UNL     1       1.109  -1.732  -0.686  1.00  0.00     0.203 HD
HETATM    4  C2  UNL     1       0.028   0.007  -0.181  1.00  0.00     0.709 A 
HETATM    5  N5  UNL     1       0.464   1.139   0.365  1.00  0.00    -0.096 N 
ATOM      6  H5  UNL     1      -0.121   1.945   0.583  1.00  0.00     0.208 HD
HETATM    7  N6  UNL     1       1.779   1.067   0.587  1.00  0.00    -0.011 N 
ENDROOT
BRANCH   1   8
HETATM    8  N2  UNL     1       3.409  -0.575   0.227  1.00  0.00    -0.135 N 
ATOM      9  H2  UNL     1       4.146   0.017   0.609  1.00  0.00     0.205 HD
BRANCH   8  10
HETATM   10  N1  UNL     1       3.729  -1.856  -0.235  1.00  0.00    -0.331 N 
ATOM     11  H12 UNL     1       2.980  -2.435  -0.614  1.00  0.00     0.177 HD
ATOM     12  H11 UNL     1       4.685  -2.209  -0.197  1.00  0.00     0.177 HD
ENDBRANCH   8  10
ENDBRANCH   1   8
BRANCH   7  13
HETATM   13  N7  UNL     1       2.621   2.036   1.145  1.00  0.00    -0.309 N 
ATOM     14  H72 UNL     1       3.625   1.981   1.315  1.00  0.00     0.179 HD
ATOM     15  H71 UNL     1       2.301   2.952   1.458  1.00  0.00     0.179 HD
ENDBRANCH   7  13
BRANCH   4  16
HETATM   16  N4  UNL     1      -1.302  -0.347  -0.581  1.00  0.00    -0.220 N 
ATOM     17  H4  UNL     1      -1.473  -1.266  -0.990  1.00  0.00     0.178 HD
BRANCH  16  18
HETATM   18  C3  UNL     1      -2.402   0.568  -0.417  1.00  0.00     0.099 A 
HETATM   19  C4  UNL     1      -3.766   0.102  -0.869  1.00  0.00     0.028 A 
HETATM   20  C5  UNL     1      -3.428   0.124   0.598  1.00  0.00     0.028 A 
ENDBRANCH  16  18
ENDBRANCH   4  16
TORSDOF 5
