REMARK  6 active torsions:
REMARK  status: ('A' for Active; 'I' for Inactive)
REMARK    1  A    between atoms: N1_1  and  C1_4 
REMARK    2  A    between atoms: C3_6  and  C4_7 
REMARK    3  A    between atoms: C4_7  and  N2_8 
REMARK    4  A    between atoms: C4_7  and  C5_12 
REMARK    5  A    between atoms: C5_12  and  N3_13 
REMARK    6  A    between atoms: C5_12  and  N4_17 
ROOT
HETATM    1  C4  UNL     1      -0.767  -0.121   0.992  1.00  0.00     0.275 C 
ENDROOT
BRANCH   1   2
HETATM    2  C3  UNL     1       0.574  -0.353   0.423  1.00  0.00    -0.004 A 
HETATM    3  C2  UNL     1       1.419   0.645  -0.005  1.00  0.00     0.060 A 
HETATM    4  C1  UNL     1       2.672   0.358  -0.533  1.00  0.00     0.114 A 
HETATM    5  N6  UNL     1       3.093  -0.913  -0.638  1.00  0.00    -0.286 N 
HETATM    6  N5  UNL     1       2.280  -1.869  -0.226  1.00  0.00    -0.310 N 
ATOM      7  H6  UNL     1       4.011  -1.133  -1.024  1.00  0.00     0.188 HD
HETATM    8  C6  UNL     1       1.049  -1.639   0.295  1.00  0.00     0.116 A 
ATOM      9  H5  UNL     1       2.596  -2.836  -0.304  1.00  0.00     0.186 HD
BRANCH   4  10
HETATM   10  N1  UNL     1       3.442   1.297  -0.925  1.00  0.00    -0.384 N 
ATOM     11  H12 UNL     1       3.122   2.262  -0.845  1.00  0.00     0.157 HD
ATOM     12  H11 UNL     1       4.362   1.086  -1.313  1.00  0.00     0.157 HD
ENDBRANCH   4  10
ENDBRANCH   1   2
BRANCH   1  13
HETATM   13  N2  UNL     1      -0.741   0.978   1.971  1.00  0.00    -0.067 N 
ATOM     14  H23 UNL     1      -0.046   0.817   2.700  1.00  0.00     0.275 HD
ATOM     15  H22 UNL     1      -0.350   1.830   1.570  1.00  0.00     0.275 HD
ATOM     16  H21 UNL     1      -1.668   1.138   2.364  1.00  0.00     0.275 HD
ENDBRANCH   1  13
BRANCH   1  17
HETATM   17  C5  UNL     1      -1.778   0.298  -0.070  1.00  0.00     0.412 C 
BRANCH  17  18
HETATM   18  N3  UNL     1      -1.911  -0.727  -1.090  1.00  0.00    -0.048 N 
ATOM     19  H33 UNL     1      -1.010  -0.968  -1.502  1.00  0.00     0.276 HD
ATOM     20  H32 UNL     1      -2.143  -1.634  -0.685  1.00  0.00     0.276 HD
ATOM     21  H31 UNL     1      -2.587  -0.447  -1.800  1.00  0.00     0.276 HD
ENDBRANCH  17  18
BRANCH  17  22
HETATM   22  N4  UNL     1      -3.038   0.501   0.636  1.00  0.00    -0.048 N 
ATOM     23  H43 UNL     1      -3.333  -0.307   1.183  1.00  0.00     0.276 HD
ATOM     24  H42 UNL     1      -2.968   1.157   1.414  1.00  0.00     0.276 HD
ATOM     25  H41 UNL     1      -3.714   0.781  -0.074  1.00  0.00     0.276 HD
ENDBRANCH  17  22
ENDBRANCH   1  17
TORSDOF 6
