REMARK  6 active torsions:
REMARK  status: ('A' for Active; 'I' for Inactive)
REMARK    1  A    between atoms: N1_1  and  N2_4 
REMARK    2  A    between atoms: C3_10  and  C4_11 
REMARK    3  A    between atoms: C4_11  and  S1_12 
REMARK    4  A    between atoms: S1_12  and  C5_13 
REMARK    5  A    between atoms: C5_13  and  N4_14 
REMARK    6  A    between atoms: C5_13  and  N5_18 
ROOT
HETATM    1  C4  UNL     1       0.110   1.271  -0.946  1.00  0.00     0.091 C 
ENDROOT
BRANCH   1   2
HETATM    2  C3  UNL     1      -0.922   1.126   0.160  1.00  0.00     0.081 C 
HETATM    3  C1  UNL     1      -2.057   0.228  -0.136  1.00  0.00     0.097 C 
HETATM    4  N2  UNL     1      -2.448  -0.986   0.029  1.00  0.00    -0.295 N 
HETATM    5  N3  UNL     1      -2.738   1.319  -0.792  1.00  0.00    -0.378 N 
ATOM      6  H2  UNL     1      -3.363  -1.233  -0.348  1.00  0.00     0.187 HD
HETATM    7  C2  UNL     1      -1.974   2.221   0.053  1.00  0.00     0.134 C 
ATOM      8  H3  UNL     1      -3.442   1.414  -1.524  1.00  0.00     0.160 HD
BRANCH   4   9
HETATM    9  N1  UNL     1      -1.742  -1.989   0.671  1.00  0.00    -0.344 N 
ATOM     10  H12 UNL     1      -0.829  -1.724   1.041  1.00  0.00     0.176 HD
ATOM     11  H11 UNL     1      -2.052  -2.952   0.802  1.00  0.00     0.176 HD
ENDBRANCH   4   9
ENDBRANCH   1   2
BRANCH   1  12
HETATM   12  S1  UNL     1       0.839  -0.319  -1.322  1.00  0.00    -0.108 SA
BRANCH  12  13
HETATM   13  C5  UNL     1       1.836  -0.983   0.003  1.00  0.00     0.440 C 
BRANCH  13  14
HETATM   14  N4  UNL     1       2.368  -2.268  -0.414  1.00  0.00    -0.041 N 
ATOM     15  H43 UNL     1       1.638  -2.914  -0.714  1.00  0.00     0.277 HD
ATOM     16  H42 UNL     1       2.878  -2.212  -1.296  1.00  0.00     0.277 HD
ATOM     17  H41 UNL     1       2.937  -2.647   0.343  1.00  0.00     0.277 HD
ENDBRANCH  13  14
BRANCH  13  18
HETATM   18  N5  UNL     1       2.982  -0.149   0.334  1.00  0.00    -0.041 N 
ATOM     19  H53 UNL     1       3.551   0.030  -0.493  1.00  0.00     0.277 HD
ATOM     20  H52 UNL     1       2.687   0.805   0.545  1.00  0.00     0.277 HD
ATOM     21  H51 UNL     1       3.551  -0.528   1.091  1.00  0.00     0.277 HD
ENDBRANCH  13  18
ENDBRANCH  12  13
ENDBRANCH   1  12
TORSDOF 6
