REMARK  11 active torsions:
REMARK  status: ('A' for Active; 'I' for Inactive)
REMARK    1  A    between atoms: N1_1  and  C1_4 
REMARK    2  A    between atoms: C2_9  and  C3_10 
REMARK    3  A    between atoms: C4_15  and  C5_16 
REMARK    4  A    between atoms: C5_16  and  O1_17 
REMARK    5  A    between atoms: C7_20  and  C8_21 
REMARK    6  A    between atoms: C9_26  and  C10_27 
REMARK    7  A    between atoms: C10_27  and  S1_28 
REMARK    8  A    between atoms: S1_28  and  C11_31 
REMARK    9  A    between atoms: C11_31  and  N8_32 
REMARK   10  A    between atoms: C11_31  and  N9_36 
REMARK   11  A    between atoms: C12_47  and  N14_48 
ROOT
HETATM    1  C5  UNL     1      -1.095   0.083  -0.580  1.00  0.00     0.206 C 
HETATM    2  C6  UNL     1       0.032   0.167   0.480  1.00  0.00     0.097 C 
HETATM    3  C7  UNL     1       1.181   0.170  -0.542  1.00  0.00     0.176 C 
HETATM    4  N10 UNL     1       0.732   1.201  -1.418  1.00  0.00    -0.132 NA
HETATM    5  N11 UNL     1      -0.683   1.171  -1.416  1.00  0.00    -0.101 NA
ENDROOT
BRANCH   1   6
HETATM    6  C4  UNL     1      -2.402   0.193   0.050  1.00  0.00     0.151 A 
HETATM    7  N5  UNL     1      -2.567   0.450   1.389  1.00  0.00    -0.283 N 
HETATM    8  N4  UNL     1      -3.872   0.455   1.625  1.00  0.00    -0.281 N 
ATOM      9  H5  UNL     1      -1.826   0.607   2.072  1.00  0.00     0.188 HD
HETATM   10  C3  UNL     1      -4.571   0.209   0.486  1.00  0.00     0.168 A 
ATOM     11  H4  UNL     1      -4.294   0.621   2.539  1.00  0.00     0.188 HD
HETATM   12  N12 UNL     1      -3.617   0.060  -0.442  1.00  0.00    -0.323 N 
ATOM     13  H12 UNL     1      -3.810  -0.135  -1.424  1.00  0.00     0.169 HD
BRANCH  10  14
HETATM   14  C2  UNL     1      -6.037   0.146   0.385  1.00  0.00     0.168 A 
HETATM   15  N3  UNL     1      -6.771   0.331   1.475  1.00  0.00    -0.281 N 
HETATM   16  N2  UNL     1      -8.107   0.283   1.473  1.00  0.00    -0.281 N 
ATOM     17  H3  UNL     1      -6.293   0.519   2.356  1.00  0.00     0.188 HD
HETATM   18  C1  UNL     1      -8.750   0.036   0.317  1.00  0.00     0.158 A 
ATOM     19  H2  UNL     1      -8.631   0.431   2.335  1.00  0.00     0.188 HD
HETATM   20  C12 UNL     1      -8.022  -0.155  -0.818  1.00  0.00     0.146 A 
HETATM   21  N13 UNL     1      -6.643  -0.102  -0.787  1.00  0.00    -0.322 N 
ATOM     22  H13 UNL     1      -6.097  -0.248  -1.636  1.00  0.00     0.169 HD
BRANCH  18  23
HETATM   23  N1  UNL     1     -10.062  -0.034   0.313  1.00  0.00    -0.381 N 
ATOM     24  H12 UNL     1     -10.607   0.109   1.163  1.00  0.00     0.157 HD
ATOM     25  H11 UNL     1     -10.549  -0.221  -0.563  1.00  0.00     0.157 HD
ENDBRANCH  18  23
BRANCH  20  26
HETATM   26  N14 UNL     1      -8.594  -0.386  -1.953  1.00  0.00    -0.382 N 
ATOM     27 2H14 UNL     1      -9.613  -0.425  -1.976  1.00  0.00     0.157 HD
ATOM     28 1H14 UNL     1      -8.049  -0.529  -2.803  1.00  0.00     0.157 HD
ENDBRANCH  20  26
ENDBRANCH  10  14
ENDBRANCH   1   6
BRANCH   1  29
HETATM   29  O1  UNL     1      -0.899  -1.147  -1.219  1.00  0.00    -0.366 OA
ATOM     30  H1  UNL     1      -0.046  -1.219  -1.630  1.00  0.00     0.212 HD
ENDBRANCH   1  29
BRANCH   3  31
HETATM   31  C8  UNL     1       2.478   0.338   0.089  1.00  0.00     0.161 A 
HETATM   32  N6  UNL     1       3.078   1.407   0.537  1.00  0.00    -0.280 N 
HETATM   33  N7  UNL     1       4.270   1.075   1.049  1.00  0.00    -0.281 N 
ATOM     34  H6  UNL     1       2.697   2.352   0.502  1.00  0.00     0.189 HD
HETATM   35  C9  UNL     1       4.413  -0.235   0.914  1.00  0.00     0.154 A 
ATOM     36  H7  UNL     1       4.945   1.715   1.467  1.00  0.00     0.189 HD
HETATM   37  O4  UNL     1       3.303  -0.672   0.321  1.00  0.00    -0.279 OA
BRANCH  35  38
HETATM   38  C10 UNL     1       5.522  -1.140   1.296  1.00  0.00     0.230 C 
BRANCH  38  39
HETATM   39  S1  UNL     1       6.778  -1.325   0.114  1.00  0.00     0.206 S 
HETATM   40  O2  UNL     1       6.267  -1.932  -1.177  1.00  0.00    -0.224 OA
HETATM   41  O3  UNL     1       7.789  -2.340   0.642  1.00  0.00    -0.224 OA
BRANCH  39  42
HETATM   42  C11 UNL     1       7.612   0.194  -0.177  1.00  0.00     0.497 C 
BRANCH  42  43
HETATM   43  N8  UNL     1       6.762   1.161  -0.797  1.00  0.00    -0.037 N 
ATOM     44  H83 UNL     1       6.349   0.795  -1.655  1.00  0.00     0.278 HD
ATOM     45  H82 UNL     1       5.909   1.305  -0.257  1.00  0.00     0.278 HD
ATOM     46  H81 UNL     1       7.246   2.043  -0.966  1.00  0.00     0.278 HD
ENDBRANCH  42  43
BRANCH  42  47
HETATM   47  N9  UNL     1       8.806  -0.059  -1.022  1.00  0.00    -0.037 N 
ATOM     48  H93 UNL     1       9.421  -0.768  -0.622  1.00  0.00     0.278 HD
ATOM     49  H92 UNL     1       8.572  -0.544  -1.888  1.00  0.00     0.278 HD
ATOM     50  H91 UNL     1       9.290   0.823  -1.191  1.00  0.00     0.278 HD
ENDBRANCH  42  47
ENDBRANCH  39  42
ENDBRANCH  38  39
ENDBRANCH  35  38
ENDBRANCH   3  31
TORSDOF 11
