REMARK  10 active torsions:
REMARK  status: ('A' for Active; 'I' for Inactive)
REMARK    1  A    between atoms: N1_1  and  C1_4 
REMARK    2  A    between atoms: C2_7  and  N3_8 
REMARK    3  A    between atoms: N3_8  and  C3_10 
REMARK    4  A    between atoms: C3_10  and  N4_11 
REMARK    5  A    between atoms: C3_10  and  O1_15 
REMARK    6  A    between atoms: C5_18  and  N5_19 
REMARK    7  A    between atoms: C6_24  and  C7_25 
REMARK    8  A    between atoms: C9_30  and  N10_31 
REMARK    9  A    between atoms: N10_31  and  N11_33 
REMARK   10  A    between atoms: C11_39  and  C12_40 
ROOT
HETATM    1  C1  UNL     1      -3.669  -3.139   0.121  1.00  0.00     0.679 A 
HETATM    2  N2  UNL     1      -3.546  -2.021  -0.599  1.00  0.00    -0.176 N 
ATOM      3  H2  UNL     1      -4.317  -1.701  -1.186  1.00  0.00     0.186 HD
HETATM    4  C2  UNL     1      -2.381  -1.307  -0.545  1.00  0.00     0.136 A 
HETATM    5  C4  UNL     1      -1.330  -1.724   0.244  1.00  0.00     0.084 A 
HETATM    6  C5  UNL     1      -0.160  -1.037   0.332  1.00  0.00     0.106 A 
HETATM    7  C9  UNL     1       0.836  -1.555   1.179  1.00  0.00     0.095 A 
HETATM    8  C13 UNL     1       0.573  -2.736   1.880  1.00  0.00     0.123 A 
HETATM    9  N15 UNL     1      -0.585  -3.371   1.761  1.00  0.00    -0.349 N 
ATOM     10  H15 UNL     1      -0.738  -4.230   2.289  1.00  0.00     0.167 HD
HETATM   11  C14 UNL     1      -1.566  -2.907   0.958  1.00  0.00     0.137 A 
HETATM   12  N16 UNL     1      -2.710  -3.607   0.902  1.00  0.00    -0.176 N 
ATOM     13  H16 UNL     1      -2.834  -4.465   1.440  1.00  0.00     0.186 HD
ENDROOT
BRANCH   7  14
HETATM   14  N10 UNL     1       2.038  -0.868   1.383  1.00  0.00    -0.274 N 
ATOM     15  H10 UNL     1       2.141  -0.394   2.280  1.00  0.00     0.189 HD
BRANCH  14  16
HETATM   16  N11 UNL     1       3.113  -0.757   0.498  1.00  0.00    -0.173 N 
HETATM   17  N12 UNL     1       3.214  -1.388  -0.659  1.00  0.00    -0.273 N 
HETATM   18  C10 UNL     1       4.337  -1.085  -1.276  1.00  0.00     0.201 A 
ATOM     19  H12 UNL     1       2.511  -2.029  -1.027  1.00  0.00     0.190 HD
HETATM   20  N13 UNL     1       4.971  -0.228  -0.477  1.00  0.00    -0.331 N 
HETATM   21  C11 UNL     1       4.222  -0.016   0.627  1.00  0.00     0.211 A 
ATOM     22  H13 UNL     1       5.877   0.200  -0.668  1.00  0.00     0.168 HD
BRANCH  21  23
HETATM   23  C12 UNL     1       4.607   0.884   1.738  1.00  0.00     0.302 C 
HETATM   24  N14 UNL     1       5.869   1.565   1.620  1.00  0.00    -0.054 NA
HETATM   25  O3  UNL     1       3.943   1.097   2.749  1.00  0.00    -0.268 OA
ENDBRANCH  21  23
ENDBRANCH  14  16
ENDBRANCH   7  14
BRANCH   6  26
HETATM   26  N5  UNL     1       0.079   0.187  -0.340  1.00  0.00    -0.222 N 
HETATM   27  N6  UNL     1       0.472   0.540  -1.532  1.00  0.00    -0.234 N 
HETATM   28  N7  UNL     1       0.612   1.846  -1.652  1.00  0.00    -0.278 N 
ATOM     29  H6  UNL     1       0.651  -0.121  -2.288  1.00  0.00     0.209 HD
HETATM   30  C6  UNL     1       0.292   2.387  -0.475  1.00  0.00     0.157 A 
ATOM     31  H7  UNL     1       0.909   2.349  -2.488  1.00  0.00     0.189 HD
HETATM   32  C8  UNL     1      -0.046   1.355   0.359  1.00  0.00     0.173 A 
HETATM   33  N9  UNL     1      -0.460   1.504   1.738  1.00  0.00    -0.078 NA
BRANCH  30  34
HETATM   34  C7  UNL     1       0.287   3.805  -0.101  1.00  0.00     0.286 C 
HETATM   35  N8  UNL     1       0.666   4.766  -1.086  1.00  0.00    -0.056 NA
HETATM   36  O2  UNL     1      -0.036   4.166   1.043  1.00  0.00    -0.269 OA
ENDBRANCH  30  34
ENDBRANCH   6  26
BRANCH   4  37
HETATM   37  N3  UNL     1      -2.283  -0.229  -1.220  1.00  0.00    -0.327 N 
ATOM     38  H3  UNL     1      -1.415   0.306  -1.180  1.00  0.00     0.165 HD
BRANCH  37  39
HETATM   39  C3  UNL     1      -3.362   0.249  -2.033  1.00  0.00     0.425 C 
BRANCH  39  40
HETATM   40  N4  UNL     1      -2.850   1.356  -2.844  1.00  0.00    -0.035 N 
ATOM     41  H43 UNL     1      -2.419   2.092  -2.284  1.00  0.00     0.279 HD
ATOM     42  H42 UNL     1      -2.026   1.101  -3.388  1.00  0.00     0.279 HD
ATOM     43  H41 UNL     1      -3.618   1.696  -3.423  1.00  0.00     0.279 HD
ENDBRANCH  39  40
BRANCH  39  44
HETATM   44  O1  UNL     1      -4.452   0.731  -1.304  1.00  0.00    -0.355 OA
ATOM     45  H1  UNL     1      -5.167   1.048  -1.843  1.00  0.00     0.213 HD
ENDBRANCH  39  44
ENDBRANCH  37  39
ENDBRANCH   4  37
BRANCH   1  46
HETATM   46  N1  UNL     1      -4.795  -3.774   0.029  1.00  0.00    -0.234 N 
ATOM     47  H12 UNL     1      -5.535  -3.413  -0.573  1.00  0.00     0.174 HD
ATOM     48  H11 UNL     1      -4.889  -4.628   0.579  1.00  0.00     0.174 HD
ENDBRANCH   1  46
TORSDOF 10
