REMARK  6 active torsions:
REMARK  status: ('A' for Active; 'I' for Inactive)
REMARK    1  A    between atoms: N1_1  and  C1_4 
REMARK    2  A    between atoms: C2_9  and  C3_10 
REMARK    3  A    between atoms: C3_10  and  C4_11 
REMARK    4  A    between atoms: C4_11  and  C5_12 
REMARK    5  A    between atoms: C5_12  and  N4_13 
REMARK    6  A    between atoms: C5_12  and  N5_17 
ROOT
HETATM    1  C3  UNL     1       0.002   0.659  -0.553  1.00  0.00     0.090 C 
ENDROOT
BRANCH   1   2
HETATM    2  C2  UNL     1       1.395   0.124  -0.557  1.00  0.00     0.142 A 
HETATM    3  N3  UNL     1       1.950  -0.587  -1.557  1.00  0.00    -0.280 N 
HETATM    4  N2  UNL     1       3.195  -0.905  -1.240  1.00  0.00    -0.263 N 
ATOM      5  H3  UNL     1       1.482  -0.842  -2.427  1.00  0.00     0.189 HD
HETATM    6  C1  UNL     1       3.419  -0.380  -0.015  1.00  0.00     0.238 A 
ATOM      7  H2  UNL     1       3.854  -1.439  -1.807  1.00  0.00     0.190 HD
HETATM    8  O1  UNL     1       2.321   0.231   0.368  1.00  0.00    -0.264 OA
BRANCH   6   9
HETATM    9  N1  UNL     1       4.549  -0.508   0.596  1.00  0.00    -0.364 N 
ATOM     10  H12 UNL     1       5.402  -0.982   0.299  1.00  0.00     0.159 HD
ATOM     11  H11 UNL     1       4.718  -0.112   1.521  1.00  0.00     0.159 HD
ENDBRANCH   6   9
ENDBRANCH   1   2
BRANCH   1  12
HETATM   12  C4  UNL     1      -0.964  -0.346   0.047  1.00  0.00     0.070 C 
BRANCH  12  13
HETATM   13  C5  UNL     1      -2.340   0.279   0.009  1.00  0.00     0.378 C 
BRANCH  13  14
HETATM   14  N4  UNL     1      -3.350  -0.583   0.554  1.00  0.00    -0.051 N 
ATOM     15  H43 UNL     1      -3.347  -1.492   0.090  1.00  0.00     0.276 HD
ATOM     16  H42 UNL     1      -3.108  -0.880   1.499  1.00  0.00     0.276 HD
ATOM     17  H41 UNL     1      -4.278  -0.161   0.528  1.00  0.00     0.276 HD
ENDBRANCH  13  14
BRANCH  13  18
HETATM   18  N5  UNL     1      -2.389   1.535   0.709  1.00  0.00    -0.051 N 
ATOM     19  H53 UNL     1      -2.056   1.435   1.668  1.00  0.00     0.276 HD
ATOM     20  H52 UNL     1      -1.682   2.180   0.357  1.00  0.00     0.276 HD
ATOM     21  H51 UNL     1      -3.317   1.957   0.683  1.00  0.00     0.276 HD
ENDBRANCH  13  18
ENDBRANCH  12  13
ENDBRANCH   1  12
TORSDOF 6
