REMARK  5 active torsions:
REMARK  status: ('A' for Active; 'I' for Inactive)
REMARK    1  A    between atoms: C3_9  and  N4_10 
REMARK    2  A    between atoms: N4_10  and  O1_12 
REMARK    3  A    between atoms: C4_14  and  C5_15 
REMARK    4  A    between atoms: C5_15  and  N5_16 
REMARK    5  A    between atoms: C5_15  and  N6_20 
ROOT
HETATM    1  C1  UNL     1      -0.438   2.063   0.078  1.00  0.00     0.178 C 
HETATM    2  N1  UNL     1       0.429   0.915   0.005  1.00  0.00    -0.293 N 
HETATM    3  N2  UNL     1       1.750   0.985  -0.054  1.00  0.00    -0.282 N 
ATOM      4  H2  UNL     1       2.286   1.853  -0.054  1.00  0.00     0.189 HD
HETATM    5  C2  UNL     1       2.283  -0.236  -0.114  1.00  0.00     0.145 A 
HETATM    6  N3  UNL     1       3.529  -0.564  -0.180  1.00  0.00    -0.382 N 
ATOM      7  H31 UNL     1       3.937  -1.498  -0.226  1.00  0.00     0.157 HD
ATOM      8  H32 UNL     1       4.321   0.078  -0.198  1.00  0.00     0.157 HD
HETATM    9  C3  UNL     1       1.210  -1.106  -0.090  1.00  0.00     0.127 A 
HETATM   10  C4  UNL     1       0.046  -0.368  -0.015  1.00  0.00     0.117 A 
ENDROOT
BRANCH  10  11
HETATM   11  C5  UNL     1      -1.340  -0.862   0.035  1.00  0.00     0.431 C 
BRANCH  11  12
HETATM   12  N5  UNL     1      -2.232  -0.142  -0.843  1.00  0.00    -0.045 N 
ATOM     13  H53 UNL     1      -2.197   0.860  -0.654  1.00  0.00     0.277 HD
ATOM     14  H52 UNL     1      -1.880  -0.145  -1.800  1.00  0.00     0.277 HD
ATOM     15  H51 UNL     1      -3.192  -0.484  -0.808  1.00  0.00     0.277 HD
ENDBRANCH  11  12
BRANCH  11  16
HETATM   16  N6  UNL     1      -1.855  -0.937   1.385  1.00  0.00    -0.045 N 
ATOM     17  H63 UNL     1      -1.244  -1.497   1.980  1.00  0.00     0.277 HD
ATOM     18  H62 UNL     1      -1.769  -0.039   1.861  1.00  0.00     0.277 HD
ATOM     19  H61 UNL     1      -2.815  -1.279   1.420  1.00  0.00     0.277 HD
ENDBRANCH  11  16
ENDBRANCH  10  11
BRANCH   9  20
HETATM   20  N4  UNL     1       1.297  -2.537  -0.135  1.00  0.00    -0.263 N 
ATOM     21  H4  UNL     1       1.304  -3.107   0.711  1.00  0.00     0.194 HD
BRANCH  20  22
HETATM   22  O1  UNL     1       1.363  -3.039  -1.276  1.00  0.00    -0.289 OA
ATOM     23  H1  UNL     1       1.421  -3.987  -1.306  1.00  0.00     0.244 HD
ENDBRANCH  20  22
ENDBRANCH   9  20
TORSDOF 5
