REMARK  6 active torsions:
REMARK  status: ('A' for Active; 'I' for Inactive)
REMARK    1  A    between atoms: N1_1  and  C1_4 
REMARK    2  A    between atoms: C2_7  and  N3_8 
REMARK    3  A    between atoms: N3_8  and  N4_9 
REMARK    4  A    between atoms: N3_8  and  N5_12 
REMARK    5  A    between atoms: C4_16  and  C5_17 
REMARK    6  A    between atoms: C5_17  and  N6_18 
ROOT
HETATM    1  C1  UNL     1       0.154  -2.151  -0.614  1.00  0.00     0.677 A 
HETATM    2  N2  UNL     1      -0.956  -1.392  -0.563  1.00  0.00    -0.173 N 
ATOM      3  H2  UNL     1      -1.854  -1.842  -0.740  1.00  0.00     0.186 HD
HETATM    4  C2  UNL     1      -0.949  -0.079  -0.293  1.00  0.00     0.161 A 
HETATM    5  C3  UNL     1       0.277   0.506  -0.057  1.00  0.00     0.080 A 
HETATM    6  C4  UNL     1       1.442  -0.237  -0.100  1.00  0.00     0.055 A 
HETATM    7  N7  UNL     1       1.339  -1.549  -0.379  1.00  0.00    -0.194 N 
ATOM      8  H7  UNL     1       2.190  -2.111  -0.414  1.00  0.00     0.184 HD
ENDROOT
BRANCH   4   9
HETATM    9  N3  UNL     1      -2.167   0.669  -0.254  1.00  0.00    -0.192 N 
BRANCH   9  10
HETATM   10  N4  UNL     1      -3.365   0.024  -0.500  1.00  0.00    -0.323 N 
ATOM     11  H42 UNL     1      -3.362  -0.975  -0.705  1.00  0.00     0.179 HD
ATOM     12  H41 UNL     1      -4.234   0.558  -0.472  1.00  0.00     0.179 HD
ENDBRANCH   9  10
BRANCH   9  13
HETATM   13  N5  UNL     1      -2.171   2.019   0.023  1.00  0.00    -0.323 N 
ATOM     14  H52 UNL     1      -1.287   2.495   0.204  1.00  0.00     0.179 HD
ATOM     15  H51 UNL     1      -3.040   2.553   0.051  1.00  0.00     0.179 HD
ENDBRANCH   9  13
ENDBRANCH   4   9
BRANCH   1  16
HETATM   16  N1  UNL     1       0.094  -3.432  -0.883  1.00  0.00    -0.234 N 
ATOM     17  H12 UNL     1      -0.801  -3.887  -1.061  1.00  0.00     0.174 HD
ATOM     18  H11 UNL     1       0.935  -4.007  -0.922  1.00  0.00     0.174 HD
ENDBRANCH   1  16
BRANCH   6  19
HETATM   19  C5  UNL     1       2.772   0.323   0.141  1.00  0.00     0.287 C 
BRANCH  19  20
HETATM   20  N6  UNL     1       2.806   1.710   0.428  1.00  0.00    -0.074 N 
ATOM     21  H63 UNL     1       2.336   2.232  -0.312  1.00  0.00     0.274 HD
ATOM     22  H62 UNL     1       2.191   1.919   1.214  1.00  0.00     0.274 HD
ATOM     23  H61 UNL     1       3.733   2.100   0.596  1.00  0.00     0.274 HD
ENDBRANCH  19  20
ENDBRANCH   6  19
TORSDOF 6
