REMARK  6 active torsions:
REMARK  status: ('A' for Active; 'I' for Inactive)
REMARK    1  A    between atoms: N1_1  and  C1_4 
REMARK    2  A    between atoms: C2_7  and  C3_8 
REMARK    3  A    between atoms: C3_8  and  N3_9 
REMARK    4  A    between atoms: C3_8  and  C4_13 
REMARK    5  A    between atoms: C4_13  and  N4_14 
REMARK    6  A    between atoms: C4_13  and  O1_18 
ROOT
HETATM    1  C1  UNL     1      -2.524   1.037  -0.161  1.00  0.00     0.690 A 
HETATM    2  N2  UNL     1      -1.335   0.899   0.453  1.00  0.00    -0.191 N 
ATOM      3  H2  UNL     1      -1.040   1.560   1.172  1.00  0.00     0.184 HD
HETATM    4  C2  UNL     1      -0.534  -0.143   0.094  1.00  0.00     0.078 A 
HETATM    5  C5  UNL     1      -0.904  -1.054  -0.871  1.00  0.00     0.135 A 
HETATM    6  N5  UNL     1      -2.101  -0.877  -1.458  1.00  0.00    -0.296 N 
ATOM      7  H5  UNL     1      -2.412  -1.529  -2.178  1.00  0.00     0.186 HD
HETATM    8  N6  UNL     1      -2.889   0.148  -1.105  1.00  0.00    -0.133 N 
ATOM      9  H6  UNL     1      -3.793   0.258  -1.565  1.00  0.00     0.205 HD
ENDROOT
BRANCH   4  10
HETATM   10  C3  UNL     1       0.771  -0.296   0.766  1.00  0.00     0.290 C 
BRANCH  10  11
HETATM   11  N3  UNL     1       1.024  -1.663   1.159  1.00  0.00    -0.065 N 
ATOM     12  H33 UNL     1       0.266  -2.028   1.736  1.00  0.00     0.275 HD
ATOM     13  H32 UNL     1       0.941  -2.297   0.364  1.00  0.00     0.275 HD
ATOM     14  H31 UNL     1       1.926  -1.769   1.623  1.00  0.00     0.275 HD
ENDBRANCH  10  11
BRANCH  10  15
HETATM   15  C4  UNL     1       1.907   0.195  -0.102  1.00  0.00     0.353 C 
BRANCH  15  16
HETATM   16  N4  UNL     1       3.115   0.131   0.723  1.00  0.00    -0.051 N 
ATOM     17  H43 UNL     1       3.031   0.638   1.604  1.00  0.00     0.277 HD
ATOM     18  H42 UNL     1       3.282  -0.792   1.124  1.00  0.00     0.277 HD
ATOM     19  H41 UNL     1       3.882   0.462   0.137  1.00  0.00     0.277 HD
ENDBRANCH  15  16
BRANCH  15  20
HETATM   20  O1  UNL     1       1.684   1.514  -0.494  1.00  0.00    -0.368 OA
ATOM     21  H1  UNL     1       2.398   1.823  -1.040  1.00  0.00     0.212 HD
ENDBRANCH  15  20
ENDBRANCH  10  15
ENDBRANCH   4  10
BRANCH   1  22
HETATM   22  N1  UNL     1      -3.334   2.012   0.137  1.00  0.00    -0.233 N 
ATOM     23  H12 UNL     1      -3.058   2.685   0.852  1.00  0.00     0.174 HD
ATOM     24  H11 UNL     1      -4.236   2.117  -0.329  1.00  0.00     0.174 HD
ENDBRANCH   1  22
TORSDOF 6
