REMARK  10 active torsions:
REMARK  status: ('A' for Active; 'I' for Inactive)
REMARK       I    between atoms: C2_2  and  N1_4 
REMARK    1  A    between atoms: N1_4  and  C3_6 
REMARK    2  A    between atoms: C3_6  and  C4_7 
REMARK    3  A    between atoms: C4_7  and  C5_8 
REMARK    4  A    between atoms: C5_8  and  C7_10 
REMARK    5  A    between atoms: C5_8  and  C8_13 
REMARK    6  A    between atoms: C7_10  and  O2_11 
REMARK    7  A    between atoms: C8_13  and  C9_14 
REMARK    8  A    between atoms: C17_22  and  O3_23 
REMARK    9  A    between atoms: C26_33  and  O4_34 
REMARK   10  A    between atoms: C28_38  and  C29_39 
ROOT
HETATM    1  C9  UNL     1       0.316  -1.628   0.035  1.00  0.00    -0.052 C 
HETATM    2  C10 UNL     1       0.616  -3.064   0.152  1.00  0.00     0.034 C 
HETATM    3  C11 UNL     1       0.165  -3.773   1.411  1.00  0.00     0.019 C 
HETATM    4  C12 UNL     1       0.267  -3.920  -0.985  1.00  0.00    -0.017 C 
HETATM    5  C13 UNL     1      -0.675  -3.581  -1.757  1.00  0.00     0.005 C 
HETATM    6  C14 UNL     1      -1.479  -2.351  -1.597  1.00  0.00    -0.039 C 
HETATM    7  C15 UNL     1      -2.873  -2.669  -1.319  1.00  0.00    -0.013 C 
HETATM    8  C16 UNL     1      -3.648  -2.448  -0.092  1.00  0.00     0.096 C 
HETATM    9  C17 UNL     1      -3.157  -1.510   0.917  1.00  0.00     0.166 C 
HETATM   10  C18 UNL     1      -3.848  -0.278   1.351  1.00  0.00     0.069 C 
HETATM   11  C19 UNL     1      -3.132   0.996   1.037  1.00  0.00     0.014 C 
HETATM   12  C20 UNL     1      -1.724   0.913   0.380  1.00  0.00     0.033 C 
HETATM   13  C21 UNL     1      -1.530   2.338  -0.043  1.00  0.00    -0.041 C 
HETATM   14  C22 UNL     1      -2.134   3.299   1.008  1.00  0.00     0.015 C 
HETATM   15  C23 UNL     1      -0.148   2.869  -0.110  1.00  0.00     0.015 C 
HETATM   16  C24 UNL     1      -2.326   2.646  -1.287  1.00  0.00     0.012 C 
HETATM   17  C25 UNL     1      -2.262   1.564  -2.292  1.00  0.00     0.035 C 
HETATM   18  C26 UNL     1      -2.542   0.165  -1.705  1.00  0.00     0.155 C 
HETATM   19  C27 UNL     1      -1.769  -0.190  -0.522  1.00  0.00     0.117 C 
HETATM   20  O5  UNL     1      -2.064  -1.095   0.417  1.00  0.00    -0.339 OA
HETATM   21  C28 UNL     1      -0.713  -1.176  -1.003  1.00  0.00     0.098 C 
ENDROOT
BRANCH   1  22
HETATM   22  C8  UNL     1       1.475  -0.702   0.073  1.00  0.00    -0.010 C 
BRANCH  22  23
HETATM   23  C5  UNL     1       2.415  -0.515   1.159  1.00  0.00    -0.003 C 
HETATM   24  C6  UNL     1       1.866   0.136   2.412  1.00  0.00     0.021 C 
BRANCH  23  25
HETATM   25  C4  UNL     1       3.333   0.624   0.596  1.00  0.00     0.035 C 
BRANCH  25  26
HETATM   26  C3  UNL     1       4.399   1.056   1.483  1.00  0.00     0.123 C 
BRANCH  26  27
HETATM   27  N1  UNL     1       5.149   2.132   0.812  1.00  0.00    -0.361 N 
HETATM   28  C2  UNL     1       4.582   3.362   0.427  1.00  0.00     0.213 C 
HETATM   29  C1  UNL     1       5.437   4.370  -0.249  1.00  0.00     0.117 C 
HETATM   30  O1  UNL     1       3.388   3.683   0.613  1.00  0.00    -0.274 OA
ATOM     31  H1  UNL     1       6.138   1.977   0.615  1.00  0.00     0.162 HD
ENDBRANCH  26  27
ENDBRANCH  25  26
ENDBRANCH  23  25
BRANCH  23  32
HETATM   32  C7  UNL     1       3.427  -1.581   1.472  1.00  0.00     0.177 C 
BRANCH  32  33
HETATM   33  O2  UNL     1       4.184  -1.984   0.375  1.00  0.00    -0.400 OA
ATOM     34  H2  UNL     1       4.824  -2.658   0.573  1.00  0.00     0.209 HD
ENDBRANCH  32  33
ENDBRANCH  23  32
ENDBRANCH  22  23
ENDBRANCH   1  22
BRANCH  21  35
HETATM   35  C29 UNL     1       0.035  -0.520  -2.113  1.00  0.00     0.253 C 
HETATM   36  O6  UNL     1       0.145  -1.060  -3.233  1.00  0.00    -0.305 OA
ENDBRANCH  21  35
BRANCH  18  37
HETATM   37  O4  UNL     1      -3.938   0.242  -1.638  1.00  0.00    -0.392 OA
ATOM     38  H4  UNL     1      -4.110  -0.619  -1.277  1.00  0.00     0.210 HD
ENDBRANCH  18  37
BRANCH   9  39
HETATM   39  O3  UNL     1      -2.943  -2.226   2.131  1.00  0.00    -0.365 OA
ATOM     40  H3  UNL     1      -2.624  -1.617   2.786  1.00  0.00     0.213 HD
ENDBRANCH   9  39
TORSDOF 10
