REMARK  12 active torsions:
REMARK  status: ('A' for Active; 'I' for Inactive)
REMARK    1  A    between atoms: C2_2  and  C4_4 
REMARK    2  A    between atoms: C5_7  and  N2_8 
REMARK    3  A    between atoms: N2_8  and  C6_10 
REMARK    4  A    between atoms: C10_15  and  C11_16 
REMARK    5  A    between atoms: C11_16  and  O1_17 
REMARK    6  A    between atoms: C11_16  and  N3_19 
REMARK    7  A    between atoms: N3_19  and  C12_21 
REMARK    8  A    between atoms: N4_27  and  C18_28 
REMARK    9  A    between atoms: C18_28  and  C19_29 
REMARK   10  A    between atoms: C19_29  and  C20_30 
REMARK   11  A    between atoms: C19_29  and  N5_33 
REMARK   12  A    between atoms: C20_30  and  O2_31 
ROOT
HETATM    1  N3  UNL     1       0.601   0.870  -0.210  1.00  0.00    -0.380 N 
ATOM      2  H3  UNL     1       0.697  -0.140  -0.319  1.00  0.00     0.157 HD
ENDROOT
BRANCH   1   3
HETATM    3  C11 UNL     1       1.709   1.722  -0.423  1.00  0.00     0.257 C 
BRANCH   3   4
HETATM    4  C10 UNL     1       3.035   1.046  -0.550  1.00  0.00     0.057 A 
HETATM    5  C4  UNL     1       3.530  -0.147  -0.121  1.00  0.00     0.032 A 
HETATM    6  N1  UNL     1       4.774  -0.445  -0.424  1.00  0.00    -0.339 N 
HETATM    7  C5  UNL     1       5.499   0.421  -1.130  1.00  0.00     0.145 A 
ATOM      8  H1  UNL     1       5.180  -1.330  -0.121  1.00  0.00     0.168 HD
HETATM    9  S1  UNL     1       4.397   1.704  -1.382  1.00  0.00    -0.052 SA
BRANCH   5  10
HETATM   10  C2  UNL     1       2.680  -1.105   0.704  1.00  0.00     0.029 C 
HETATM   11  C1  UNL     1       3.482  -2.372   1.029  1.00  0.00     0.016 C 
HETATM   12  C3  UNL     1       2.359  -0.500   2.057  1.00  0.00     0.016 C 
ENDBRANCH   5  10
BRANCH   7  13
HETATM   13  N2  UNL     1       6.742   0.325  -1.537  1.00  0.00    -0.362 N 
ATOM     14  H2  UNL     1       7.119   1.106  -2.073  1.00  0.00     0.162 HD
BRANCH  13  15
HETATM   15  C6  UNL     1       7.609  -0.778  -1.293  1.00  0.00     0.021 C 
HETATM   16  C7  UNL     1       7.066  -2.005  -1.973  1.00  0.00     0.037 C 
HETATM   17  C8  UNL     1       7.886  -1.042   0.169  1.00  0.00     0.037 C 
HETATM   18  C9  UNL     1       8.992  -0.538  -1.926  1.00  0.00     0.037 C 
ENDBRANCH  13  15
ENDBRANCH   7  13
ENDBRANCH   3   4
BRANCH   3  19
HETATM   19  O1  UNL     1       1.503   2.256  -1.741  1.00  0.00    -0.372 OA
ATOM     20  H1  UNL     1       0.660   2.686  -1.660  1.00  0.00     0.212 HD
ENDBRANCH   3  19
ENDBRANCH   1   3
BRANCH   1  21
HETATM   21  C12 UNL     1      -0.642   1.437   0.157  1.00  0.00     0.171 C 
HETATM   22  C13 UNL     1      -1.337   2.340  -0.791  1.00  0.00     0.034 C 
HETATM   23  C14 UNL     1      -1.922   3.587  -0.140  1.00  0.00     0.002 C 
HETATM   24  C15 UNL     1      -2.761   3.321   1.055  1.00  0.00     0.002 C 
HETATM   25  C16 UNL     1      -3.937   2.426   0.851  1.00  0.00     0.020 C 
HETATM   26  C17 UNL     1      -3.749   1.194   1.711  1.00  0.00     0.126 C 
HETATM   27  N4  UNL     1      -2.886   0.232   1.124  1.00  0.00    -0.348 N 
HETATM   28  C25 UNL     1      -1.544   0.311   0.593  1.00  0.00     0.242 C 
HETATM   29  O3  UNL     1      -1.049  -0.815   0.481  1.00  0.00    -0.271 OA
BRANCH  27  30
HETATM   30  C18 UNL     1      -3.433  -1.092   1.064  1.00  0.00     0.152 C 
BRANCH  30  31
HETATM   31  C19 UNL     1      -4.100  -1.457  -0.239  1.00  0.00     0.120 C 
BRANCH  31  32
HETATM   32  C20 UNL     1      -4.537  -2.923  -0.034  1.00  0.00     0.190 C 
BRANCH  32  33
HETATM   33  O2  UNL     1      -5.515  -3.009   0.954  1.00  0.00    -0.399 OA
ATOM     34  H2  UNL     1      -5.784  -3.911   1.080  1.00  0.00     0.209 HD
ENDBRANCH  32  33
ENDBRANCH  31  32
BRANCH  31  35
HETATM   35  N5  UNL     1      -5.174  -0.658  -0.632  1.00  0.00    -0.405 N 
HETATM   36  C21 UNL     1      -6.383  -0.649   0.091  1.00  0.00     0.117 C 
HETATM   37  C22 UNL     1      -7.087   0.564  -0.542  1.00  0.00     0.021 C 
HETATM   38  C23 UNL     1      -6.635   0.457  -2.002  1.00  0.00     0.021 C 
HETATM   39  C24 UNL     1      -5.547  -0.627  -2.001  1.00  0.00     0.117 C 
ENDBRANCH  31  35
ENDBRANCH  30  31
ENDBRANCH  27  30
ENDBRANCH   1  21
TORSDOF 12
