REMARK  10 active torsions:
REMARK  status: ('A' for Active; 'I' for Inactive)
REMARK    1  A    between atoms: C2_2  and  C3_3 
REMARK    2  A    between atoms: C3_3  and  N1_4 
REMARK    3  A    between atoms: N1_4  and  C4_6 
REMARK    4  A    between atoms: C7_9  and  O1_10 
REMARK    5  A    between atoms: C10_14  and  O2_15 
REMARK    6  A    between atoms: C21_27  and  C22_28 
REMARK    7  A    between atoms: C22_28  and  O3_29 
REMARK    8  A    between atoms: C22_28  and  C23_31 
REMARK    9  A    between atoms: C23_31  and  C24_32 
REMARK   10  A    between atoms: C24_32  and  C25_33 
ROOT
HETATM    1  C4  UNL     1      -3.822  -0.027   1.015  1.00  0.00     0.095 C 
HETATM    2  C5  UNL     1      -4.449  -1.133   0.152  1.00  0.00     0.043 C 
HETATM    3  C6  UNL     1      -4.849  -2.367   0.917  1.00  0.00     0.015 C 
HETATM    4  C7  UNL     1      -3.870  -1.442  -1.191  1.00  0.00     0.086 C 
HETATM    5  C8  UNL     1      -4.431  -0.640  -2.333  1.00  0.00     0.045 C 
HETATM    6  C9  UNL     1      -3.688   0.671  -2.307  1.00  0.00     0.036 C 
HETATM    7  C10 UNL     1      -3.544   1.108  -0.917  1.00  0.00     0.129 C 
HETATM    8  C11 UNL     1      -2.724   0.466   0.107  1.00  0.00     0.010 C 
HETATM    9  C12 UNL     1      -1.653   1.382   0.525  1.00  0.00     0.015 C 
HETATM   10  C13 UNL     1      -0.264   1.177   0.104  1.00  0.00     0.011 C 
HETATM   11  C14 UNL     1       0.163   0.730  -1.238  1.00  0.00    -0.033 A 
HETATM   12  C15 UNL     1       0.014   1.750  -2.347  1.00  0.00     0.016 C 
HETATM   13  C16 UNL     1       0.580  -0.652  -1.445  1.00  0.00     0.005 A 
HETATM   14  C17 UNL     1      -0.172  -1.286  -2.516  1.00  0.00     0.033 C 
HETATM   15  C18 UNL     1      -1.636  -1.445  -2.336  1.00  0.00    -0.020 C 
HETATM   16  C19 UNL     1      -2.357  -1.259  -1.291  1.00  0.00    -0.048 C 
HETATM   17  C20 UNL     1      -1.986  -0.825   0.024  1.00  0.00     0.051 C 
HETATM   18  C21 UNL     1       1.633   0.328  -1.374  1.00  0.00     0.028 A 
ENDROOT
BRANCH  18  19
HETATM   19  C22 UNL     1       2.544   0.511  -0.202  1.00  0.00     0.123 C 
BRANCH  19  20
HETATM   20  O3  UNL     1       2.645   1.825   0.230  1.00  0.00    -0.395 OA
ATOM     21  H3  UNL     1       3.224   1.941   0.974  1.00  0.00     0.210 HD
ENDBRANCH  19  20
BRANCH  19  22
HETATM   22  C23 UNL     1       3.961   0.106  -0.572  1.00  0.00     0.033 C 
BRANCH  22  23
HETATM   23  C24 UNL     1       4.912   0.270   0.567  1.00  0.00     0.014 C 
BRANCH  23  24
HETATM   24  C25 UNL     1       6.299  -0.126   0.188  1.00  0.00    -0.010 C 
HETATM   25  C26 UNL     1       6.398  -1.566  -0.258  1.00  0.00     0.018 C 
HETATM   26  C27 UNL     1       6.924   0.732  -0.888  1.00  0.00     0.188 C 
HETATM   27  O4  UNL     1       7.272   1.897  -0.138  1.00  0.00    -0.320 OA
HETATM   28  C28 UNL     1       7.752   1.461   1.103  1.00  0.00     0.263 C 
HETATM   29  O5  UNL     1       8.455   2.080   1.945  1.00  0.00    -0.265 OA
HETATM   30  C29 UNL     1       7.292   0.070   1.319  1.00  0.00     0.091 C 
HETATM   31  C30 UNL     1       6.724  -0.194   2.669  1.00  0.00     0.021 C 
ENDBRANCH  23  24
ENDBRANCH  22  23
ENDBRANCH  19  22
ENDBRANCH  18  19
BRANCH   1  32
HETATM   32  N1  UNL     1      -3.555  -0.278   2.348  1.00  0.00    -0.413 N 
ATOM     33  H1  UNL     1      -2.593  -0.384   2.670  1.00  0.00     0.153 HD
BRANCH  32  34
HETATM   34  C3  UNL     1      -4.646  -0.388   3.272  1.00  0.00     0.141 C 
BRANCH  34  35
HETATM   35  C2  UNL     1      -5.322   0.924   3.502  1.00  0.00    -0.018 C 
HETATM   36  C1  UNL     1      -6.594   1.155   3.240  1.00  0.00     0.008 C 
ENDBRANCH  34  35
ENDBRANCH  32  34
ENDBRANCH   1  32
BRANCH   7  37
HETATM   37  O2  UNL     1      -3.298   2.512  -0.970  1.00  0.00    -0.395 OA
ATOM     38  H2  UNL     1      -3.205   2.796  -0.068  1.00  0.00     0.210 HD
ENDBRANCH   7  37
BRANCH   4  39
HETATM   39  O1  UNL     1      -4.101  -2.770  -1.490  1.00  0.00    -0.385 OA
ATOM     40  H1  UNL     1      -3.733  -2.966  -2.344  1.00  0.00     0.211 HD
ENDBRANCH   4  39
TORSDOF 10
