REMARK  6 active torsions:
REMARK  status: ('A' for Active; 'I' for Inactive)
REMARK    1  A    between atoms: N1_1  and  C1_4 
REMARK    2  A    between atoms: C1_4  and  N2_5 
REMARK    3  A    between atoms: N2_5  and  S1_7 
REMARK    4  A    between atoms: S1_7  and  N3_10 
REMARK    5  A    between atoms: N3_10  and  C2_12 
REMARK    6  A    between atoms: C5_23  and  N8_24 
ROOT
HETATM    1  C2  UNL     1       0.973  -0.480  -1.291  1.00  0.00     0.176 A 
HETATM    2  N4  UNL     1       1.239   0.545  -0.476  1.00  0.00    -0.277 N 
ATOM      3  H4  UNL     1       2.211   0.853  -0.463  1.00  0.00     0.189 HD
HETATM    4  N5  UNL     1       0.441   1.200   0.296  1.00  0.00    -0.281 N 
ATOM      5  H5  UNL     1       0.865   1.953   0.837  1.00  0.00     0.188 HD
HETATM    6  C3  UNL     1      -0.876   1.019   0.480  1.00  0.00     0.172 A 
HETATM    7  N6  UNL     1      -1.778   1.665   1.271  1.00  0.00    -0.170 N 
ATOM      8  H6  UNL     1      -1.549   2.446   1.886  1.00  0.00     0.186 HD
HETATM    9  C4  UNL     1      -3.004   1.142   1.136  1.00  0.00     0.721 A 
HETATM   10  N7  UNL     1      -4.286   1.197   1.515  1.00  0.00    -0.019 N 
ATOM     11  H7  UNL     1      -4.686   1.854   2.185  1.00  0.00     0.203 HD
HETATM   12  C5  UNL     1      -4.959   0.228   0.852  1.00  0.00     0.706 A 
HETATM   13  N9  UNL     1      -4.055  -0.397   0.079  1.00  0.00    -0.110 N 
ATOM     14  H9  UNL     1      -4.261  -1.179  -0.543  1.00  0.00     0.207 HD
HETATM   15  N10 UNL     1      -2.865   0.145   0.240  1.00  0.00    -0.060 N 
HETATM   16  C6  UNL     1      -1.604   0.046  -0.172  1.00  0.00     0.165 A 
HETATM   17  S2  UNL     1      -0.671  -0.920  -1.246  1.00  0.00    -0.028 SA
ENDROOT
BRANCH   1  18
HETATM   18  N3  UNL     1       1.917  -0.992  -1.977  1.00  0.00    -0.245 N 
ATOM     19  H3  UNL     1       1.677  -1.772  -2.588  1.00  0.00     0.182 HD
BRANCH  18  20
HETATM   20  S1  UNL     1       3.534  -0.492  -1.964  1.00  0.00     0.325 S 
HETATM   21  O1  UNL     1       4.497  -1.660  -1.800  1.00  0.00    -0.182 OA
HETATM   22  O2  UNL     1       3.853   0.087  -3.335  1.00  0.00    -0.182 OA
BRANCH  20  23
HETATM   23  N2  UNL     1       3.891   0.696  -0.788  1.00  0.00    -0.264 N 
ATOM     24  H2  UNL     1       3.800   1.679  -1.044  1.00  0.00     0.181 HD
BRANCH  23  25
HETATM   25  C1  UNL     1       4.307   0.374   0.522  1.00  0.00     0.186 C 
BRANCH  25  26
HETATM   26  N1  UNL     1       5.103  -0.608   0.769  1.00  0.00    -0.395 N 
ATOM     27  H12 UNL     1       5.435  -1.162  -0.020  1.00  0.00     0.156 HD
ATOM     28  H11 UNL     1       5.404  -0.841   1.716  1.00  0.00     0.156 HD
ENDBRANCH  25  26
ENDBRANCH  23  25
ENDBRANCH  20  23
ENDBRANCH  18  20
ENDBRANCH   1  18
BRANCH  12  29
HETATM   29  N8  UNL     1      -6.220  -0.051   0.937  1.00  0.00    -0.233 N 
ATOM     30  H82 UNL     1      -6.906   0.423   1.524  1.00  0.00     0.174 HD
ATOM     31  H81 UNL     1      -6.727  -0.781   0.437  1.00  0.00     0.174 HD
ENDBRANCH  12  29
TORSDOF 6
