REMARK  6 active torsions:
REMARK  status: ('A' for Active; 'I' for Inactive)
REMARK    1  A    between atoms: N1_1  and  C1_4 
REMARK    2  A    between atoms: C2_10  and  C3_11 
REMARK    3  A    between atoms: C4_14  and  C5_15 
REMARK    4  A    between atoms: C5_15  and  N5_16 
REMARK    5  A    between atoms: N6_20  and  C6_21 
REMARK    6  A    between atoms: C6_21  and  C7_22 
REMARK       I    between atoms: C7_22  and  N7_24 
ROOT
HETATM    1  C3  UNL     1       3.313  -0.426   0.087  1.00  0.00     0.154 A 
HETATM    2  N4  UNL     1       2.853  -1.617   0.543  1.00  0.00    -0.326 N 
ATOM      3  H4  UNL     1       3.422  -2.456   0.657  1.00  0.00     0.169 HD
HETATM    4  C4  UNL     1       1.545  -1.535   0.823  1.00  0.00     0.126 A 
HETATM    5  N6  UNL     1       1.155  -0.278   0.546  1.00  0.00    -0.268 N 
HETATM    6  N9  UNL     1       2.219   0.374   0.107  1.00  0.00    -0.279 N 
ATOM      7  H9  UNL     1       2.216   1.353  -0.180  1.00  0.00     0.189 HD
ENDROOT
BRANCH   5   8
HETATM    8  C6  UNL     1      -0.165   0.307   0.682  1.00  0.00     0.253 C 
BRANCH   8   9
HETATM    9  C7  UNL     1      -0.961   0.148  -0.559  1.00  0.00     0.239 C 
HETATM   10  O2  UNL     1      -0.418  -0.444  -1.525  1.00  0.00    -0.271 OA
HETATM   11  N7  UNL     1      -2.289   0.653  -0.638  1.00  0.00    -0.347 N 
HETATM   12  C8  UNL     1      -3.022   0.465  -1.888  1.00  0.00     0.153 C 
HETATM   13  C11 UNL     1      -2.952   1.331   0.424  1.00  0.00     0.153 C 
HETATM   14  C9  UNL     1      -4.336  -0.204  -1.476  1.00  0.00     0.252 C 
HETATM   15  N8  UNL     1      -5.068   0.818  -0.725  1.00  0.00    -0.072 N 
HETATM   16  C10 UNL     1      -4.418   1.099   0.513  1.00  0.00     0.252 C 
ATOM     17  H82 UNL     1      -5.209   1.664  -1.278  1.00  0.00     0.277 HD
ATOM     18  H81 UNL     1      -6.045   0.559  -0.588  1.00  0.00     0.277 HD
ENDBRANCH   8   9
ENDBRANCH   5   8
BRANCH   4  19
HETATM   19  C5  UNL     1       0.663  -2.637   1.352  1.00  0.00     0.307 C 
BRANCH  19  20
HETATM   20  N5  UNL     1       0.652  -2.649   2.794  1.00  0.00    -0.073 N 
ATOM     21  H53 UNL     1       1.596  -2.708   3.176  1.00  0.00     0.274 HD
ATOM     22  H52 UNL     1       0.386  -1.741   3.175  1.00  0.00     0.274 HD
ATOM     23  H51 UNL     1       0.055  -3.395   3.152  1.00  0.00     0.274 HD
ENDBRANCH  19  20
ENDBRANCH   4  19
BRANCH   1  24
HETATM   24  C2  UNL     1       4.664  -0.090  -0.326  1.00  0.00     0.147 A 
HETATM   25  C1  UNL     1       5.124   1.116  -0.786  1.00  0.00     0.154 A 
HETATM   26  N2  UNL     1       6.456   0.986  -1.058  1.00  0.00    -0.224 N 
HETATM   27  O1  UNL     1       6.779  -0.245  -0.773  1.00  0.00    -0.155 OA
ATOM     28  H2  UNL     1       7.078   1.711  -1.415  1.00  0.00     0.198 HD
HETATM   29  N3  UNL     1       5.721  -0.905  -0.333  1.00  0.00    -0.234 N 
ATOM     30  H3  UNL     1       5.714  -1.883  -0.044  1.00  0.00     0.197 HD
BRANCH  25  31
HETATM   31  N1  UNL     1       4.498   2.220  -0.964  1.00  0.00    -0.382 N 
ATOM     32  H12 UNL     1       4.840   3.118  -1.306  1.00  0.00     0.157 HD
ATOM     33  H11 UNL     1       3.503   2.317  -0.761  1.00  0.00     0.157 HD
ENDBRANCH  25  31
ENDBRANCH   1  24
TORSDOF 6
