REMARK  6 active torsions:
REMARK  status: ('A' for Active; 'I' for Inactive)
REMARK       I    between atoms: C1_4  and  N2_5 
REMARK       I    between atoms: C1_4  and  N10_30 
REMARK    1  A    between atoms: C4_9  and  O1_10 
REMARK    2  A    between atoms: O1_10  and  C5_11 
REMARK    3  A    between atoms: C5_11  and  C6_12 
REMARK    4  A    between atoms: C6_12  and  N3_13 
REMARK       I    between atoms: N3_13  and  C7_15 
REMARK    5  A    between atoms: C7_15  and  C8_17 
REMARK    6  A    between atoms: N10_30  and  N11_32 
ROOT
HETATM    1  N1  UNL     1       4.962   0.352  -2.446  1.00  0.00    -0.233 N 
ATOM      2  H11 UNL     1       5.678   1.077  -2.500  1.00  0.00     0.174 HD
ATOM      3  H12 UNL     1       4.274   0.317  -3.198  1.00  0.00     0.174 HD
HETATM    4  C1  UNL     1       4.912  -0.493  -1.477  1.00  0.00     0.696 C 
HETATM    5  N2  UNL     1       3.914  -1.504  -1.402  1.00  0.00    -0.178 N 
ATOM      6  H2  UNL     1       4.075  -2.404  -1.854  1.00  0.00     0.185 HD
HETATM    7  C2  UNL     1       2.804  -1.297  -0.768  1.00  0.00     0.119 A 
HETATM    8  C3  UNL     1       2.364  -0.081  -0.050  1.00  0.00     0.164 A 
HETATM    9  C4  UNL     1       1.028  -0.460   0.453  1.00  0.00     0.139 A 
HETATM   10  N8  UNL     1       0.765  -1.642   0.096  1.00  0.00    -0.282 N 
ATOM     11  H8  UNL     1      -0.109  -2.110   0.335  1.00  0.00     0.189 HD
HETATM   12  N9  UNL     1       1.756  -2.247  -0.643  1.00  0.00    -0.286 N 
ATOM     13  H9  UNL     1       1.741  -3.192  -1.026  1.00  0.00     0.188 HD
HETATM   14  N10 UNL     1       5.869  -0.444  -0.430  1.00  0.00    -0.072 N 
ATOM     15  H10 UNL     1       6.466  -1.253  -0.257  1.00  0.00     0.212 HD
ENDROOT
BRANCH   9  16
HETATM   16  O1  UNL     1       0.165   0.326   1.203  1.00  0.00    -0.336 OA
BRANCH  16  17
HETATM   17  C5  UNL     1      -1.240   0.166   1.177  1.00  0.00     0.197 C 
BRANCH  17  18
HETATM   18  C6  UNL     1      -1.836   0.360  -0.165  1.00  0.00     0.149 C 
BRANCH  18  19
HETATM   19  N3  UNL     1      -3.267   0.180  -0.115  1.00  0.00    -0.352 N 
HETATM   20  C7  UNL     1      -4.136   0.992   0.642  1.00  0.00     0.288 C 
HETATM   21  O2  UNL     1      -3.680   1.937   1.315  1.00  0.00    -0.264 OA
ATOM     22  H3  UNL     1      -3.674  -0.580  -0.660  1.00  0.00     0.162 HD
BRANCH  20  23
HETATM   23  C8  UNL     1      -5.584   0.753   0.660  1.00  0.00     0.206 A 
HETATM   24  N4  UNL     1      -6.503   1.458   1.340  1.00  0.00    -0.264 N 
HETATM   25  N5  UNL     1      -7.679   0.939   1.101  1.00  0.00    -0.226 N 
ATOM     26  H4  UNL     1      -6.316   2.261   1.940  1.00  0.00     0.190 HD
HETATM   27  N6  UNL     1      -7.540  -0.074   0.290  1.00  0.00    -0.226 N 
ATOM     28  H5  UNL     1      -8.563   1.272   1.486  1.00  0.00     0.210 HD
HETATM   29  N7  UNL     1      -6.259  -0.210   0.003  1.00  0.00    -0.264 N 
ATOM     30  H6  UNL     1      -8.295  -0.662  -0.063  1.00  0.00     0.210 HD
ATOM     31  H7  UNL     1      -5.852  -0.918  -0.608  1.00  0.00     0.190 HD
ENDBRANCH  20  23
ENDBRANCH  18  19
ENDBRANCH  17  18
ENDBRANCH  16  17
ENDBRANCH   9  16
BRANCH  14  32
HETATM   32  N11 UNL     1       6.006   0.696   0.367  1.00  0.00    -0.024 N 
HETATM   33  O3  UNL     1       5.785   0.615   1.598  1.00  0.00    -0.516 OA
HETATM   34  O4  UNL     1       6.379   1.862  -0.233  1.00  0.00    -0.516 OA
ENDBRANCH  14  32
TORSDOF 6
