REMARK  5 active torsions:
REMARK  status: ('A' for Active; 'I' for Inactive)
REMARK    1  A    between atoms: C4_4  and  C5_5 
REMARK    2  A    between atoms: C5_5  and  N1_6 
REMARK    3  A    between atoms: N1_6  and  N2_8 
REMARK    4  A    between atoms: C6_10  and  N3_11 
REMARK    5  A    between atoms: N3_11  and  C7_13 
ROOT
HETATM    1  N2  UNL     1       0.098  -0.095  -0.787  1.00  0.00    -0.300 N 
ATOM      2  H2  UNL     1       0.815  -0.714  -1.164  1.00  0.00     0.187 HD
HETATM    3  C6  UNL     1      -1.036   0.021  -1.367  1.00  0.00     0.198 C 
ENDROOT
BRANCH   1   4
HETATM    4  N1  UNL     1       0.332   0.641   0.369  1.00  0.00    -0.330 N 
ATOM      5  H1  UNL     1      -0.148   1.528   0.525  1.00  0.00     0.180 HD
BRANCH   4   6
HETATM    6  C5  UNL     1       1.262   0.132   1.343  1.00  0.00     0.196 C 
BRANCH   6   7
HETATM    7  C4  UNL     1       2.588   0.000   0.670  1.00  0.00     0.028 A 
HETATM    8  C3  UNL     1       3.208  -1.160   0.570  1.00  0.00     0.027 A 
HETATM    9  C2  UNL     1       4.499  -1.286  -0.086  1.00  0.00     0.003 A 
HETATM   10  C1  UNL     1       5.061  -0.203  -0.594  1.00  0.00     0.017 A 
HETATM   11  C11 UNL     1       4.341   1.058  -0.460  1.00  0.00     0.088 A 
HETATM   12  N5  UNL     1       3.200   1.153   0.122  1.00  0.00    -0.368 N 
ATOM     13  H5  UNL     1       2.735   2.058   0.189  1.00  0.00     0.165 HD
ENDBRANCH   6   7
ENDBRANCH   4   6
ENDBRANCH   1   4
BRANCH   3  14
HETATM   14  N3  UNL     1      -2.019   0.878  -0.836  1.00  0.00    -0.338 N 
ATOM     15  H3  UNL     1      -1.850   1.884  -0.853  1.00  0.00     0.168 HD
BRANCH  14  16
HETATM   16  C7  UNL     1      -3.238   0.403  -0.277  1.00  0.00     0.105 A 
HETATM   17  C8  UNL     1      -4.254   1.153   0.263  1.00  0.00     0.050 A 
HETATM   18  C9  UNL     1      -5.233   0.302   0.681  1.00  0.00     0.021 A 
HETATM   19  C10 UNL     1      -4.822  -0.984   0.399  1.00  0.00     0.090 A 
HETATM   20  N4  UNL     1      -3.626  -0.889  -0.174  1.00  0.00    -0.352 N 
ATOM     21  H4  UNL     1      -3.074  -1.685  -0.494  1.00  0.00     0.166 HD
ENDBRANCH  14  16
ENDBRANCH   3  14
TORSDOF 5
