REMARK  4 active torsions:
REMARK  status: ('A' for Active; 'I' for Inactive)
REMARK    1  A    between atoms: O1_2  and  C2_3 
REMARK    2  A    between atoms: C3_4  and  O2_5 
REMARK    3  A    between atoms: C11_14  and  O3_15 
REMARK    4  A    between atoms: O3_15  and  C12_16 
REMARK       I    between atoms: C12_16  and  N1_18 
ROOT
HETATM    1  C2  UNL     1      -1.563   1.039  -0.767  1.00  0.00     0.185 C 
HETATM    2  C3  UNL     1      -1.991   0.228  -2.001  1.00  0.00     0.151 C 
HETATM    3  C4  UNL     1      -2.780  -0.852  -1.294  1.00  0.00     0.046 C 
HETATM    4  C5  UNL     1      -1.786  -1.250  -0.230  1.00  0.00    -0.007 C 
HETATM    5  C6  UNL     1      -0.912  -2.333  -0.751  1.00  0.00     0.018 C 
HETATM    6  C7  UNL     1      -2.561  -1.718   0.956  1.00  0.00     0.013 C 
HETATM    7  C8  UNL     1      -2.689  -0.525   1.856  1.00  0.00     0.008 C 
HETATM    8  C9  UNL     1      -1.413   0.248   1.602  1.00  0.00     0.020 C 
HETATM    9  C10 UNL     1      -0.417  -0.221   2.605  1.00  0.00     0.013 C 
HETATM   10  C11 UNL     1      -1.016   0.004   0.169  1.00  0.00     0.111 C 
ENDROOT
BRANCH  10  11
HETATM   11  O3  UNL     1       0.326  -0.302   0.001  1.00  0.00    -0.289 OA
BRANCH  11  12
HETATM   12  C12 UNL     1       1.360   0.589   0.124  1.00  0.00     0.363 C 
HETATM   13  O4  UNL     1       1.011   1.759   0.413  1.00  0.00    -0.238 OA
HETATM   14  N1  UNL     1       2.725   0.267  -0.050  1.00  0.00    -0.324 N 
HETATM   15  C13 UNL     1       3.696   1.317   0.113  1.00  0.00     0.154 C 
HETATM   16  C16 UNL     1       3.097  -1.084  -0.381  1.00  0.00     0.154 C 
HETATM   17  C14 UNL     1       5.044   1.003  -0.408  1.00  0.00     0.187 C 
HETATM   18  O5  UNL     1       5.126  -0.188  -1.113  1.00  0.00    -0.388 OA
HETATM   19  C15 UNL     1       4.598  -1.262  -0.413  1.00  0.00     0.187 C 
ENDBRANCH  11  12
ENDBRANCH  10  11
BRANCH   1  20
HETATM   20  O1  UNL     1      -2.681   1.611  -0.167  1.00  0.00    -0.385 OA
HETATM   21  C1  UNL     1      -2.648   2.997  -0.184  1.00  0.00     0.202 C 
ENDBRANCH   1  20
BRANCH   2  22
HETATM   22  O2  UNL     1      -2.770   0.982  -2.853  1.00  0.00    -0.393 OA
ATOM     23  H2  UNL     1      -3.034   0.481  -3.616  1.00  0.00     0.210 HD
ENDBRANCH   2  22
TORSDOF 4
