REMARK  2 active torsions:
REMARK  status: ('A' for Active; 'I' for Inactive)
REMARK    1  A    between atoms: S1_2  and  C2_3 
REMARK       I    between atoms: N3_10  and  C5_12 
REMARK    2  A    between atoms: C5_12  and  C6_14 
ROOT
HETATM    1  C2  UNL     1       3.871   0.878  -0.572  1.00  0.00     0.160 A 
HETATM    2  N1  UNL     1       4.322   0.420   0.607  1.00  0.00    -0.332 N 
ATOM      3  H1  UNL     1       5.326   0.335   0.766  1.00  0.00     0.168 HD
HETATM    4  C3  UNL     1       3.462   0.074   1.577  1.00  0.00     0.200 A 
HETATM    5  N2  UNL     1       2.137   0.196   1.344  1.00  0.00    -0.187 N 
ATOM      6  H2  UNL     1       1.480  -0.066   2.079  1.00  0.00     0.185 HD
HETATM    7  C4  UNL     1       1.657   0.652   0.173  1.00  0.00     0.687 A 
HETATM    8  N3  UNL     1       0.394   0.780  -0.080  1.00  0.00    -0.158 N 
ATOM      9  H3  UNL     1       0.107   1.133  -0.993  1.00  0.00     0.187 HD
HETATM   10  C5  UNL     1      -0.606   0.445   0.873  1.00  0.00     0.252 C 
HETATM   11  O1  UNL     1      -0.701   1.200   1.887  1.00  0.00    -0.271 OA
HETATM   12  N4  UNL     1       2.553   0.988  -0.773  1.00  0.00    -0.170 N 
ATOM     13  H4  UNL     1       2.217   1.337  -1.671  1.00  0.00     0.186 HD
ENDROOT
BRANCH  10  14
HETATM   14  C6  UNL     1      -1.496  -0.735   0.690  1.00  0.00     0.110 C 
HETATM   15  C7  UNL     1      -0.582  -1.954   0.625  1.00  0.00     0.035 C 
HETATM   16  C8  UNL     1      -2.278  -0.654  -0.535  1.00  0.00     0.048 C 
HETATM   17  C9  UNL     1      -3.608  -0.025  -0.335  1.00  0.00     0.010 C 
HETATM   18  C10 UNL     1      -3.607   1.438  -0.729  1.00  0.00     0.027 C 
HETATM   19  C11 UNL     1      -4.729  -0.707  -1.059  1.00  0.00     0.027 C 
HETATM   20  S2  UNL     1      -3.932  -0.207   1.461  1.00  0.00    -0.082 SA
HETATM   21  C12 UNL     1      -2.333  -0.872   1.883  1.00  0.00     0.204 C 
HETATM   22  O2  UNL     1      -2.040  -1.339   2.962  1.00  0.00    -0.284 OA
ENDBRANCH  10  14
BRANCH   1  23
HETATM   23  S1  UNL     1       5.072   1.318  -1.813  1.00  0.00    -0.098 SA
HETATM   24  C1  UNL     1       6.747   1.053  -1.225  1.00  0.00     0.099 C 
ENDBRANCH   1  23
TORSDOF 2
