REMARK  7 active torsions:
REMARK  status: ('A' for Active; 'I' for Inactive)
REMARK    1  A    between atoms: C2_2  and  C3_3 
REMARK    2  A    between atoms: C3_3  and  N1_4 
REMARK    3  A    between atoms: N1_4  and  C4_6 
REMARK    4  A    between atoms: C4_6  and  C5_7 
REMARK    5  A    between atoms: C5_7  and  C7_9 
REMARK    6  A    between atoms: C7_9  and  N2_10 
REMARK    7  A    between atoms: N2_10  and  C8_12 
ROOT
HETATM    1  C5  UNL     1       0.121   0.599  -0.702  1.00  0.00     0.037 C 
HETATM    2  C6  UNL     1      -0.386   1.947  -1.129  1.00  0.00     0.017 C 
ENDROOT
BRANCH   1   3
HETATM    3  C4  UNL     1       1.529   0.456  -1.330  1.00  0.00     0.128 C 
BRANCH   3   4
HETATM    4  N1  UNL     1       2.075  -0.772  -0.970  1.00  0.00    -0.402 N 
ATOM      5  H1  UNL     1       2.202  -1.480  -1.693  1.00  0.00     0.158 HD
BRANCH   4   6
HETATM    6  C3  UNL     1       2.456  -1.077   0.337  1.00  0.00     0.055 C 
BRANCH   6   7
HETATM    7  C2  UNL     1       3.644  -0.387   0.916  1.00  0.00     0.039 C 
HETATM    8  C1  UNL     1       3.585   1.094   1.011  1.00  0.00     0.010 C 
ENDBRANCH   6   7
ENDBRANCH   4   6
ENDBRANCH   3   4
ENDBRANCH   1   3
BRANCH   1   9
HETATM    9  C7  UNL     1      -0.675  -0.524  -1.248  1.00  0.00     0.061 C 
BRANCH   9  10
HETATM   10  N2  UNL     1      -2.005  -0.716  -0.922  1.00  0.00    -0.397 N 
ATOM     11  H2  UNL     1      -2.710  -0.558  -1.642  1.00  0.00     0.159 HD
BRANCH  10  12
HETATM   12  C8  UNL     1      -2.428  -1.116   0.346  1.00  0.00     0.080 C 
HETATM   13  C9  UNL     1      -2.288  -0.281   1.555  1.00  0.00     0.025 C 
HETATM   14  C10 UNL     1      -3.715   0.256   1.306  1.00  0.00     0.004 C 
HETATM   15  C11 UNL     1      -3.958  -0.953   0.455  1.00  0.00     0.025 C 
ENDBRANCH  10  12
ENDBRANCH   9  10
ENDBRANCH   1   9
TORSDOF 7
