REMARK  2 active torsions:
REMARK  status: ('A' for Active; 'I' for Inactive)
REMARK    1  A    between atoms: C5_10  and  N3_11 
REMARK    2  A    between atoms: N3_11  and  C6_13 
ROOT
HETATM    1  C1  UNL     1       3.374  -1.525  -1.553  1.00  0.00     0.045 C 
HETATM    2  C2  UNL     1       3.308  -0.560  -0.651  1.00  0.00     0.055 A 
HETATM    3  N1  UNL     1       4.303   0.281  -0.316  1.00  0.00    -0.307 N 
ATOM      4  H1  UNL     1       5.243   0.287  -0.713  1.00  0.00     0.170 HD
HETATM    5  C3  UNL     1       3.846   1.102   0.623  1.00  0.00     0.325 A 
HETATM    6  O1  UNL     1       4.503   2.025   1.177  1.00  0.00    -0.247 OA
HETATM    7  N2  UNL     1       2.557   0.772   0.878  1.00  0.00    -0.305 N 
ATOM      8  H2  UNL     1       1.954   1.236   1.557  1.00  0.00     0.171 HD
HETATM    9  C4  UNL     1       2.196  -0.257   0.101  1.00  0.00     0.077 A 
HETATM   10  C5  UNL     1       1.018  -0.854   0.066  1.00  0.00     0.115 C 
ENDROOT
BRANCH  10  11
HETATM   11  N3  UNL     1      -0.067  -0.457   0.891  1.00  0.00    -0.391 N 
ATOM     12  H3  UNL     1      -0.227  -0.942   1.774  1.00  0.00     0.159 HD
BRANCH  11  13
HETATM   13  C6  UNL     1      -0.963   0.636   0.501  1.00  0.00     0.106 C 
HETATM   14  C7  UNL     1      -1.652   0.337  -0.806  1.00  0.00     0.028 C 
HETATM   15  C8  UNL     1      -3.150   0.438  -0.699  1.00  0.00     0.029 C 
HETATM   16  C9  UNL     1      -3.738  -0.420   0.373  1.00  0.00     0.232 C 
HETATM   17  N4  UNL     1      -2.774  -0.573   1.452  1.00  0.00    -0.073 N 
HETATM   18  C10 UNL     1      -2.068   0.693   1.564  1.00  0.00     0.257 C 
ATOM     19  H42 UNL     1      -3.196  -0.877   2.329  1.00  0.00     0.277 HD
ATOM     20  H41 UNL     1      -2.152  -1.371   1.326  1.00  0.00     0.277 HD
ENDBRANCH  11  13
ENDBRANCH  10  11
TORSDOF 2
