REMARK  3 active torsions:
REMARK  status: ('A' for Active; 'I' for Inactive)
REMARK    1  A    between atoms: N1_1  and  C1_4 
REMARK    2  A    between atoms: N5_14  and  C4_16 
REMARK    3  A    between atoms: C4_16  and  C5_17 
ROOT
HETATM    1  C1  UNL     1      -2.595  -0.386  -1.023  1.00  0.00     0.148 A 
HETATM    2  N2  UNL     1      -3.174   0.372  -1.934  1.00  0.00    -0.291 N 
ATOM      3  H2  UNL     1      -3.960   0.018  -2.479  1.00  0.00     0.172 HD
HETATM    4  C2  UNL     1      -2.710   1.625  -2.134  1.00  0.00     0.340 A 
HETATM    5  O1  UNL     1      -3.239   2.376  -2.997  1.00  0.00    -0.245 OA
HETATM    6  N3  UNL     1      -1.685   2.122  -1.439  1.00  0.00    -0.250 N 
ATOM      7  H3  UNL     1      -1.349   3.071  -1.604  1.00  0.00     0.192 HD
HETATM    8  N4  UNL     1      -1.115   1.342  -0.525  1.00  0.00    -0.279 N 
ATOM      9  H4  UNL     1      -0.331   1.720   0.007  1.00  0.00     0.189 HD
HETATM   10  C3  UNL     1      -1.511   0.084  -0.261  1.00  0.00     0.160 A 
HETATM   11  N5  UNL     1      -0.973  -0.689   0.621  1.00  0.00    -0.372 N 
ATOM     12  H5  UNL     1      -1.340  -1.631   0.754  1.00  0.00     0.161 HD
ENDROOT
BRANCH   1  13
HETATM   13  N1  UNL     1      -3.025  -1.576  -0.823  1.00  0.00    -0.382 N 
ATOM     14  H12 UNL     1      -3.811  -1.917  -1.376  1.00  0.00     0.157 HD
ATOM     15  H11 UNL     1      -2.577  -2.162  -0.119  1.00  0.00     0.157 HD
ENDBRANCH   1  13
BRANCH  11  16
HETATM   16  C4  UNL     1       0.123  -0.247   1.409  1.00  0.00     0.126 C 
BRANCH  16  17
HETATM   17  C5  UNL     1       1.456  -0.252   0.692  1.00  0.00     0.003 C 
HETATM   18  C6  UNL     1       2.535   0.238   1.632  1.00  0.00     0.006 C 
HETATM   19  C7  UNL     1       3.334  -1.022   1.393  1.00  0.00     0.001 C 
HETATM   20  C8  UNL     1       2.116  -1.628   0.775  1.00  0.00     0.006 C 
ENDBRANCH  16  17
ENDBRANCH  11  16
TORSDOF 3
