REMARK  2 active torsions:
REMARK  status: ('A' for Active; 'I' for Inactive)
REMARK    1  A    between atoms: C3_6  and  C4_7 
REMARK    2  A    between atoms: C4_7  and  N2_8 
ROOT
HETATM    1  C4  UNL     1      -0.115  -0.837   0.662  1.00  0.00     0.154 C 
ENDROOT
BRANCH   1   2
HETATM    2  C3  UNL     1      -1.155  -0.463  -0.334  1.00  0.00     0.122 C 
HETATM    3  C2  UNL     1      -1.372   0.992  -0.555  1.00  0.00     0.151 C 
HETATM    4  N1  UNL     1      -2.592   1.292   0.194  1.00  0.00    -0.341 N 
HETATM    5  C1  UNL     1      -3.300   0.047   0.367  1.00  0.00     0.316 C 
ATOM      6  H1  UNL     1      -2.887   2.209   0.531  1.00  0.00     0.164 HD
HETATM    7  O1  UNL     1      -4.501   0.022   0.750  1.00  0.00    -0.247 OA
HETATM    8  N4  UNL     1      -2.437  -1.025   0.046  1.00  0.00    -0.335 N 
ATOM      9  H4  UNL     1      -2.673  -2.017   0.076  1.00  0.00     0.164 HD
ENDBRANCH   1   2
BRANCH   1  10
HETATM   10  N2  UNL     1       1.207  -0.394   0.408  1.00  0.00    -0.326 N 
HETATM   11  C5  UNL     1       2.221  -1.109  -0.372  1.00  0.00     0.253 C 
HETATM   12  N3  UNL     1       3.103  -0.055  -0.862  1.00  0.00    -0.337 N 
HETATM   13  C6  UNL     1       2.995   1.016   0.038  1.00  0.00     0.310 C 
ATOM     14  H3  UNL     1       3.686  -0.090  -1.698  1.00  0.00     0.164 HD
HETATM   15  O2  UNL     1       3.803   1.978   0.117  1.00  0.00    -0.262 OA
HETATM   16  C7  UNL     1       1.804   0.812   0.842  1.00  0.00     0.312 C 
HETATM   17  O3  UNL     1       1.392   1.592   1.767  1.00  0.00    -0.262 OA
ENDBRANCH   1  10
TORSDOF 2
