REMARK  3 active torsions:
REMARK  status: ('A' for Active; 'I' for Inactive)
REMARK    1  A    between atoms: C3_5  and  C4_6 
REMARK    2  A    between atoms: C4_6  and  C5_7 
REMARK    3  A    between atoms: C5_7  and  C6_8 
ROOT
HETATM    1  C1  UNL     1       4.933   0.333  -0.365  1.00  0.00     0.049 C 
HETATM    2  C2  UNL     1       3.760  -0.274  -0.385  1.00  0.00     0.093 A 
HETATM    3  N1  UNL     1       2.556   0.158   0.020  1.00  0.00    -0.339 N 
ATOM      4  H1  UNL     1       2.383   1.078   0.425  1.00  0.00     0.167 HD
HETATM    5  C3  UNL     1       1.606  -0.775  -0.175  1.00  0.00     0.104 A 
HETATM    6  N3  UNL     1       2.238  -1.835  -0.725  1.00  0.00    -0.308 N 
ATOM      7  H3  UNL     1       1.795  -2.713  -0.995  1.00  0.00     0.170 HD
HETATM    8  C10 UNL     1       3.542  -1.547  -0.859  1.00  0.00     0.273 A 
HETATM    9  O1  UNL     1       4.395  -2.338  -1.343  1.00  0.00    -0.266 OA
ENDROOT
BRANCH   5  10
HETATM   10  C4  UNL     1       0.322  -0.651   0.122  1.00  0.00     0.024 C 
BRANCH  10  11
HETATM   11  C5  UNL     1      -0.177   0.585   0.718  1.00  0.00     0.064 C 
BRANCH  11  12
HETATM   12  C6  UNL     1      -1.624   0.864   0.477  1.00  0.00     0.189 C 
HETATM   13  C7  UNL     1      -2.549  -0.194   1.009  1.00  0.00     0.035 C 
HETATM   14  C8  UNL     1      -3.866   0.194   0.325  1.00  0.00     0.029 C 
HETATM   15  C9  UNL     1      -3.423   1.050  -0.856  1.00  0.00     0.233 C 
HETATM   16  N2  UNL     1      -1.973   0.904  -0.924  1.00  0.00    -0.071 N 
ATOM     17  H22 UNL     1      -1.489   1.614  -1.474  1.00  0.00     0.277 HD
ATOM     18  H21 UNL     1      -1.640   0.115  -1.479  1.00  0.00     0.277 HD
ENDBRANCH  11  12
ENDBRANCH  10  11
ENDBRANCH   5  10
TORSDOF 3
