REMARK  9 active torsions:
REMARK  status: ('A' for Active; 'I' for Inactive)
REMARK    1  A    between atoms: N1_1  and  N2_4 
REMARK    2  A    between atoms: N2_4  and  N3_5 
REMARK    3  A    between atoms: C2_12  and  N6_13 
REMARK    4  A    between atoms: N7_16  and  C3_17 
REMARK    5  A    between atoms: C3_17  and  C4_18 
REMARK    6  A    between atoms: C4_18  and  C5_19 
REMARK    7  A    between atoms: C5_19  and  C6_20 
REMARK    8  A    between atoms: C6_20  and  C7_21 
REMARK    9  A    between atoms: C7_21  and  N8_22 
ROOT
HETATM    1  N3  UNL     1      -2.531  -0.077  -0.367  1.00  0.00     0.012 N 
HETATM    2  C1  UNL     1      -3.747  -0.434   0.064  1.00  0.00     0.726 A 
HETATM    3  N4  UNL     1      -4.844  -0.685  -0.540  1.00  0.00    -0.231 N 
ATOM      4  H41 UNL     1      -5.771  -0.957  -0.212  1.00  0.00     0.174 HD
ATOM      5  H42 UNL     1      -4.879  -0.621  -1.557  1.00  0.00     0.174 HD
HETATM    6  N5  UNL     1      -3.699  -0.520   1.441  1.00  0.00    -0.019 N 
ATOM      7  H5  UNL     1      -4.459  -0.769   2.074  1.00  0.00     0.203 HD
HETATM    8  C2  UNL     1      -2.442  -0.206   1.766  1.00  0.00     0.709 A 
HETATM    9  N7  UNL     1      -1.708   0.067   0.700  1.00  0.00    -0.089 N 
ENDROOT
BRANCH   9  10
HETATM   10  C3  UNL     1      -0.297   0.451   0.632  1.00  0.00     0.170 C 
BRANCH  10  11
HETATM   11  C4  UNL     1       0.604  -0.727   0.510  1.00  0.00     0.022 C 
BRANCH  11  12
HETATM   12  C5  UNL     1       2.044  -0.272   0.451  1.00  0.00     0.003 C 
BRANCH  12  13
HETATM   13  C6  UNL     1       2.349   0.632  -0.713  1.00  0.00     0.027 C 
BRANCH  13  14
HETATM   14  C7  UNL     1       3.818   0.996  -0.638  1.00  0.00     0.229 C 
BRANCH  14  15
HETATM   15  N8  UNL     1       4.635  -0.198  -0.711  1.00  0.00    -0.079 N 
ATOM     16  H83 UNL     1       4.375  -0.881   0.001  1.00  0.00     0.274 HD
ATOM     17  H82 UNL     1       4.423  -0.755  -1.539  1.00  0.00     0.274 HD
ATOM     18  H81 UNL     1       5.624   0.047  -0.661  1.00  0.00     0.274 HD
ENDBRANCH  14  15
ENDBRANCH  13  14
ENDBRANCH  12  13
ENDBRANCH  11  12
ENDBRANCH  10  11
ENDBRANCH   9  10
BRANCH   1  19
HETATM   19  N2  UNL     1      -2.083   0.136  -1.655  1.00  0.00     0.010 NA
BRANCH  19  20
HETATM   20  N1  UNL     1      -3.070  -0.062  -2.584  1.00  0.00    -0.326 N 
ATOM     21  H12 UNL     1      -4.021  -0.335  -2.337  1.00  0.00     0.174 HD
ATOM     22  H11 UNL     1      -2.739   0.095  -3.536  1.00  0.00     0.174 HD
ENDBRANCH  19  20
ENDBRANCH   1  19
BRANCH   8  23
HETATM   23  N6  UNL     1      -1.983  -0.170   2.981  1.00  0.00    -0.233 N 
ATOM     24  H62 UNL     1      -2.549  -0.381   3.803  1.00  0.00     0.174 HD
ATOM     25  H61 UNL     1      -1.023   0.070   3.229  1.00  0.00     0.174 HD
ENDBRANCH   8  23
TORSDOF 9
