REMARK  5 active torsions:
REMARK  status: ('A' for Active; 'I' for Inactive)
REMARK    1  A    between atoms: C3_8  and  N4_9 
REMARK    2  A    between atoms: N4_9  and  N5_11 
REMARK    3  A    between atoms: N5_11  and  N6_12 
REMARK    4  A    between atoms: N6_12  and  C4_13 
REMARK    5  A    between atoms: C4_13  and  C5_14 
ROOT
HETATM    1  N1  UNL     1      -5.904  -1.019  -0.691  1.00  0.00    -0.190 NA
HETATM    2  C1  UNL     1      -4.741  -0.964  -0.557  1.00  0.00     0.121 C 
HETATM    3  C2  UNL     1      -3.313  -0.916  -0.379  1.00  0.00     0.156 A 
HETATM    4  N2  UNL     1      -2.418  -1.905  -0.589  1.00  0.00    -0.287 N 
ATOM      5  H2  UNL     1      -2.654  -2.843  -0.911  1.00  0.00     0.188 HD
HETATM    6  N3  UNL     1      -1.198  -1.490  -0.320  1.00  0.00    -0.282 N 
ATOM      7  H3  UNL     1      -0.358  -2.063  -0.406  1.00  0.00     0.188 HD
HETATM    8  C3  UNL     1      -1.211  -0.212   0.082  1.00  0.00     0.160 A 
HETATM    9  C6  UNL     1      -2.543   0.171   0.051  1.00  0.00     0.131 A 
HETATM   10  N8  UNL     1      -3.077   1.436   0.389  1.00  0.00    -0.095 NA
ENDROOT
BRANCH   8  11
HETATM   11  N4  UNL     1      -0.126   0.636   0.472  1.00  0.00    -0.270 N 
ATOM     12  H4  UNL     1       0.175   0.675   1.446  1.00  0.00     0.185 HD
BRANCH  11  13
HETATM   13  N5  UNL     1       0.512   1.405  -0.491  1.00  0.00    -0.029 NA
BRANCH  13  14
HETATM   14  N6  UNL     1       1.898   1.410  -0.297  1.00  0.00    -0.117 NA
BRANCH  14  15
HETATM   15  C4  UNL     1       2.359   0.044  -0.047  1.00  0.00     0.231 C 
BRANCH  15  16
HETATM   16  C5  UNL     1       3.831   0.016   0.164  1.00  0.00     0.247 C 
HETATM   17  N7  UNL     1       4.530  -1.172   0.422  1.00  0.00    -0.061 NA
HETATM   18  O1  UNL     1       4.473   1.102   0.107  1.00  0.00    -0.275 OA
ENDBRANCH  15  16
ENDBRANCH  14  15
ENDBRANCH  13  14
ENDBRANCH  11  13
ENDBRANCH   8  11
TORSDOF 5
