REMARK  6 active torsions:
REMARK  status: ('A' for Active; 'I' for Inactive)
REMARK    1  A    between atoms: C2_2  and  O1_3 
REMARK    2  A    between atoms: C2_2  and  O2_5 
REMARK    3  A    between atoms: C2_2  and  C3_7 
REMARK    4  A    between atoms: C3_7  and  S1_8 
REMARK    5  A    between atoms: S1_8  and  C4_9 
REMARK    6  A    between atoms: C4_9  and  C5_10 
ROOT
HETATM    1  C4  UNL     1      -1.351  -0.375   0.049  1.00  0.00     0.261 C 
HETATM    2  N2  UNL     1      -2.046  -0.201  -1.181  1.00  0.00    -0.078 NA
HETATM    3  N3  UNL     1      -3.335  -0.678  -0.982  1.00  0.00    -0.018 NA
HETATM    4  N4  UNL     1      -3.317  -1.509   0.132  1.00  0.00    -0.018 NA
HETATM    5  N5  UNL     1      -2.008  -1.555   0.619  1.00  0.00    -0.078 NA
ENDROOT
BRANCH   1   6
HETATM    6  S1  UNL     1       0.384  -0.741  -0.095  1.00  0.00    -0.108 SA
BRANCH   6   7
HETATM    7  C3  UNL     1       1.336   0.558  -0.908  1.00  0.00     0.145 C 
BRANCH   7   8
HETATM    8  C2  UNL     1       2.801   0.151  -0.976  1.00  0.00     0.164 C 
HETATM    9  C1  UNL     1       3.389  -0.074   0.394  1.00  0.00     0.079 C 
BRANCH   8  10
HETATM   10  O1  UNL     1       2.958  -0.994  -1.766  1.00  0.00    -0.365 OA
ATOM     11  H1  UNL     1       2.588  -0.852  -2.629  1.00  0.00     0.213 HD
ENDBRANCH   8  10
BRANCH   8  12
HETATM   12  O2  UNL     1       3.517   1.220  -1.554  1.00  0.00    -0.365 OA
ATOM     13  H2  UNL     1       3.147   1.362  -2.417  1.00  0.00     0.213 HD
ENDBRANCH   8  12
ENDBRANCH   7   8
ENDBRANCH   6   7
ENDBRANCH   1   6
BRANCH   1  14
HETATM   14  C5  UNL     1      -1.658   0.763   0.949  1.00  0.00     0.285 C 
HETATM   15  N1  UNL     1      -1.095   0.844   2.240  1.00  0.00    -0.058 NA
HETATM   16  O3  UNL     1      -2.425   1.684   0.585  1.00  0.00    -0.272 OA
ENDBRANCH   1  14
TORSDOF 6
