REMARK  7 active torsions:
REMARK  status: ('A' for Active; 'I' for Inactive)
REMARK    1  A    between atoms: N1_2  and  N2_4 
REMARK    2  A    between atoms: C3_9  and  N4_10 
REMARK    3  A    between atoms: C4_15  and  N6_16 
REMARK    4  A    between atoms: N6_16  and  C5_18 
REMARK    5  A    between atoms: C5_18  and  C6_19 
REMARK    6  A    between atoms: C6_19  and  N7_20 
REMARK    7  A    between atoms: N7_20  and  N8_21 
ROOT
HETATM    1  N2  UNL     1      -1.577   0.382  -0.477  1.00  0.00    -0.035 N 
HETATM    2  C2  UNL     1      -2.777  -0.166  -0.554  1.00  0.00     0.374 A 
HETATM    3  O1  UNL     1      -3.765   0.412  -1.112  1.00  0.00    -0.244 OA
HETATM    4  N3  UNL     1      -3.087  -1.396  -0.051  1.00  0.00    -0.139 N 
ATOM      5  H3  UNL     1      -4.029  -1.777  -0.136  1.00  0.00     0.189 HD
HETATM    6  C3  UNL     1      -2.112  -2.089   0.559  1.00  0.00     0.694 A 
HETATM    7  N5  UNL     1      -0.881  -1.570   0.658  1.00  0.00    -0.021 N 
ATOM      8  H5  UNL     1      -0.142  -2.099   1.121  1.00  0.00     0.203 HD
HETATM    9  C4  UNL     1      -0.616  -0.356   0.150  1.00  0.00     0.718 A 
ENDROOT
BRANCH   9  10
HETATM   10  N6  UNL     1       0.559   0.169   0.231  1.00  0.00    -0.222 N 
ATOM     11  H6  UNL     1       0.741   1.093  -0.161  1.00  0.00     0.177 HD
BRANCH  10  12
HETATM   12  C5  UNL     1       1.601  -0.562   0.877  1.00  0.00     0.156 C 
BRANCH  12  13
HETATM   13  C6  UNL     1       2.922   0.169   0.847  1.00  0.00     0.154 C 
BRANCH  13  14
HETATM   14  N7  UNL     1       3.389   0.431  -0.488  1.00  0.00    -0.147 NA
BRANCH  14  15
HETATM   15  N8  UNL     1       4.610   1.108  -0.380  1.00  0.00    -0.348 N 
ATOM     16  H82 UNL     1       5.071   1.362   0.494  1.00  0.00     0.172 HD
ATOM     17  H81 UNL     1       4.941   1.294  -1.327  1.00  0.00     0.172 HD
ENDBRANCH  14  15
ENDBRANCH  13  14
ENDBRANCH  12  13
ENDBRANCH  10  12
ENDBRANCH   9  10
BRANCH   1  18
HETATM   18  N1  UNL     1      -1.303   1.636  -1.003  1.00  0.00    -0.316 N 
HETATM   19  C1  UNL     1      -2.243   2.486  -1.677  1.00  0.00     0.169 C 
ATOM     20  H1  UNL     1      -0.350   1.985  -0.902  1.00  0.00     0.180 HD
ENDBRANCH   1  18
BRANCH   6  21
HETATM   21  N4  UNL     1      -2.399  -3.271   1.046  1.00  0.00    -0.234 N 
ATOM     22  H42 UNL     1      -3.336  -3.666   0.971  1.00  0.00     0.174 HD
ATOM     23  H41 UNL     1      -1.658  -3.797   1.509  1.00  0.00     0.174 HD
ENDBRANCH   6  21
TORSDOF 7
