REMARK  11 active torsions:
REMARK  status: ('A' for Active; 'I' for Inactive)
REMARK    1  A    between atoms: S1_2  and  C2_4 
REMARK    2  A    between atoms: S1_2  and  C11_16 
REMARK    3  A    between atoms: C2_4  and  C3_5 
REMARK    4  A    between atoms: C3_5  and  C4_6 
REMARK    5  A    between atoms: C4_6  and  C5_7 
REMARK    6  A    between atoms: C5_7  and  N1_8 
REMARK    7  A    between atoms: N2_11  and  C8_12 
REMARK    8  A    between atoms: C11_16  and  C12_17 
REMARK    9  A    between atoms: C12_17  and  C13_18 
REMARK   10  A    between atoms: C13_18  and  O3_19 
REMARK   11  A    between atoms: N3_21  and  O4_23 
ROOT
HETATM    1  C1  UNL     1      -1.168   2.987  -0.575  1.00  0.00     0.113 C 
HETATM    2  S1  UNL     1      -1.496   1.192  -0.761  1.00  0.00    -0.058 S 
HETATM    3  O1  UNL     1      -0.908   0.412  -2.518  1.00  0.00    -0.270 OA
ENDROOT
BRANCH   2   4
HETATM    4  C2  UNL     1       0.268   0.647  -0.287  1.00  0.00     0.096 C 
BRANCH   4   5
HETATM    5  C3  UNL     1       1.393   1.380  -0.974  1.00  0.00     0.013 C 
BRANCH   5   6
HETATM    6  C4  UNL     1       2.708   0.854  -0.489  1.00  0.00     0.031 C 
BRANCH   6   7
HETATM    7  C5  UNL     1       2.957  -0.589  -0.755  1.00  0.00     0.272 C 
BRANCH   7   8
HETATM    8  N1  UNL     1       4.271  -0.994  -0.263  1.00  0.00     0.091 N 
HETATM    9  C6  UNL     1       5.347  -0.387  -1.024  1.00  0.00     0.292 C 
HETATM   10  C7  UNL     1       6.629  -1.114  -0.601  1.00  0.00     0.155 C 
HETATM   11  N2  UNL     1       6.717  -1.011   0.830  1.00  0.00    -0.356 N 
HETATM   12  C9  UNL     1       5.629  -1.475   1.647  1.00  0.00     0.155 C 
HETATM   13  C10 UNL     1       4.390  -0.716   1.152  1.00  0.00     0.292 C 
BRANCH  11  14
HETATM   14  C8  UNL     1       7.862  -0.459   1.430  1.00  0.00     0.350 C 
HETATM   15  O2  UNL     1       7.955  -0.363   2.675  1.00  0.00    -0.284 OA
ENDBRANCH  11  14
ENDBRANCH   7   8
ENDBRANCH   6   7
ENDBRANCH   5   6
ENDBRANCH   4   5
ENDBRANCH   2   4
BRANCH   2  16
HETATM   16  C11 UNL     1      -2.347   0.034   0.373  1.00  0.00     0.113 C 
BRANCH  16  17
HETATM   17  C12 UNL     1      -3.848   0.025   0.569  1.00  0.00     0.036 C 
HETATM   18  C14 UNL     1      -4.600  -0.254  -0.711  1.00  0.00     0.019 C 
HETATM   19  C15 UNL     1      -4.562  -1.737  -1.015  1.00  0.00     0.001 C 
HETATM   20  C16 UNL     1      -5.573  -2.388  -0.073  1.00  0.00     0.000 C 
HETATM   21  C17 UNL     1      -5.547  -1.701   1.248  1.00  0.00     0.001 C 
HETATM   22  C18 UNL     1      -4.252  -1.026   1.582  1.00  0.00     0.019 C 
BRANCH  17  23
HETATM   23  C13 UNL     1      -4.366   1.321   1.082  1.00  0.00     0.145 C 
HETATM   24  N3  UNL     1      -4.908   1.451   2.232  1.00  0.00    -0.250 N 
ATOM     25  H3  UNL     1      -5.001   0.641   2.845  1.00  0.00     0.196 HD
BRANCH  23  26
HETATM   26  O3  UNL     1      -4.240   2.417   0.255  1.00  0.00    -0.347 OA
ATOM     27  H3  UNL     1      -4.571   3.245   0.583  1.00  0.00     0.219 HD
ENDBRANCH  23  26
BRANCH  24  28
HETATM   28  O4  UNL     1      -5.358   2.658   2.637  1.00  0.00    -0.288 OA
ATOM     29  H4  UNL     1      -5.761   2.755   3.492  1.00  0.00     0.244 HD
ENDBRANCH  24  28
ENDBRANCH  17  23
ENDBRANCH  16  17
ENDBRANCH   2  16
TORSDOF 11
