REMARK  11 active torsions:
REMARK  status: ('A' for Active; 'I' for Inactive)
REMARK    1  A    between atoms: C2_2  and  O1_3 
REMARK    2  A    between atoms: O1_3  and  C3_4 
REMARK    3  A    between atoms: C3_4  and  C4_6 
REMARK    4  A    between atoms: C4_6  and  C5_7 
REMARK    5  A    between atoms: C5_7  and  C6_8 
REMARK    6  A    between atoms: C6_8  and  N1_9 
REMARK    7  A    between atoms: C6_8  and  C19_26 
REMARK       I    between atoms: N1_9  and  C7_11 
REMARK    8  A    between atoms: C7_11  and  C8_13 
REMARK    9  A    between atoms: C8_13  and  O4_15 
REMARK   10  A    between atoms: O4_15  and  C10_16 
REMARK   11  A    between atoms: C10_16  and  C11_18 
ROOT
HETATM    1  N1  UNL     1       1.709   0.485   1.032  1.00  0.00    -0.344 N 
ATOM      2  H1  UNL     1       1.825   1.473   0.805  1.00  0.00     0.163 HD
HETATM    3  C7  UNL     1       0.473  -0.125   0.724  1.00  0.00     0.247 C 
HETATM    4  O3  UNL     1       0.285  -1.334   0.985  1.00  0.00    -0.271 OA
ENDROOT
BRANCH   3   5
HETATM    5  C8  UNL     1      -0.611   0.651   0.094  1.00  0.00     0.219 C 
HETATM    6  C9  UNL     1      -1.081   1.771   1.031  1.00  0.00     0.050 C 
BRANCH   5   7
HETATM    7  O4  UNL     1      -1.736  -0.178  -0.111  1.00  0.00    -0.306 OA
BRANCH   7   8
HETATM    8  C10 UNL     1      -2.354  -0.355  -1.336  1.00  0.00     0.264 C 
HETATM    9  O5  UNL     1      -1.851   0.281  -2.309  1.00  0.00    -0.265 OA
BRANCH   8  10
HETATM   10  C11 UNL     1      -3.537  -1.230  -1.535  1.00  0.00     0.095 A 
HETATM   11  C12 UNL     1      -3.615  -2.431  -0.617  1.00  0.00     0.025 A 
HETATM   12  C13 UNL     1      -4.547  -1.282  -0.450  1.00  0.00    -0.027 A 
HETATM   13  C14 UNL     1      -4.393  -0.303   0.654  1.00  0.00     0.010 C 
HETATM   14  C18 UNL     1      -5.983  -1.590  -0.744  1.00  0.00     0.010 C 
HETATM   15  C15 UNL     1      -5.709  -0.021   1.295  1.00  0.00     0.001 C 
HETATM   16  C16 UNL     1      -6.641   0.595   0.267  1.00  0.00     0.000 C 
HETATM   17  C17 UNL     1      -6.825  -0.343  -0.911  1.00  0.00     0.001 C 
ENDBRANCH   8  10
ENDBRANCH   7   8
ENDBRANCH   5   7
ENDBRANCH   3   5
BRANCH   1  18
HETATM   18  C6  UNL     1       2.814  -0.202   1.646  1.00  0.00     0.186 C 
BRANCH  18  19
HETATM   19  C5  UNL     1       3.995  -0.245   0.698  1.00  0.00     0.046 C 
BRANCH  19  20
HETATM   20  C4  UNL     1       4.444   1.132   0.336  1.00  0.00     0.113 C 
BRANCH  20  21
HETATM   21  C3  UNL     1       5.595   1.082  -0.588  1.00  0.00     0.258 C 
HETATM   22  O2  UNL     1       6.127   2.141  -1.016  1.00  0.00    -0.265 OA
BRANCH  21  23
HETATM   23  O1  UNL     1       6.093  -0.145  -0.985  1.00  0.00    -0.322 OA
BRANCH  23  24
HETATM   24  C2  UNL     1       7.197  -0.167  -1.871  1.00  0.00     0.174 C 
HETATM   25  C1  UNL     1       8.344   0.535  -1.219  1.00  0.00     0.034 C 
ENDBRANCH  23  24
ENDBRANCH  21  23
ENDBRANCH  20  21
ENDBRANCH  19  20
ENDBRANCH  18  19
BRANCH  18  26
HETATM   26  C19 UNL     1       3.257   0.440   2.888  1.00  0.00     0.196 C 
HETATM   27  O6  UNL     1       2.739   1.477   3.374  1.00  0.00    -0.646 OA
HETATM   28  O7  UNL     1       4.318  -0.120   3.587  1.00  0.00    -0.646 OA
ENDBRANCH  18  26
ENDBRANCH   1  18
TORSDOF 11
