REMARK  14 active torsions:
REMARK  status: ('A' for Active; 'I' for Inactive)
REMARK    1  A    between atoms: C3_3  and  O1_6 
REMARK    2  A    between atoms: O1_6  and  C6_7 
REMARK    3  A    between atoms: C6_7  and  C7_9 
REMARK    4  A    between atoms: C7_9  and  O3_10 
REMARK    5  A    between atoms: O3_10  and  C8_11 
REMARK    6  A    between atoms: C8_11  and  C9_13 
REMARK    7  A    between atoms: C9_13  and  C10_14 
REMARK    8  A    between atoms: C10_14  and  C11_15 
REMARK    9  A    between atoms: C11_15  and  C12_16 
REMARK   10  A    between atoms: C12_16  and  O6_18 
REMARK   11  A    between atoms: O6_18  and  N1_19 
REMARK       I    between atoms: N1_19  and  C13_21 
REMARK       I    between atoms: C13_21  and  N3_28 
REMARK   12  A    between atoms: N2_22  and  C14_24 
REMARK   13  A    between atoms: C14_24  and  C15_25 
REMARK   14  A    between atoms: C15_25  and  C16_26 
ROOT
HETATM    1  C1  UNL     1       7.390  -1.608  -1.157  1.00  0.00     0.015 C 
HETATM    2  C2  UNL     1       6.772  -1.228  -0.195  1.00  0.00    -0.079 C 
HETATM    3  C3  UNL     1       6.000  -0.774   0.957  1.00  0.00     0.125 C 
HETATM    4  C4  UNL     1       6.871  -0.780   2.166  1.00  0.00     0.061 C 
HETATM    5  C5  UNL     1       4.887  -1.787   1.171  1.00  0.00     0.061 C 
ENDROOT
BRANCH   3   6
HETATM    6  O1  UNL     1       5.374   0.461   0.702  1.00  0.00    -0.296 OA
BRANCH   6   7
HETATM    7  C6  UNL     1       6.062   1.633   0.378  1.00  0.00     0.284 C 
HETATM    8  O2  UNL     1       7.315   1.525   0.323  1.00  0.00    -0.263 OA
BRANCH   7   9
HETATM    9  C7  UNL     1       5.406   2.925   0.111  1.00  0.00     0.289 C 
BRANCH   9  10
HETATM   10  O3  UNL     1       4.019   2.893   0.201  1.00  0.00    -0.312 OA
BRANCH  10  11
HETATM   11  C8  UNL     1       3.176   2.127  -0.550  1.00  0.00     0.259 C 
HETATM   12  O4  UNL     1       3.654   1.361  -1.422  1.00  0.00    -0.265 OA
BRANCH  11  13
HETATM   13  C9  UNL     1       1.679   2.131  -0.409  1.00  0.00     0.111 C 
BRANCH  13  14
HETATM   14  C10 UNL     1       1.348   0.947   0.463  1.00  0.00     0.019 C 
BRANCH  14  15
HETATM   15  C11 UNL     1      -0.099   0.757   0.741  1.00  0.00     0.113 C 
BRANCH  15  16
HETATM   16  C12 UNL     1      -0.933   0.520  -0.464  1.00  0.00     0.281 C 
HETATM   17  O5  UNL     1      -0.473   0.447  -1.632  1.00  0.00    -0.263 OA
BRANCH  16  18
HETATM   18  O6  UNL     1      -2.325   0.362  -0.345  1.00  0.00    -0.185 OA
BRANCH  18  19
HETATM   19  N1  UNL     1      -3.063   0.144  -1.479  1.00  0.00    -0.088 N 
HETATM   20  C13 UNL     1      -4.429   0.543  -1.504  1.00  0.00     0.693 C 
HETATM   21  N2  UNL     1      -5.360  -0.348  -1.594  1.00  0.00    -0.225 N 
HETATM   22  N3  UNL     1      -4.710   1.935  -1.427  1.00  0.00    -0.229 N 
ATOM     23  H2  UNL     1      -6.339  -0.061  -1.613  1.00  0.00     0.177 HD
HETATM   24  C18 UNL     1      -5.010   2.621  -0.188  1.00  0.00     0.165 C 
ATOM     25  H3  UNL     1      -4.700   2.479  -2.290  1.00  0.00     0.177 HD
ATOM     26  H1  UNL     1      -2.639  -0.298  -2.294  1.00  0.00     0.213 HD
BRANCH  21  27
HETATM   27  C14 UNL     1      -5.020  -1.741  -1.668  1.00  0.00     0.138 C 
BRANCH  27  28
HETATM   28  C15 UNL     1      -6.292  -2.540  -1.647  1.00  0.00     0.020 C 
BRANCH  28  29
HETATM   29  C16 UNL     1      -7.110  -2.330  -0.408  1.00  0.00    -0.003 C 
HETATM   30  C17 UNL     1      -6.408  -2.698   0.856  1.00  0.00     0.005 C 
ENDBRANCH  28  29
ENDBRANCH  27  28
ENDBRANCH  21  27
ENDBRANCH  18  19
ENDBRANCH  16  18
ENDBRANCH  15  16
ENDBRANCH  14  15
ENDBRANCH  13  14
ENDBRANCH  11  13
ENDBRANCH  10  11
ENDBRANCH   9  10
ENDBRANCH   7   9
ENDBRANCH   6   7
ENDBRANCH   3   6
TORSDOF 14
