REMARK  1 active torsions:
REMARK  status: ('A' for Active; 'I' for Inactive)
REMARK    1  A    between atoms: C2_2  and  C3_3 
ROOT
HETATM    1  C3  UNL     1       1.214  -0.585   0.049  1.00  0.00     0.177 C 
HETATM    2  N1  UNL     1       0.346  -1.261  -1.047  1.00  0.00    -0.359 N 
ATOM      3  H1  UNL     1       0.643  -1.807  -1.856  1.00  0.00     0.162 HD
HETATM    4  C4  UNL     1      -0.954  -0.925  -0.636  1.00  0.00     0.076 C 
HETATM    5  N2  UNL     1      -1.980  -1.544  -0.338  1.00  0.00    -0.380 N 
ATOM      6  H2  UNL     1      -2.102  -2.556  -0.382  1.00  0.00     0.160 HD
HETATM    7  C5  UNL     1      -3.027  -0.543   0.104  1.00  0.00     0.123 C 
HETATM    8  C6  UNL     1      -2.180   0.046   1.322  1.00  0.00     0.045 C 
HETATM    9  C7  UNL     1      -0.848   0.650   0.881  1.00  0.00     0.087 C 
HETATM   10  C8  UNL     1      -1.086   0.619  -0.680  1.00  0.00     0.100 C 
HETATM   11  N3  UNL     1       0.363  -0.039   1.064  1.00  0.00    -0.397 N 
ATOM     12  H3  UNL     1       0.671  -0.165   2.028  1.00  0.00     0.155 HD
ENDROOT
BRANCH   1  13
HETATM   13  C2  UNL     1       2.247   0.187  -0.605  1.00  0.00     0.042 C 
HETATM   14  C1  UNL     1       3.173   0.922   0.366  1.00  0.00     0.009 C 
ENDBRANCH   1  13
TORSDOF 1
