REMARK  1 active torsions:
REMARK  status: ('A' for Active; 'I' for Inactive)
REMARK    1  A    between atoms: N1_2  and  N2_3 
REMARK       I    between atoms: N2_3  and  C2_5 
ROOT
HETATM    1  N2  UNL     1       2.028   0.875   0.158  1.00  0.00    -0.137 N 
ATOM      2  H2  UNL     1       2.265   1.752  -0.306  1.00  0.00     0.201 HD
HETATM    3  C2  UNL     1       0.682   0.407   0.136  1.00  0.00     0.685 C 
HETATM    4  N3  UNL     1       0.650  -0.853  -0.123  1.00  0.00    -0.225 N 
ATOM      5  H3  UNL     1       1.578  -1.254  -0.258  1.00  0.00     0.177 HD
HETATM    6  C3  UNL     1      -0.414  -1.832  -0.266  1.00  0.00     0.138 C 
HETATM    7  C4  UNL     1      -1.566  -1.150  -0.981  1.00  0.00     0.020 C 
HETATM    8  C5  UNL     1      -2.564  -0.652   0.051  1.00  0.00     0.003 C 
HETATM    9  C6  UNL     1      -2.669   0.847  -0.010  1.00  0.00     0.020 C 
HETATM   10  C7  UNL     1      -1.637   1.451   0.914  1.00  0.00     0.138 C 
HETATM   11  N4  UNL     1      -0.306   1.400   0.396  1.00  0.00    -0.225 N 
ATOM     12  H4  UNL     1       0.028   2.330   0.143  1.00  0.00     0.177 HD
ENDROOT
BRANCH   1  13
HETATM   13  N1  UNL     1       3.021   0.149   0.806  1.00  0.00    -0.131 NA
HETATM   14  C1  UNL     1       4.145  -0.140  -0.093  1.00  0.00     0.159 C 
ENDBRANCH   1  13
TORSDOF 1
