REMARK  1 active torsions:
REMARK  status: ('A' for Active; 'I' for Inactive)
REMARK    1  A    between atoms: C2_2  and  C3_3 
ROOT
HETATM    1  C1  UNL     1       0.444  -1.317  -0.544  1.00  0.00     0.040 C 
HETATM    2  C2  UNL     1      -0.286  -0.028  -0.217  1.00  0.00     0.046 C 
HETATM    3  C4  UNL     1      -0.029   0.924  -1.368  1.00  0.00     0.113 C 
HETATM    4  S2  UNL     1       1.710   1.383  -0.985  1.00  0.00    -0.092 SA
HETATM    5  C5  UNL     1       1.654   0.940   0.770  1.00  0.00     0.134 C 
HETATM    6  N1  UNL     1       2.616   1.002   1.627  1.00  0.00    -0.380 N 
ATOM      7  H11 UNL     1       2.584   0.752   2.616  1.00  0.00     0.158 HD
ATOM      8  H12 UNL     1       3.579   1.307   1.485  1.00  0.00     0.158 HD
HETATM    9  N2  UNL     1       0.316   0.516   0.967  1.00  0.00    -0.361 N 
ATOM     10  H2  UNL     1      -0.170   0.590   1.861  1.00  0.00     0.162 HD
ENDROOT
BRANCH   2  11
HETATM   11  C3  UNL     1      -1.754  -0.251  -0.006  1.00  0.00     0.117 C 
HETATM   12  S1  UNL     1      -2.563   1.318   0.378  1.00  0.00    -0.095 SA
ENDBRANCH   2  11
TORSDOF 1
