REMARK  3 active torsions:
REMARK  status: ('A' for Active; 'I' for Inactive)
REMARK    1  A    between atoms: C7_7  and  N1_9 
REMARK    2  A    between atoms: N1_9  and  N2_10 
REMARK    3  A    between atoms: N2_10  and  N3_11 
ROOT
HETATM    1  C1  UNL     1       0.181  -2.026   0.633  1.00  0.00     0.012 C 
HETATM    2  C2  UNL     1      -0.474  -0.878  -0.130  1.00  0.00     0.007 C 
HETATM    3  C3  UNL     1      -1.884  -0.813   0.391  1.00  0.00     0.006 C 
HETATM    4  C4  UNL     1      -2.689   0.319  -0.105  1.00  0.00     0.001 C 
HETATM    5  C5  UNL     1      -1.867   1.449  -0.616  1.00  0.00     0.002 C 
HETATM    6  C6  UNL     1      -0.567   1.611   0.125  1.00  0.00     0.028 C 
HETATM    7  C7  UNL     1       0.306   0.378   0.041  1.00  0.00     0.048 C 
HETATM    8  C8  UNL     1       1.093   0.290   1.315  1.00  0.00     0.036 C 
ENDROOT
BRANCH   7   9
HETATM    9  N1  UNL     1       1.186   0.574  -1.110  1.00  0.00    -0.116 NA
BRANCH   9  10
HETATM   10  N2  UNL     1       2.089  -0.462  -1.274  1.00  0.00    -0.038 NA
BRANCH  10  11
HETATM   11  N3  UNL     1       3.420  -0.069  -1.009  1.00  0.00    -0.332 N 
ATOM     12  H32 UNL     1       3.672   0.879  -0.728  1.00  0.00     0.173 HD
ATOM     13  H31 UNL     1       4.085  -0.832  -1.130  1.00  0.00     0.173 HD
ENDBRANCH  10  11
ENDBRANCH   9  10
ENDBRANCH   7   9
TORSDOF 3
