REMARK  2 active torsions:
REMARK  status: ('A' for Active; 'I' for Inactive)
REMARK    1  A    between atoms: N1_2  and  C2_5 
REMARK    2  A    between atoms: C5_8  and  C6_9 
ROOT
HETATM    1  C2  UNL     1      -1.045   0.328   0.047  1.00  0.00     0.230 C 
HETATM    2  C3  UNL     1      -0.149  -0.486  -0.841  1.00  0.00     0.040 C 
HETATM    3  C4  UNL     1       1.114  -0.902  -0.114  1.00  0.00     0.013 C 
HETATM    4  C5  UNL     1       1.788   0.204   0.629  1.00  0.00     0.029 C 
HETATM    5  C7  UNL     1       0.856   1.029   1.494  1.00  0.00     0.064 C 
HETATM    6  C8  UNL     1      -0.479   0.374   1.407  1.00  0.00     0.011 C 
HETATM    7  N3  UNL     1      -1.038  -0.095   2.452  1.00  0.00    -0.404 N 
ATOM      8  H31 UNL     1      -0.646  -0.063   3.393  1.00  0.00     0.155 HD
ATOM      9  H32 UNL     1      -1.952  -0.544   2.392  1.00  0.00     0.155 HD
ENDROOT
BRANCH   1  10
HETATM   10  N1  UNL     1      -2.400  -0.085  -0.054  1.00  0.00    -0.070 N 
HETATM   11  C1  UNL     1      -2.884   0.168  -1.392  1.00  0.00     0.267 C 
ATOM     12  H12 UNL     1      -2.989   0.349   0.657  1.00  0.00     0.277 HD
ATOM     13  H11 UNL     1      -2.528  -1.058   0.224  1.00  0.00     0.277 HD
ENDBRANCH   1  10
BRANCH   4  14
HETATM   14  C6  UNL     1       2.515   1.039  -0.349  1.00  0.00     0.057 C 
HETATM   15  N2  UNL     1       3.770   1.098  -0.325  1.00  0.00    -0.411 N 
ATOM     16  H22 UNL     1       4.274   0.560   0.380  1.00  0.00     0.155 HD
ATOM     17  H21 UNL     1       4.272   1.675  -1.000  1.00  0.00     0.155 HD
ENDBRANCH   4  14
TORSDOF 2
