REMARK  2 active torsions:
REMARK  status: ('A' for Active; 'I' for Inactive)
REMARK    1  A    between atoms: C2_2  and  C3_3 
REMARK    2  A    between atoms: C3_3  and  O1_4 
ROOT
HETATM    1  C3  UNL     1       0.290   0.207   0.369  1.00  0.00     0.258 C 
HETATM    2  N1  UNL     1       0.167   1.632   0.222  1.00  0.00    -0.017 N 
ATOM      3  H11 UNL     1       0.538   2.015  -0.647  1.00  0.00     0.282 HD
ATOM      4  H12 UNL     1       0.769   2.187   0.830  1.00  0.00     0.282 HD
HETATM    5  C4  UNL     1      -1.275   1.817   0.426  1.00  0.00     0.467 C 
HETATM    6  N2  UNL     1      -1.910   0.680  -0.185  1.00  0.00    -0.038 N 
ATOM      7  H21 UNL     1      -2.308   0.892  -1.100  1.00  0.00     0.280 HD
ATOM      8  H22 UNL     1      -2.777   0.413   0.281  1.00  0.00     0.280 HD
HETATM    9  C5  UNL     1      -0.944  -0.391  -0.229  1.00  0.00     0.177 C 
HETATM   10  C6  UNL     1      -0.734  -0.923  -1.625  1.00  0.00     0.051 C 
HETATM   11  C7  UNL     1      -1.471  -1.513   0.642  1.00  0.00     0.051 C 
ENDROOT
BRANCH   1  12
HETATM   12  C2  UNL     1       1.561  -0.282  -0.278  1.00  0.00     0.067 C 
HETATM   13  C1  UNL     1       2.733   0.418   0.380  1.00  0.00     0.010 C 
ENDBRANCH   1  12
BRANCH   1  14
HETATM   14  O1  UNL     1       0.272  -0.069   1.747  1.00  0.00    -0.363 OA
ATOM     15  H1  UNL     1      -0.529   0.239   2.155  1.00  0.00     0.212 HD
ENDBRANCH   1  14
TORSDOF 2
