REMARK  2 active torsions:
REMARK  status: ('A' for Active; 'I' for Inactive)
REMARK    1  A    between atoms: C2_2  and  N1_4 
REMARK    2  A    between atoms: N1_4  and  C4_7 
ROOT
HETATM    1  C4  UNL     1       0.680   0.643  -0.586  1.00  0.00     0.296 C 
HETATM    2  C5  UNL     1       1.658   1.764  -0.381  1.00  0.00     0.137 C 
HETATM    3  S1  UNL     1       3.047   0.867   0.386  1.00  0.00    -0.091 SA
HETATM    4  C6  UNL     1       2.425  -0.794   0.075  1.00  0.00     0.135 C 
HETATM    5  N2  UNL     1       2.809  -1.895   0.589  1.00  0.00    -0.380 N 
ATOM      6  H21 UNL     1       2.457  -2.836   0.413  1.00  0.00     0.158 HD
ATOM      7  H22 UNL     1       3.545  -2.057   1.277  1.00  0.00     0.158 HD
HETATM    8  N3  UNL     1       1.393  -0.566  -0.890  1.00  0.00    -0.343 N 
ATOM      9  H3  UNL     1       1.192  -1.176  -1.682  1.00  0.00     0.163 HD
ENDROOT
BRANCH   1  10
HETATM   10  N1  UNL     1      -0.083   0.515   0.629  1.00  0.00    -0.050 N 
ATOM     11  H12 UNL     1      -0.083   1.395   1.145  1.00  0.00     0.280 HD
ATOM     12  H11 UNL     1       0.408  -0.078   1.298  1.00  0.00     0.280 HD
BRANCH  10  13
HETATM   13  C2  UNL     1      -1.426   0.047   0.433  1.00  0.00     0.180 C 
HETATM   14  C1  UNL     1      -2.271   0.952  -0.389  1.00  0.00     0.039 C 
HETATM   15  C3  UNL     1      -1.475  -1.396  -0.053  1.00  0.00     0.039 C 
ENDBRANCH  10  13
ENDBRANCH   1  10
TORSDOF 2
