REMARK  11 active torsions:
REMARK  status: ('A' for Active; 'I' for Inactive)
REMARK    1  A    between atoms: O1_2  and  C2_3 
REMARK    2  A    between atoms: C3_4  and  N1_5 
REMARK       I    between atoms: N1_5  and  C4_7 
REMARK    3  A    between atoms: C4_7  and  C5_9 
REMARK    4  A    between atoms: C5_9  and  N2_10 
REMARK    5  A    between atoms: C8_17  and  C9_18 
REMARK       I    between atoms: C9_18  and  N4_20 
REMARK    6  A    between atoms: N4_20  and  N5_22 
REMARK       I    between atoms: N5_22  and  C10_24 
REMARK    7  A    between atoms: C10_24  and  C11_26 
REMARK    8  A    between atoms: C11_26  and  S1_27 
REMARK    9  A    between atoms: S1_27  and  C12_28 
REMARK   10  A    between atoms: C15_40  and  O6_41 
REMARK   11  A    between atoms: C16_43  and  O7_44 
ROOT
HETATM    1  C5  UNL     1      -1.649  -3.504   1.348  1.00  0.00     0.380 C 
HETATM    2  C6  UNL     1      -1.519  -3.816   2.775  1.00  0.00     0.102 C 
HETATM    3  N3  UNL     1      -1.433  -4.054   3.925  1.00  0.00    -0.195 NA
ENDROOT
BRANCH   1   4
HETATM    4  C4  UNL     1      -1.147  -2.104   1.072  1.00  0.00     0.267 C 
HETATM    5  N1  UNL     1      -2.028  -1.159   0.583  1.00  0.00    -0.322 N 
ATOM      6  H1  UNL     1      -2.978  -1.507   0.451  1.00  0.00     0.169 HD
HETATM    7  O2  UNL     1       0.051  -1.912   1.316  1.00  0.00    -0.270 OA
BRANCH   5   8
HETATM    8  C3  UNL     1      -1.862   0.186   0.235  1.00  0.00     0.072 C 
HETATM    9  C2  UNL     1      -3.033   0.884  -0.064  1.00  0.00     0.131 C 
HETATM   10  C16 UNL     1      -3.252   2.205  -0.417  1.00  0.00     0.141 C 
HETATM   11  C15 UNL     1      -2.372   3.252  -0.390  1.00  0.00     0.153 C 
HETATM   12  C14 UNL     1      -0.980   3.147  -0.465  1.00  0.00     0.223 C 
HETATM   13  C8  UNL     1      -0.227   2.007  -0.347  1.00  0.00     0.088 C 
HETATM   14  O5  UNL     1      -0.359   4.220  -0.663  1.00  0.00    -0.284 OA
HETATM   15  C7  UNL     1      -0.597   0.759   0.171  1.00  0.00     0.054 C 
BRANCH   9  16
HETATM   16  O1  UNL     1      -4.186   0.128   0.004  1.00  0.00    -0.351 OA
HETATM   17  C1  UNL     1      -4.877   0.114   1.265  1.00  0.00     0.210 C 
ENDBRANCH   9  16
BRANCH  10  18
HETATM   18  O7  UNL     1      -4.528   2.514  -0.856  1.00  0.00    -0.350 OA
HETATM   19  C17 UNL     1      -4.776   2.408  -2.247  1.00  0.00     0.210 C 
ENDBRANCH  10  18
BRANCH  11  20
HETATM   20  O6  UNL     1      -2.863   4.541  -0.278  1.00  0.00    -0.355 OA
ATOM     21  H6  UNL     1      -3.809   4.612  -0.227  1.00  0.00     0.218 HD
ENDBRANCH  11  20
BRANCH  13  22
HETATM   22  C9  UNL     1       1.153   2.049  -0.814  1.00  0.00     0.274 C 
HETATM   23  O3  UNL     1       1.950   2.950  -0.473  1.00  0.00    -0.266 OA
HETATM   24  N4  UNL     1       1.549   1.001  -1.682  1.00  0.00    -0.263 N 
ATOM     25  H4  UNL     1       0.884   0.274  -1.946  1.00  0.00     0.190 HD
BRANCH  24  26
HETATM   26  N5  UNL     1       2.849   0.972  -2.170  1.00  0.00    -0.267 N 
HETATM   27  C10 UNL     1       3.670  -0.147  -1.803  1.00  0.00     0.245 C 
HETATM   28  O4  UNL     1       3.207  -1.035  -1.077  1.00  0.00    -0.271 OA
ATOM     29  H5  UNL     1       3.207   1.718  -2.767  1.00  0.00     0.190 HD
BRANCH  27  30
HETATM   30  C11 UNL     1       5.070  -0.263  -2.281  1.00  0.00     0.186 C 
BRANCH  30  31
HETATM   31  S1  UNL     1       5.774  -1.798  -1.689  1.00  0.00    -0.094 SA
BRANCH  31  32
HETATM   32  C12 UNL     1       5.918  -1.690   0.114  1.00  0.00     0.130 A 
HETATM   33  N6  UNL     1       6.385  -2.624   0.937  1.00  0.00    -0.286 N 
HETATM   34  N7  UNL     1       6.431  -2.403   2.184  1.00  0.00    -0.279 N 
ATOM     35  H6  UNL     1       6.706  -3.518   0.565  1.00  0.00     0.188 HD
HETATM   36  C13 UNL     1       6.003  -1.220   2.641  1.00  0.00     0.159 A 
ATOM     37  H7  UNL     1       6.787  -3.112   2.826  1.00  0.00     0.189 HD
HETATM   38  N8  UNL     1       5.983  -0.835   3.899  1.00  0.00    -0.379 N 
HETATM   39  S2  UNL     1       5.530  -0.439   1.200  1.00  0.00    -0.027 SA
ATOM     40  H82 UNL     1       6.266  -1.302   4.761  1.00  0.00     0.158 HD
ATOM     41  H81 UNL     1       5.657   0.067   4.247  1.00  0.00     0.158 HD
ENDBRANCH  31  32
ENDBRANCH  30  31
ENDBRANCH  27  30
ENDBRANCH  24  26
ENDBRANCH  13  22
ENDBRANCH   5   8
ENDBRANCH   1   4
BRANCH   1  42
HETATM   42  N2  UNL     1      -3.004  -3.669   0.900  1.00  0.00    -0.054 N 
ATOM     43  H23 UNL     1      -3.621  -2.964   1.303  1.00  0.00     0.276 HD
ATOM     44  H22 UNL     1      -3.106  -3.422  -0.084  1.00  0.00     0.276 HD
ATOM     45  H21 UNL     1      -3.343  -4.613   1.086  1.00  0.00     0.276 HD
ENDBRANCH   1  42
TORSDOF 11
