REMARK  12 active torsions:
REMARK  status: ('A' for Active; 'I' for Inactive)
REMARK    1  A    between atoms: C2_2  and  O1_3 
REMARK    2  A    between atoms: O1_3  and  C3_4 
REMARK    3  A    between atoms: C3_4  and  C4_6 
REMARK    4  A    between atoms: C4_6  and  N1_7 
REMARK    5  A    between atoms: C5_8  and  S1_9 
REMARK    6  A    between atoms: S1_9  and  C6_10 
REMARK    7  A    between atoms: C6_10  and  C7_11 
REMARK       I    between atoms: C7_11  and  N2_13 
REMARK    8  A    between atoms: N2_13  and  N3_15 
REMARK    9  A    between atoms: N3_15  and  C8_17 
REMARK   10  A    between atoms: C8_17  and  N4_19 
REMARK   11  A    between atoms: N5_21  and  N6_23 
REMARK       I    between atoms: N6_23  and  C9_25 
REMARK       I    between atoms: C9_25  and  N7_27 
REMARK   12  A    between atoms: C11_32  and  N9_33 
ROOT
HETATM    1  N1  UNL     1      -2.275   0.419  -0.278  1.00  0.00    -0.303 N 
HETATM    2  C5  UNL     1      -1.698  -0.637  -0.876  1.00  0.00     0.150 A 
HETATM    3  N8  UNL     1      -2.126  -1.139  -2.033  1.00  0.00    -0.322 N 
ATOM      4  H8  UNL     1      -1.641  -1.944  -2.429  1.00  0.00     0.169 HD
HETATM    5  C11 UNL     1      -3.207  -0.607  -2.718  1.00  0.00     0.118 A 
HETATM    6  C12 UNL     1      -3.807   0.492  -2.100  1.00  0.00     0.094 A 
HETATM    7  C13 UNL     1      -4.884   1.113  -2.693  1.00  0.00     0.149 A 
HETATM    8  N10 UNL     1      -5.455   0.713  -3.920  1.00  0.00    -0.081 NA
HETATM    9  N11 UNL     1      -5.411   2.185  -2.035  1.00  0.00    -0.178 N 
ATOM     10  H11 UNL     1      -6.209   2.664  -2.452  1.00  0.00     0.185 HD
HETATM   11  C14 UNL     1      -4.934   2.641  -0.869  1.00  0.00     0.678 A 
HETATM   12  N12 UNL     1      -5.464   3.670  -0.273  1.00  0.00    -0.234 N 
ATOM     13 1H12 UNL     1      -5.101   4.017   0.615  1.00  0.00     0.174 HD
ATOM     14 2H12 UNL     1      -6.262   4.127  -0.714  1.00  0.00     0.174 HD
HETATM   15  N13 UNL     1      -3.884   2.039  -0.288  1.00  0.00    -0.176 N 
ATOM     16  H13 UNL     1      -3.514   2.379   0.599  1.00  0.00     0.186 HD
HETATM   17  C15 UNL     1      -3.329   0.973  -0.905  1.00  0.00     0.143 A 
ENDROOT
BRANCH   2  18
HETATM   18  S1  UNL     1      -0.234  -1.313  -0.045  1.00  0.00    -0.084 SA
BRANCH  18  19
HETATM   19  C6  UNL     1       1.169  -0.406  -0.797  1.00  0.00     0.186 C 
BRANCH  19  20
HETATM   20  C7  UNL     1       2.470  -0.787  -0.233  1.00  0.00     0.245 C 
HETATM   21  O3  UNL     1       3.011  -0.055   0.619  1.00  0.00    -0.271 OA
HETATM   22  N2  UNL     1       3.104  -1.969  -0.651  1.00  0.00    -0.267 N 
ATOM     23  H2  UNL     1       2.648  -2.563  -1.344  1.00  0.00     0.190 HD
BRANCH  22  24
HETATM   24  N3  UNL     1       4.348  -2.348  -0.136  1.00  0.00    -0.272 N 
ATOM     25  H3  UNL     1       5.145  -2.388  -0.771  1.00  0.00     0.189 HD
BRANCH  24  26
HETATM   26  C8  UNL     1       4.553  -2.678   1.220  1.00  0.00     0.206 C 
HETATM   27  S2  UNL     1       3.258  -2.652   2.273  1.00  0.00    -0.038 SA
BRANCH  26  28
HETATM   28  N4  UNL     1       5.811  -3.043   1.692  1.00  0.00    -0.260 N 
HETATM   29  N5  UNL     1       6.894  -2.661   1.322  1.00  0.00    -0.237 N 
ATOM     30  H5  UNL     1       7.657  -3.091   1.844  1.00  0.00     0.208 HD
ATOM     31  H4  UNL     1       5.818  -3.724   2.452  1.00  0.00     0.191 HD
BRANCH  29  32
HETATM   32  N6  UNL     1       7.335  -1.802   0.384  1.00  0.00    -0.237 N 
HETATM   33  C9  UNL     1       7.617  -0.432   0.716  1.00  0.00     0.335 C 
HETATM   34  O4  UNL     1       7.443  -0.060   1.886  1.00  0.00    -0.246 OA
HETATM   35  N7  UNL     1       8.081   0.457  -0.280  1.00  0.00    -0.346 N 
HETATM   36  C10 UNL     1       8.394   1.845  -0.035  1.00  0.00     0.151 C 
ATOM     37  H7  UNL     1       8.202   0.097  -1.227  1.00  0.00     0.163 HD
ATOM     38  H6  UNL     1       7.471  -2.127  -0.573  1.00  0.00     0.193 HD
ENDBRANCH  29  32
ENDBRANCH  26  28
ENDBRANCH  24  26
ENDBRANCH  22  24
ENDBRANCH  19  20
ENDBRANCH  18  19
ENDBRANCH   2  18
BRANCH   1  39
HETATM   39  C4  UNL     1      -1.800   0.907   0.986  1.00  0.00     0.243 C 
BRANCH  39  40
HETATM   40  C3  UNL     1      -2.568   0.239   2.066  1.00  0.00     0.277 C 
HETATM   41  O2  UNL     1      -2.248  -0.911   2.433  1.00  0.00    -0.263 OA
BRANCH  40  42
HETATM   42  O1  UNL     1      -3.631   0.863   2.676  1.00  0.00    -0.321 OA
BRANCH  42  43
HETATM   43  C2  UNL     1      -4.433   0.357   3.686  1.00  0.00     0.174 C 
HETATM   44  C1  UNL     1      -5.171  -0.885   3.247  1.00  0.00     0.034 C 
ENDBRANCH  42  43
ENDBRANCH  40  42
ENDBRANCH  39  40
ENDBRANCH   1  39
BRANCH   5  45
HETATM   45  N9  UNL     1      -3.559  -1.124  -3.792  1.00  0.00    -0.385 N 
ATOM     46  H92 UNL     1      -3.121  -1.927  -4.243  1.00  0.00     0.157 HD
ATOM     47  H91 UNL     1      -4.355  -0.732  -4.296  1.00  0.00     0.157 HD
ENDBRANCH   5  45
TORSDOF 12
