REMARK  1 active torsions:
REMARK  status: ('A' for Active; 'I' for Inactive)
REMARK    1  A    between atoms: C4_8  and  C5_9 
ROOT
HETATM    1  C5  UNL     1       1.383   0.413  -0.172  1.00  0.00     0.135 A 
HETATM    2  N2  UNL     1       0.516   1.426  -0.472  1.00  0.00    -0.334 N 
ATOM      3  H2  UNL     1       0.753   2.407  -0.617  1.00  0.00     0.168 HD
HETATM    4  C6  UNL     1      -0.696   0.884  -0.538  1.00  0.00     0.094 A 
HETATM    5  C7  UNL     1      -0.624  -0.466  -0.285  1.00  0.00     0.044 A 
HETATM    6  N3  UNL     1       0.700  -0.700  -0.064  1.00  0.00    -0.342 N 
ATOM      7  H3  UNL     1       1.102  -1.612   0.154  1.00  0.00     0.167 HD
HETATM    8  C8  UNL     1      -1.872  -1.239  -0.314  1.00  0.00     0.061 C 
HETATM    9  C9  UNL     1      -2.916  -0.734   0.639  1.00  0.00     0.021 C 
HETATM   10  C10 UNL     1      -3.458   0.620   0.268  1.00  0.00     0.050 C 
HETATM   11  C11 UNL     1      -4.813   0.502  -0.410  1.00  0.00     0.021 C 
HETATM   12  S3  UNL     1      -2.361   1.503  -0.874  1.00  0.00    -0.106 SA
ENDROOT
BRANCH   1  13
HETATM   13  C4  UNL     1       2.856   0.674  -0.021  1.00  0.00     0.091 A 
HETATM   14  C2  UNL     1       3.727  -0.336   0.279  1.00  0.00     0.012 A 
HETATM   15  C1  UNL     1       3.536  -1.810   0.520  1.00  0.00     0.059 C 
HETATM   16  S1  UNL     1       5.250   0.502   0.333  1.00  0.00    -0.063 SA
HETATM   17  C3  UNL     1       4.673   2.047  -0.024  1.00  0.00     0.143 A 
HETATM   18  S2  UNL     1       5.527   3.459  -0.164  1.00  0.00    -0.052 SA
HETATM   19  N1  UNL     1       3.370   1.875  -0.169  1.00  0.00    -0.338 N 
ATOM     20  H1  UNL     1       2.769   2.668  -0.394  1.00  0.00     0.167 HD
ENDBRANCH   1  13
TORSDOF 1
