REMARK  5 active torsions:
REMARK  status: ('A' for Active; 'I' for Inactive)
REMARK    1  A    between atoms: C2_2  and  C3_3 
REMARK    2  A    between atoms: C3_3  and  C4_4 
REMARK    3  A    between atoms: C6_6  and  C7_7 
REMARK    4  A    between atoms: C7_7  and  N1_8 
REMARK    5  A    between atoms: N2_10  and  N3_12 
ROOT
HETATM    1  C7  UNL     1       2.473  -0.764   0.052  1.00  0.00     0.145 C 
ENDROOT
BRANCH   1   2
HETATM    2  C6  UNL     1       1.081  -0.788  -0.547  1.00  0.00     0.006 A 
HETATM    3  C5  UNL     1       0.140  -1.752   0.133  1.00  0.00     0.011 A 
HETATM    4  C4  UNL     1      -0.731  -0.627   0.579  1.00  0.00    -0.014 A 
HETATM    5  C8  UNL     1       0.257   0.353   0.001  1.00  0.00     0.011 A 
BRANCH   4   6
HETATM    6  C3  UNL     1      -2.061  -0.487  -0.112  1.00  0.00     0.004 C 
BRANCH   6   7
HETATM    7  C2  UNL     1      -2.750   0.727   0.522  1.00  0.00    -0.004 C 
HETATM    8  C1  UNL     1      -4.104   0.976  -0.090  1.00  0.00     0.005 C 
ENDBRANCH   6   7
ENDBRANCH   4   6
ENDBRANCH   1   2
BRANCH   1   9
HETATM    9  N1  UNL     1       3.279   0.189  -0.676  1.00  0.00    -0.322 N 
HETATM   10  N2  UNL     1       4.382   0.607  -0.243  1.00  0.00    -0.254 N 
ATOM     11  H2  UNL     1       4.737   0.273   0.653  1.00  0.00     0.207 HD
ATOM     12  H1  UNL     1       2.940   0.535  -1.574  1.00  0.00     0.181 HD
BRANCH  10  13
HETATM   13  N3  UNL     1       5.118   1.523  -0.982  1.00  0.00    -0.331 N 
ATOM     14  H32 UNL     1       4.749   1.847  -1.876  1.00  0.00     0.178 HD
ATOM     15  H31 UNL     1       6.013   1.862  -0.631  1.00  0.00     0.178 HD
ENDBRANCH  10  13
ENDBRANCH   1   9
TORSDOF 5
