REMARK  4 active torsions:
REMARK  status: ('A' for Active; 'I' for Inactive)
REMARK    1  A    between atoms: N1_1  and  C1_5 
REMARK    2  A    between atoms: C1_5  and  C2_6 
REMARK    3  A    between atoms: C2_6  and  C3_7 
REMARK    4  A    between atoms: C3_7  and  C4_8 
ROOT
HETATM    1  C3  UNL     1       0.625  -0.431  -0.656  1.00  0.00     0.008 C 
ENDROOT
BRANCH   1   2
HETATM    2  C2  UNL     1       1.253  -0.158   0.681  1.00  0.00     0.028 C 
BRANCH   2   3
HETATM    3  C1  UNL     1       2.731  -0.451   0.695  1.00  0.00     0.229 C 
BRANCH   3   4
HETATM    4  N1  UNL     1       3.470   0.330  -0.252  1.00  0.00    -0.079 N 
ATOM      5  H13 UNL     1       3.087   0.220  -1.191  1.00  0.00     0.274 HD
ATOM      6  H12 UNL     1       3.296   1.326  -0.116  1.00  0.00     0.274 HD
ATOM      7  H11 UNL     1       4.470   0.132  -0.243  1.00  0.00     0.274 HD
ENDBRANCH   3   4
ENDBRANCH   2   3
ENDBRANCH   1   2
BRANCH   1   8
HETATM    8  C4  UNL     1      -0.841  -0.109  -0.567  1.00  0.00     0.022 C 
HETATM    9  C5  UNL     1      -1.134   1.310  -0.211  1.00  0.00     0.037 C 
HETATM   10  C6  UNL     1      -1.760   1.270   1.153  1.00  0.00     0.273 C 
HETATM   11  N2  UNL     1      -2.142  -0.086   1.422  1.00  0.00     0.097 N 
HETATM   12  C7  UNL     1      -3.007  -0.809   0.544  1.00  0.00     0.309 A 
HETATM   13  C8  UNL     1      -1.515  -0.945   0.483  1.00  0.00     0.255 A 
ENDBRANCH   1   8
TORSDOF 4
