REMARK  14 active torsions:
REMARK  status: ('A' for Active; 'I' for Inactive)
REMARK    1  A    between atoms: O1_2  and  C2_3 
REMARK    2  A    between atoms: C2_3  and  C3_4 
REMARK    3  A    between atoms: C2_3  and  S2_7 
REMARK    4  A    between atoms: C3_4  and  C4_5 
REMARK    5  A    between atoms: C5_9  and  C6_10 
REMARK    6  A    between atoms: C6_10  and  O3_11 
REMARK    7  A    between atoms: O3_11  and  C7_12 
REMARK    8  A    between atoms: C7_12  and  C8_13 
REMARK    9  A    between atoms: C9_15  and  C10_16 
REMARK   10  A    between atoms: C10_16  and  C12_18 
REMARK   11  A    between atoms: C12_18  and  O5_19 
REMARK   12  A    between atoms: C16_25  and  O7_26 
REMARK   13  A    between atoms: C17_28  and  O8_29 
REMARK   14  A    between atoms: C18_31  and  O9_32 
ROOT
HETATM    1  S2  UNL     1       3.477  -0.638  -0.169  1.00  0.00    -0.002 SA
HETATM    2  O2  UNL     1       2.284   0.275  -0.951  1.00  0.00    -0.313 OA
HETATM    3  C5  UNL     1       1.282  -0.373  -1.609  1.00  0.00     0.192 C 
HETATM    4  C16 UNL     1       1.495  -1.792  -1.937  1.00  0.00     0.182 C 
HETATM    5  C17 UNL     1       2.909  -2.199  -2.200  1.00  0.00     0.190 C 
HETATM    6  C18 UNL     1       3.711  -2.324  -0.896  1.00  0.00     0.233 C 
ENDROOT
BRANCH   3   7
HETATM    7  C6  UNL     1      -0.015  -0.289  -0.752  1.00  0.00     0.203 C 
BRANCH   7   8
HETATM    8  O3  UNL     1       0.167  -0.866   0.454  1.00  0.00    -0.384 OA
BRANCH   8   9
HETATM    9  C7  UNL     1      -0.933  -0.919   1.242  1.00  0.00     0.228 C 
BRANCH   9  10
HETATM   10  C8  UNL     1      -1.588   0.364   1.649  1.00  0.00     0.285 C 
HETATM   11  O4  UNL     1      -2.111   1.117   0.647  1.00  0.00    -0.350 OA
HETATM   12  C9  UNL     1      -3.481   1.129   0.731  1.00  0.00     0.164 C 
HETATM   13  C13 UNL     1      -3.793   0.387   1.970  1.00  0.00     0.083 C 
HETATM   14  C14 UNL     1      -4.605   1.295   2.903  1.00  0.00     0.048 C 
HETATM   15  C15 UNL     1      -4.513  -0.907   1.784  1.00  0.00     0.048 C 
HETATM   16  O6  UNL     1      -2.594   0.151   2.593  1.00  0.00    -0.346 OA
BRANCH  12  17
HETATM   17  C10 UNL     1      -4.060   0.549  -0.524  1.00  0.00     0.037 C 
HETATM   18  C11 UNL     1      -5.554   0.517  -0.532  1.00  0.00     0.015 C 
BRANCH  17  19
HETATM   19  C12 UNL     1      -3.588   1.444  -1.679  1.00  0.00     0.170 C 
BRANCH  19  20
HETATM   20  O5  UNL     1      -4.064   2.723  -1.437  1.00  0.00    -0.400 OA
ATOM     21  H5  UNL     1      -3.772   3.277  -2.152  1.00  0.00     0.209 HD
ENDBRANCH  19  20
ENDBRANCH  17  19
ENDBRANCH  12  17
ENDBRANCH   9  10
ENDBRANCH   8   9
ENDBRANCH   7   8
ENDBRANCH   3   7
BRANCH   4  22
HETATM   22  O7  UNL     1       0.732  -2.166  -3.050  1.00  0.00    -0.390 OA
ATOM     23  H7  UNL     1       0.869  -3.082  -3.262  1.00  0.00     0.210 HD
ENDBRANCH   4  22
BRANCH   1  24
HETATM   24  C2  UNL     1       4.838   0.116   0.287  1.00  0.00     0.100 C 
BRANCH  24  25
HETATM   25  O1  UNL     1       5.849  -0.629   0.942  1.00  0.00    -0.352 OA
HETATM   26  C1  UNL     1       5.541  -1.252   2.193  1.00  0.00     0.210 C 
ENDBRANCH  24  25
BRANCH  24  27
HETATM   27  C3  UNL     1       5.136   1.542   0.080  1.00  0.00     0.084 C 
BRANCH  27  28
HETATM   28  C4  UNL     1       4.064   2.337  -0.583  1.00  0.00     0.093 C 
HETATM   29  S1  UNL     1       4.592   4.087  -0.770  1.00  0.00    -0.097 SA
ENDBRANCH  27  28
ENDBRANCH  24  27
ENDBRANCH   1  24
BRANCH   5  30
HETATM   30  O8  UNL     1       3.550  -1.404  -3.120  1.00  0.00    -0.389 OA
ATOM     31  H8  UNL     1       4.449  -1.663  -3.287  1.00  0.00     0.210 HD
ENDBRANCH   5  30
BRANCH   6  32
HETATM   32  O9  UNL     1       3.082  -3.241  -0.081  1.00  0.00    -0.381 OA
ATOM     33  H9  UNL     1       3.202  -4.106  -0.454  1.00  0.00     0.211 HD
ENDBRANCH   6  32
TORSDOF 14
