REMARK  14 active torsions:
REMARK  status: ('A' for Active; 'I' for Inactive)
REMARK    1  A    between atoms: C3_4  and  O2_5 
REMARK    2  A    between atoms: O2_5  and  C4_6 
REMARK    3  A    between atoms: C4_6  and  C5_7 
REMARK    4  A    between atoms: C7_9  and  O3_10 
REMARK    5  A    between atoms: C8_12  and  O4_13 
REMARK    6  A    between atoms: C9_15  and  O5_16 
REMARK    7  A    between atoms: O5_16  and  C10_17 
REMARK    8  A    between atoms: C12_20  and  O7_21 
REMARK    9  A    between atoms: C14_24  and  O8_25 
REMARK   10  A    between atoms: C18_30  and  O9_31 
REMARK   11  A    between atoms: O9_31  and  C19_32 
REMARK   12  A    between atoms: C19_32  and  C20_33 
REMARK   13  A    between atoms: C20_33  and  C21_34 
REMARK   14  A    between atoms: C21_34  and  O10_35 
ROOT
HETATM    1  C5  UNL     1      -1.516  -0.271  -0.389  1.00  0.00     0.014 C 
HETATM    2  C6  UNL     1      -2.000   0.870   0.471  1.00  0.00     0.041 C 
HETATM    3  C7  UNL     1      -3.107   1.656  -0.192  1.00  0.00     0.150 C 
HETATM    4  C8  UNL     1      -3.984   0.826  -1.073  1.00  0.00     0.178 C 
HETATM    5  C9  UNL     1      -4.424  -0.457  -0.386  1.00  0.00     0.189 C 
HETATM    6  C14 UNL     1      -3.530  -1.564  -0.934  1.00  0.00     0.150 C 
HETATM    7  C15 UNL     1      -2.260  -1.550  -0.109  1.00  0.00     0.041 C 
ENDROOT
BRANCH   1   8
HETATM    8  C4  UNL     1      -0.046  -0.482  -0.065  1.00  0.00     0.175 C 
BRANCH   8   9
HETATM    9  O2  UNL     1       0.609   0.694  -0.361  1.00  0.00    -0.361 OA
BRANCH   9  10
HETATM   10  C3  UNL     1       1.974   0.655  -0.115  1.00  0.00     0.260 C 
HETATM   11  O1  UNL     1       2.394   1.588   0.801  1.00  0.00    -0.354 OA
HETATM   12  C2  UNL     1       3.690   1.253   1.190  1.00  0.00     0.149 C 
HETATM   13  C1  UNL     1       3.771  -0.138   1.783  1.00  0.00     0.042 C 
HETATM   14  C18 UNL     1       4.685   1.412   0.075  1.00  0.00     0.150 C 
HETATM   15  C17 UNL     1       4.062   1.455  -1.288  1.00  0.00     0.039 C 
HETATM   16  C16 UNL     1       2.719   0.848  -1.389  1.00  0.00     0.063 C 
BRANCH  14  17
HETATM   17  O9  UNL     1       5.564   0.333   0.130  1.00  0.00    -0.383 OA
BRANCH  17  18
HETATM   18  C19 UNL     1       6.871   0.740   0.387  1.00  0.00     0.170 C 
BRANCH  18  19
HETATM   19  C20 UNL     1       7.771  -0.490   0.431  1.00  0.00     0.052 C 
BRANCH  19  20
HETATM   20  C21 UNL     1       7.732  -1.230  -0.892  1.00  0.00     0.166 C 
BRANCH  20  21
HETATM   21  O10 UNL     1       6.455  -1.651  -1.195  1.00  0.00    -0.401 OA
ATOM     22  H10 UNL     1       6.431  -2.115  -2.024  1.00  0.00     0.209 HD
ENDBRANCH  20  21
ENDBRANCH  19  20
ENDBRANCH  18  19
ENDBRANCH  17  18
ENDBRANCH  14  17
ENDBRANCH   9  10
ENDBRANCH   8   9
ENDBRANCH   1   8
BRANCH   3  23
HETATM   23  O3  UNL     1      -3.892   2.219   0.812  1.00  0.00    -0.393 OA
ATOM     24  H3  UNL     1      -4.588   2.713   0.395  1.00  0.00     0.210 HD
ENDBRANCH   3  23
BRANCH   6  25
HETATM   25  O8  UNL     1      -4.168  -2.790  -0.922  1.00  0.00    -0.393 OA
ATOM     26  H8  UNL     1      -3.611  -3.480  -1.263  1.00  0.00     0.210 HD
ENDBRANCH   6  25
BRANCH   4  27
HETATM   27  O4  UNL     1      -5.136   1.548  -1.365  1.00  0.00    -0.390 OA
ATOM     28  H4  UNL     1      -5.693   1.020  -1.925  1.00  0.00     0.210 HD
ENDBRANCH   4  27
BRANCH   5  29
HETATM   29  O5  UNL     1      -5.777  -0.727  -0.575  1.00  0.00    -0.339 OA
BRANCH  29  30
HETATM   30  C10 UNL     1      -6.697  -0.843   0.448  1.00  0.00     0.096 A 
HETATM   31  C11 UNL     1      -6.406  -0.709   1.785  1.00  0.00     0.181 A 
HETATM   32  O6  UNL     1      -7.513  -0.880   2.473  1.00  0.00    -0.298 OA
HETATM   33  C12 UNL     1      -8.539  -1.122   1.697  1.00  0.00     0.185 A 
HETATM   34  C13 UNL     1      -8.045  -1.105   0.392  1.00  0.00     0.102 A 
BRANCH  33  35
HETATM   35  O7  UNL     1      -9.866  -1.354   2.077  1.00  0.00    -0.341 OA
ATOM     36  H7  UNL     1     -10.611  -1.530   1.514  1.00  0.00     0.220 HD
ENDBRANCH  33  35
ENDBRANCH  29  30
ENDBRANCH   5  29
TORSDOF 14
