REMARK  14 active torsions:
REMARK  status: ('A' for Active; 'I' for Inactive)
REMARK    1  A    between atoms: C4_5  and  O2_6 
REMARK    2  A    between atoms: O2_6  and  C5_7 
REMARK    3  A    between atoms: C7_10  and  O4_11 
REMARK    4  A    between atoms: O4_11  and  C8_12 
REMARK    5  A    between atoms: C8_12  and  C9_13 
REMARK    6  A    between atoms: C9_13  and  C10_14 
REMARK    7  A    between atoms: C10_14  and  C11_15 
REMARK    8  A    between atoms: C11_15  and  C12_16 
REMARK    9  A    between atoms: C17_21  and  O5_22 
REMARK   10  A    between atoms: C18_24  and  O6_25 
REMARK   11  A    between atoms: C19_27  and  O7_28 
REMARK   12  A    between atoms: C20_31  and  C21_32 
REMARK   13  A    between atoms: C21_32  and  O9_33 
REMARK   14  A    between atoms: C22_35  and  O10_36 
ROOT
HETATM    1  C5  UNL     1      -2.133   0.135  -0.827  1.00  0.00     0.182 C 
HETATM    2  C6  UNL     1      -1.128  -0.955  -0.505  1.00  0.00     0.205 C 
HETATM    3  O3  UNL     1      -0.418  -0.705   0.649  1.00  0.00    -0.356 OA
HETATM    4  C7  UNL     1       0.347   0.460   0.564  1.00  0.00     0.290 C 
HETATM    5  C18 UNL     1      -0.647   1.599   0.424  1.00  0.00     0.204 C 
HETATM    6  C19 UNL     1      -1.356   1.443  -0.887  1.00  0.00     0.183 C 
ENDROOT
BRANCH   1   7
HETATM    7  O2  UNL     1      -3.152   0.175   0.092  1.00  0.00    -0.329 OA
BRANCH   7   8
HETATM    8  C4  UNL     1      -4.389  -0.039  -0.492  1.00  0.00     0.414 C 
HETATM    9  O1  UNL     1      -4.896  -1.223   0.016  1.00  0.00    -0.326 OA
HETATM   10  C2  UNL     1      -6.253  -1.353  -0.151  1.00  0.00     0.087 C 
HETATM   11  C1  UNL     1      -6.666  -1.248  -1.596  1.00  0.00     0.048 C 
HETATM   12  C3  UNL     1      -6.660  -2.735   0.338  1.00  0.00     0.048 C 
HETATM   13  C22 UNL     1      -6.924  -0.323   0.724  1.00  0.00     0.183 C 
HETATM   14  C20 UNL     1      -6.103   0.946   0.717  1.00  0.00     0.182 C 
HETATM   15  O8  UNL     1      -5.248   1.032  -0.356  1.00  0.00    -0.329 OA
BRANCH  13  16
HETATM   16  O10 UNL     1      -6.928  -0.796   2.050  1.00  0.00    -0.390 OA
ATOM     17  H10 UNL     1      -7.350  -0.148   2.601  1.00  0.00     0.210 HD
ENDBRANCH  13  16
BRANCH  14  18
HETATM   18  C21 UNL     1      -7.087   2.099   0.611  1.00  0.00     0.199 C 
BRANCH  18  19
HETATM   19  O9  UNL     1      -7.811   2.021  -0.579  1.00  0.00    -0.398 OA
ATOM     20  H9  UNL     1      -8.426   2.742  -0.645  1.00  0.00     0.209 HD
ENDBRANCH  18  19
ENDBRANCH  14  18
ENDBRANCH   7   8
ENDBRANCH   1   7
BRANCH   6  21
HETATM   21  O7  UNL     1      -0.453   1.321  -1.943  1.00  0.00    -0.390 OA
ATOM     22  H7  UNL     1       0.032   2.137  -1.980  1.00  0.00     0.210 HD
ENDBRANCH   6  21
BRANCH   5  23
HETATM   23  O6  UNL     1      -1.566   1.477   1.461  1.00  0.00    -0.388 OA
ATOM     24  H6  UNL     1      -2.188   2.190   1.373  1.00  0.00     0.210 HD
ENDBRANCH   5  23
BRANCH   4  25
HETATM   25  O4  UNL     1       1.219   0.464  -0.481  1.00  0.00    -0.359 OA
BRANCH  25  26
HETATM   26  C8  UNL     1       2.556   0.571  -0.151  1.00  0.00     0.171 C 
BRANCH  26  27
HETATM   27  C9  UNL     1       2.979  -0.594   0.666  1.00  0.00     0.026 C 
BRANCH  27  28
HETATM   28  C10 UNL     1       4.461  -0.529   1.060  1.00  0.00     0.002 C 
BRANCH  28  29
HETATM   29  C11 UNL     1       5.347  -0.503  -0.112  1.00  0.00     0.007 C 
BRANCH  29  30
HETATM   30  C12 UNL     1       6.798  -0.473   0.240  1.00  0.00     0.018 C 
HETATM   31  C13 UNL     1       7.625  -0.507  -1.082  1.00  0.00     0.034 C 
HETATM   32  C14 UNL     1       9.025  -0.750  -0.663  1.00  0.00    -0.030 C 
HETATM   33  C15 UNL     1       9.465  -0.377   0.528  1.00  0.00    -0.028 C 
HETATM   34  C16 UNL     1       8.667   0.305   1.567  1.00  0.00     0.059 C 
HETATM   35  C17 UNL     1       7.312   0.727   0.952  1.00  0.00     0.126 C 
BRANCH  35  36
HETATM   36  O5  UNL     1       6.516   1.299   1.897  1.00  0.00    -0.395 OA
ATOM     37  H5  UNL     1       6.844   2.066   2.352  1.00  0.00     0.210 HD
ENDBRANCH  35  36
ENDBRANCH  29  30
ENDBRANCH  28  29
ENDBRANCH  27  28
ENDBRANCH  26  27
ENDBRANCH  25  26
ENDBRANCH   4  25
TORSDOF 14
