REMARK  6 active torsions:
REMARK  status: ('A' for Active; 'I' for Inactive)
REMARK    1  A    between atoms: C2_3  and  O1_4 
REMARK    2  A    between atoms: C2_3  and  C3_6 
REMARK    3  A    between atoms: C2_3  and  N4_25 
REMARK    4  A    between atoms: C3_6  and  C4_10 
REMARK    5  A    between atoms: C7_13  and  C8_14 
REMARK    6  A    between atoms: C13_19  and  N3_20 
ROOT
HETATM    1  N1  UNL     1       6.603  -0.277  -0.482  1.00  0.00    -0.191 NA
HETATM    2  C1  UNL     1       5.525   0.107  -0.279  1.00  0.00     0.134 C 
HETATM    3  C2  UNL     1       4.135   0.580  -0.037  1.00  0.00     0.328 C 
ENDROOT
BRANCH   3   4
HETATM    4  O1  UNL     1       3.959   1.635  -0.912  1.00  0.00    -0.350 OA
ATOM      5  H1  UNL     1       3.072   1.937  -0.758  1.00  0.00     0.214 HD
ENDBRANCH   3   4
BRANCH   3   6
HETATM    6  C3  UNL     1       3.232  -0.576  -0.312  1.00  0.00     0.090 C 
HETATM    7  N2  UNL     1       3.747  -1.699  -0.631  1.00  0.00    -0.397 N 
ATOM      8  H22 UNL     1       4.762  -1.771  -0.702  1.00  0.00     0.156 HD
ATOM      9  H21 UNL     1       3.130  -2.489  -0.819  1.00  0.00     0.156 HD
BRANCH   6  10
HETATM   10  C4  UNL     1       1.778  -0.473  -0.211  1.00  0.00    -0.008 A 
HETATM   11  C5  UNL     1       1.213   0.754   0.092  1.00  0.00     0.014 A 
HETATM   12  C6  UNL     1      -0.171   0.902   0.208  1.00  0.00     0.013 A 
HETATM   13  C7  UNL     1      -1.027  -0.161   0.027  1.00  0.00    -0.024 A 
HETATM   14  C14 UNL     1      -0.483  -1.386  -0.274  1.00  0.00     0.013 A 
HETATM   15  C15 UNL     1       0.907  -1.512  -0.386  1.00  0.00     0.014 A 
BRANCH  13  16
HETATM   16  C8  UNL     1      -2.461   0.073   0.202  1.00  0.00     0.007 A 
HETATM   17  C9  UNL     1      -2.928   0.634   1.399  1.00  0.00     0.015 A 
HETATM   18  C10 UNL     1      -4.231   0.866   1.688  1.00  0.00     0.001 A 
HETATM   19  C11 UNL     1      -5.171   0.526   0.736  1.00  0.00     0.002 A 
HETATM   20  C12 UNL     1      -4.773  -0.025  -0.451  1.00  0.00     0.037 A 
HETATM   21  C13 UNL     1      -3.414  -0.257  -0.733  1.00  0.00     0.114 A 
BRANCH  21  22
HETATM   22  N3  UNL     1      -3.070  -0.818  -1.987  1.00  0.00    -0.115 N 
HETATM   23  O2  UNL     1      -2.080  -0.601  -2.666  1.00  0.00    -0.532 OA
HETATM   24  O3  UNL     1      -3.999  -1.714  -2.524  1.00  0.00    -0.532 OA
ENDBRANCH  21  22
ENDBRANCH  13  16
ENDBRANCH   6  10
ENDBRANCH   3   6
BRANCH   3  25
HETATM   25  N4  UNL     1       4.134   0.961   1.362  1.00  0.00    -0.095 N 
HETATM   26  O4  UNL     1       3.440   0.385   2.242  1.00  0.00    -0.533 OA
HETATM   27  O5  UNL     1       4.921   1.980   1.801  1.00  0.00    -0.533 OA
ENDBRANCH   3  25
TORSDOF 6
