REMARK  4 active torsions:
REMARK  status: ('A' for Active; 'I' for Inactive)
REMARK    1  A    between atoms: N2_4  and  C1_6 
REMARK    2  A    between atoms: C6_11  and  C7_12 
REMARK    3  A    between atoms: N4_21  and  N5_22 
REMARK    4  A    between atoms: N5_22  and  N6_24 
ROOT
HETATM    1  C7  UNL     1      -0.778  -0.486   0.600  1.00  0.00     0.278 C 
HETATM    2  O1  UNL     1      -0.276  -1.754   0.690  1.00  0.00    -0.259 OA
HETATM    3  N3  UNL     1       0.963  -1.694   1.232  1.00  0.00    -0.092 NA
HETATM    4  C8  UNL     1       1.891  -1.185   0.238  1.00  0.00     0.127 C 
HETATM    5  C9  UNL     1       3.230  -0.862   0.824  1.00  0.00     0.035 C 
HETATM    6  C10 UNL     1       4.122  -0.361  -0.311  1.00  0.00     0.075 C 
HETATM    7  S1  UNL     1       3.357  -0.691  -1.946  1.00  0.00    -0.167 SA
HETATM    8  C11 UNL     1       1.599  -0.137  -1.903  1.00  0.00     0.097 C 
HETATM    9  C12 UNL     1       1.335   0.064  -0.408  1.00  0.00     0.115 C 
HETATM   10  N4  UNL     1       0.033   0.428  -0.058  1.00  0.00    -0.169 NA
ENDROOT
BRANCH   1  11
HETATM   11  C6  UNL     1      -2.220  -0.514   0.187  1.00  0.00     0.016 A 
HETATM   12  C1  UNL     1      -2.731   0.282  -0.791  1.00  0.00     0.057 A 
HETATM   13  C2  UNL     1      -4.099   0.159  -1.059  1.00  0.00     0.031 A 
HETATM   14  C3  UNL     1      -4.908  -0.718  -0.380  1.00  0.00     0.002 A 
HETATM   15  C4  UNL     1      -4.366  -1.515   0.606  1.00  0.00     0.001 A 
HETATM   16  C5  UNL     1      -3.007  -1.403   0.884  1.00  0.00     0.013 A 
BRANCH  12  17
HETATM   17  N2  UNL     1      -1.935   1.199  -1.537  1.00  0.00    -0.307 N 
HETATM   18  N1  UNL     1      -1.915   1.222  -2.801  1.00  0.00    -0.345 N 
ATOM     19  H12 UNL     1      -2.501   0.547  -3.293  1.00  0.00     0.176 HD
ATOM     20  H11 UNL     1      -1.345   1.878  -3.335  1.00  0.00     0.176 HD
ATOM     21  H2  UNL     1      -1.355   1.867  -1.028  1.00  0.00     0.186 HD
ENDBRANCH  12  17
ENDBRANCH   1  11
BRANCH  10  22
HETATM   22  N5  UNL     1       0.068   1.639   0.714  1.00  0.00    -0.199 N 
ATOM     23  H5  UNL     1      -0.558   1.733   1.514  1.00  0.00     0.208 HD
BRANCH  22  24
HETATM   24  N6  UNL     1       0.926   2.685   0.407  1.00  0.00    -0.028 N 
HETATM   25  O2  UNL     1       1.019   3.181  -0.742  1.00  0.00    -0.516 OA
HETATM   26  O3  UNL     1       1.736   3.240   1.377  1.00  0.00    -0.516 OA
ENDBRANCH  22  24
ENDBRANCH  10  22
TORSDOF 4
