REMARK  13 active torsions:
REMARK  status: ('A' for Active; 'I' for Inactive)
REMARK    1  A    between atoms: C2_2  and  O1_3 
REMARK    2  A    between atoms: O1_3  and  C3_4 
REMARK    3  A    between atoms: C3_4  and  C4_5 
REMARK    4  A    between atoms: C4_5  and  O2_6 
REMARK    5  A    between atoms: O2_6  and  C5_7 
REMARK    6  A    between atoms: C7_9  and  C8_10 
REMARK    7  A    between atoms: C8_10  and  O3_12 
REMARK    8  A    between atoms: C10_15  and  O5_16 
REMARK    9  A    between atoms: O5_16  and  C11_17 
REMARK   10  A    between atoms: C15_22  and  S1_23 
REMARK   11  A    between atoms: C16_25  and  O7_26 
REMARK   12  A    between atoms: C17_28  and  O8_29 
REMARK   13  A    between atoms: C18_31  and  O9_32 
ROOT
HETATM    1  C5  UNL     1       2.540  -1.621  -0.607  1.00  0.00     0.157 C 
HETATM    2  C6  UNL     1       2.485  -1.882  -2.098  1.00  0.00     0.069 C 
HETATM    3  C7  UNL     1       1.428  -1.030  -2.767  1.00  0.00     0.155 C 
HETATM    4  O4  UNL     1       0.835  -0.170  -1.814  1.00  0.00    -0.351 OA
HETATM    5  C10 UNL     1       0.144  -0.950  -0.910  1.00  0.00     0.294 C 
HETATM    6  C18 UNL     1       1.152  -1.616  -0.003  1.00  0.00     0.202 C 
ENDROOT
BRANCH   5   7
HETATM    7  O5  UNL     1      -0.748  -0.262  -0.125  1.00  0.00    -0.326 OA
BRANCH   7   8
HETATM    8  C11 UNL     1      -2.055  -0.706  -0.247  1.00  0.00     0.294 C 
HETATM    9  O6  UNL     1      -2.479  -1.269   0.949  1.00  0.00    -0.358 OA
HETATM   10  C12 UNL     1      -2.433  -0.376   2.010  1.00  0.00     0.176 C 
HETATM   11  C13 UNL     1      -3.863   0.055   2.275  1.00  0.00     0.023 C 
HETATM   12  C14 UNL     1      -4.081   0.504   3.690  1.00  0.00     0.013 C 
HETATM   13  C15 UNL     1      -4.165   1.163   1.267  1.00  0.00     0.096 C 
HETATM   14  C16 UNL     1      -4.257   0.494  -0.083  1.00  0.00     0.166 C 
HETATM   15  C17 UNL     1      -2.951   0.353  -0.778  1.00  0.00     0.203 C 
BRANCH  13  16
HETATM   16  S1  UNL     1      -5.803   1.825   1.713  1.00  0.00    -0.077 SA
HETATM   17  S2  UNL     1      -6.412   3.379   0.433  1.00  0.00    -0.013 SA
ENDBRANCH  13  16
BRANCH  14  18
HETATM   18  O7  UNL     1      -5.096   1.301  -0.873  1.00  0.00    -0.392 OA
ATOM     19  H7  UNL     1      -5.154   0.880  -1.723  1.00  0.00     0.210 HD
ENDBRANCH  14  18
BRANCH  15  20
HETATM   20  O8  UNL     1      -3.225   0.136  -2.144  1.00  0.00    -0.388 OA
ATOM     21  H8  UNL     1      -3.798   0.813  -2.484  1.00  0.00     0.210 HD
ENDBRANCH  15  20
ENDBRANCH   7   8
ENDBRANCH   5   7
BRANCH   6  22
HETATM   22  O9  UNL     1       0.706  -2.890   0.321  1.00  0.00    -0.388 OA
ATOM     23  H9  UNL     1      -0.165  -2.887   0.700  1.00  0.00     0.210 HD
ENDBRANCH   6  22
BRANCH   3  24
HETATM   24  C8  UNL     1       2.017  -0.136  -3.830  1.00  0.00     0.143 C 
HETATM   25  C9  UNL     1       0.940   0.782  -4.339  1.00  0.00     0.042 C 
BRANCH  24  26
HETATM   26  O3  UNL     1       2.638  -0.852  -4.841  1.00  0.00    -0.393 OA
ATOM     27  H3  UNL     1       3.009  -0.289  -5.510  1.00  0.00     0.210 HD
ENDBRANCH  24  26
ENDBRANCH   3  24
BRANCH   1  28
HETATM   28  O2  UNL     1       3.213  -0.437  -0.326  1.00  0.00    -0.381 OA
BRANCH  28  29
HETATM   29  C4  UNL     1       4.324  -0.711   0.428  1.00  0.00     0.194 C 
BRANCH  29  30
HETATM   30  C3  UNL     1       5.113   0.534   0.776  1.00  0.00     0.193 C 
BRANCH  30  31
HETATM   31  O1  UNL     1       4.367   1.454   1.507  1.00  0.00    -0.389 OA
BRANCH  31  32
HETATM   32  C2  UNL     1       3.920   0.938   2.699  1.00  0.00     0.163 C 
HETATM   33  C1  UNL     1       3.118   2.018   3.429  1.00  0.00     0.033 C 
ENDBRANCH  31  32
ENDBRANCH  30  31
ENDBRANCH  29  30
ENDBRANCH  28  29
ENDBRANCH   1  28
TORSDOF 13
