REMARK  14 active torsions:
REMARK  status: ('A' for Active; 'I' for Inactive)
REMARK    1  A    between atoms: O1_2  and  C2_3 
REMARK    2  A    between atoms: C3_4  and  O2_5 
REMARK    3  A    between atoms: C5_9  and  N1_10 
REMARK    4  A    between atoms: N1_10  and  C6_11 
REMARK    5  A    between atoms: N1_10  and  C14_19 
REMARK    6  A    between atoms: C6_11  and  C7_12 
REMARK    7  A    between atoms: C7_12  and  C8_13 
REMARK    8  A    between atoms: C8_13  and  C9_14 
REMARK    9  A    between atoms: C14_19  and  C15_20 
REMARK   10  A    between atoms: C14_19  and  C16_23 
REMARK   11  A    between atoms: C15_20  and  O3_21 
REMARK   12  A    between atoms: C16_23  and  O4_24 
REMARK   13  A    between atoms: C18_30  and  C19_31 
REMARK   14  A    between atoms: C19_31  and  O6_32 
ROOT
HETATM    1  C2  UNL     1      -4.863  -0.581   1.039  1.00  0.00     0.168 C 
HETATM    2  C3  UNL     1      -4.241   0.738   0.698  1.00  0.00     0.166 C 
HETATM    3  C4  UNL     1      -3.045   0.748  -0.108  1.00  0.00     0.135 C 
HETATM    4  S1  UNL     1      -1.717   1.874   0.555  1.00  0.00    -0.082 SA
HETATM    5  C5  UNL     1      -0.465   1.056  -0.407  1.00  0.00     0.141 C 
HETATM    6  N2  UNL     1      -0.915  -0.073  -0.676  1.00  0.00    -0.343 N 
ATOM      7  H2  UNL     1      -0.357  -0.723  -1.230  1.00  0.00     0.164 HD
HETATM    8  C17 UNL     1      -2.206  -0.463  -0.214  1.00  0.00     0.239 C 
HETATM    9  O5  UNL     1      -1.977  -1.108   0.995  1.00  0.00    -0.357 OA
HETATM   10  C18 UNL     1      -2.868  -2.056   1.369  1.00  0.00     0.165 C 
HETATM   11  C20 UNL     1      -4.045  -1.376   2.033  1.00  0.00     0.121 C 
HETATM   12  S2  UNL     1      -3.465  -0.222   3.301  1.00  0.00    -0.087 SA
ENDROOT
BRANCH   5  13
HETATM   13  N1  UNL     1       0.809   1.614  -0.780  1.00  0.00    -0.353 N 
BRANCH  13  14
HETATM   14  C6  UNL     1       1.942   1.367   0.044  1.00  0.00     0.125 C 
BRANCH  14  15
HETATM   15  C7  UNL     1       3.029   0.500  -0.469  1.00  0.00     0.020 C 
BRANCH  15  16
HETATM   16  C8  UNL     1       4.129   0.325   0.610  1.00  0.00     0.006 C 
BRANCH  16  17
HETATM   17  C9  UNL     1       5.230  -0.553   0.112  1.00  0.00    -0.014 C 
HETATM   18  C10 UNL     1       4.783  -1.931  -0.258  1.00  0.00     0.004 C 
HETATM   19  C11 UNL     1       5.687  -2.919   0.437  1.00  0.00     0.000 C 
HETATM   20  C12 UNL     1       6.795  -2.121   1.063  1.00  0.00     0.000 C 
HETATM   21  C13 UNL     1       6.210  -0.739   1.275  1.00  0.00     0.004 C 
ENDBRANCH  16  17
ENDBRANCH  15  16
ENDBRANCH  14  15
ENDBRANCH  13  14
BRANCH  13  22
HETATM   22  C14 UNL     1       0.816   2.424  -1.976  1.00  0.00     0.133 C 
BRANCH  22  23
HETATM   23  C15 UNL     1       0.076   3.728  -1.758  1.00  0.00     0.191 C 
BRANCH  23  24
HETATM   24  O3  UNL     1       0.038   4.548  -2.864  1.00  0.00    -0.399 OA
ATOM     25  H3  UNL     1      -0.426   5.366  -2.727  1.00  0.00     0.209 HD
ENDBRANCH  23  24
ENDBRANCH  22  23
BRANCH  22  26
HETATM   26  C16 UNL     1       2.109   2.654  -2.647  1.00  0.00     0.191 C 
BRANCH  26  27
HETATM   27  O4  UNL     1       1.872   3.509  -3.766  1.00  0.00    -0.399 OA
ATOM     28  H4  UNL     1       2.705   3.657  -4.198  1.00  0.00     0.209 HD
ENDBRANCH  26  27
ENDBRANCH  22  26
ENDBRANCH  13  22
ENDBRANCH   5  13
BRANCH   2  29
HETATM   29  O2  UNL     1      -5.252   1.497   0.062  1.00  0.00    -0.392 OA
ATOM     30  H2  UNL     1      -4.857   2.334  -0.154  1.00  0.00     0.210 HD
ENDBRANCH   2  29
BRANCH   1  31
HETATM   31  O1  UNL     1      -6.066  -0.295   1.688  1.00  0.00    -0.387 OA
HETATM   32  C1  UNL     1      -7.158  -0.837   1.017  1.00  0.00     0.202 C 
ENDBRANCH   1  31
BRANCH  10  33
HETATM   33  C19 UNL     1      -3.288  -3.062   0.366  1.00  0.00     0.197 C 
BRANCH  33  34
HETATM   34  O6  UNL     1      -4.205  -3.924   1.019  1.00  0.00    -0.398 OA
ATOM     35  H6  UNL     1      -4.474  -4.569   0.376  1.00  0.00     0.209 HD
ENDBRANCH  33  34
ENDBRANCH  10  33
TORSDOF 14
