REMARK  15 active torsions:
REMARK  status: ('A' for Active; 'I' for Inactive)
REMARK    1  A    between atoms: C3_4  and  O2_5 
REMARK    2  A    between atoms: O2_5  and  C4_6 
REMARK    3  A    between atoms: C4_6  and  C5_7 
REMARK    4  A    between atoms: C5_7  and  O3_8 
REMARK    5  A    between atoms: O3_8  and  C6_9 
REMARK    6  A    between atoms: C6_9  and  C7_10 
REMARK    7  A    between atoms: C7_10  and  O4_11 
REMARK    8  A    between atoms: O4_11  and  C8_12 
REMARK    9  A    between atoms: C8_12  and  N1_13 
REMARK   10  A    between atoms: C9_14  and  O5_15 
REMARK   11  A    between atoms: C10_17  and  C11_18 
REMARK   12  A    between atoms: C12_19  and  C13_20 
REMARK   13  A    between atoms: C18_28  and  O6_29 
REMARK   14  A    between atoms: C19_31  and  O7_32 
REMARK   15  A    between atoms: C20_34  and  O8_35 
ROOT
HETATM    1  C6  UNL     1       0.907   0.019  -1.089  1.00  0.00     0.193 C 
ENDROOT
BRANCH   1   2
HETATM    2  O3  UNL     1       1.896   0.795  -1.531  1.00  0.00    -0.387 OA
BRANCH   2   3
HETATM    3  C5  UNL     1       2.388   1.809  -0.785  1.00  0.00     0.194 C 
BRANCH   3   4
HETATM    4  C4  UNL     1       3.596   2.437  -1.546  1.00  0.00     0.197 C 
BRANCH   4   5
HETATM    5  O2  UNL     1       4.541   1.465  -1.722  1.00  0.00    -0.356 OA
BRANCH   5   6
HETATM    6  C3  UNL     1       5.058   0.892  -0.594  1.00  0.00     0.291 C 
HETATM    7  O1  UNL     1       4.723  -0.481  -0.635  1.00  0.00    -0.351 OA
HETATM    8  C2  UNL     1       4.775  -0.972   0.651  1.00  0.00     0.152 C 
HETATM    9  C1  UNL     1       4.787  -2.502   0.535  1.00  0.00     0.042 C 
HETATM   10  C20 UNL     1       5.962  -0.487   1.437  1.00  0.00     0.178 C 
HETATM   11  C19 UNL     1       7.038  -0.097   0.445  1.00  0.00     0.183 C 
HETATM   12  C18 UNL     1       6.566   0.949  -0.525  1.00  0.00     0.204 C 
BRANCH  10  13
HETATM   13  O8  UNL     1       6.455  -1.555   2.186  1.00  0.00    -0.390 OA
ATOM     14  H8  UNL     1       7.205  -1.249   2.682  1.00  0.00     0.210 HD
ENDBRANCH  10  13
BRANCH  11  15
HETATM   15  O7  UNL     1       8.199   0.310   1.092  1.00  0.00    -0.390 OA
ATOM     16  H7  UNL     1       8.497  -0.351   1.705  1.00  0.00     0.210 HD
ENDBRANCH  11  15
BRANCH  12  17
HETATM   17  O6  UNL     1       7.167   0.694  -1.756  1.00  0.00    -0.388 OA
ATOM     18  H6  UNL     1       8.115   0.730  -1.713  1.00  0.00     0.210 HD
ENDBRANCH  12  17
ENDBRANCH   5   6
ENDBRANCH   4   5
ENDBRANCH   3   4
ENDBRANCH   2   3
ENDBRANCH   1   2
BRANCH   1  19
HETATM   19  C7  UNL     1      -0.369   0.732  -0.774  1.00  0.00     0.196 C 
BRANCH  19  20
HETATM   20  O4  UNL     1      -0.203   1.660   0.210  1.00  0.00    -0.369 OA
BRANCH  20  21
HETATM   21  C8  UNL     1      -1.323   2.391   0.532  1.00  0.00     0.303 C 
BRANCH  21  22
HETATM   22  N1  UNL     1      -2.416   1.588   0.976  1.00  0.00    -0.280 N 
HETATM   23  C9  UNL     1      -3.463   1.037   0.317  1.00  0.00     0.182 A 
HETATM   24  C10 UNL     1      -4.260   0.327   1.171  1.00  0.00     0.140 A 
HETATM   25  N2  UNL     1      -3.680   0.451   2.378  1.00  0.00    -0.322 N 
HETATM   26  C17 UNL     1      -2.572   1.206   2.276  1.00  0.00     0.182 A 
ATOM     27  H2  UNL     1      -4.028   0.035   3.242  1.00  0.00     0.169 HD
HETATM   28  S1  UNL     1      -1.561   1.610   3.508  1.00  0.00    -0.040 SA
BRANCH  23  29
HETATM   29  O5  UNL     1      -3.684   1.184  -1.039  1.00  0.00    -0.344 OA
ATOM     30  H5  UNL     1      -4.418   0.797  -1.501  1.00  0.00     0.219 HD
ENDBRANCH  23  29
BRANCH  24  31
HETATM   31  C11 UNL     1      -5.467  -0.398   0.830  1.00  0.00    -0.043 C 
HETATM   32  C12 UNL     1      -6.471  -0.991   0.528  1.00  0.00    -0.090 C 
BRANCH  32  33
HETATM   33  C13 UNL     1      -7.697  -1.715   0.132  1.00  0.00     0.013 C 
HETATM   34  C14 UNL     1      -8.188  -1.178  -1.210  1.00  0.00     0.028 C 
HETATM   35  C15 UNL     1      -7.371  -3.170  -0.057  1.00  0.00     0.028 C 
HETATM   36  C16 UNL     1      -8.802  -1.526   1.145  1.00  0.00     0.028 C 
ENDBRANCH  32  33
ENDBRANCH  24  31
ENDBRANCH  21  22
ENDBRANCH  20  21
ENDBRANCH  19  20
ENDBRANCH   1  19
TORSDOF 15
