REMARK  14 active torsions:
REMARK  status: ('A' for Active; 'I' for Inactive)
REMARK    1  A    between atoms: C2_2  and  C3_3 
REMARK    2  A    between atoms: C3_3  and  C4_4 
REMARK    3  A    between atoms: C3_3  and  S1_6 
REMARK    4  A    between atoms: S1_6  and  S2_7 
REMARK    5  A    between atoms: S2_7  and  C6_8 
REMARK    6  A    between atoms: C9_12  and  C10_13 
REMARK    7  A    between atoms: C10_13  and  O2_14 
REMARK    8  A    between atoms: O2_14  and  C11_15 
REMARK    9  A    between atoms: C12_17  and  C13_18 
REMARK   10  A    between atoms: C13_18  and  O4_19 
REMARK   11  A    between atoms: C14_21  and  O5_22 
REMARK   12  A    between atoms: C15_24  and  O6_25 
REMARK   13  A    between atoms: C16_27  and  O7_28 
REMARK   14  A    between atoms: C17_30  and  O8_31 
ROOT
HETATM    1  C6  UNL     1      -2.071   1.194  -0.302  1.00  0.00     0.093 C 
HETATM    2  C7  UNL     1      -1.565   0.216   0.702  1.00  0.00     0.133 C 
HETATM    3  C8  UNL     1      -2.500  -0.437   1.611  1.00  0.00     0.041 C 
HETATM    4  O1  UNL     1      -0.696  -0.621   0.029  1.00  0.00    -0.375 OA
HETATM    5  C9  UNL     1       0.345   0.039  -0.608  1.00  0.00     0.174 C 
HETATM    6  C17 UNL     1       0.263   1.471  -0.851  1.00  0.00     0.154 C 
HETATM    7  C18 UNL     1      -0.959   2.234  -0.410  1.00  0.00     0.030 C 
HETATM    8  C19 UNL     1      -1.277   3.339  -1.355  1.00  0.00     0.014 C 
ENDROOT
BRANCH   5   9
HETATM    9  C10 UNL     1       1.680  -0.416   0.006  1.00  0.00     0.205 C 
BRANCH   9  10
HETATM   10  O2  UNL     1       2.693   0.235  -0.647  1.00  0.00    -0.356 OA
BRANCH  10  11
HETATM   11  C11 UNL     1       3.959  -0.171  -0.204  1.00  0.00     0.291 C 
HETATM   12  O3  UNL     1       4.630  -0.729  -1.320  1.00  0.00    -0.348 OA
HETATM   13  C12 UNL     1       5.797  -1.354  -0.986  1.00  0.00     0.179 C 
HETATM   14  C14 UNL     1       6.758  -0.501  -0.220  1.00  0.00     0.180 C 
HETATM   15  C15 UNL     1       6.145   0.567   0.591  1.00  0.00     0.183 C 
HETATM   16  C16 UNL     1       4.772   1.014   0.228  1.00  0.00     0.204 C 
BRANCH  13  17
HETATM   17  C13 UNL     1       5.586  -2.722  -0.361  1.00  0.00     0.198 C 
BRANCH  17  18
HETATM   18  O4  UNL     1       6.849  -3.278  -0.056  1.00  0.00    -0.398 OA
ATOM     19  H4  UNL     1       6.717  -4.134   0.335  1.00  0.00     0.209 HD
ENDBRANCH  17  18
ENDBRANCH  13  17
BRANCH  14  20
HETATM   20  O5  UNL     1       7.771   0.027  -1.050  1.00  0.00    -0.390 OA
ATOM     21  H5  UNL     1       8.381   0.569  -0.564  1.00  0.00     0.210 HD
ENDBRANCH  14  20
BRANCH  15  22
HETATM   22  O6  UNL     1       6.124   0.232   1.967  1.00  0.00    -0.390 OA
ATOM     23  H6  UNL     1       5.729   0.920   2.490  1.00  0.00     0.210 HD
ENDBRANCH  15  22
BRANCH  16  24
HETATM   24  O7  UNL     1       4.218   1.668   1.336  1.00  0.00    -0.388 OA
ATOM     25  H7  UNL     1       4.733   2.418   1.609  1.00  0.00     0.210 HD
ENDBRANCH  16  24
ENDBRANCH  10  11
ENDBRANCH   9  10
ENDBRANCH   5   9
BRANCH   6  26
HETATM   26  O8  UNL     1       1.354   2.149  -0.289  1.00  0.00    -0.393 OA
ATOM     27  H8  UNL     1       1.300   3.084  -0.448  1.00  0.00     0.210 HD
ENDBRANCH   6  26
BRANCH   1  28
HETATM   28  S2  UNL     1      -3.704   1.781  -0.275  1.00  0.00    -0.089 SA
BRANCH  28  29
HETATM   29  S1  UNL     1      -5.104   0.659  -1.238  1.00  0.00    -0.092 SA
BRANCH  29  30
HETATM   30  C3  UNL     1      -6.024  -0.607  -0.527  1.00  0.00     0.058 C 
BRANCH  30  31
HETATM   31  C2  UNL     1      -5.437  -1.942  -0.222  1.00  0.00     0.011 C 
HETATM   32  C1  UNL     1      -6.602  -2.939   0.020  1.00  0.00     0.006 C 
ENDBRANCH  30  31
BRANCH  30  33
HETATM   33  C4  UNL     1      -6.864  -0.148   0.696  1.00  0.00     0.011 C 
HETATM   34  C5  UNL     1      -7.459   1.196   0.402  1.00  0.00     0.006 C 
ENDBRANCH  30  33
ENDBRANCH  29  30
ENDBRANCH  28  29
ENDBRANCH   1  28
TORSDOF 14
