REMARK  16 active torsions:
REMARK  status: ('A' for Active; 'I' for Inactive)
REMARK    1  A    between atoms: C2_2  and  O2_4 
REMARK    2  A    between atoms: O2_4  and  C3_5 
REMARK    3  A    between atoms: N1_7  and  O3_9 
REMARK    4  A    between atoms: O3_9  and  C5_10 
REMARK    5  A    between atoms: C6_11  and  O4_12 
REMARK    6  A    between atoms: C7_14  and  O5_15 
REMARK    7  A    between atoms: O5_15  and  C8_16 
REMARK    8  A    between atoms: C11_20  and  O6_21 
REMARK    9  A    between atoms: C13_24  and  C14_25 
REMARK   10  A    between atoms: C14_25  and  O7_26 
REMARK   11  A    between atoms: C15_28  and  O8_29 
REMARK   12  A    between atoms: O8_29  and  S2_30 
REMARK   13  A    between atoms: C16_34  and  O12_35 
REMARK   14  A    between atoms: O12_35  and  S3_36 
REMARK   15  A    between atoms: C17_40  and  O16_41 
REMARK   16  A    between atoms: O16_41  and  S4_42 
ROOT
HETATM    1  C5  UNL     1       1.833   0.297   0.030  1.00  0.00     0.216 C 
HETATM    2  C6  UNL     1       0.520  -0.035  -0.662  1.00  0.00     0.183 C 
HETATM    3  C7  UNL     1      -0.671   0.381   0.173  1.00  0.00     0.186 C 
HETATM    4  C15 UNL     1      -0.558   1.865   0.408  1.00  0.00     0.209 C 
HETATM    5  C16 UNL     1       0.746   2.191   1.103  1.00  0.00     0.211 C 
HETATM    6  C17 UNL     1       1.921   1.795   0.250  1.00  0.00     0.212 C 
ENDROOT
BRANCH   3   7
HETATM    7  O5  UNL     1      -1.810   0.081  -0.572  1.00  0.00    -0.373 OA
BRANCH   7   8
HETATM    8  C8  UNL     1      -2.621  -0.853   0.046  1.00  0.00     0.143 C 
HETATM    9  C9  UNL     1      -2.670  -2.141  -0.738  1.00  0.00     0.090 C 
HETATM   10  S1  UNL     1      -2.878  -1.772  -2.530  1.00  0.00    -0.090 SA
HETATM   11  C10 UNL     1      -3.669  -3.118  -0.296  1.00  0.00     0.050 C 
HETATM   12  C11 UNL     1      -4.766  -2.686   0.581  1.00  0.00     0.119 C 
HETATM   13  C12 UNL     1      -4.561  -1.419   1.342  1.00  0.00     0.041 C 
HETATM   14  C13 UNL     1      -3.973  -0.350   0.428  1.00  0.00     0.042 C 
BRANCH  12  15
HETATM   15  O6  UNL     1      -5.085  -3.679   1.541  1.00  0.00    -0.396 OA
ATOM     16  H6  UNL     1      -5.794  -3.400   2.108  1.00  0.00     0.210 HD
ENDBRANCH  12  15
BRANCH  14  17
HETATM   17  C14 UNL     1      -4.898  -0.110  -0.721  1.00  0.00     0.171 C 
BRANCH  17  18
HETATM   18  O7  UNL     1      -4.400   0.832  -1.617  1.00  0.00    -0.400 OA
ATOM     19  H7  UNL     1      -4.988   0.985  -2.347  1.00  0.00     0.209 HD
ENDBRANCH  17  18
ENDBRANCH  14  17
ENDBRANCH   7   8
ENDBRANCH   3   7
BRANCH   2  20
HETATM   20  O4  UNL     1       0.507   0.690  -1.852  1.00  0.00    -0.390 OA
ATOM     21  H4  UNL     1      -0.313   0.483  -2.284  1.00  0.00     0.210 HD
ENDBRANCH   2  20
BRANCH   4  22
HETATM   22  O8  UNL     1      -1.575   2.380   1.188  1.00  0.00    -0.246 OA
BRANCH  22  23
HETATM   23  S2  UNL     1      -2.353   3.587   0.329  1.00  0.00     0.252 S 
HETATM   24  O9  UNL     1      -3.797   3.619   0.730  1.00  0.00    -0.572 OA
HETATM   25  O10 UNL     1      -2.180   3.361  -1.140  1.00  0.00    -0.572 OA
HETATM   26  O11 UNL     1      -1.685   5.089   0.682  1.00  0.00    -0.572 OA
ENDBRANCH  22  23
ENDBRANCH   4  22
BRANCH   1  27
HETATM   27  O3  UNL     1       2.859  -0.182  -0.814  1.00  0.00    -0.268 OA
BRANCH  27  28
HETATM   28  N1  UNL     1       3.742  -1.150  -0.484  1.00  0.00    -0.248 N 
HETATM   29  C3  UNL     1       4.244  -1.881  -1.414  1.00  0.00     0.142 C 
HETATM   30  C4  UNL     1       3.878  -1.689  -2.836  1.00  0.00     0.099 C 
ATOM     31  H1  UNL     1       4.006  -1.298   0.490  1.00  0.00     0.196 HD
BRANCH  29  32
HETATM   32  O2  UNL     1       5.150  -2.877  -1.097  1.00  0.00    -0.265 OA
BRANCH  32  33
HETATM   33  C2  UNL     1       5.560  -3.137   0.213  1.00  0.00     0.261 C 
HETATM   34  C1  UNL     1       6.529  -4.203   0.547  1.00  0.00     0.126 C 
HETATM   35  O1  UNL     1       5.062  -2.416   1.112  1.00  0.00    -0.265 OA
ENDBRANCH  32  33
ENDBRANCH  29  32
ENDBRANCH  27  28
ENDBRANCH   1  27
BRANCH   5  36
HETATM   36  O12 UNL     1       0.830   1.485   2.302  1.00  0.00    -0.246 OA
BRANCH  36  37
HETATM   37  S3  UNL     1       0.869   2.504   3.632  1.00  0.00     0.252 S 
HETATM   38  O13 UNL     1       0.976   3.940   3.263  1.00  0.00    -0.572 OA
HETATM   39  O14 UNL     1      -0.408   2.312   4.391  1.00  0.00    -0.572 OA
HETATM   40  O15 UNL     1       2.137   2.116   4.668  1.00  0.00    -0.572 OA
ENDBRANCH  36  37
ENDBRANCH   5  36
BRANCH   6  41
HETATM   41  O16 UNL     1       1.924   2.399  -0.989  1.00  0.00    -0.246 OA
BRANCH  41  42
HETATM   42  S4  UNL     1       3.334   3.241  -1.300  1.00  0.00     0.252 S 
HETATM   43  O17 UNL     1       2.970   4.404  -2.195  1.00  0.00    -0.572 OA
HETATM   44  O18 UNL     1       4.005   3.685  -0.043  1.00  0.00    -0.572 OA
HETATM   45  O19 UNL     1       4.445   2.307  -2.157  1.00  0.00    -0.572 OA
ENDBRANCH  41  42
ENDBRANCH   6  41
TORSDOF 16
