REMARK  11 active torsions:
REMARK  status: ('A' for Active; 'I' for Inactive)
REMARK    1  A    between atoms: C2_2  and  C3_3 
REMARK    2  A    between atoms: C3_3  and  C4_4 
REMARK    3  A    between atoms: C4_4  and  N1_5 
REMARK    4  A    between atoms: N1_5  and  C5_6 
REMARK    5  A    between atoms: N1_5  and  S1_24 
REMARK    6  A    between atoms: N3_9  and  C7_10 
REMARK    7  A    between atoms: C7_10  and  C8_11 
REMARK    8  A    between atoms: C8_11  and  C9_12 
REMARK    9  A    between atoms: N5_19  and  C13_21 
REMARK   10  A    between atoms: S1_24  and  C16_27 
REMARK   11  A    between atoms: C16_27  and  C17_28 
ROOT
HETATM    1  C5  UNL     1       0.162   0.193  -0.465  1.00  0.00     0.130 A 
HETATM    2  C6  UNL     1       1.289   0.689  -1.114  1.00  0.00     0.154 A 
HETATM    3  N2  UNL     1       1.477   2.053  -1.424  1.00  0.00    -0.080 NA
HETATM    4  N3  UNL     1       2.308  -0.127  -1.518  1.00  0.00    -0.285 N 
HETATM    5  C11 UNL     1       2.224  -1.443  -1.285  1.00  0.00     0.329 A 
HETATM    6  O1  UNL     1       3.157  -2.239  -1.649  1.00  0.00    -0.246 OA
HETATM    7  N4  UNL     1       1.172  -1.985  -0.667  1.00  0.00    -0.292 N 
ATOM      8  H4  UNL     1       1.131  -2.990  -0.500  1.00  0.00     0.172 HD
HETATM    9  C12 UNL     1       0.151  -1.171  -0.261  1.00  0.00     0.137 A 
HETATM   10  N5  UNL     1      -0.819  -1.685   0.352  1.00  0.00    -0.370 N 
ATOM     11  H5  UNL     1      -1.525  -1.011   0.647  1.00  0.00     0.161 HD
ENDROOT
BRANCH   1  12
HETATM   12  N1  UNL     1      -0.914   1.073  -0.102  1.00  0.00    -0.269 N 
BRANCH  12  13
HETATM   13  C4  UNL     1      -0.992   1.556   1.286  1.00  0.00     0.142 C 
BRANCH  13  14
HETATM   14  C3  UNL     1      -0.370   2.874   1.534  1.00  0.00     0.021 C 
BRANCH  14  15
HETATM   15  C2  UNL     1      -0.597   3.194   3.025  1.00  0.00    -0.003 C 
HETATM   16  C1  UNL     1       0.063   2.105   3.843  1.00  0.00     0.005 C 
ENDBRANCH  14  15
ENDBRANCH  13  14
ENDBRANCH  12  13
BRANCH  12  17
HETATM   17  S1  UNL     1      -2.182   1.550  -1.130  1.00  0.00     0.233 S 
HETATM   18  O2  UNL     1      -1.529   2.190  -2.367  1.00  0.00    -0.205 OA
HETATM   19  O3  UNL     1      -2.910   2.711  -0.480  1.00  0.00    -0.205 OA
BRANCH  17  20
HETATM   20  C16 UNL     1      -3.257   0.337  -1.732  1.00  0.00     0.167 C 
BRANCH  20  21
HETATM   21  C17 UNL     1      -4.108  -0.396  -0.767  1.00  0.00    -0.007 C 
HETATM   22  C18 UNL     1      -4.933  -1.391  -1.606  1.00  0.00     0.010 C 
HETATM   23  C19 UNL     1      -5.172   0.507  -0.135  1.00  0.00     0.010 C 
ENDBRANCH  20  21
ENDBRANCH  17  20
ENDBRANCH  12  17
ENDBRANCH   1  12
BRANCH   4  24
HETATM   24  C7  UNL     1       3.446   0.432  -2.190  1.00  0.00     0.135 C 
BRANCH  24  25
HETATM   25  C8  UNL     1       4.552   0.894  -1.312  1.00  0.00     0.020 C 
BRANCH  25  26
HETATM   26  C9  UNL     1       5.176  -0.137  -0.436  1.00  0.00    -0.003 C 
HETATM   27  C10 UNL     1       6.288   0.560   0.364  1.00  0.00     0.005 C 
ENDBRANCH  25  26
ENDBRANCH  24  25
ENDBRANCH   4  24
BRANCH  10  28
HETATM   28  C13 UNL     1      -1.118  -3.022   0.711  1.00  0.00     0.075 C 
HETATM   29  C14 UNL     1      -0.151  -3.593   1.734  1.00  0.00     0.031 C 
HETATM   30  C15 UNL     1      -1.335  -3.964  -0.430  1.00  0.00     0.031 C 
ENDBRANCH  10  28
TORSDOF 11
