REMARK  12 active torsions:
REMARK  status: ('A' for Active; 'I' for Inactive)
REMARK    1  A    between atoms: C2_2  and  N1_3 
REMARK    2  A    between atoms: N1_3  and  C3_5 
REMARK    3  A    between atoms: C3_5  and  C4_6 
REMARK    4  A    between atoms: C3_5  and  C16_25 
REMARK    5  A    between atoms: C4_6  and  C5_7 
REMARK    6  A    between atoms: C5_7  and  C6_8 
REMARK    7  A    between atoms: C6_8  and  C7_9 
REMARK    8  A    between atoms: C7_9  and  C8_10 
REMARK    9  A    between atoms: C8_10  and  C9_11 
REMARK   10  A    between atoms: C9_11  and  N2_12 
REMARK       I    between atoms: C10_14  and  N3_15 
REMARK       I    between atoms: C10_14  and  N5_19 
REMARK   11  A    between atoms: C16_25  and  N6_27 
REMARK   12  A    between atoms: N6_27  and  C18_30 
ROOT
HETATM    1  N2  UNL     1       4.150  -0.119  -0.805  1.00  0.00    -0.205 N 
ATOM      2  H2  UNL     1       4.564   0.660  -1.317  1.00  0.00     0.183 HD
HETATM    3  C10 UNL     1       4.995  -0.442  -0.020  1.00  0.00     0.689 C 
HETATM    4  N3  UNL     1       4.869  -1.508   0.928  1.00  0.00    -0.126 N 
ATOM      5  H3  UNL     1       4.618  -1.281   1.890  1.00  0.00     0.197 HD
HETATM    6  C11 UNL     1       5.075  -2.839   0.587  1.00  0.00     0.196 C 
HETATM    7  N4  UNL     1       5.229  -3.952   0.311  1.00  0.00    -0.171 NA
HETATM    8  N5  UNL     1       6.251   0.271  -0.011  1.00  0.00    -0.213 N 
HETATM    9  C12 UNL     1       7.187   0.117  -1.114  1.00  0.00     0.167 C 
HETATM   10  C13 UNL     1       8.575   0.318  -0.556  1.00  0.00     0.188 C 
HETATM   11  O1  UNL     1       8.759   1.562  -0.003  1.00  0.00    -0.388 OA
HETATM   12  C14 UNL     1       7.616   2.139   0.486  1.00  0.00     0.188 C 
HETATM   13  C15 UNL     1       6.621   1.155   1.067  1.00  0.00     0.167 C 
ENDROOT
BRANCH   1  14
HETATM   14  C9  UNL     1       2.906  -0.270  -1.361  1.00  0.00     0.079 C 
BRANCH  14  15
HETATM   15  C8  UNL     1       1.877  -0.840  -0.422  1.00  0.00     0.045 C 
BRANCH  15  16
HETATM   16  C7  UNL     1       1.666   0.054   0.747  1.00  0.00     0.005 C 
BRANCH  16  17
HETATM   17  C6  UNL     1       0.640  -0.596   1.664  1.00  0.00     0.001 C 
BRANCH  17  18
HETATM   18  C5  UNL     1      -0.691  -0.820   1.022  1.00  0.00     0.006 C 
BRANCH  18  19
HETATM   19  C4  UNL     1      -1.341   0.443   0.581  1.00  0.00     0.054 C 
BRANCH  19  20
HETATM   20  C3  UNL     1      -2.684   0.176  -0.077  1.00  0.00     0.016 C 
BRANCH  20  21
HETATM   21  N1  UNL     1      -3.138  -0.891  -0.283  1.00  0.00    -0.375 N 
ATOM     22  H1  UNL     1      -4.025  -0.649  -0.725  1.00  0.00     0.164 HD
BRANCH  21  23
HETATM   23  C2  UNL     1      -3.198  -2.239  -0.290  1.00  0.00     0.056 C 
HETATM   24  C1  UNL     1      -2.873  -2.907  -1.621  1.00  0.00     0.054 C 
ENDBRANCH  21  23
ENDBRANCH  20  21
BRANCH  20  25
HETATM   25  C16 UNL     1      -3.393   1.459  -0.454  1.00  0.00     0.227 C 
HETATM   26  C17 UNL     1      -2.582   2.267  -1.431  1.00  0.00     0.046 C 
BRANCH  25  27
HETATM   27  N6  UNL     1      -4.736   1.258  -0.865  1.00  0.00    -0.062 N 
ATOM     28  H62 UNL     1      -5.140   2.113  -1.247  1.00  0.00     0.278 HD
ATOM     29  H61 UNL     1      -4.786   0.672  -1.699  1.00  0.00     0.278 HD
BRANCH  27  30
HETATM   30  C18 UNL     1      -5.535   0.732   0.186  1.00  0.00     0.186 C 
HETATM   31  C19 UNL     1      -6.575  -0.283  -0.290  1.00  0.00     0.033 C 
HETATM   32  C20 UNL     1      -7.504  -0.391   0.903  1.00  0.00     0.002 C 
HETATM   33  C21 UNL     1      -7.275   0.866   1.735  1.00  0.00     0.002 C 
HETATM   34  C22 UNL     1      -6.475   1.768   0.817  1.00  0.00     0.033 C 
ENDBRANCH  27  30
ENDBRANCH  25  27
ENDBRANCH  20  25
ENDBRANCH  19  20
ENDBRANCH  18  19
ENDBRANCH  17  18
ENDBRANCH  16  17
ENDBRANCH  15  16
ENDBRANCH  14  15
ENDBRANCH   1  14
TORSDOF 12
