REMARK  8 active torsions:
REMARK  status: ('A' for Active; 'I' for Inactive)
REMARK    1  A    between atoms: C2_3  and  O1_4 
REMARK    2  A    between atoms: C3_6  and  N2_7 
REMARK    3  A    between atoms: N3_9  and  C4_11 
REMARK    4  A    between atoms: C5_12  and  O2_13 
REMARK    5  A    between atoms: N4_17  and  O4_18 
REMARK    6  A    between atoms: N5_20  and  C7_21 
REMARK    7  A    between atoms: C7_21  and  C8_22 
REMARK    8  A    between atoms: C10_29  and  N8_30 
ROOT
HETATM    1  C4  UNL     1       0.842   0.511   0.226  1.00  0.00     0.157 A 
HETATM    2  C5  UNL     1       1.071   1.733   0.813  1.00  0.00     0.172 A 
HETATM    3  C6  UNL     1       2.351   2.242   0.926  1.00  0.00     0.323 A 
HETATM    4  O3  UNL     1       2.610   3.352   1.453  1.00  0.00    -0.261 OA
HETATM    5  N4  UNL     1       3.360   1.499   0.441  1.00  0.00    -0.114 N 
HETATM    6  N5  UNL     1       3.173   0.315  -0.131  1.00  0.00    -0.217 N 
HETATM    7  C9  UNL     1       1.937  -0.197  -0.251  1.00  0.00     0.295 A 
HETATM    8  O6  UNL     1       1.725  -1.331  -0.795  1.00  0.00    -0.264 OA
ENDROOT
BRANCH   1   9
HETATM    9  N3  UNL     1      -0.477   0.046   0.140  1.00  0.00    -0.291 N 
HETATM   10  N2  UNL     1      -1.361   0.568  -0.609  1.00  0.00    -0.281 N 
ATOM     11  H2  UNL     1      -1.107   1.371  -1.184  1.00  0.00     0.188 HD
ATOM     12  H3  UNL     1      -0.743  -0.757   0.711  1.00  0.00     0.187 HD
BRANCH  10  13
HETATM   13  C3  UNL     1      -2.692   0.072  -0.674  1.00  0.00     0.187 A 
HETATM   14  C2  UNL     1      -3.650   0.081   0.328  1.00  0.00     0.204 A 
HETATM   15  N1  UNL     1      -4.788  -0.478  -0.114  1.00  0.00    -0.163 N 
HETATM   16  C1  UNL     1      -6.038  -0.661   0.636  1.00  0.00     0.177 C 
HETATM   17  C10 UNL     1      -4.560  -0.840  -1.388  1.00  0.00     0.681 A 
HETATM   18  N7  UNL     1      -3.299  -0.509  -1.725  1.00  0.00    -0.171 N 
ATOM     19  H7  UNL     1      -2.870  -0.673  -2.636  1.00  0.00     0.186 HD
BRANCH  14  20
HETATM   20  O1  UNL     1      -3.475   0.588   1.607  1.00  0.00    -0.343 OA
ATOM     21  H1  UNL     1      -2.670   0.984   1.920  1.00  0.00     0.219 HD
ENDBRANCH  14  20
BRANCH  17  22
HETATM   22  N8  UNL     1      -5.426  -1.423  -2.181  1.00  0.00    -0.234 N 
ATOM     23  H82 UNL     1      -6.381  -1.674  -1.926  1.00  0.00     0.174 HD
ATOM     24  H81 UNL     1      -5.253  -1.698  -3.148  1.00  0.00     0.174 HD
ENDBRANCH  17  22
ENDBRANCH  10  13
ENDBRANCH   1   9
BRANCH   2  25
HETATM   25  O2  UNL     1       0.046   2.530   1.326  1.00  0.00    -0.354 OA
ATOM     26  H2  UNL     1       0.204   3.374   1.732  1.00  0.00     0.218 HD
ENDBRANCH   2  25
BRANCH   6  27
HETATM   27  C7  UNL     1       4.308  -0.442  -0.637  1.00  0.00     0.254 C 
BRANCH  27  28
HETATM   28  C8  UNL     1       4.866  -1.339   0.402  1.00  0.00     0.251 C 
HETATM   29  N6  UNL     1       5.974  -2.146   0.078  1.00  0.00    -0.061 NA
HETATM   30  O5  UNL     1       4.354  -1.369   1.545  1.00  0.00    -0.275 OA
ENDBRANCH  27  28
ENDBRANCH   6  27
BRANCH   5  31
HETATM   31  O4  UNL     1       4.644   1.979   0.539  1.00  0.00    -0.265 OA
ATOM     32  H4  UNL     1       5.357   1.454   0.196  1.00  0.00     0.247 HD
ENDBRANCH   5  31
TORSDOF 8
