REMARK  7 active torsions:
REMARK  status: ('A' for Active; 'I' for Inactive)
REMARK    1  A    between atoms: N1_1  and  C1_4 
REMARK    2  A    between atoms: C2_7  and  N3_8 
REMARK       I    between atoms: N3_8  and  C3_10 
REMARK    3  A    between atoms: C3_10  and  C4_12 
REMARK    4  A    between atoms: C4_12  and  C5_13 
REMARK    5  A    between atoms: C5_13  and  C6_14 
REMARK    6  A    between atoms: C7_28  and  N11_29 
REMARK    7  A    between atoms: N12_31  and  C8_33 
ROOT
HETATM    1  C1  UNL     1      -1.279   2.315  -0.049  1.00  0.00     0.713 A 
HETATM    2  N2  UNL     1      -0.153   1.720  -0.440  1.00  0.00    -0.017 N 
ATOM      3  H2  UNL     1       0.618   2.166  -0.937  1.00  0.00     0.203 HD
HETATM    4  C2  UNL     1      -0.207   0.440  -0.069  1.00  0.00     0.738 A 
HETATM    5  N8  UNL     1      -1.372   0.241   0.555  1.00  0.00     0.016 N 
HETATM    6  N9  UNL     1      -1.871  -0.873   1.100  1.00  0.00    -0.204 N 
ATOM      7  H9  UNL     1      -1.333  -1.739   1.071  1.00  0.00     0.211 HD
HETATM    8  N10 UNL     1      -3.058  -0.853   1.675  1.00  0.00    -0.267 N 
ATOM      9  H10 UNL     1      -3.434  -1.707   2.088  1.00  0.00     0.190 HD
HETATM   10  C7  UNL     1      -3.766   0.265   1.721  1.00  0.00     0.154 A 
HETATM   11  C9  UNL     1      -3.251   1.408   1.161  1.00  0.00     0.189 A 
HETATM   12  N16 UNL     1      -2.021   1.381   0.566  1.00  0.00    -0.056 N 
ENDROOT
BRANCH   4  13
HETATM   13  N3  UNL     1       0.714  -0.468  -0.275  1.00  0.00    -0.156 N 
HETATM   14  C3  UNL     1       1.922  -0.159  -0.951  1.00  0.00     0.236 C 
HETATM   15  O1  UNL     1       1.944   0.437  -2.055  1.00  0.00    -0.273 OA
ATOM     16  H3  UNL     1       0.559  -1.419   0.058  1.00  0.00     0.187 HD
BRANCH  14  17
HETATM   17  C4  UNL     1       3.191  -0.562  -0.310  1.00  0.00     0.111 C 
BRANCH  17  18
HETATM   18  C5  UNL     1       4.333  -0.137  -1.194  1.00  0.00     0.088 C 
BRANCH  18  19
HETATM   19  C6  UNL     1       5.654  -0.520  -0.595  1.00  0.00     0.113 A 
HETATM   20  N4  UNL     1       6.330  -1.664  -0.775  1.00  0.00    -0.272 N 
HETATM   21  N5  UNL     1       7.433  -1.570  -0.063  1.00  0.00    -0.227 N 
ATOM     22  H4  UNL     1       6.044  -2.455  -1.352  1.00  0.00     0.190 HD
HETATM   23  N6  UNL     1       7.496  -0.414   0.568  1.00  0.00    -0.227 N 
ATOM     24  H5  UNL     1       8.146  -2.297  -0.007  1.00  0.00     0.210 HD
HETATM   25  N7  UNL     1       6.394   0.231   0.236  1.00  0.00    -0.272 N 
ATOM     26  H6  UNL     1       8.241  -0.087   1.184  1.00  0.00     0.210 HD
ATOM     27  H7  UNL     1       6.141   1.164   0.563  1.00  0.00     0.190 HD
ENDBRANCH  18  19
ENDBRANCH  17  18
ENDBRANCH  14  17
ENDBRANCH   4  13
BRANCH   1  28
HETATM   28  N1  UNL     1      -1.663   3.539  -0.190  1.00  0.00    -0.232 N 
ATOM     29  H12 UNL     1      -1.099   4.249  -0.657  1.00  0.00     0.174 HD
ATOM     30  H11 UNL     1      -2.525   3.995   0.109  1.00  0.00     0.174 HD
ENDBRANCH   1  28
BRANCH  10  31
HETATM   31  N11 UNL     1      -5.055   0.359   2.327  1.00  0.00    -0.269 N 
HETATM   32  N12 UNL     1      -5.956  -0.417   1.882  1.00  0.00    -0.128 N 
ATOM     33  H12 UNL     1      -6.886  -0.371   2.299  1.00  0.00     0.205 HD
ATOM     34  H11 UNL     1      -5.243   1.019   3.082  1.00  0.00     0.189 HD
BRANCH  32  35
HETATM   35  C8  UNL     1      -5.732  -1.344   0.835  1.00  0.00     0.723 A 
HETATM   36  N13 UNL     1      -5.460  -2.653   0.738  1.00  0.00    -0.113 N 
HETATM   37  N14 UNL     1      -5.431  -2.592  -0.585  1.00  0.00     0.007 NA
ATOM     38  H13 UNL     1      -5.327  -3.403   1.417  1.00  0.00     0.203 HD
HETATM   39  N15 UNL     1      -5.702  -1.286  -0.494  1.00  0.00    -0.113 N 
ATOM     40  H15 UNL     1      -5.834  -0.539  -1.176  1.00  0.00     0.203 HD
ENDBRANCH  32  35
ENDBRANCH  10  31
TORSDOF 7
