REMARK  8 active torsions:
REMARK  status: ('A' for Active; 'I' for Inactive)
REMARK    1  A    between atoms: N1_1  and  C1_4 
REMARK    2  A    between atoms: C4_10  and  S1_11 
REMARK    3  A    between atoms: S1_11  and  C5_12 
REMARK    4  A    between atoms: C6_13  and  C7_14 
REMARK    5  A    between atoms: N6_21  and  C8_22 
REMARK    6  A    between atoms: C8_22  and  N7_23 
REMARK    7  A    between atoms: N7_23  and  O3_25 
REMARK    8  A    between atoms: N9_29  and  N10_30 
ROOT
HETATM    1  C1  UNL     1       3.770   1.329  -0.729  1.00  0.00     0.680 A 
HETATM    2  N2  UNL     1       2.703   1.961  -1.269  1.00  0.00    -0.155 N 
ATOM      3  H2  UNL     1       2.807   2.886  -1.686  1.00  0.00     0.187 HD
HETATM    4  C2  UNL     1       1.515   1.361  -1.249  1.00  0.00     0.276 A 
HETATM    5  O1  UNL     1       0.529   1.933  -1.748  1.00  0.00    -0.267 OA
HETATM    6  C3  UNL     1       1.311   0.110  -0.698  1.00  0.00     0.116 A 
HETATM    7  C4  UNL     1       0.255  -0.753  -0.540  1.00  0.00     0.112 A 
HETATM    8  N8  UNL     1       0.792  -1.833   0.079  1.00  0.00    -0.270 N 
ATOM      9  H8  UNL     1       0.260  -2.664   0.339  1.00  0.00     0.190 HD
HETATM   10  N9  UNL     1       2.076  -1.685   0.305  1.00  0.00    -0.184 N 
HETATM   11  C9  UNL     1       2.461  -0.477  -0.162  1.00  0.00     0.178 A 
HETATM   12  N11 UNL     1       3.664   0.110  -0.173  1.00  0.00    -0.172 N 
ATOM     13  H11 UNL     1       4.478  -0.355   0.229  1.00  0.00     0.186 HD
ENDROOT
BRANCH   7  14
HETATM   14  S1  UNL     1      -1.437  -0.457  -0.978  1.00  0.00    -0.048 SA
BRANCH  14  15
HETATM   15  C5  UNL     1      -2.450   0.109   0.370  1.00  0.00     0.135 A 
HETATM   16  C6  UNL     1      -3.149  -0.794   1.187  1.00  0.00     0.150 A 
HETATM   17  N4  UNL     1      -3.779  -0.035   2.096  1.00  0.00    -0.278 N 
HETATM   18  N5  UNL     1      -3.502   1.225   1.868  1.00  0.00    -0.234 N 
ATOM     19  H4  UNL     1      -4.378  -0.383   2.845  1.00  0.00     0.189 HD
HETATM   20  N6  UNL     1      -2.689   1.342   0.814  1.00  0.00    -0.227 N 
ATOM     21  H5  UNL     1      -3.857   2.007   2.418  1.00  0.00     0.209 HD
BRANCH  16  22
HETATM   22  C7  UNL     1      -3.217  -2.253   1.054  1.00  0.00     0.285 C 
HETATM   23  N3  UNL     1      -2.640  -2.964  -0.022  1.00  0.00    -0.056 NA
HETATM   24  O2  UNL     1      -3.826  -2.935   1.946  1.00  0.00    -0.269 OA
ENDBRANCH  16  22
BRANCH  20  25
HETATM   25  C8  UNL     1      -2.214   2.570   0.300  1.00  0.00     0.232 C 
BRANCH  25  26
HETATM   26  N7  UNL     1      -2.817   3.131  -0.694  1.00  0.00    -0.263 N 
ATOM     27  H7  UNL     1      -2.458   4.017  -1.050  1.00  0.00     0.195 HD
BRANCH  26  28
HETATM   28  O3  UNL     1      -3.925   2.579  -1.290  1.00  0.00    -0.289 OA
ATOM     29  H3  UNL     1      -4.369   2.992  -2.022  1.00  0.00     0.244 HD
ENDBRANCH  26  28
ENDBRANCH  25  26
ENDBRANCH  20  25
ENDBRANCH  14  15
ENDBRANCH   7  14
BRANCH  10  30
HETATM   30  N10 UNL     1       2.962  -2.597   0.928  1.00  0.00    -0.322 N 
ATOM     31 2H10 UNL     1       2.671  -3.509   1.281  1.00  0.00     0.179 HD
ATOM     32 1H10 UNL     1       3.960  -2.482   1.104  1.00  0.00     0.179 HD
ENDBRANCH  10  30
BRANCH   1  33
HETATM   33  N1  UNL     1       4.909   1.920  -0.755  1.00  0.00    -0.234 N 
ATOM     34  H12 UNL     1       4.989   2.845  -1.177  1.00  0.00     0.174 HD
ATOM     35  H11 UNL     1       5.714   1.443  -0.348  1.00  0.00     0.174 HD
ENDBRANCH   1  33
TORSDOF 8
