REMARK  10 active torsions:
REMARK  status: ('A' for Active; 'I' for Inactive)
REMARK    1  A    between atoms: N2_5  and  C3_6 
REMARK    2  A    between atoms: C3_6  and  N3_7 
REMARK    3  A    between atoms: N3_7  and  N4_8 
REMARK    4  A    between atoms: N3_7  and  C9_26 
REMARK    5  A    between atoms: N5_10  and  C4_12 
REMARK    6  A    between atoms: C7_18  and  N8_19 
REMARK    7  A    between atoms: C9_26  and  O2_27 
REMARK    8  A    between atoms: N10_29  and  O3_31 
REMARK    9  A    between atoms: C10_33  and  N11_34 
REMARK   10  A    between atoms: N12_37  and  N13_38 
ROOT
HETATM    1  C4  UNL     1       3.297  -0.278  -0.237  1.00  0.00     0.156 A 
HETATM    2  C5  UNL     1       4.022   0.873  -0.436  1.00  0.00     0.163 A 
HETATM    3  C6  UNL     1       3.352   2.143  -0.377  1.00  0.00     0.121 C 
HETATM    4  N6  UNL     1       2.822   3.190  -0.332  1.00  0.00    -0.190 NA
HETATM    5  N7  UNL     1       5.362   0.809  -0.686  1.00  0.00    -0.180 N 
ATOM      6  H7  UNL     1       5.891   1.669  -0.833  1.00  0.00     0.185 HD
HETATM    7  C7  UNL     1       5.984  -0.366  -0.740  1.00  0.00     0.679 A 
HETATM    8  N9  UNL     1       5.300  -1.506  -0.550  1.00  0.00    -0.154 N 
ATOM      9  H9  UNL     1       5.788  -2.400  -0.595  1.00  0.00     0.187 HD
HETATM   10  C8  UNL     1       3.965  -1.481  -0.299  1.00  0.00     0.290 A 
HETATM   11  O1  UNL     1       3.393  -2.578  -0.132  1.00  0.00    -0.265 OA
ENDROOT
BRANCH   1  12
HETATM   12  N5  UNL     1       1.926  -0.204   0.018  1.00  0.00    -0.278 N 
HETATM   13  N4  UNL     1       1.119   0.559  -0.601  1.00  0.00    -0.235 N 
ATOM     14  H4  UNL     1       1.440   1.180  -1.344  1.00  0.00     0.208 HD
ATOM     15  H5  UNL     1       1.546  -0.803   0.751  1.00  0.00     0.189 HD
BRANCH  13  16
HETATM   16  N3  UNL     1      -0.250   0.511  -0.216  1.00  0.00    -0.220 N 
BRANCH  16  17
HETATM   17  C3  UNL     1      -0.792  -0.725   0.245  1.00  0.00     0.322 C 
BRANCH  17  18
HETATM   18  N2  UNL     1      -2.204  -0.615   0.535  1.00  0.00    -0.101 N 
HETATM   19  N1  UNL     1      -2.774  -0.250   1.694  1.00  0.00    -0.269 N 
HETATM   20  C2  UNL     1      -4.110  -0.267   1.558  1.00  0.00     0.132 A 
ATOM     21  H1  UNL     1      -2.271   0.001   2.545  1.00  0.00     0.189 HD
HETATM   22  C1  UNL     1      -5.157   0.061   2.571  1.00  0.00     0.093 C 
HETATM   23  N12 UNL     1      -4.421  -0.645   0.304  1.00  0.00    -0.078 N 
HETATM   24  C10 UNL     1      -3.224  -0.854  -0.307  1.00  0.00     0.716 A 
BRANCH  23  25
HETATM   25  N13 UNL     1      -5.698  -0.789  -0.242  1.00  0.00    -0.323 N 
ATOM     26 2H13 UNL     1      -6.596  -0.632   0.216  1.00  0.00     0.178 HD
ATOM     27 1H13 UNL     1      -5.934  -1.075  -1.192  1.00  0.00     0.178 HD
ENDBRANCH  23  25
BRANCH  24  28
HETATM   28  N11 UNL     1      -3.153  -1.242  -1.546  1.00  0.00    -0.231 N 
ATOM     29 2H11 UNL     1      -2.255  -1.399  -2.004  1.00  0.00     0.174 HD
ATOM     30 1H11 UNL     1      -3.927  -1.423  -2.185  1.00  0.00     0.174 HD
ENDBRANCH  24  28
ENDBRANCH  17  18
ENDBRANCH  16  17
BRANCH  16  31
HETATM   31  C9  UNL     1      -1.028   1.684  -0.288  1.00  0.00     0.261 C 
HETATM   32  N10 UNL     1      -1.063   2.540   0.693  1.00  0.00    -0.231 N 
ATOM     33  H10 UNL     1      -1.633   3.383   0.620  1.00  0.00     0.198 HD
BRANCH  31  34
HETATM   34  O2  UNL     1      -1.791   1.995  -1.387  1.00  0.00    -0.330 OA
ATOM     35  H2  UNL     1      -2.315   2.786  -1.436  1.00  0.00     0.221 HD
ENDBRANCH  31  34
BRANCH  32  36
HETATM   36  O3  UNL     1      -0.327   2.298   1.824  1.00  0.00    -0.287 OA
ATOM     37  H3  UNL     1      -0.353   2.922   2.540  1.00  0.00     0.244 HD
ENDBRANCH  32  36
ENDBRANCH  16  31
ENDBRANCH  13  16
ENDBRANCH   1  12
BRANCH   7  38
HETATM   38  N8  UNL     1       7.253  -0.397  -0.978  1.00  0.00    -0.234 N 
ATOM     39  H82 UNL     1       7.773   0.469  -1.122  1.00  0.00     0.174 HD
ATOM     40  H81 UNL     1       7.730  -1.298  -1.019  1.00  0.00     0.174 HD
ENDBRANCH   7  38
TORSDOF 10
