REMARK  10 active torsions:
REMARK  status: ('A' for Active; 'I' for Inactive)
REMARK    1  A    between atoms: O1_2  and  C2_3 
REMARK    2  A    between atoms: C2_3  and  C3_5 
REMARK    3  A    between atoms: C4_8  and  N2_9 
REMARK    4  A    between atoms: N2_9  and  N3_11 
REMARK    5  A    between atoms: C5_16  and  N5_17 
REMARK    6  A    between atoms: N5_17  and  C6_19 
REMARK    7  A    between atoms: C7_22  and  C8_23 
REMARK    8  A    between atoms: C8_23  and  O3_24 
REMARK    9  A    between atoms: C8_23  and  O4_26 
REMARK   10  A    between atoms: C10_31  and  N8_32 
ROOT
HETATM    1  C3  UNL     1      -2.997  -0.372   0.356  1.00  0.00     0.161 A 
HETATM    2  N1  UNL     1      -2.799   0.985   0.344  1.00  0.00    -0.182 N 
ATOM      3  H1  UNL     1      -3.596   1.609   0.466  1.00  0.00     0.184 HD
HETATM    4  C4  UNL     1      -1.581   1.502   0.176  1.00  0.00     0.698 A 
HETATM    5  N4  UNL     1      -0.474   0.724   0.009  1.00  0.00    -0.172 N 
ATOM      6  H4  UNL     1       0.440   1.159  -0.117  1.00  0.00     0.186 HD
HETATM    7  C5  UNL     1      -0.583  -0.594   0.010  1.00  0.00     0.159 A 
HETATM    8  C10 UNL     1      -1.892  -1.141   0.190  1.00  0.00     0.180 A 
ENDROOT
BRANCH   7   9
HETATM    9  N5  UNL     1       0.374  -1.396  -0.120  1.00  0.00    -0.320 N 
ATOM     10  H5  UNL     1       0.128  -2.386  -0.098  1.00  0.00     0.169 HD
BRANCH   9  11
HETATM   11  C6  UNL     1       1.733  -1.112  -0.291  1.00  0.00     0.152 A 
HETATM   12  N6  UNL     1       2.476  -0.041  -0.101  1.00  0.00    -0.334 N 
HETATM   13  C7  UNL     1       3.740  -0.034  -0.328  1.00  0.00     0.098 A 
ATOM     14  H6  UNL     1       2.032   0.812   0.238  1.00  0.00     0.168 HD
HETATM   15  C9  UNL     1       4.306  -1.203  -0.786  1.00  0.00     0.118 A 
HETATM   16  N7  UNL     1       5.682  -1.442  -1.102  1.00  0.00    -0.092 NA
HETATM   17  S1  UNL     1       2.959  -2.241  -0.857  1.00  0.00    -0.037 SA
BRANCH  13  18
HETATM   18  C8  UNL     1       4.613   1.196  -0.122  1.00  0.00     0.307 C 
BRANCH  18  19
HETATM   19  O3  UNL     1       5.774   0.852   0.525  1.00  0.00    -0.366 OA
ATOM     20  H3  UNL     1       6.319   1.620   0.654  1.00  0.00     0.213 HD
ENDBRANCH  18  19
BRANCH  18  21
HETATM   21  O4  UNL     1       4.957   1.627  -1.418  1.00  0.00    -0.366 OA
ATOM     22  H4  UNL     1       5.502   2.395  -1.289  1.00  0.00     0.213 HD
ENDBRANCH  18  21
ENDBRANCH  13  18
ENDBRANCH   9  11
ENDBRANCH   7   9
BRANCH   8  23
HETATM   23  N8  UNL     1      -1.970  -2.560   0.185  1.00  0.00    -0.109 N 
HETATM   24  O5  UNL     1      -2.051  -3.194   1.260  1.00  0.00    -0.532 OA
HETATM   25  O6  UNL     1      -1.931  -3.276  -0.983  1.00  0.00    -0.532 OA
ENDBRANCH   8  23
BRANCH   4  26
HETATM   26  N2  UNL     1      -1.401   2.773   0.166  1.00  0.00    -0.138 N 
ATOM     27  H2  UNL     1      -2.209   3.384   0.289  1.00  0.00     0.205 HD
BRANCH  26  28
HETATM   28  N3  UNL     1      -0.151   3.347  -0.005  1.00  0.00    -0.331 N 
ATOM     29  H32 UNL     1       0.646   2.722  -0.126  1.00  0.00     0.177 HD
ATOM     30  H31 UNL     1      -0.008   4.357  -0.013  1.00  0.00     0.177 HD
ENDBRANCH  26  28
ENDBRANCH   4  26
BRANCH   1  31
HETATM   31  C2  UNL     1      -4.343  -0.898   0.536  1.00  0.00     0.312 C 
HETATM   32  O2  UNL     1      -4.525  -2.127   0.533  1.00  0.00    -0.258 OA
BRANCH  31  33
HETATM   33  O1  UNL     1      -5.429  -0.075   0.710  1.00  0.00    -0.321 OA
HETATM   34  C1  UNL     1      -6.753  -0.497   0.889  1.00  0.00     0.213 C 
ENDBRANCH  31  33
ENDBRANCH   1  31
TORSDOF 10
