REMARK  17 active torsions:
REMARK  status: ('A' for Active; 'I' for Inactive)
REMARK    1  A    between atoms: C2_2  and  C3_4 
REMARK    2  A    between atoms: C3_4  and  O2_6 
REMARK    3  A    between atoms: C3_4  and  C5_8 
REMARK    4  A    between atoms: C5_8  and  C6_9 
REMARK    5  A    between atoms: C5_8  and  O5_21 
REMARK    6  A    between atoms: C7_10  and  C8_11 
REMARK    7  A    between atoms: C11_14  and  O3_15 
REMARK    8  A    between atoms: C12_17  and  O4_18 
REMARK    9  A    between atoms: O5_21  and  C14_22 
REMARK   10  A    between atoms: C15_23  and  N1_24 
REMARK   11  A    between atoms: C17_29  and  N2_30 
REMARK   12  A    between atoms: C18_34  and  O6_35 
REMARK   13  A    between atoms: O6_35  and  C19_36 
REMARK   14  A    between atoms: C20_37  and  N3_38 
REMARK   15  A    between atoms: C22_43  and  N4_44 
REMARK   16  A    between atoms: C24_49  and  N5_50 
REMARK   17  A    between atoms: C25_54  and  O7_55 
ROOT
HETATM    1  C14 UNL     1       0.127  -0.986  -0.226  1.00  0.00     0.184 C 
HETATM    2  C15 UNL     1      -0.802  -1.593   0.768  1.00  0.00     0.217 C 
HETATM    3  C16 UNL     1      -1.950  -2.169  -0.026  1.00  0.00     0.071 C 
HETATM    4  C17 UNL     1      -2.439  -1.301  -1.145  1.00  0.00     0.217 C 
HETATM    5  C18 UNL     1      -1.994   0.154  -1.043  1.00  0.00     0.183 C 
HETATM    6  C25 UNL     1      -0.481   0.163  -0.984  1.00  0.00     0.180 C 
ENDROOT
BRANCH   1   7
HETATM    7  O5  UNL     1       1.342  -0.590   0.247  1.00  0.00    -0.368 OA
BRANCH   7   8
HETATM    8  C5  UNL     1       2.461  -1.208  -0.166  1.00  0.00     0.186 C 
BRANCH   8   9
HETATM    9  C3  UNL     1       3.506  -0.360  -0.852  1.00  0.00     0.143 C 
HETATM   10  C4  UNL     1       3.043   0.214  -2.166  1.00  0.00     0.057 C 
BRANCH   9  11
HETATM   11  C2  UNL     1       4.703  -1.216  -1.186  1.00  0.00     0.159 C 
HETATM   12  C1  UNL     1       6.034  -0.852  -0.675  1.00  0.00     0.094 C 
HETATM   13  O1  UNL     1       4.587  -2.207  -1.875  1.00  0.00    -0.295 OA
ENDBRANCH   9  11
BRANCH   9  14
HETATM   14  O2  UNL     1       3.978   0.671  -0.082  1.00  0.00    -0.379 OA
ATOM     15  H2  UNL     1       3.224   1.210   0.128  1.00  0.00     0.211 HD
ENDBRANCH   9  14
ENDBRANCH   8   9
BRANCH   8  16
HETATM   16  C6  UNL     1       3.007  -1.920   1.021  1.00  0.00     0.009 C 
HETATM   17  C7  UNL     1       3.402  -1.333   2.117  1.00  0.00     0.010 C 
BRANCH  17  18
HETATM   18  C8  UNL     1       3.938  -1.938   3.305  1.00  0.00    -0.034 A 
HETATM   19  C9  UNL     1       4.082  -3.304   3.383  1.00  0.00     0.014 A 
HETATM   20  C10 UNL     1       4.601  -3.910   4.534  1.00  0.00     0.040 A 
HETATM   21  C11 UNL     1       4.975  -3.154   5.606  1.00  0.00     0.098 A 
HETATM   22  C12 UNL     1       4.835  -1.778   5.543  1.00  0.00     0.099 A 
HETATM   23  C13 UNL     1       4.323  -1.197   4.403  1.00  0.00     0.050 A 
BRANCH  21  24
HETATM   24  O3  UNL     1       5.491  -3.765   6.748  1.00  0.00    -0.358 OA
ATOM     25  H3  UNL     1       5.751  -3.238   7.495  1.00  0.00     0.217 HD
ENDBRANCH  21  24
BRANCH  22  26
HETATM   26  O4  UNL     1       5.224  -1.037   6.650  1.00  0.00    -0.358 OA
ATOM     27  H4  UNL     1       5.128  -0.093   6.607  1.00  0.00     0.217 HD
ENDBRANCH  22  26
ENDBRANCH  17  18
ENDBRANCH   8  16
ENDBRANCH   7   8
ENDBRANCH   1   7
BRANCH   2  28
HETATM   28  N1  UNL     1      -1.299  -0.770   1.804  1.00  0.00    -0.072 N 
ATOM     29  H13 UNL     1      -0.514  -0.344   2.297  1.00  0.00     0.274 HD
ATOM     30  H12 UNL     1      -1.741   0.053   1.394  1.00  0.00     0.274 HD
ATOM     31  H11 UNL     1      -1.935  -1.186   2.485  1.00  0.00     0.274 HD
ENDBRANCH   2  28
BRANCH   6  32
HETATM   32  O7  UNL     1       0.049   1.319  -0.423  1.00  0.00    -0.390 OA
ATOM     33  H7  UNL     1      -0.335   2.044  -0.902  1.00  0.00     0.210 HD
ENDBRANCH   6  32
BRANCH   5  34
HETATM   34  O6  UNL     1      -2.542   0.839  -2.070  1.00  0.00    -0.372 OA
BRANCH  34  35
HETATM   35  C19 UNL     1      -3.434   1.807  -1.945  1.00  0.00     0.182 C 
HETATM   36  C20 UNL     1      -3.020   3.244  -2.231  1.00  0.00     0.216 C 
HETATM   37  C21 UNL     1      -4.290   4.096  -2.244  1.00  0.00     0.068 C 
HETATM   38  C22 UNL     1      -5.344   3.591  -1.287  1.00  0.00     0.187 C 
HETATM   39  C23 UNL     1      -5.855   2.277  -1.852  1.00  0.00     0.068 C 
HETATM   40  C24 UNL     1      -4.730   1.624  -2.680  1.00  0.00     0.216 C 
BRANCH  36  41
HETATM   41  N3  UNL     1      -2.200   3.820  -1.188  1.00  0.00    -0.072 N 
ATOM     42  H33 UNL     1      -2.663   3.750  -0.282  1.00  0.00     0.274 HD
ATOM     43  H32 UNL     1      -1.383   3.237  -1.005  1.00  0.00     0.274 HD
ATOM     44  H31 UNL     1      -1.923   4.783  -1.380  1.00  0.00     0.274 HD
ENDBRANCH  36  41
BRANCH  38  45
HETATM   45  N4  UNL     1      -6.441   4.533  -1.318  1.00  0.00    -0.075 N 
ATOM     46  H43 UNL     1      -6.150   5.491  -1.121  1.00  0.00     0.274 HD
ATOM     47  H42 UNL     1      -6.801   4.695  -2.259  1.00  0.00     0.274 HD
ATOM     48  H41 UNL     1      -7.153   4.192  -0.672  1.00  0.00     0.274 HD
ENDBRANCH  38  45
BRANCH  40  49
HETATM   49  N5  UNL     1      -5.021   0.272  -3.018  1.00  0.00    -0.072 N 
ATOM     50  H53 UNL     1      -4.250  -0.139  -3.545  1.00  0.00     0.274 HD
ATOM     51  H52 UNL     1      -4.995  -0.318  -2.186  1.00  0.00     0.274 HD
ATOM     52  H51 UNL     1      -5.902   0.148  -3.517  1.00  0.00     0.274 HD
ENDBRANCH  40  49
ENDBRANCH  34  35
ENDBRANCH   5  34
BRANCH   4  53
HETATM   53  N2  UNL     1      -2.080  -1.826  -2.450  1.00  0.00    -0.072 N 
ATOM     54  H23 UNL     1      -1.075  -1.983  -2.519  1.00  0.00     0.274 HD
ATOM     55  H22 UNL     1      -2.404  -2.787  -2.562  1.00  0.00     0.274 HD
ATOM     56  H21 UNL     1      -2.413  -1.235  -3.212  1.00  0.00     0.274 HD
ENDBRANCH   4  53
TORSDOF 17
