REMARK  13 active torsions:
REMARK  status: ('A' for Active; 'I' for Inactive)
REMARK    1  A    between atoms: C2_3  and  N2_4 
REMARK    2  A    between atoms: C2_3  and  C11_28 
REMARK    3  A    between atoms: N2_4  and  C3_6 
REMARK    4  A    between atoms: C3_6  and  O1_7 
REMARK    5  A    between atoms: C3_6  and  C4_9 
REMARK    6  A    between atoms: C7_14  and  N4_15 
REMARK    7  A    between atoms: N4_15  and  C8_17 
REMARK    8  A    between atoms: C8_17  and  C9_18 
REMARK    9  A    between atoms: C9_18  and  O2_19 
REMARK   10  A    between atoms: C12_32  and  N9_33 
REMARK       I    between atoms: N9_33  and  C13_35 
REMARK   11  A    between atoms: C13_35  and  C14_37 
REMARK   12  A    between atoms: C14_37  and  C15_38 
REMARK   13  A    between atoms: C17_41  and  N10_42 
ROOT
HETATM    1  N1  UNL     1      -1.524  -3.201  -0.872  1.00  0.00    -0.195 NA
HETATM    2  C1  UNL     1      -0.464  -2.814  -0.540  1.00  0.00     0.092 C 
HETATM    3  C2  UNL     1       0.836  -2.370  -0.156  1.00  0.00     0.256 C 
ENDROOT
BRANCH   3   4
HETATM    4  N2  UNL     1       0.838  -1.258   0.698  1.00  0.00    -0.368 N 
ATOM      5  H2  UNL     1       1.233  -1.341   1.635  1.00  0.00     0.158 HD
BRANCH   4   6
HETATM    6  C3  UNL     1       0.300  -0.027   0.274  1.00  0.00     0.285 C 
BRANCH   6   7
HETATM    7  O1  UNL     1       0.646   0.917   1.294  1.00  0.00    -0.370 OA
ATOM      8  H1  UNL     1       0.283   1.747   1.008  1.00  0.00     0.212 HD
ENDBRANCH   6   7
BRANCH   6   9
HETATM    9  C4  UNL     1      -1.202   0.044   0.292  1.00  0.00     0.147 A 
HETATM   10  N3  UNL     1      -2.021  -0.317   1.297  1.00  0.00    -0.326 N 
HETATM   11  C5  UNL     1      -3.306  -0.084   0.888  1.00  0.00     0.137 A 
ATOM     12  H3  UNL     1      -1.736  -0.696   2.200  1.00  0.00     0.169 HD
HETATM   13  C6  UNL     1      -4.521  -0.267   1.505  1.00  0.00     0.098 A 
HETATM   14  N6  UNL     1      -3.271   0.415  -0.358  1.00  0.00    -0.187 N 
HETATM   15  C7  UNL     1      -5.667   0.075   0.806  1.00  0.00     0.108 A 
HETATM   16  N5  UNL     1      -5.598   0.572  -0.437  1.00  0.00    -0.293 N 
HETATM   17  C10 UNL     1      -4.412   0.744  -1.025  1.00  0.00     0.348 A 
ATOM     18  H5  UNL     1      -6.453   0.819  -0.935  1.00  0.00     0.172 HD
HETATM   19  O3  UNL     1      -4.323   1.211  -2.198  1.00  0.00    -0.245 OA
HETATM   20  N7  UNL     1      -1.993   0.482  -0.693  1.00  0.00    -0.273 N 
ATOM     21  H7  UNL     1      -1.653   0.825  -1.591  1.00  0.00     0.189 HD
BRANCH  15  22
HETATM   22  N4  UNL     1      -6.792  -0.094   1.376  1.00  0.00    -0.374 N 
ATOM     23  H4  UNL     1      -6.797  -0.474   2.322  1.00  0.00     0.161 HD
BRANCH  22  24
HETATM   24  C8  UNL     1      -8.058   0.218   0.768  1.00  0.00     0.147 C 
BRANCH  24  25
HETATM   25  C9  UNL     1      -8.356   1.698   0.905  1.00  0.00     0.183 C 
BRANCH  25  26
HETATM   26  O2  UNL     1      -9.576   2.031   0.324  1.00  0.00    -0.399 OA
ATOM     27  H2  UNL     1      -9.763   2.958   0.410  1.00  0.00     0.209 HD
ENDBRANCH  25  26
ENDBRANCH  24  25
ENDBRANCH  22  24
ENDBRANCH  15  22
ENDBRANCH   6   9
ENDBRANCH   4   6
ENDBRANCH   3   4
BRANCH   3  28
HETATM   28  C11 UNL     1       1.737  -2.167  -1.372  1.00  0.00     0.126 A 
HETATM   29  N8  UNL     1       1.293  -2.525  -2.581  1.00  0.00    -0.310 N 
HETATM   30  S1  UNL     1       2.572  -2.144  -3.599  1.00  0.00     0.024 SA
ATOM     31  H8  UNL     1       0.391  -2.933  -2.827  1.00  0.00     0.175 HD
HETATM   32  C12 UNL     1       3.640  -1.533  -2.415  1.00  0.00     0.169 A 
HETATM   33  N12 UNL     1       2.937  -1.661  -1.293  1.00  0.00    -0.322 N 
ATOM     34  H12 UNL     1       3.325  -1.371  -0.395  1.00  0.00     0.169 HD
BRANCH  32  35
HETATM   35  N9  UNL     1       4.855  -1.055  -2.554  1.00  0.00    -0.306 N 
HETATM   36  C13 UNL     1       5.553  -0.602  -1.413  1.00  0.00     0.229 C 
HETATM   37  O4  UNL     1       5.799  -1.452  -0.503  1.00  0.00    -0.273 OA
ATOM     38  H9  UNL     1       5.290  -1.011  -3.476  1.00  0.00     0.171 HD
BRANCH  36  39
HETATM   39  C14 UNL     1       6.000   0.797  -1.244  1.00  0.00     0.160 C 
BRANCH  39  40
HETATM   40  C15 UNL     1       6.710   0.935   0.098  1.00  0.00     0.026 A 
HETATM   41  C16 UNL     1       5.989   1.231   1.226  1.00  0.00     0.078 A 
HETATM   42  S2  UNL     1       7.203   1.283   2.421  1.00  0.00    -0.064 SA
HETATM   43  C17 UNL     1       8.544   0.928   1.429  1.00  0.00     0.142 A 
HETATM   44  N11 UNL     1       7.999   0.786   0.223  1.00  0.00    -0.340 N 
ATOM     45  H11 UNL     1       8.578   0.565  -0.587  1.00  0.00     0.168 HD
BRANCH  43  46
HETATM   46  N10 UNL     1       9.818   0.817   1.748  1.00  0.00    -0.380 N 
ATOM     47 2H10 UNL     1      10.236   0.926   2.672  1.00  0.00     0.158 HD
ATOM     48 1H10 UNL     1      10.620   0.605   1.155  1.00  0.00     0.158 HD
ENDBRANCH  43  46
ENDBRANCH  39  40
ENDBRANCH  36  39
ENDBRANCH  32  35
ENDBRANCH   3  28
TORSDOF 13
