REMARK  14 active torsions:
REMARK  status: ('A' for Active; 'I' for Inactive)
REMARK    1  A    between atoms: N1_2  and  N2_3 
REMARK    2  A    between atoms: N1_2  and  S1_6 
REMARK    3  A    between atoms: S1_6  and  N3_9 
REMARK    4  A    between atoms: N3_9  and  N4_11 
REMARK    5  A    between atoms: N4_11  and  C2_13 
REMARK    6  A    between atoms: C6_17  and  C7_18 
REMARK    7  A    between atoms: C7_18  and  N8_26 
REMARK    8  A    between atoms: N5_19  and  N6_21 
REMARK    9  A    between atoms: N6_21  and  C8_23 
REMARK   10  A    between atoms: N8_26  and  N9_28 
REMARK       I    between atoms: N9_28  and  C9_30 
REMARK   11  A    between atoms: C9_30  and  C10_32 
REMARK   12  A    between atoms: C12_34  and  O4_35 
REMARK   13  A    between atoms: C13_37  and  O5_38 
REMARK   14  A    between atoms: C14_40  and  O6_41 
ROOT
HETATM    1  C7  UNL     1       0.624   1.048  -0.390  1.00  0.00     0.150 C 
HETATM    2  N5  UNL     1       0.700   2.196   0.118  1.00  0.00    -0.282 N 
ATOM      3  H5  UNL     1       1.487   2.757  -0.208  1.00  0.00     0.188 HD
ENDROOT
BRANCH   1   4
HETATM    4  C6  UNL     1      -0.377   0.036  -0.121  1.00  0.00     0.079 C 
HETATM    5  C5  UNL     1      -0.779  -0.196   1.173  1.00  0.00     0.021 C 
HETATM    6  C4  UNL     1      -1.885  -0.900   1.578  1.00  0.00     0.005 C 
HETATM    7  C3  UNL     1      -2.823  -1.559   0.772  1.00  0.00     0.050 C 
HETATM    8  C2  UNL     1      -3.034  -1.415  -0.596  1.00  0.00     0.123 C 
HETATM    9  N10 UNL     1      -2.071  -1.110  -1.504  1.00  0.00    -0.308 N 
HETATM   10  C16 UNL     1      -0.824  -0.595  -1.291  1.00  0.00     0.261 C 
ATOM     11  H10 UNL     1      -2.312  -1.290  -2.479  1.00  0.00     0.170 HD
HETATM   12  O7  UNL     1      -0.008  -0.702  -2.241  1.00  0.00    -0.267 OA
BRANCH   8  13
HETATM   13  N4  UNL     1      -4.360  -1.606  -1.060  1.00  0.00    -0.275 N 
ATOM     14  H4  UNL     1      -4.578  -1.508  -2.052  1.00  0.00     0.189 HD
BRANCH  13  15
HETATM   15  N3  UNL     1      -5.353  -1.926  -0.156  1.00  0.00    -0.211 N 
ATOM     16  H3  UNL     1      -5.620  -2.890   0.045  1.00  0.00     0.201 HD
BRANCH  15  17
HETATM   17  S1  UNL     1      -6.103  -0.592   0.602  1.00  0.00     0.332 S 
HETATM   18  O1  UNL     1      -5.128   0.543   0.720  1.00  0.00    -0.185 OA
HETATM   19  O2  UNL     1      -6.508  -1.044   2.000  1.00  0.00    -0.185 OA
BRANCH  17  20
HETATM   20  N1  UNL     1      -7.498  -0.014  -0.201  1.00  0.00    -0.113 NA
HETATM   21  C1  UNL     1      -7.230   1.002  -1.189  1.00  0.00     0.157 C 
BRANCH  20  22
HETATM   22  N2  UNL     1      -8.340  -0.999  -0.667  1.00  0.00    -0.349 NA
ATOM     23  H22 UNL     1      -9.172  -0.654  -1.146  1.00  0.00     0.172 HD
ATOM     24  H21 UNL     1      -8.530  -1.718   0.032  1.00  0.00     0.172 HD
ENDBRANCH  20  22
ENDBRANCH  17  20
ENDBRANCH  15  17
ENDBRANCH  13  15
ENDBRANCH   8  13
ENDBRANCH   1   4
BRANCH   1  25
HETATM   25  N8  UNL     1       1.654   0.703  -1.352  1.00  0.00    -0.281 N 
ATOM     26  H8  UNL     1       1.461   0.593  -2.347  1.00  0.00     0.188 HD
BRANCH  25  27
HETATM   27  N9  UNL     1       2.941   0.531  -0.807  1.00  0.00    -0.264 N 
HETATM   28  C9  UNL     1       3.733  -0.548  -1.264  1.00  0.00     0.270 C 
HETATM   29  O3  UNL     1       3.287  -1.341  -2.146  1.00  0.00    -0.266 OA
ATOM     30  H9  UNL     1       3.295   1.172  -0.097  1.00  0.00     0.190 HD
BRANCH  28  31
HETATM   31  C10 UNL     1       5.072  -0.780  -0.740  1.00  0.00     0.039 A 
HETATM   32  C11 UNL     1       5.633   0.033   0.212  1.00  0.00     0.056 A 
HETATM   33  C12 UNL     1       6.911  -0.211   0.690  1.00  0.00     0.102 A 
HETATM   34  C13 UNL     1       7.654  -1.267   0.228  1.00  0.00     0.132 A 
HETATM   35  C14 UNL     1       7.064  -2.074  -0.734  1.00  0.00     0.102 A 
HETATM   36  C15 UNL     1       5.812  -1.857  -1.219  1.00  0.00     0.056 A 
BRANCH  33  37
HETATM   37  O4  UNL     1       7.496   0.599   1.652  1.00  0.00    -0.358 OA
ATOM     38  H4  UNL     1       8.372   0.432   1.980  1.00  0.00     0.217 HD
ENDBRANCH  33  37
BRANCH  34  39
HETATM   39  O5  UNL     1       8.943  -1.540   0.688  1.00  0.00    -0.356 OA
ATOM     40  H5  UNL     1       9.458  -2.272   0.368  1.00  0.00     0.218 HD
ENDBRANCH  34  39
BRANCH  35  41
HETATM   41  O6  UNL     1       7.831  -3.145  -1.194  1.00  0.00    -0.358 OA
ATOM     42  H6  UNL     1       7.427  -3.698  -1.853  1.00  0.00     0.217 HD
ENDBRANCH  35  41
ENDBRANCH  28  31
ENDBRANCH  25  27
ENDBRANCH   1  25
BRANCH   2  43
HETATM   43  N6  UNL     1      -0.105   2.815   1.039  1.00  0.00    -0.277 N 
ATOM     44  H6  UNL     1      -0.947   2.356   1.386  1.00  0.00     0.189 HD
BRANCH  43  45
HETATM   45  C8  UNL     1       0.256   4.107   1.500  1.00  0.00     0.199 C 
HETATM   46  N7  UNL     1       1.427   4.722   1.003  1.00  0.00    -0.068 NA
HETATM   47  S2  UNL     1      -0.661   4.876   2.589  1.00  0.00    -0.043 SA
ENDBRANCH  43  45
ENDBRANCH   2  43
TORSDOF 14
