REMARK  15 active torsions:
REMARK  status: ('A' for Active; 'I' for Inactive)
REMARK    1  A    between atoms: C2_2  and  C3_7 
REMARK    2  A    between atoms: N1_3  and  O1_5 
REMARK       I    between atoms: C3_7  and  N2_9 
REMARK    3  A    between atoms: N2_9  and  C4_11 
REMARK    4  A    between atoms: C7_14  and  C8_15 
REMARK    5  A    between atoms: C8_15  and  O3_16 
REMARK    6  A    between atoms: C9_18  and  O4_19 
REMARK    7  A    between atoms: C11_22  and  O5_23 
REMARK    8  A    between atoms: O5_23  and  C12_24 
REMARK    9  A    between atoms: C13_26  and  O7_27 
REMARK   10  A    between atoms: O7_27  and  C14_28 
REMARK   11  A    between atoms: C15_29  and  N3_30 
REMARK   12  A    between atoms: C17_35  and  N4_36 
REMARK   13  A    between atoms: C19_41  and  N5_42 
REMARK   14  A    between atoms: C20_46  and  N6_47 
REMARK   15  A    between atoms: C22_52  and  N7_53 
ROOT
HETATM    1  C12 UNL     1      -0.326  -0.861  -0.373  1.00  0.00     0.293 C 
HETATM    2  O6  UNL     1       0.934  -0.307  -0.385  1.00  0.00    -0.327 OA
HETATM    3  C13 UNL     1       1.989  -0.985  -0.869  1.00  0.00     0.293 C 
HETATM    4  C20 UNL     1       1.826  -1.754  -2.121  1.00  0.00     0.240 C 
HETATM    5  C21 UNL     1       0.410  -2.200  -2.387  1.00  0.00     0.075 C 
HETATM    6  C22 UNL     1      -0.333  -2.151  -1.087  1.00  0.00     0.240 C 
ENDROOT
BRANCH   1   7
HETATM    7  O5  UNL     1      -1.179   0.098  -0.737  1.00  0.00    -0.352 OA
BRANCH   7   8
HETATM    8  C11 UNL     1      -2.091   0.680   0.072  1.00  0.00     0.150 C 
HETATM    9  C4  UNL     1      -3.526   0.376  -0.192  1.00  0.00     0.114 C 
HETATM   10  C5  UNL     1      -3.941   0.777  -1.611  1.00  0.00     0.028 C 
HETATM   11  C6  UNL     1      -3.807   2.266  -1.788  1.00  0.00     0.011 C 
HETATM   12  C7  UNL     1      -4.112   3.025  -0.519  1.00  0.00     0.038 C 
HETATM   13  C9  UNL     1      -3.109   2.894   0.568  1.00  0.00     0.126 C 
HETATM   14  C10 UNL     1      -1.876   2.142   0.275  1.00  0.00     0.066 C 
BRANCH   9  15
HETATM   15  N2  UNL     1      -3.898  -0.990   0.121  1.00  0.00    -0.349 N 
HETATM   16  C3  UNL     1      -4.873  -1.209   1.127  1.00  0.00     0.265 C 
HETATM   17  O2  UNL     1      -5.403  -0.212   1.730  1.00  0.00    -0.266 OA
ATOM     18  H2  UNL     1      -3.469  -1.774  -0.370  1.00  0.00     0.163 HD
BRANCH  16  19
HETATM   19  C2  UNL     1      -5.334  -2.508   1.542  1.00  0.00     0.095 C 
HETATM   20  C1  UNL     1      -4.796  -3.740   0.922  1.00  0.00     0.076 C 
HETATM   21  N1  UNL     1      -6.236  -2.673   2.476  1.00  0.00    -0.268 N 
ATOM     22  H1  UNL     1      -6.532  -3.613   2.740  1.00  0.00     0.194 HD
BRANCH  21  23
HETATM   23  O1  UNL     1      -6.783  -1.578   3.100  1.00  0.00    -0.290 OA
ATOM     24  H1  UNL     1      -7.438  -1.698   3.778  1.00  0.00     0.244 HD
ENDBRANCH  21  23
ENDBRANCH  16  19
ENDBRANCH   9  15
BRANCH  12  25
HETATM   25  C8  UNL     1      -4.137   4.494  -0.941  1.00  0.00     0.171 C 
BRANCH  25  26
HETATM   26  O3  UNL     1      -5.128   4.646  -1.900  1.00  0.00    -0.400 OA
ATOM     27  H3  UNL     1      -5.144   5.559  -2.162  1.00  0.00     0.209 HD
ENDBRANCH  25  26
ENDBRANCH  12  25
BRANCH  13  28
HETATM   28  O4  UNL     1      -2.691   4.184   1.020  1.00  0.00    -0.395 OA
ATOM     29  H4  UNL     1      -2.049   4.100   1.715  1.00  0.00     0.210 HD
ENDBRANCH  13  28
ENDBRANCH   7   8
ENDBRANCH   1   7
BRANCH   6  30
HETATM   30  N7  UNL     1       0.213  -3.166  -0.202  1.00  0.00    -0.070 N 
ATOM     31  H73 UNL     1       1.136  -2.920   0.155  1.00  0.00     0.274 HD
ATOM     32  H72 UNL     1      -0.275  -3.210   0.693  1.00  0.00     0.274 HD
ATOM     33  H71 UNL     1       0.208  -4.058  -0.696  1.00  0.00     0.274 HD
ENDBRANCH   6  30
BRANCH   3  34
HETATM   34  O7  UNL     1       3.011  -0.055  -1.093  1.00  0.00    -0.350 OA
BRANCH  34  35
HETATM   35  C14 UNL     1       4.097  -0.161  -0.253  1.00  0.00     0.185 C 
HETATM   36  C15 UNL     1       4.280   1.021   0.649  1.00  0.00     0.216 C 
HETATM   37  C16 UNL     1       5.026   0.574   1.889  1.00  0.00     0.068 C 
HETATM   38  C17 UNL     1       6.068  -0.436   1.523  1.00  0.00     0.187 C 
HETATM   39  C18 UNL     1       6.510  -0.304   0.082  1.00  0.00     0.068 C 
HETATM   40  C19 UNL     1       5.392  -0.520  -0.890  1.00  0.00     0.216 C 
BRANCH  36  41
HETATM   41  N3  UNL     1       5.054   2.098   0.064  1.00  0.00    -0.072 N 
ATOM     42  H33 UNL     1       5.957   1.753  -0.261  1.00  0.00     0.274 HD
ATOM     43  H32 UNL     1       4.648   2.387  -0.826  1.00  0.00     0.274 HD
ATOM     44  H31 UNL     1       5.179   2.903   0.678  1.00  0.00     0.274 HD
ENDBRANCH  36  41
BRANCH  38  45
HETATM   45  N4  UNL     1       7.238  -0.196   2.345  1.00  0.00    -0.075 N 
ATOM     46  H43 UNL     1       7.578   0.763   2.275  1.00  0.00     0.274 HD
ATOM     47  H42 UNL     1       7.025  -0.194   3.342  1.00  0.00     0.274 HD
ATOM     48  H41 UNL     1       7.948  -0.884   2.096  1.00  0.00     0.274 HD
ENDBRANCH  38  45
BRANCH  40  49
HETATM   49  N5  UNL     1       5.287  -1.951  -1.246  1.00  0.00    -0.072 N 
ATOM     50  H53 UNL     1       5.041  -2.550  -0.458  1.00  0.00     0.274 HD
ATOM     51  H52 UNL     1       4.475  -2.168  -1.824  1.00  0.00     0.274 HD
ATOM     52  H51 UNL     1       6.175  -2.197  -1.683  1.00  0.00     0.274 HD
ENDBRANCH  40  49
ENDBRANCH  34  35
ENDBRANCH   3  34
BRANCH   4  53
HETATM   53  N6  UNL     1       2.372  -1.043  -3.292  1.00  0.00    -0.070 N 
ATOM     54  H63 UNL     1       1.967  -0.111  -3.378  1.00  0.00     0.274 HD
ATOM     55  H62 UNL     1       3.347  -0.785  -3.143  1.00  0.00     0.274 HD
ATOM     56  H61 UNL     1       2.260  -1.574  -4.156  1.00  0.00     0.274 HD
ENDBRANCH   4  53
TORSDOF 15
