REMARK  10 active torsions:
REMARK  status: ('A' for Active; 'I' for Inactive)
REMARK    1  A    between atoms: C4_10  and  C5_11 
REMARK       I    between atoms: C5_11  and  N3_13 
REMARK    2  A    between atoms: N3_13  and  C6_15 
REMARK    3  A    between atoms: C6_15  and  C7_16 
REMARK       I    between atoms: C7_16  and  N4_18 
REMARK    4  A    between atoms: N4_18  and  N5_20 
REMARK       I    between atoms: N5_20  and  C8_22 
REMARK    5  A    between atoms: C8_22  and  C9_24 
REMARK    6  A    between atoms: C9_24  and  S1_25 
REMARK    7  A    between atoms: S1_25  and  C10_26 
REMARK    8  A    between atoms: C11_30  and  N8_31 
REMARK    9  A    between atoms: N10_37  and  C13_39 
REMARK   10  A    between atoms: C13_39  and  C14_40 
ROOT
HETATM    1  N5  UNL     1      -1.831  -0.989  -0.151  1.00  0.00    -0.267 N 
ATOM      2  H5  UNL     1      -1.200  -1.485   0.478  1.00  0.00     0.190 HD
HETATM    3  C8  UNL     1      -1.342   0.026  -0.992  1.00  0.00     0.245 C 
HETATM    4  O4  UNL     1      -2.147   0.624  -1.765  1.00  0.00    -0.271 OA
ENDROOT
BRANCH   3   5
HETATM    5  C9  UNL     1       0.073   0.420  -1.009  1.00  0.00     0.186 C 
BRANCH   5   6
HETATM    6  S1  UNL     1       0.951  -0.561   0.239  1.00  0.00    -0.094 SA
BRANCH   6   7
HETATM    7  C10 UNL     1       2.708  -0.114   0.239  1.00  0.00     0.129 A 
HETATM    8  N6  UNL     1       3.586  -0.664   1.063  1.00  0.00    -0.266 N 
HETATM    9  N7  UNL     1       4.857  -0.412   1.134  1.00  0.00    -0.079 N 
ATOM     10  H6  UNL     1       3.224  -1.362   1.713  1.00  0.00     0.189 HD
HETATM   11  C11 UNL     1       5.768  -0.974   1.984  1.00  0.00     0.699 A 
HETATM   12  C15 UNL     1       5.602   0.504   0.354  1.00  0.00     0.150 A 
HETATM   13  N9  UNL     1       6.977  -0.457   1.756  1.00  0.00    -0.173 N 
HETATM   14  C12 UNL     1       6.945   0.454   0.771  1.00  0.00     0.149 A 
ATOM     15  H9  UNL     1       7.820  -0.721   2.266  1.00  0.00     0.186 HD
HETATM   16  N10 UNL     1       7.898   1.161   0.271  1.00  0.00    -0.364 N 
ATOM     17  H10 UNL     1       7.719   1.821  -0.486  1.00  0.00     0.161 HD
HETATM   18  C16 UNL     1       5.032   1.286  -0.637  1.00  0.00     0.122 A 
HETATM   19  N11 UNL     1       5.832   2.185  -1.391  1.00  0.00    -0.092 NA
HETATM   20  S2  UNL     1       3.357   1.053  -0.835  1.00  0.00    -0.047 SA
BRANCH  11  21
HETATM   21  N8  UNL     1       5.539  -1.860   2.874  1.00  0.00    -0.233 N 
ATOM     22  H82 UNL     1       4.615  -2.255   3.048  1.00  0.00     0.174 HD
ATOM     23  H81 UNL     1       6.219  -2.279   3.508  1.00  0.00     0.174 HD
ENDBRANCH  11  21
BRANCH  16  24
HETATM   24  C13 UNL     1       9.230   0.994   0.812  1.00  0.00     0.234 C 
BRANCH  24  25
HETATM   25  C14 UNL     1      10.268   1.557  -0.079  1.00  0.00     0.191 C 
HETATM   26  O5  UNL     1      11.470   1.397   0.333  1.00  0.00    -0.647 OA
HETATM   27  O6  UNL     1       9.949   2.196  -1.251  1.00  0.00    -0.647 OA
ENDBRANCH  24  25
ENDBRANCH  16  24
ENDBRANCH   6   7
ENDBRANCH   5   6
ENDBRANCH   3   5
BRANCH   1  28
HETATM   28  N4  UNL     1      -3.190  -1.311  -0.185  1.00  0.00    -0.266 N 
HETATM   29  C7  UNL     1      -3.622  -2.543  -0.692  1.00  0.00     0.253 C 
HETATM   30  O3  UNL     1      -2.733  -3.349  -1.102  1.00  0.00    -0.270 OA
ATOM     31  H4  UNL     1      -3.876  -0.641   0.163  1.00  0.00     0.190 HD
BRANCH  29  32
HETATM   32  C6  UNL     1      -5.008  -3.009  -0.799  1.00  0.00     0.227 C 
BRANCH  32  33
HETATM   33  N3  UNL     1      -6.011  -2.052  -0.396  1.00  0.00    -0.346 N 
HETATM   34  C5  UNL     1      -6.211  -0.841  -1.073  1.00  0.00     0.277 C 
HETATM   35  O2  UNL     1      -5.444  -0.655  -2.092  1.00  0.00    -0.265 OA
ATOM     36  H3  UNL     1      -6.596  -2.265   0.412  1.00  0.00     0.163 HD
BRANCH  34  37
HETATM   37  C4  UNL     1      -7.165   0.185  -0.745  1.00  0.00     0.169 A 
HETATM   38  C2  UNL     1      -8.097   0.287   0.242  1.00  0.00     0.048 A 
HETATM   39  C1  UNL     1      -8.395  -0.677   1.297  1.00  0.00     0.071 C 
HETATM   40  N1  UNL     1      -8.721   1.477   0.073  1.00  0.00    -0.323 N 
HETATM   41  C3  UNL     1      -8.184   2.089  -0.992  1.00  0.00     0.222 A 
ATOM     42  H1  UNL     1      -9.472   1.845   0.657  1.00  0.00     0.169 HD
HETATM   43  N2  UNL     1      -8.546   3.264  -1.448  1.00  0.00    -0.365 N 
HETATM   44  O1  UNL     1      -7.275   1.305  -1.449  1.00  0.00    -0.272 OA
ATOM     45  H22 UNL     1      -9.268   3.887  -1.085  1.00  0.00     0.159 HD
ATOM     46  H21 UNL     1      -8.137   3.730  -2.258  1.00  0.00     0.159 HD
ENDBRANCH  34  37
ENDBRANCH  32  33
ENDBRANCH  29  32
ENDBRANCH   1  28
TORSDOF 10
