REMARK  10 active torsions:
REMARK  status: ('A' for Active; 'I' for Inactive)
REMARK    1  A    between atoms: C2_7  and  N3_8 
REMARK    2  A    between atoms: C3_11  and  C4_12 
REMARK    3  A    between atoms: C4_12  and  O1_13 
REMARK    4  A    between atoms: C4_12  and  N4_15 
REMARK    5  A    between atoms: N4_15  and  C5_17 
REMARK    6  A    between atoms: C7_19  and  N5_20 
REMARK    7  A    between atoms: C8_25  and  N7_26 
REMARK    8  A    between atoms: C9_35  and  O4_36 
REMARK    9  A    between atoms: C9_35  and  C10_38 
REMARK   10  A    between atoms: C10_38  and  N12_39 
ROOT
HETATM    1  N1  UNL     1       4.388  -2.459  -0.145  1.00  0.00    -0.383 N 
ATOM      2  H11 UNL     1       5.267  -1.942  -0.125  1.00  0.00     0.157 HD
ATOM      3  H12 UNL     1       4.364  -3.478  -0.174  1.00  0.00     0.157 HD
HETATM    4  C1  UNL     1       3.290  -2.020  -0.138  1.00  0.00     0.145 A 
HETATM    5  N2  UNL     1       2.002  -2.777  -0.167  1.00  0.00    -0.325 N 
ATOM      6  H2  UNL     1       2.115  -3.790  -0.194  1.00  0.00     0.169 HD
HETATM    7  C2  UNL     1       0.614  -2.334  -0.164  1.00  0.00     0.136 A 
HETATM    8  C3  UNL     1       0.133  -1.035  -0.131  1.00  0.00     0.180 A 
HETATM    9  N9  UNL     1       1.050   0.046  -0.094  1.00  0.00    -0.105 N 
HETATM   10  N10 UNL     1       1.163   1.393  -0.055  1.00  0.00     0.011 NA
HETATM   11  N11 UNL     1       2.524   1.696  -0.038  1.00  0.00    -0.275 N 
ATOM     12  H11 UNL     1       2.744   2.692  -0.008  1.00  0.00     0.181 HD
HETATM   13  C9  UNL     1       3.759   0.749  -0.058  1.00  0.00     0.227 A 
HETATM   14  C11 UNL     1       3.325  -0.553  -0.096  1.00  0.00     0.211 A 
HETATM   15  N16 UNL     1       2.214  -0.300  -0.097  1.00  0.00    -0.299 NA
ENDROOT
BRANCH   8  16
HETATM   16  C4  UNL     1      -1.136  -0.505  -0.125  1.00  0.00     0.177 C 
BRANCH  16  17
HETATM   17  O1  UNL     1      -1.211   0.816  -0.088  1.00  0.00    -0.344 OA
ATOM     18  H1  UNL     1      -2.088   1.182  -0.084  1.00  0.00     0.219 HD
ENDBRANCH  16  17
BRANCH  16  19
HETATM   19  N4  UNL     1      -2.383  -1.104  -0.150  1.00  0.00    -0.321 N 
ATOM     20  H4  UNL     1      -2.444  -2.122  -0.179  1.00  0.00     0.169 HD
BRANCH  19  21
HETATM   21  C5  UNL     1      -3.562  -0.352  -0.137  1.00  0.00     0.126 A 
HETATM   22  C6  UNL     1      -4.775  -0.990  -0.163  1.00  0.00     0.104 A 
HETATM   23  C7  UNL     1      -5.936  -0.255  -0.150  1.00  0.00     0.192 A 
HETATM   24  N6  UNL     1      -5.913   1.105  -0.111  1.00  0.00    -0.171 N 
HETATM   25  C8  UNL     1      -4.710   1.697  -0.087  1.00  0.00     0.679 A 
ATOM     26  H6  UNL     1      -6.774   1.651  -0.100  1.00  0.00     0.186 HD
HETATM   27  N8  UNL     1      -3.569   0.975  -0.099  1.00  0.00    -0.177 N 
ATOM     28  H8  UNL     1      -2.677   1.469  -0.078  1.00  0.00     0.185 HD
BRANCH  23  29
HETATM   29  N5  UNL     1      -7.187  -0.904  -0.177  1.00  0.00    -0.097 N 
HETATM   30  O2  UNL     1      -8.229  -0.246  -0.165  1.00  0.00    -0.531 OA
HETATM   31  O3  UNL     1      -7.267  -2.277  -0.216  1.00  0.00    -0.531 OA
ENDBRANCH  23  29
BRANCH  25  32
HETATM   32  N7  UNL     1      -4.627   2.980  -0.050  1.00  0.00    -0.234 N 
ATOM     33  H72 UNL     1      -5.489   3.525  -0.041  1.00  0.00     0.174 HD
ATOM     34  H71 UNL     1      -3.712   3.430  -0.032  1.00  0.00     0.174 HD
ENDBRANCH  25  32
ENDBRANCH  19  21
ENDBRANCH  16  19
ENDBRANCH   8  16
BRANCH   7  35
HETATM   35  N3  UNL     1      -0.399  -3.268  -0.197  1.00  0.00    -0.383 N 
ATOM     36  H32 UNL     1      -0.045  -4.224  -0.221  1.00  0.00     0.157 HD
ATOM     37  H31 UNL     1      -1.371  -2.958  -0.195  1.00  0.00     0.157 HD
ENDBRANCH   7  35
BRANCH  13  38
HETATM   38  O4  UNL     1       4.248   1.034   1.250  1.00  0.00    -0.362 OA
ATOM     39  H4  UNL     1       5.002   0.456   1.238  1.00  0.00     0.213 HD
ENDBRANCH  13  38
BRANCH  13  40
HETATM   40  C10 UNL     1       4.696   1.384  -0.980  1.00  0.00     0.243 C 
BRANCH  40  41
HETATM   41  N12 UNL     1       4.989   2.675  -0.377  1.00  0.00    -0.198 N 
HETATM   42  N13 UNL     1       4.544   3.908  -0.386  1.00  0.00    -0.209 N 
HETATM   43  N14 UNL     1       5.453   4.297   0.485  1.00  0.00    -0.211 N 
ATOM     44  H13 UNL     1       3.787   4.383  -0.877  1.00  0.00     0.211 HD
HETATM   45  N15 UNL     1       5.912   3.066   0.506  1.00  0.00    -0.209 N 
ATOM     46  H14 UNL     1       5.696   5.175   0.945  1.00  0.00     0.211 HD
ATOM     47  H15 UNL     1       6.671   2.596   1.000  1.00  0.00     0.211 HD
ENDBRANCH  40  41
ENDBRANCH  13  40
TORSDOF 10
