REMARK  11 active torsions:
REMARK  status: ('A' for Active; 'I' for Inactive)
REMARK    1  A    between atoms: N1_1  and  C1_4 
REMARK    2  A    between atoms: C2_7  and  O1_8 
REMARK    3  A    between atoms: C4_11  and  C5_12 
REMARK    4  A    between atoms: C7_20  and  N6_21 
REMARK    5  A    between atoms: N6_21  and  C8_23 
REMARK    6  A    between atoms: C9_29  and  C10_30 
REMARK    7  A    between atoms: C10_30  and  O3_31 
REMARK    8  A    between atoms: C10_30  and  N9_33 
REMARK    9  A    between atoms: N9_33  and  C11_35 
REMARK   10  A    between atoms: C12_40  and  C13_41 
REMARK   11  A    between atoms: C13_41  and  O4_42 
ROOT
HETATM    1  N6  UNL     1      -1.526  -1.401   1.362  1.00  0.00    -0.323 N 
ATOM      2  H6  UNL     1      -2.186  -1.225   2.119  1.00  0.00     0.169 HD
ENDROOT
BRANCH   1   3
HETATM    3  C7  UNL     1      -2.182  -1.609   0.150  1.00  0.00     0.138 A 
HETATM    4  C5  UNL     1      -2.884  -0.526  -0.512  1.00  0.00     0.119 A 
HETATM    5  N3  UNL     1      -3.430  -0.868  -1.668  1.00  0.00    -0.294 N 
HETATM    6  N4  UNL     1      -3.399  -2.106  -2.230  1.00  0.00    -0.296 N 
ATOM      7  H3  UNL     1      -3.919  -0.137  -2.184  1.00  0.00     0.187 HD
HETATM    8  C6  UNL     1      -2.705  -3.197  -1.610  1.00  0.00     0.199 A 
ATOM      9  H4  UNL     1      -3.882  -2.262  -3.115  1.00  0.00     0.187 HD
HETATM   10  N5  UNL     1      -2.127  -2.808  -0.387  1.00  0.00    -0.336 N 
ATOM     11  H5  UNL     1      -1.618  -3.524   0.132  1.00  0.00     0.168 HD
BRANCH   4  12
HETATM   12  C4  UNL     1      -3.020   0.839  -0.075  1.00  0.00     0.085 A 
HETATM   13  C3  UNL     1      -3.493   1.772  -1.008  1.00  0.00     0.089 A 
HETATM   14  C2  UNL     1      -3.707   3.095  -0.683  1.00  0.00     0.157 A 
HETATM   15  N2  UNL     1      -3.437   3.448   0.583  1.00  0.00    -0.171 N 
HETATM   16  C1  UNL     1      -2.987   2.592   1.501  1.00  0.00     0.678 A 
ATOM     17  H2  UNL     1      -3.583   4.420   0.857  1.00  0.00     0.186 HD
HETATM   18  N12 UNL     1      -2.791   1.294   1.132  1.00  0.00    -0.190 N 
ATOM     19  H12 UNL     1      -2.447   0.640   1.835  1.00  0.00     0.184 HD
BRANCH  14  20
HETATM   20  O1  UNL     1      -4.175   4.003  -1.619  1.00  0.00    -0.346 OA
ATOM     21  H1  UNL     1      -4.366   3.753  -2.515  1.00  0.00     0.219 HD
ENDBRANCH  14  20
BRANCH  16  22
HETATM   22  N1  UNL     1      -2.747   2.990   2.694  1.00  0.00    -0.234 N 
ATOM     23  H12 UNL     1      -2.894   3.961   2.970  1.00  0.00     0.174 HD
ATOM     24  H11 UNL     1      -2.403   2.335   3.396  1.00  0.00     0.174 HD
ENDBRANCH  16  22
ENDBRANCH   4  12
ENDBRANCH   1   3
BRANCH   1  25
HETATM   25  C8  UNL     1      -0.352  -1.373   1.765  1.00  0.00     0.158 A 
HETATM   26  N7  UNL     1      -0.062  -1.131   3.098  1.00  0.00    -0.223 N 
HETATM   27  O2  UNL     1       1.218  -1.164   3.246  1.00  0.00    -0.155 OA
ATOM     28  H7  UNL     1      -0.744  -0.957   3.836  1.00  0.00     0.198 HD
HETATM   29  N8  UNL     1       1.796  -1.405   2.137  1.00  0.00    -0.238 N 
HETATM   30  C9  UNL     1       0.854  -1.547   1.157  1.00  0.00     0.128 A 
ATOM     31  H8  UNL     1       2.804  -1.480   2.001  1.00  0.00     0.196 HD
BRANCH  30  32
HETATM   32  C10 UNL     1       1.240  -1.789  -0.247  1.00  0.00     0.276 C 
BRANCH  32  33
HETATM   33  O3  UNL     1       0.622  -0.929  -1.133  1.00  0.00    -0.371 OA
ATOM     34  H3  UNL     1       0.870  -1.085  -2.037  1.00  0.00     0.212 HD
ENDBRANCH  32  33
BRANCH  32  35
HETATM   35  N9  UNL     1       2.674  -1.799  -0.415  1.00  0.00    -0.338 N 
ATOM     36  H9  UNL     1       3.125  -2.668  -0.699  1.00  0.00     0.164 HD
BRANCH  35  37
HETATM   37  C11 UNL     1       3.492  -0.640  -0.200  1.00  0.00     0.163 A 
HETATM   38  N10 UNL     1       3.118   0.584   0.156  1.00  0.00    -0.279 N 
HETATM   39  N11 UNL     1       3.979   1.493   0.301  1.00  0.00    -0.294 N 
ATOM     40  H10 UNL     1       2.131   0.789   0.312  1.00  0.00     0.189 HD
HETATM   41  C12 UNL     1       5.264   1.234   0.101  1.00  0.00     0.093 A 
ATOM     42  H11 UNL     1       3.686   2.431   0.573  1.00  0.00     0.187 HD
HETATM   43  S1  UNL     1       5.184  -0.440  -0.324  1.00  0.00    -0.036 SA
BRANCH  41  44
HETATM   44  C13 UNL     1       6.451   2.138   0.212  1.00  0.00     0.230 C 
BRANCH  44  45
HETATM   45  O4  UNL     1       7.625   1.456  -0.086  1.00  0.00    -0.394 OA
ATOM     46  H4  UNL     1       8.379   2.030  -0.016  1.00  0.00     0.209 HD
ENDBRANCH  44  45
ENDBRANCH  41  44
ENDBRANCH  35  37
ENDBRANCH  32  35
ENDBRANCH  30  32
ENDBRANCH   1  25
TORSDOF 11
