REMARK  11 active torsions:
REMARK  status: ('A' for Active; 'I' for Inactive)
REMARK    1  A    between atoms: C2_2  and  N1_4 
REMARK    2  A    between atoms: N1_4  and  N2_5 
REMARK       I    between atoms: N1_4  and  C4_8 
REMARK    3  A    between atoms: N2_5  and  O1_6 
REMARK       I    between atoms: C4_8  and  N3_10 
REMARK    4  A    between atoms: N3_10  and  N4_12 
REMARK    5  A    between atoms: N4_12  and  C5_14 
REMARK    6  A    between atoms: C6_17  and  N6_18 
REMARK    7  A    between atoms: N6_18  and  C7_20 
REMARK    8  A    between atoms: C9_23  and  C10_24 
REMARK    9  A    between atoms: C10_24  and  O3_25 
REMARK   10  A    between atoms: N10_31  and  N11_32 
REMARK   11  A    between atoms: C13_37  and  N13_38 
ROOT
HETATM    1  C5  UNL     1      -0.721  -1.896  -0.177  1.00  0.00     0.172 A 
HETATM    2  N5  UNL     1      -0.055  -0.749  -0.252  1.00  0.00    -0.171 N 
ATOM      3  H5  UNL     1      -0.566   0.077  -0.564  1.00  0.00     0.186 HD
HETATM    4  C6  UNL     1       1.279  -0.597   0.062  1.00  0.00     0.708 A 
HETATM    5  N10 UNL     1       2.003  -1.642   0.476  1.00  0.00    -0.076 N 
HETATM    6  C12 UNL     1       1.352  -2.847   0.565  1.00  0.00     0.192 A 
HETATM    7  N12 UNL     1       2.153  -3.964   1.010  1.00  0.00    -0.077 NA
HETATM    8  C13 UNL     1       0.035  -3.007   0.257  1.00  0.00     0.192 A 
ENDROOT
BRANCH   1   9
HETATM    9  N4  UNL     1      -1.949  -2.038  -0.436  1.00  0.00    -0.279 N 
ATOM     10  H4  UNL     1      -2.284  -2.995  -0.322  1.00  0.00     0.189 HD
BRANCH   9  11
HETATM   11  N3  UNL     1      -2.898  -1.179  -0.831  1.00  0.00    -0.249 N 
HETATM   12  C4  UNL     1      -3.614  -0.308   0.061  1.00  0.00     0.354 C 
HETATM   13  N1  UNL     1      -4.617   0.591  -0.333  1.00  0.00    -0.215 N 
HETATM   14  O2  UNL     1      -3.315  -0.359   1.306  1.00  0.00    -0.244 OA
ATOM     15  H3  UNL     1      -3.126  -1.141  -1.824  1.00  0.00     0.192 HD
BRANCH  13  16
HETATM   16  C2  UNL     1      -5.295   1.409   0.657  1.00  0.00     0.103 C 
HETATM   17  C1  UNL     1      -5.198   2.856   0.319  1.00  0.00     0.034 C 
HETATM   18  C3  UNL     1      -6.781   1.046   0.698  1.00  0.00     0.034 C 
ENDBRANCH  13  16
BRANCH  13  19
HETATM   19  N2  UNL     1      -4.964   0.703  -1.677  1.00  0.00     0.025 NA
BRANCH  19  20
HETATM   20  O1  UNL     1      -5.640  -0.386  -2.084  1.00  0.00    -0.277 OA
ATOM     21  H1  UNL     1      -5.877  -0.310  -3.001  1.00  0.00     0.240 HD
ENDBRANCH  19  20
ENDBRANCH  13  19
ENDBRANCH   9  11
ENDBRANCH   1   9
BRANCH   8  22
HETATM   22  N13 UNL     1      -0.611  -4.272   0.355  1.00  0.00    -0.108 N 
HETATM   23  O4  UNL     1      -0.855  -4.826  -0.750  1.00  0.00    -0.532 OA
HETATM   24  O5  UNL     1      -0.929  -4.816   1.552  1.00  0.00    -0.532 OA
ENDBRANCH   8  22
BRANCH   4  25
HETATM   25  N6  UNL     1       1.800   0.557  -0.067  1.00  0.00    -0.171 N 
ATOM     26  H6  UNL     1       1.148   1.267  -0.401  1.00  0.00     0.186 HD
BRANCH  25  27
HETATM   27  C7  UNL     1       3.084   1.039   0.159  1.00  0.00     0.164 A 
HETATM   28  C8  UNL     1       4.119   1.020  -0.786  1.00  0.00     0.118 A 
HETATM   29  N7  UNL     1       4.094   0.523  -2.104  1.00  0.00    -0.096 NA
HETATM   30  C9  UNL     1       5.222   1.593  -0.199  1.00  0.00     0.077 A 
HETATM   31  N8  UNL     1       4.858   1.934   1.035  1.00  0.00    -0.297 N 
HETATM   32  N9  UNL     1       3.605   1.624   1.281  1.00  0.00    -0.279 N 
ATOM     33  H8  UNL     1       5.478   2.383   1.709  1.00  0.00     0.187 HD
HETATM   34  C11 UNL     1       2.836   1.831   2.496  1.00  0.00     0.179 C 
BRANCH  30  35
HETATM   35  C10 UNL     1       6.575   1.795  -0.845  1.00  0.00     0.224 C 
BRANCH  35  36
HETATM   36  O3  UNL     1       7.429   2.388   0.083  1.00  0.00    -0.395 OA
ATOM     37  H3  UNL     1       8.279   2.515  -0.323  1.00  0.00     0.209 HD
ENDBRANCH  35  36
ENDBRANCH  30  35
ENDBRANCH  25  27
ENDBRANCH   4  25
BRANCH   5  38
HETATM   38  N11 UNL     1       3.351  -1.603   0.844  1.00  0.00    -0.323 N 
ATOM     39 2H11 UNL     1       3.835  -0.707   0.778  1.00  0.00     0.178 HD
ATOM     40 1H11 UNL     1       3.903  -2.400   1.160  1.00  0.00     0.178 HD
ENDBRANCH   5  38
TORSDOF 11
