REMARK  12 active torsions:
REMARK  status: ('A' for Active; 'I' for Inactive)
REMARK    1  A    between atoms: C3_5  and  N2_6 
REMARK    2  A    between atoms: C4_7  and  O1_8 
REMARK       I    between atoms: N3_11  and  C6_12 
REMARK    3  A    between atoms: C6_12  and  O3_14 
REMARK    4  A    between atoms: O3_14  and  C7_15 
REMARK    5  A    between atoms: C7_15  and  O4_16 
REMARK    6  A    between atoms: C7_15  and  C8_18 
REMARK    7  A    between atoms: C8_18  and  O5_19 
REMARK    8  A    between atoms: C10_25  and  N5_26 
REMARK       I    between atoms: N6_28  and  C11_30 
REMARK       I    between atoms: C11_30  and  N10_39 
REMARK    9  A    between atoms: N7_31  and  C12_33 
REMARK   10  A    between atoms: C12_33  and  C13_34 
REMARK   11  A    between atoms: C13_34  and  N8_35 
REMARK   12  A    between atoms: N8_35  and  N9_36 
ROOT
HETATM    1  N5  UNL     1       2.205  -0.857   1.229  1.00  0.00    -0.269 N 
ATOM      2  H5  UNL     1       2.141  -0.624   2.220  1.00  0.00     0.189 HD
HETATM    3  N6  UNL     1       3.290  -0.608   0.615  1.00  0.00    -0.130 N 
ATOM      4  H6  UNL     1       3.357  -0.839  -0.376  1.00  0.00     0.205 HD
HETATM    5  C11 UNL     1       4.411  -0.021   1.256  1.00  0.00     0.701 C 
HETATM    6  N7  UNL     1       5.313   0.557   0.575  1.00  0.00    -0.223 N 
ATOM      7  H7  UNL     1       6.101   0.964   1.079  1.00  0.00     0.177 HD
HETATM    8  N10 UNL     1       4.578  -0.051   2.678  1.00  0.00    -0.125 N 
ATOM      9  H10 UNL     1       4.315   0.765   3.230  1.00  0.00     0.197 HD
HETATM   10  C14 UNL     1       5.095  -1.180   3.324  1.00  0.00     0.196 C 
HETATM   11  N11 UNL     1       5.538  -2.118   3.865  1.00  0.00    -0.171 NA
ENDROOT
BRANCH   6  12
HETATM   12  C12 UNL     1       5.300   0.678  -0.867  1.00  0.00     0.156 C 
BRANCH  12  13
HETATM   13  C13 UNL     1       6.175   1.791  -1.360  1.00  0.00     0.154 C 
BRANCH  13  14
HETATM   14  N8  UNL     1       5.751   3.075  -0.827  1.00  0.00    -0.147 NA
BRANCH  14  15
HETATM   15  N9  UNL     1       6.620   4.061  -1.337  1.00  0.00    -0.348 N 
ATOM     16  H92 UNL     1       7.403   3.888  -1.967  1.00  0.00     0.172 HD
ATOM     17  H91 UNL     1       6.322   4.962  -0.963  1.00  0.00     0.172 HD
ENDBRANCH  14  15
ENDBRANCH  13  14
ENDBRANCH  12  13
ENDBRANCH   6  12
BRANCH   1  18
HETATM   18  C10 UNL     1       1.085  -1.441   0.600  1.00  0.00     0.159 A 
HETATM   19  C2  UNL     1       1.126  -2.504  -0.275  1.00  0.00     0.068 A 
HETATM   20  C1  UNL     1       2.357  -3.239  -0.722  1.00  0.00     0.073 C 
HETATM   21  N1  UNL     1      -0.149  -2.736  -0.633  1.00  0.00    -0.191 N 
HETATM   22  C3  UNL     1      -0.984  -1.873  -0.028  1.00  0.00     0.697 A 
ATOM     23  H1  UNL     1      -0.444  -3.469  -1.278  1.00  0.00     0.184 HD
HETATM   24  N4  UNL     1      -0.203  -1.077   0.733  1.00  0.00    -0.172 N 
ATOM     25  H4  UNL     1      -0.539  -0.314   1.321  1.00  0.00     0.186 HD
BRANCH  22  26
HETATM   26  N2  UNL     1      -2.424  -1.814  -0.168  1.00  0.00    -0.072 N 
HETATM   27  C4  UNL     1      -3.193  -2.839  -0.555  1.00  0.00     0.184 A 
HETATM   28  C5  UNL     1      -4.494  -2.406  -0.569  1.00  0.00     0.164 A 
HETATM   29  N3  UNL     1      -4.505  -1.121  -0.190  1.00  0.00    -0.215 N 
HETATM   30  C6  UNL     1      -5.663  -0.316  -0.079  1.00  0.00     0.377 C 
HETATM   31  C9  UNL     1      -3.219  -0.778   0.051  1.00  0.00     0.358 A 
HETATM   32  O2  UNL     1      -6.775  -0.819  -0.349  1.00  0.00    -0.237 OA
HETATM   33  O6  UNL     1      -2.823   0.358   0.430  1.00  0.00    -0.245 OA
BRANCH  27  34
HETATM   34  O1  UNL     1      -2.719  -4.105  -0.878  1.00  0.00    -0.344 OA
ATOM     35  H1  UNL     1      -3.265  -4.832  -1.153  1.00  0.00     0.219 HD
ENDBRANCH  27  34
BRANCH  30  36
HETATM   36  O3  UNL     1      -5.628   1.010   0.317  1.00  0.00    -0.270 OA
BRANCH  36  37
HETATM   37  C7  UNL     1      -6.819   1.764   0.410  1.00  0.00     0.291 C 
BRANCH  37  38
HETATM   38  O4  UNL     1      -7.043   2.260   1.690  1.00  0.00    -0.369 OA
ATOM     39  H4  UNL     1      -7.844   2.767   1.753  1.00  0.00     0.212 HD
ENDBRANCH  37  38
BRANCH  37  40
HETATM   40  C8  UNL     1      -6.759   2.926  -0.585  1.00  0.00     0.225 C 
BRANCH  40  41
HETATM   41  O5  UNL     1      -6.623   2.416  -1.872  1.00  0.00    -0.396 OA
ATOM     42  H5  UNL     1      -6.586   3.137  -2.489  1.00  0.00     0.209 HD
ENDBRANCH  40  41
ENDBRANCH  37  40
ENDBRANCH  36  37
ENDBRANCH  30  36
ENDBRANCH  22  26
ENDBRANCH   1  18
TORSDOF 12
