REMARK  10 active torsions:
REMARK  status: ('A' for Active; 'I' for Inactive)
REMARK    1  A    between atoms: S1_2  and  N1_4 
REMARK    2  A    between atoms: S1_2  and  C3_14 
REMARK    3  A    between atoms: N1_4  and  O2_6 
REMARK    4  A    between atoms: O2_6  and  C2_7 
REMARK    5  A    between atoms: C6_17  and  N6_18 
REMARK    6  A    between atoms: N6_18  and  N7_20 
REMARK    7  A    between atoms: N7_20  and  C7_22 
REMARK    8  A    between atoms: C7_22  and  C8_26 
REMARK    9  A    between atoms: C8_26  and  O3_27 
REMARK   10  A    between atoms: C8_26  and  N10_31 
ROOT
HETATM    1  C8  UNL     1       5.083  -0.139  -1.263  1.00  0.00     0.307 C 
HETATM    2  C9  UNL     1       6.106  -1.105  -1.807  1.00  0.00     0.131 C 
HETATM    3  N9  UNL     1       6.888  -1.844  -2.234  1.00  0.00    -0.191 NA
ENDROOT
BRANCH   1   4
HETATM    4  C7  UNL     1       4.324  -0.942  -0.264  1.00  0.00     0.164 C 
HETATM    5  N8  UNL     1       4.974  -1.895   0.291  1.00  0.00    -0.383 N 
ATOM      6  H82 UNL     1       4.454  -2.445   0.975  1.00  0.00     0.157 HD
ATOM      7  H81 UNL     1       5.942  -2.069   0.020  1.00  0.00     0.157 HD
BRANCH   4   8
HETATM    8  N7  UNL     1       2.987  -0.702   0.110  1.00  0.00    -0.284 N 
ATOM      9  H7  UNL     1       2.741  -0.902   1.080  1.00  0.00     0.188 HD
BRANCH   8  10
HETATM   10  N6  UNL     1       1.969  -0.222  -0.702  1.00  0.00    -0.299 N 
ATOM     11  H6  UNL     1       2.189   0.297  -1.552  1.00  0.00     0.187 HD
BRANCH  10  12
HETATM   12  C6  UNL     1       0.600  -0.465  -0.331  1.00  0.00     0.048 A 
HETATM   13  C5  UNL     1      -0.158  -1.434  -0.953  1.00  0.00     0.032 A 
HETATM   14  C4  UNL     1      -1.471  -1.680  -0.623  1.00  0.00     0.024 A 
HETATM   15  C3  UNL     1      -2.085  -0.950   0.357  1.00  0.00     0.040 A 
HETATM   16  C12 UNL     1      -1.331   0.036   0.998  1.00  0.00     0.024 A 
HETATM   17  C11 UNL     1      -0.015   0.271   0.658  1.00  0.00     0.032 A 
BRANCH  15  18
HETATM   18  S1  UNL     1      -3.775  -1.200   0.790  1.00  0.00     0.071 S 
HETATM   19  C1  UNL     1      -4.009  -2.477   1.961  1.00  0.00     0.144 C 
HETATM   20  O1  UNL     1      -4.263   0.139   1.298  1.00  0.00    -0.243 OA
BRANCH  18  21
HETATM   21  N1  UNL     1      -4.555  -1.430  -0.552  1.00  0.00    -0.211 N 
ATOM     22  H1  UNL     1      -4.868  -2.347  -0.870  1.00  0.00     0.205 HD
BRANCH  21  23
HETATM   23  O2  UNL     1      -4.778  -0.250  -1.268  1.00  0.00    -0.191 OA
BRANCH  23  24
HETATM   24  C2  UNL     1      -5.726   0.670  -0.871  1.00  0.00     0.273 A 
HETATM   25  N2  UNL     1      -6.841   0.349  -0.309  1.00  0.00    -0.248 N 
HETATM   26  N3  UNL     1      -7.507   1.551  -0.067  1.00  0.00    -0.006 NA
ATOM     27  H2  UNL     1      -7.169  -0.591  -0.087  1.00  0.00     0.187 HD
HETATM   28  N4  UNL     1      -6.792   2.636  -0.574  1.00  0.00    -0.006 NA
HETATM   29  N5  UNL     1      -5.609   2.071  -1.022  1.00  0.00    -0.248 N 
ATOM     30  H5  UNL     1      -4.802   2.573  -1.393  1.00  0.00     0.187 HD
ENDBRANCH  23  24
ENDBRANCH  21  23
ENDBRANCH  18  21
ENDBRANCH  15  18
ENDBRANCH  10  12
ENDBRANCH   8  10
ENDBRANCH   4   8
ENDBRANCH   1   4
BRANCH   1  31
HETATM   31  O3  UNL     1       4.362   0.239  -2.367  1.00  0.00    -0.352 OA
ATOM     32  H3  UNL     1       4.846   0.751  -3.004  1.00  0.00     0.214 HD
ENDBRANCH   1  31
BRANCH   1  33
HETATM   33  N10 UNL     1       5.785   0.926  -0.587  1.00  0.00    -0.167 N 
HETATM   34  N11 UNL     1       7.098   1.179  -0.786  1.00  0.00     0.004 NA
HETATM   35  N12 UNL     1       7.450   2.215  -0.030  1.00  0.00    -0.222 N 
HETATM   36  N13 UNL     1       6.413   2.642   0.649  1.00  0.00    -0.237 N 
ATOM     37  H12 UNL     1       8.386   2.617   0.015  1.00  0.00     0.205 HD
HETATM   38  C10 UNL     1       5.401   1.832   0.289  1.00  0.00     0.359 A 
ATOM     39  H13 UNL     1       6.381   3.420   1.308  1.00  0.00     0.193 HD
HETATM   40  O4  UNL     1       4.235   1.958   0.759  1.00  0.00    -0.244 OA
ENDBRANCH   1  33
TORSDOF 10
