REMARK  15 active torsions:
REMARK  status: ('A' for Active; 'I' for Inactive)
REMARK    1  A    between atoms: C4_4  and  N1_5 
REMARK    2  A    between atoms: N1_5  and  C5_7 
REMARK    3  A    between atoms: C5_7  and  C6_8 
REMARK    4  A    between atoms: C6_8  and  O1_9 
REMARK    5  A    between atoms: C6_8  and  C7_11 
REMARK    6  A    between atoms: N3_17  and  C9_19 
REMARK    7  A    between atoms: C10_22  and  C11_23 
REMARK    8  A    between atoms: C11_23  and  N5_24 
REMARK       I    between atoms: N5_24  and  C12_26 
REMARK    9  A    between atoms: C12_26  and  O5_28 
REMARK   10  A    between atoms: O5_28  and  S1_29 
REMARK   11  A    between atoms: N8_41  and  C17_42 
REMARK   12  A    between atoms: N9_44  and  C19_45 
REMARK   13  A    between atoms: C19_45  and  C20_46 
REMARK   14  A    between atoms: C20_46  and  N10_47 
REMARK   15  A    between atoms: C20_46  and  C21_51 
ROOT
HETATM    1  C9  UNL     1       0.329   0.999  -1.075  1.00  0.00     0.129 A 
HETATM    2  N4  UNL     1      -0.618   1.997  -1.261  1.00  0.00    -0.330 N 
ATOM      3  H4  UNL     1      -0.317   2.859  -1.715  1.00  0.00     0.168 HD
HETATM    4  C10 UNL     1      -1.880   1.906  -0.890  1.00  0.00     0.102 A 
HETATM    5  N6  UNL     1      -2.277   0.774  -0.292  1.00  0.00    -0.328 N 
ATOM      6  H6  UNL     1      -3.248   0.680   0.005  1.00  0.00     0.169 HD
HETATM    7  C13 UNL     1      -1.412  -0.251  -0.073  1.00  0.00     0.149 A 
HETATM    8  C14 UNL     1      -0.093  -0.174  -0.452  1.00  0.00     0.123 A 
HETATM    9  C15 UNL     1       0.518  -1.361  -0.095  1.00  0.00     0.280 A 
HETATM   10  O9  UNL     1       1.721  -1.675  -0.274  1.00  0.00    -0.265 OA
HETATM   11  N7  UNL     1      -0.439  -2.140   0.496  1.00  0.00    -0.252 N 
HETATM   12  C16 UNL     1      -0.189  -3.484   1.016  1.00  0.00     0.182 C 
HETATM   13  N8  UNL     1      -1.567  -1.466   0.498  1.00  0.00    -0.231 N 
ENDROOT
BRANCH   1  14
HETATM   14  N3  UNL     1       1.461   1.181  -1.451  1.00  0.00    -0.307 N 
HETATM   15  C8  UNL     1       2.750   0.819  -1.631  1.00  0.00     0.231 A 
HETATM   16  N2  UNL     1       3.700   1.167  -0.718  1.00  0.00    -0.308 N 
HETATM   17  O12 UNL     1       3.180   0.112  -2.692  1.00  0.00    -0.284 OA
HETATM   18  C4  UNL     1       4.995   0.856  -0.813  1.00  0.00     0.106 A 
ATOM     19  H2  UNL     1       3.400   1.703   0.096  1.00  0.00     0.171 HD
HETATM   20  C3  UNL     1       5.372   0.131  -1.923  1.00  0.00     0.080 A 
HETATM   21  C2  UNL     1       4.419  -0.232  -2.861  1.00  0.00     0.056 A 
HETATM   22  C1  UNL     1       4.864  -1.017  -4.050  1.00  0.00     0.077 C 
ATOM     23  H3  UNL     1       1.425   2.119  -1.850  1.00  0.00     0.171 HD
BRANCH  18  24
HETATM   24  N1  UNL     1       5.866   1.203   0.070  1.00  0.00    -0.373 N 
ATOM     25  H1  UNL     1       5.539   1.739   0.874  1.00  0.00     0.161 HD
BRANCH  24  26
HETATM   26  C5  UNL     1       7.256   0.890   0.003  1.00  0.00     0.164 C 
BRANCH  26  27
HETATM   27  C6  UNL     1       7.466  -0.513   0.581  1.00  0.00     0.236 C 
BRANCH  27  28
HETATM   28  O1  UNL     1       8.815  -0.856   0.532  1.00  0.00    -0.383 OA
ATOM     29  H1  UNL     1       8.945  -1.726   0.890  1.00  0.00     0.210 HD
ENDBRANCH  27  28
BRANCH  27  30
HETATM   30  C7  UNL     1       6.961  -0.558   1.985  1.00  0.00     0.204 C 
HETATM   31  O2  UNL     1       7.749  -0.876   2.889  1.00  0.00    -0.646 OA
HETATM   32  O3  UNL     1       5.652  -0.256   2.280  1.00  0.00    -0.646 OA
ENDBRANCH  27  30
ENDBRANCH  26  27
ENDBRANCH  24  26
ENDBRANCH  18  24
ENDBRANCH   1  14
BRANCH   4  33
HETATM   33  C11 UNL     1      -2.848   3.035  -1.127  1.00  0.00     0.201 C 
BRANCH  33  34
HETATM   34  N5  UNL     1      -2.191   4.243  -1.548  1.00  0.00    -0.329 N 
HETATM   35  C12 UNL     1      -1.241   4.883  -0.698  1.00  0.00     0.377 C 
HETATM   36  O4  UNL     1      -0.937   4.436   0.439  1.00  0.00    -0.237 OA
ATOM     37  H5  UNL     1      -2.406   4.645  -2.461  1.00  0.00     0.165 HD
BRANCH  35  38
HETATM   38  O5  UNL     1      -0.596   6.049  -1.090  1.00  0.00    -0.159 OA
BRANCH  38  39
HETATM   39  S1  UNL     1       0.533   6.794  -0.059  1.00  0.00     0.260 S 
HETATM   40  O6  UNL     1       0.084   8.215   0.188  1.00  0.00    -0.572 OA
HETATM   41  O7  UNL     1       1.901   6.756  -0.672  1.00  0.00    -0.572 OA
HETATM   42  O8  UNL     1       0.587   5.994   1.416  1.00  0.00    -0.572 OA
ENDBRANCH  38  39
ENDBRANCH  35  38
ENDBRANCH  33  34
ENDBRANCH   4  33
BRANCH  13  43
HETATM   43  C17 UNL     1      -2.807  -1.932   1.027  1.00  0.00     0.099 A 
HETATM   44  C18 UNL     1      -3.632  -2.874   0.475  1.00  0.00     0.144 A 
HETATM   45  N9  UNL     1      -4.681  -3.002   1.303  1.00  0.00    -0.298 N 
HETATM   46  N11 UNL     1      -4.520  -2.173   2.335  1.00  0.00    -0.301 N 
HETATM   47  C22 UNL     1      -3.382  -1.494   2.210  1.00  0.00     0.052 A 
ATOM     48  H11 UNL     1      -5.176  -2.073   3.110  1.00  0.00     0.187 HD
HETATM   49  C23 UNL     1      -2.876  -0.484   3.166  1.00  0.00     0.072 C 
BRANCH  45  50
HETATM   50  C19 UNL     1      -5.780  -3.915   1.057  1.00  0.00     0.192 C 
BRANCH  50  51
HETATM   51  C20 UNL     1      -6.859  -3.199   0.249  1.00  0.00     0.302 C 
BRANCH  51  52
HETATM   52  N10 UNL     1      -6.316  -2.755  -1.010  1.00  0.00    -0.064 N 
ATOM     53 3H10 UNL     1      -5.484  -2.178  -0.886  1.00  0.00     0.275 HD
ATOM     54 2H10 UNL     1      -5.889  -3.519  -1.534  1.00  0.00     0.275 HD
ATOM     55 1H10 UNL     1      -7.037  -2.277  -1.550  1.00  0.00     0.275 HD
ENDBRANCH  51  52
BRANCH  51  56
HETATM   56  C21 UNL     1      -7.447  -2.102   1.023  1.00  0.00     0.206 C 
HETATM   57  O10 UNL     1      -7.955  -2.362   2.143  1.00  0.00    -0.646 OA
HETATM   58  O11 UNL     1      -7.479  -0.779   0.594  1.00  0.00    -0.646 OA
ENDBRANCH  51  56
ENDBRANCH  50  51
ENDBRANCH  45  50
ENDBRANCH  13  43
TORSDOF 15
