REMARK  15 active torsions:
REMARK  status: ('A' for Active; 'I' for Inactive)
REMARK    1  A    between atoms: C2_2  and  C3_6 
REMARK    2  A    between atoms: C3_6  and  C4_7 
REMARK    3  A    between atoms: C4_7  and  N2_8 
REMARK       I    between atoms: N2_8  and  C5_10 
REMARK    4  A    between atoms: C5_10  and  C6_12 
REMARK    5  A    between atoms: C7_13  and  C8_14 
REMARK    6  A    between atoms: N5_22  and  C10_23 
REMARK    7  A    between atoms: C12_25  and  N6_26 
REMARK    8  A    between atoms: C14_30  and  C15_31 
REMARK    9  A    between atoms: C15_31  and  O7_32 
REMARK   10  A    between atoms: C15_31  and  N7_34 
REMARK   11  A    between atoms: N8_37  and  O8_38 
REMARK   12  A    between atoms: O8_38  and  S1_39 
REMARK   13  A    between atoms: S1_39  and  N9_42 
REMARK   14  A    between atoms: C20_45  and  O11_46 
REMARK   15  A    between atoms: C21_48  and  O12_49 
ROOT
HETATM    1  C10 UNL     1       0.180   1.091   0.703  1.00  0.00     0.085 A 
HETATM    2  C11 UNL     1       0.089   2.082   1.659  1.00  0.00     0.069 A 
HETATM    3  C12 UNL     1      -0.949   2.128   2.550  1.00  0.00     0.105 A 
HETATM    4  C13 UNL     1      -1.918   1.151   2.474  1.00  0.00     0.050 A 
HETATM    5  C14 UNL     1      -1.880   0.138   1.542  1.00  0.00     0.038 A 
HETATM    6  C21 UNL     1      -0.792   0.141   0.654  1.00  0.00     0.104 A 
ENDROOT
BRANCH   1   7
HETATM    7  N5  UNL     1       1.289   1.077  -0.218  1.00  0.00    -0.208 N 
HETATM    8  C9  UNL     1       1.284   1.393  -1.526  1.00  0.00     0.372 A 
HETATM    9  N4  UNL     1       2.537   1.245  -2.017  1.00  0.00    -0.129 N 
HETATM   10  O4  UNL     1       0.274   1.767  -2.193  1.00  0.00    -0.242 OA
HETATM   11  N3  UNL     1       3.274   1.350  -3.102  1.00  0.00    -0.266 N 
HETATM   12  N10 UNL     1       3.321   0.845  -1.046  1.00  0.00    -0.171 N 
HETATM   13  C7  UNL     1       4.580   1.013  -2.844  1.00  0.00     0.161 A 
ATOM     14  H3  UNL     1       2.922   1.643  -4.013  1.00  0.00     0.189 HD
HETATM   15  C6  UNL     1       4.602   0.686  -1.520  1.00  0.00     0.166 A 
HETATM   16  C22 UNL     1       2.563   0.741   0.057  1.00  0.00     0.359 A 
HETATM   17  O13 UNL     1       2.943   0.380   1.220  1.00  0.00    -0.244 OA
BRANCH  13  18
HETATM   18  C8  UNL     1       5.664   1.069  -3.833  1.00  0.00     0.231 C 
HETATM   19  O2  UNL     1       5.320   1.410  -5.019  1.00  0.00    -0.643 OA
HETATM   20  O3  UNL     1       6.971   0.797  -3.583  1.00  0.00    -0.643 OA
ENDBRANCH  13  18
BRANCH  15  21
HETATM   21  C5  UNL     1       5.678   0.159  -0.715  1.00  0.00     0.273 C 
HETATM   22  N2  UNL     1       6.642  -0.788  -1.054  1.00  0.00    -0.355 N 
ATOM     23  H2  UNL     1       6.617  -1.209  -1.983  1.00  0.00     0.162 HD
HETATM   24  O1  UNL     1       5.723   0.644   0.479  1.00  0.00    -0.266 OA
BRANCH  22  25
HETATM   25  C4  UNL     1       7.672  -1.190  -0.132  1.00  0.00     0.128 C 
BRANCH  25  26
HETATM   26  C3  UNL     1       8.547  -0.036   0.216  1.00  0.00     0.071 C 
BRANCH  26  27
HETATM   27  C2  UNL     1       9.639  -0.441   1.180  1.00  0.00    -0.023 C 
HETATM   28  C1  UNL     1      10.588   0.635   1.591  1.00  0.00     0.062 C 
HETATM   29  N1  UNL     1       9.750  -1.623   1.618  1.00  0.00    -0.406 N 
ATOM     30  H12 UNL     1      10.487  -1.896   2.268  1.00  0.00     0.155 HD
ATOM     31  H11 UNL     1       9.101  -2.358   1.337  1.00  0.00     0.155 HD
ENDBRANCH  26  27
ENDBRANCH  25  26
ENDBRANCH  22  25
ENDBRANCH  15  21
ENDBRANCH   1   7
BRANCH   6  32
HETATM   32  O12 UNL     1      -0.722  -0.858  -0.292  1.00  0.00    -0.358 OA
ATOM     33  H12 UNL     1      -1.401  -1.522  -0.326  1.00  0.00     0.217 HD
ENDBRANCH   6  32
BRANCH   3  34
HETATM   34  N6  UNL     1      -0.985   3.174   3.509  1.00  0.00    -0.116 N 
HETATM   35  O5  UNL     1      -1.907   3.268   4.346  1.00  0.00    -0.532 OA
HETATM   36  O6  UNL     1      -0.003   4.130   3.555  1.00  0.00    -0.532 OA
ENDBRANCH   3  34
BRANCH   5  37
HETATM   37  C15 UNL     1      -2.907  -0.938   1.440  1.00  0.00     0.399 C 
BRANCH  37  38
HETATM   38  O7  UNL     1      -3.184  -1.368   2.760  1.00  0.00    -0.364 OA
ATOM     39  H7  UNL     1      -3.838  -2.054   2.695  1.00  0.00     0.212 HD
ENDBRANCH  37  38
BRANCH  37  40
HETATM   40  N7  UNL     1      -4.077  -0.566   0.722  1.00  0.00     0.168 N 
HETATM   41  C16 UNL     1      -4.867   0.458   1.311  1.00  0.00     0.298 C 
HETATM   42  C17 UNL     1      -6.312   0.168   0.881  1.00  0.00     0.157 C 
HETATM   43  N8  UNL     1      -6.239  -0.971   0.028  1.00  0.00    -0.120 NA
HETATM   44  C20 UNL     1      -4.998  -1.628   0.468  1.00  0.00     0.467 C 
BRANCH  43  45
HETATM   45  O8  UNL     1      -7.205  -1.877   0.171  1.00  0.00    -0.161 OA
BRANCH  45  46
HETATM   46  S1  UNL     1      -8.745  -1.345  -0.103  1.00  0.00     0.355 S 
HETATM   47  O9  UNL     1      -9.678  -2.513   0.189  1.00  0.00    -0.179 OA
HETATM   48  O10 UNL     1      -9.162  -0.252   0.847  1.00  0.00    -0.179 OA
BRANCH  46  49
HETATM   49  N9  UNL     1      -9.052  -0.840  -1.705  1.00  0.00    -0.195 NA
HETATM   50  C18 UNL     1      -9.512  -1.986  -2.466  1.00  0.00     0.131 C 
HETATM   51  C19 UNL     1      -7.910  -0.287  -2.372  1.00  0.00     0.131 C 
ENDBRANCH  46  49
ENDBRANCH  45  46
ENDBRANCH  43  45
BRANCH  44  52
HETATM   52  O11 UNL     1      -5.321  -2.196   1.722  1.00  0.00    -0.355 OA
ATOM     53  H11 UNL     1      -5.933  -2.902   1.553  1.00  0.00     0.213 HD
ENDBRANCH  44  52
ENDBRANCH  37  40
ENDBRANCH   5  37
TORSDOF 15
