REMARK  18 active torsions:
REMARK  status: ('A' for Active; 'I' for Inactive)
REMARK       I    between atoms: C1_2  and  N2_4 
REMARK    1  A    between atoms: N2_4  and  C2_6 
REMARK    2  A    between atoms: C2_6  and  O2_7 
REMARK    3  A    between atoms: C2_6  and  C3_9 
REMARK    4  A    between atoms: C3_9  and  O3_10 
REMARK    5  A    between atoms: C3_9  and  N3_12 
REMARK    6  A    between atoms: N3_12  and  O4_13 
REMARK    7  A    between atoms: O4_13  and  C4_14 
REMARK    8  A    between atoms: C4_14  and  C5_15 
REMARK    9  A    between atoms: C4_14  and  C18_47 
REMARK   10  A    between atoms: C5_15  and  C6_16 
REMARK   11  A    between atoms: C6_16  and  O5_17 
REMARK   12  A    between atoms: C6_16  and  N4_19 
REMARK   13  A    between atoms: N4_19  and  C7_21 
REMARK   14  A    between atoms: C12_29  and  C13_30 
REMARK   15  A    between atoms: C13_30  and  S2_31 
REMARK   16  A    between atoms: S2_31  and  C14_32 
REMARK   17  A    between atoms: C15_37  and  S3_38 
REMARK   18  A    between atoms: C16_43  and  C17_44 
ROOT
HETATM    1  C7  UNL     1      -0.117  -1.295   0.208  1.00  0.00     0.109 C 
HETATM    2  C8  UNL     1      -0.762  -1.312   1.495  1.00  0.00     0.271 C 
HETATM    3  O6  UNL     1      -0.350  -1.106   2.694  1.00  0.00    -0.266 OA
HETATM    4  N5  UNL     1      -1.979  -1.639   0.877  1.00  0.00    -0.309 N 
HETATM    5  C9  UNL     1      -1.472  -1.151  -0.366  1.00  0.00     0.206 C 
HETATM    6  S1  UNL     1      -1.759  -2.305  -1.733  1.00  0.00    -0.137 SA
HETATM    7  C10 UNL     1      -3.495  -2.421  -2.187  1.00  0.00     0.081 C 
HETATM    8  C11 UNL     1      -4.217  -3.143  -1.042  1.00  0.00     0.047 C 
HETATM    9  C12 UNL     1      -4.183  -2.228   0.120  1.00  0.00    -0.040 C 
HETATM   10  C16 UNL     1      -3.255  -2.226   1.253  1.00  0.00     0.220 C 
ENDROOT
BRANCH   1  11
HETATM   11  N4  UNL     1       1.068  -1.367  -0.238  1.00  0.00    -0.360 N 
ATOM     12  H4  UNL     1       1.182  -1.321  -1.251  1.00  0.00     0.162 HD
BRANCH  11  13
HETATM   13  C6  UNL     1       2.280  -1.508   0.552  1.00  0.00     0.220 C 
BRANCH  13  14
HETATM   14  C5  UNL     1       3.420  -1.249  -0.393  1.00  0.00     0.098 C 
BRANCH  14  15
HETATM   15  C4  UNL     1       4.734  -1.237   0.316  1.00  0.00     0.252 C 
BRANCH  15  16
HETATM   16  O4  UNL     1       5.722  -0.969  -0.663  1.00  0.00    -0.267 OA
BRANCH  16  17
HETATM   17  N3  UNL     1       6.410   0.098  -0.263  1.00  0.00    -0.059 NA
BRANCH  17  18
HETATM   18  C3  UNL     1       5.713   1.359  -0.640  1.00  0.00     0.313 C 
BRANCH  18  19
HETATM   19  C2  UNL     1       6.486   2.469  -0.136  1.00  0.00     0.167 C 
BRANCH  19  20
HETATM   20  N2  UNL     1       6.978   3.578  -0.788  1.00  0.00    -0.292 N 
HETATM   21  C1  UNL     1       6.919   4.037  -2.095  1.00  0.00     0.334 C 
HETATM   22  N1  UNL     1       7.574   5.295  -2.423  1.00  0.00    -0.040 NA
HETATM   23  O1  UNL     1       6.350   3.466  -3.035  1.00  0.00    -0.251 OA
ATOM     24  H2  UNL     1       7.502   4.200  -0.173  1.00  0.00     0.172 HD
ENDBRANCH  19  20
BRANCH  19  25
HETATM   25  O2  UNL     1       6.746   2.384   1.148  1.00  0.00    -0.346 OA
ATOM     26  H2  UNL     1       6.407   1.619   1.598  1.00  0.00     0.219 HD
ENDBRANCH  19  25
ENDBRANCH  18  19
BRANCH  18  27
HETATM   27  O3  UNL     1       5.412   1.273  -1.960  1.00  0.00    -0.370 OA
ATOM     28  H3  UNL     1       4.903   0.542  -2.292  1.00  0.00     0.212 HD
ENDBRANCH  18  27
ENDBRANCH  17  18
ENDBRANCH  16  17
ENDBRANCH  15  16
BRANCH  15  29
HETATM   29  C18 UNL     1       5.044  -2.567   0.886  1.00  0.00     0.205 C 
HETATM   30  O12 UNL     1       5.996  -3.226   0.381  1.00  0.00    -0.646 OA
HETATM   31  O13 UNL     1       4.333  -3.102   1.941  1.00  0.00    -0.646 OA
ENDBRANCH  15  29
ENDBRANCH  14  15
ENDBRANCH  13  14
BRANCH  13  32
HETATM   32  O5  UNL     1       2.209  -0.539   1.552  1.00  0.00    -0.377 OA
ATOM     33  H5  UNL     1       1.489  -0.703   2.149  1.00  0.00     0.212 HD
ENDBRANCH  13  32
ENDBRANCH  11  13
ENDBRANCH   1  11
BRANCH  10  34
HETATM   34  C17 UNL     1      -3.760  -1.504   2.439  1.00  0.00     0.201 C 
HETATM   35  O10 UNL     1      -4.829  -1.887   3.008  1.00  0.00    -0.646 OA
HETATM   36  O11 UNL     1      -3.114  -0.408   2.971  1.00  0.00    -0.646 OA
ENDBRANCH  10  34
BRANCH   9  37
HETATM   37  C13 UNL     1      -5.107  -1.289   0.121  1.00  0.00     0.058 C 
BRANCH  37  38
HETATM   38  S2  UNL     1      -6.322  -1.124  -1.184  1.00  0.00    -0.075 SA
BRANCH  38  39
HETATM   39  C14 UNL     1      -7.439   0.200  -0.706  1.00  0.00     0.133 A 
HETATM   40  N6  UNL     1      -8.566   0.131  -0.006  1.00  0.00    -0.286 N 
HETATM   41  N7  UNL     1      -9.223   1.180   0.239  1.00  0.00    -0.281 N 
ATOM     42  H6  UNL     1      -8.900  -0.771   0.334  1.00  0.00     0.188 HD
HETATM   43  C15 UNL     1      -8.790   2.355  -0.203  1.00  0.00     0.209 A 
ATOM     44  H7  UNL     1     -10.088   1.125   0.777  1.00  0.00     0.188 HD
HETATM   45  S4  UNL     1      -7.350   1.890  -1.015  1.00  0.00    -0.030 SA
BRANCH  43  46
HETATM   46  S3  UNL     1      -9.515   3.951   0.004  1.00  0.00     0.163 S 
HETATM   47  O7  UNL     1      -9.039   4.762  -1.186  1.00  0.00    -0.590 OA
HETATM   48  O8  UNL     1     -11.003   3.863   0.063  1.00  0.00    -0.590 OA
HETATM   49  O9  UNL     1      -8.919   4.645   1.413  1.00  0.00    -0.590 OA
ENDBRANCH  43  46
ENDBRANCH  38  39
ENDBRANCH  37  38
ENDBRANCH   9  37
TORSDOF 18
