REMARK  20 active torsions:
REMARK  status: ('A' for Active; 'I' for Inactive)
REMARK    1  A    between atoms: C5_8  and  N2_9 
REMARK       I    between atoms: N2_9  and  C6_11 
REMARK    2  A    between atoms: C6_11  and  C7_13 
REMARK    3  A    between atoms: C8_18  and  N5_19 
REMARK       I    between atoms: N5_19  and  C9_21 
REMARK    4  A    between atoms: C9_21  and  O4_23 
REMARK    5  A    between atoms: O4_23  and  C10_24 
REMARK    6  A    between atoms: C14_28  and  C15_29 
REMARK    7  A    between atoms: C15_29  and  O6_31 
REMARK    8  A    between atoms: O6_31  and  N6_32 
REMARK    9  A    between atoms: N6_32  and  C16_33 
REMARK   10  A    between atoms: C16_33  and  C17_34 
REMARK   11  A    between atoms: C17_34  and  O7_35 
REMARK   12  A    between atoms: C17_34  and  C18_37 
REMARK   13  A    between atoms: C17_34  and  O8_40 
REMARK   14  A    between atoms: O8_40  and  C21_41 
REMARK   15  A    between atoms: C21_41  and  C22_42 
REMARK   16  A    between atoms: C21_41  and  C23_45 
REMARK   17  A    between atoms: C22_42  and  O9_43 
REMARK   18  A    between atoms: C23_45  and  O10_46 
REMARK   19  A    between atoms: C24_51  and  C25_52 
REMARK   20  A    between atoms: C25_52  and  N8_53 
ROOT
HETATM    1  C1  UNL     1       5.637  -4.610  -1.557  1.00  0.00     0.099 C 
HETATM    2  C2  UNL     1       6.093  -3.994  -0.605  1.00  0.00    -0.160 C 
HETATM    3  C3  UNL     1       6.665  -3.269   0.539  1.00  0.00     0.181 C 
HETATM    4  N1  UNL     1       5.745  -3.230   1.662  1.00  0.00    -0.341 N 
ATOM      5  H1  UNL     1       5.738  -3.950   2.385  1.00  0.00     0.164 HD
HETATM    6  C4  UNL     1       4.855  -2.122   1.687  1.00  0.00     0.267 C 
HETATM    7  O1  UNL     1       4.352  -1.694   2.763  1.00  0.00    -0.269 OA
HETATM    8  C5  UNL     1       4.569  -1.518   0.348  1.00  0.00     0.317 C 
HETATM    9  O11 UNL     1       5.669  -1.274  -0.413  1.00  0.00    -0.348 OA
HETATM   10  C24 UNL     1       6.827  -1.825   0.130  1.00  0.00     0.178 C 
ENDROOT
BRANCH  10  11
HETATM   11  C25 UNL     1       8.031  -1.536  -0.689  1.00  0.00     0.184 C 
BRANCH  11  12
HETATM   12  N8  UNL     1       9.227  -1.880   0.042  1.00  0.00    -0.285 N 
HETATM   13  C26 UNL     1       9.906  -1.047   0.891  1.00  0.00     0.130 A 
HETATM   14  C27 UNL     1      10.999  -1.707   1.383  1.00  0.00     0.127 A 
HETATM   15  N9  UNL     1      10.983  -2.925   0.840  1.00  0.00    -0.296 N 
HETATM   16  N10 UNL     1       9.912  -3.008   0.039  1.00  0.00    -0.241 N 
ATOM     17  H9  UNL     1      11.666  -3.664   1.005  1.00  0.00     0.187 HD
ATOM     18  H10 UNL     1       9.659  -3.835  -0.502  1.00  0.00     0.208 HD
ENDBRANCH  11  12
ENDBRANCH  10  11
BRANCH   8  19
HETATM   19  N2  UNL     1       3.647  -0.418   0.440  1.00  0.00    -0.320 N 
HETATM   20  C6  UNL     1       2.306  -0.533   0.030  1.00  0.00     0.289 C 
HETATM   21  O2  UNL     1       1.910  -1.633  -0.427  1.00  0.00    -0.264 OA
ATOM     22  H2  UNL     1       3.975   0.472   0.814  1.00  0.00     0.166 HD
BRANCH  20  23
HETATM   23  C7  UNL     1       1.361   0.563   0.113  1.00  0.00     0.190 A 
HETATM   24  N3  UNL     1       1.656   1.811   0.510  1.00  0.00    -0.279 N 
HETATM   25  N4  UNL     1       0.784   2.802   0.592  1.00  0.00    -0.282 N 
ATOM     26  H3  UNL     1       2.623   2.009   0.767  1.00  0.00     0.189 HD
HETATM   27  C8  UNL     1      -0.496   2.626   0.276  1.00  0.00     0.158 A 
ATOM     28  H4  UNL     1       1.100   3.720   0.904  1.00  0.00     0.188 HD
HETATM   29  C14 UNL     1      -0.863   1.343  -0.145  1.00  0.00     0.159 A 
HETATM   30  N7  UNL     1       0.048   0.380  -0.212  1.00  0.00    -0.329 N 
ATOM     31  H7  UNL     1      -0.249  -0.545  -0.523  1.00  0.00     0.168 HD
BRANCH  27  32
HETATM   32  N5  UNL     1      -1.420   3.521   0.323  1.00  0.00    -0.285 N 
HETATM   33  C9  UNL     1      -1.195   4.840   0.723  1.00  0.00     0.367 C 
HETATM   34  O3  UNL     1      -0.707   5.088   1.843  1.00  0.00    -0.238 OA
ATOM     35  H5  UNL     1      -2.367   3.253   0.054  1.00  0.00     0.172 HD
BRANCH  33  36
HETATM   36  O4  UNL     1      -1.521   5.861  -0.135  1.00  0.00    -0.294 OA
BRANCH  36  37
HETATM   37  C10 UNL     1      -1.339   7.212   0.163  1.00  0.00     0.061 C 
HETATM   38  C11 UNL     1      -2.113   7.624   1.400  1.00  0.00     0.046 C 
HETATM   39  C12 UNL     1      -1.947   8.000  -1.009  1.00  0.00     0.046 C 
HETATM   40  C13 UNL     1       0.129   7.520   0.279  1.00  0.00     0.046 C 
ENDBRANCH  36  37
ENDBRANCH  33  36
ENDBRANCH  27  32
BRANCH  29  41
HETATM   41  C15 UNL     1      -2.244   1.073  -0.503  1.00  0.00     0.349 C 
HETATM   42  O5  UNL     1      -3.114   1.976  -0.438  1.00  0.00    -0.254 OA
BRANCH  41  43
HETATM   43  O6  UNL     1      -2.674  -0.170  -0.927  1.00  0.00    -0.120 OA
BRANCH  43  44
HETATM   44  N6  UNL     1      -3.800  -0.615  -1.279  1.00  0.00    -0.283 NA
BRANCH  44  45
HETATM   45  C16 UNL     1      -4.859  -1.034  -1.610  1.00  0.00     0.273 C 
BRANCH  45  46
HETATM   46  C17 UNL     1      -5.405  -2.321  -1.032  1.00  0.00     0.280 C 
BRANCH  46  47
HETATM   47  O7  UNL     1      -4.358  -3.277  -1.106  1.00  0.00    -0.350 OA
ATOM     48  H7  UNL     1      -4.701  -4.085  -0.743  1.00  0.00     0.214 HD
ENDBRANCH  46  47
BRANCH  46  49
HETATM   49  C18 UNL     1      -5.784  -2.136   0.346  1.00  0.00    -0.032 C 
HETATM   50  C19 UNL     1      -6.077  -1.966   1.526  1.00  0.00    -0.105 C 
HETATM   51  C20 UNL     1      -6.410  -1.742   2.929  1.00  0.00     0.112 C 
ENDBRANCH  46  49
BRANCH  46  52
HETATM   52  O8  UNL     1      -6.440  -2.837  -1.771  1.00  0.00    -0.330 OA
BRANCH  52  53
HETATM   53  C21 UNL     1      -6.860  -4.054  -1.262  1.00  0.00     0.173 C 
BRANCH  53  54
HETATM   54  C22 UNL     1      -6.411  -5.171  -2.259  1.00  0.00     0.198 C 
BRANCH  54  55
HETATM   55  O9  UNL     1      -6.989  -4.943  -3.501  1.00  0.00    -0.398 OA
ATOM     56  H9  UNL     1      -6.716  -5.622  -4.107  1.00  0.00     0.209 HD
ENDBRANCH  54  55
ENDBRANCH  53  54
BRANCH  53  57
HETATM   57  C23 UNL     1      -8.345  -4.167  -1.079  1.00  0.00     0.198 C 
BRANCH  57  58
HETATM   58  O10 UNL     1      -8.911  -3.245  -0.234  1.00  0.00    -0.398 OA
ATOM     59  H10 UNL     1      -9.851  -3.317  -0.118  1.00  0.00     0.209 HD
ENDBRANCH  57  58
ENDBRANCH  53  57
ENDBRANCH  52  53
ENDBRANCH  46  52
ENDBRANCH  45  46
ENDBRANCH  44  45
ENDBRANCH  43  44
ENDBRANCH  41  43
ENDBRANCH  29  41
ENDBRANCH  20  23
ENDBRANCH   8  19
TORSDOF 20
