REMARK  2 active torsions:
REMARK  status: ('A' for Active; 'I' for Inactive)
REMARK    1  A    between atoms: N1_1  and  C1_4 
REMARK    2  A    between atoms: C2_7  and  N3_8 
ROOT
HETATM    1  C1  UNL     1       2.025  -0.163   0.059  1.00  0.00     0.679 A 
HETATM    2  N2  UNL     1       1.468   1.042  -0.058  1.00  0.00    -0.176 N 
ATOM      3  H2  UNL     1       2.081   1.855  -0.116  1.00  0.00     0.186 HD
HETATM    4  C2  UNL     1       0.135   1.241  -0.104  1.00  0.00     0.134 A 
HETATM    5  C3  UNL     1      -0.703   0.163  -0.030  1.00  0.00     0.123 A 
HETATM    6  C4  UNL     1      -2.074   0.353  -0.076  1.00  0.00     0.278 A 
HETATM    7  O1  UNL     1      -2.610   1.484  -0.186  1.00  0.00    -0.266 OA
HETATM    8  N4  UNL     1      -2.841  -0.766   0.003  1.00  0.00    -0.251 N 
ATOM      9  H4  UNL     1      -3.858  -0.688  -0.027  1.00  0.00     0.192 HD
HETATM   10  N5  UNL     1      -2.275  -1.955   0.119  1.00  0.00    -0.238 N 
ATOM     11  H5  UNL     1      -2.880  -2.774   0.177  1.00  0.00     0.208 HD
HETATM   12  N6  UNL     1      -0.963  -2.138   0.164  1.00  0.00    -0.269 N 
ATOM     13  H6  UNL     1      -0.585  -3.081   0.254  1.00  0.00     0.190 HD
HETATM   14  C5  UNL     1      -0.134  -1.096   0.092  1.00  0.00     0.156 A 
HETATM   15  N7  UNL     1       1.223  -1.239   0.134  1.00  0.00    -0.174 N 
ATOM     16  H7  UNL     1       1.631  -2.169   0.223  1.00  0.00     0.186 HD
ENDROOT
BRANCH   1  17
HETATM   17  N1  UNL     1       3.304  -0.326   0.101  1.00  0.00    -0.234 N 
ATOM     18  H12 UNL     1       3.913   0.491   0.044  1.00  0.00     0.174 HD
ATOM     19  H11 UNL     1       3.730  -1.248   0.191  1.00  0.00     0.174 HD
ENDBRANCH   1  17
BRANCH   4  20
HETATM   20  N3  UNL     1      -0.389   2.414  -0.217  1.00  0.00    -0.384 N 
ATOM     21  H32 UNL     1       0.236   3.218  -0.272  1.00  0.00     0.157 HD
ATOM     22  H31 UNL     1      -1.397   2.565  -0.252  1.00  0.00     0.157 HD
ENDBRANCH   4  20
TORSDOF 2
