REMARK  4 active torsions:
REMARK  status: ('A' for Active; 'I' for Inactive)
REMARK    1  A    between atoms: N1_1  and  C1_4 
REMARK    2  A    between atoms: C2_7  and  N3_8 
REMARK    3  A    between atoms: N4_11  and  O1_12 
REMARK    4  A    between atoms: O1_12  and  C3_13 
ROOT
HETATM    1  C1  UNL     1      -2.399   0.186   0.035  1.00  0.00     0.694 A 
HETATM    2  N2  UNL     1      -1.756  -0.569   0.942  1.00  0.00    -0.021 N 
ATOM      3  H2  UNL     1      -2.240  -0.949   1.755  1.00  0.00     0.203 HD
HETATM    4  C2  UNL     1      -0.448  -0.803   0.734  1.00  0.00     0.722 A 
HETATM    5  N4  UNL     1       0.210  -0.304  -0.345  1.00  0.00     0.016 N 
HETATM    6  C4  UNL     1      -0.436   0.440  -1.232  1.00  0.00     0.381 A 
HETATM    7  O3  UNL     1       0.150   0.909  -2.230  1.00  0.00    -0.243 OA
HETATM    8  N6  UNL     1      -1.736   0.682  -1.039  1.00  0.00    -0.139 N 
ATOM      9  H6  UNL     1      -2.242   1.254  -1.716  1.00  0.00     0.189 HD
ENDROOT
BRANCH   5  10
HETATM   10  O1  UNL     1       1.548  -0.618  -0.441  1.00  0.00    -0.157 OA
BRANCH  10  11
HETATM   11  C3  UNL     1       2.494   0.308  -0.072  1.00  0.00     0.395 C 
HETATM   12  N5  UNL     1       3.900   0.069  -0.139  1.00  0.00    -0.031 NA
HETATM   13  O2  UNL     1       2.063   1.434   0.350  1.00  0.00    -0.240 OA
ENDBRANCH  10  11
ENDBRANCH   5  10
BRANCH   4  14
HETATM   14  N3  UNL     1       0.174  -1.534   1.612  1.00  0.00    -0.232 N 
ATOM     15  H32 UNL     1      -0.320  -1.909   2.422  1.00  0.00     0.174 HD
ATOM     16  H31 UNL     1       1.166  -1.711   1.454  1.00  0.00     0.174 HD
ENDBRANCH   4  14
BRANCH   1  17
HETATM   17  N1  UNL     1      -3.638   0.435   0.190  1.00  0.00    -0.234 N 
ATOM     18  H12 UNL     1      -4.137   0.062   0.998  1.00  0.00     0.174 HD
ATOM     19  H11 UNL     1      -4.126   1.008  -0.498  1.00  0.00     0.174 HD
ENDBRANCH   1  17
TORSDOF 4
