REMARK  10 active torsions:
REMARK  status: ('A' for Active; 'I' for Inactive)
REMARK    1  A    between atoms: O1_2  and  N1_3 
REMARK    2  A    between atoms: C5_9  and  O3_10 
REMARK    3  A    between atoms: C5_9  and  C6_12 
REMARK    4  A    between atoms: C6_12  and  O4_13 
REMARK    5  A    between atoms: C6_12  and  C7_15 
REMARK    6  A    between atoms: C7_15  and  N3_16 
REMARK    7  A    between atoms: N3_16  and  S1_18 
REMARK    8  A    between atoms: S1_18  and  O7_21 
REMARK    9  A    between atoms: O7_21  and  C8_22 
REMARK   10  A    between atoms: C10_27  and  N6_28 
ROOT
HETATM    1  N3  UNL     1       0.324  -1.225   0.347  1.00  0.00    -0.294 N 
ATOM      2  H3  UNL     1       0.192  -2.070   0.903  1.00  0.00     0.174 HD
ENDROOT
BRANCH   1   3
HETATM    3  C7  UNL     1      -0.695  -0.241   0.170  1.00  0.00     0.171 C 
BRANCH   3   4
HETATM    4  C6  UNL     1      -1.975  -0.571   0.881  1.00  0.00     0.196 C 
BRANCH   4   5
HETATM    5  C5  UNL     1      -2.966   0.568   0.782  1.00  0.00     0.206 C 
HETATM    6  N1  UNL     1      -3.411   0.833  -0.556  1.00  0.00    -0.167 N 
HETATM    7  C2  UNL     1      -4.511  -0.051  -0.770  1.00  0.00     0.347 C 
HETATM    8  O2  UNL     1      -5.122  -0.224  -1.859  1.00  0.00    -0.245 OA
HETATM    9  N2  UNL     1      -4.830  -0.726   0.441  1.00  0.00    -0.332 N 
HETATM   10  C3  UNL     1      -5.600  -1.959   0.547  1.00  0.00     0.154 C 
HETATM   11  C4  UNL     1      -4.234   0.077   1.493  1.00  0.00     0.193 C 
BRANCH   6  12
HETATM   12  O1  UNL     1      -2.884   1.723  -1.394  1.00  0.00    -0.276 OA
HETATM   13  C1  UNL     1      -3.810   2.622  -1.909  1.00  0.00     0.238 C 
ENDBRANCH   6  12
BRANCH   5  14
HETATM   14  O3  UNL     1      -2.549   1.694   1.461  1.00  0.00    -0.365 OA
ATOM     15  H3  UNL     1      -2.254   1.519   2.347  1.00  0.00     0.212 HD
ENDBRANCH   5  14
ENDBRANCH   4   5
BRANCH   4  16
HETATM   16  O4  UNL     1      -1.664  -0.671   2.260  1.00  0.00    -0.389 OA
ATOM     17  H4  UNL     1      -1.042  -1.386   2.322  1.00  0.00     0.210 HD
ENDBRANCH   4  16
ENDBRANCH   3   4
ENDBRANCH   1   3
BRANCH   1  18
HETATM   18  S1  UNL     1       1.782  -0.857  -0.456  1.00  0.00     0.363 S 
HETATM   19  O5  UNL     1       1.470  -0.056  -1.695  1.00  0.00    -0.175 OA
HETATM   20  O6  UNL     1       2.517  -2.087  -0.903  1.00  0.00    -0.175 OA
BRANCH  18  21
HETATM   21  O7  UNL     1       2.846   0.034   0.521  1.00  0.00    -0.207 OA
BRANCH  21  22
HETATM   22  C8  UNL     1       4.186   0.174   0.186  1.00  0.00     0.200 A 
HETATM   23  C9  UNL     1       5.150  -0.737   0.621  1.00  0.00     0.172 A 
HETATM   24  N4  UNL     1       4.768  -1.838   1.429  1.00  0.00    -0.079 NA
HETATM   25  N5  UNL     1       6.432  -0.534   0.254  1.00  0.00    -0.176 N 
HETATM   26  C10 UNL     1       6.795   0.509  -0.508  1.00  0.00     0.680 A 
ATOM     27  H5  UNL     1       7.146  -1.193   0.565  1.00  0.00     0.185 HD
HETATM   28  N7  UNL     1       5.857   1.367  -0.913  1.00  0.00    -0.154 N 
HETATM   29  C11 UNL     1       4.557   1.244  -0.596  1.00  0.00     0.298 A 
ATOM     30  H7  UNL     1       6.141   2.157  -1.493  1.00  0.00     0.187 HD
HETATM   31  O8  UNL     1       3.696   2.086  -1.002  1.00  0.00    -0.264 OA
BRANCH  26  32
HETATM   32  N6  UNL     1       8.045   0.683  -0.845  1.00  0.00    -0.234 N 
ATOM     33  H62 UNL     1       8.762   0.027  -0.535  1.00  0.00     0.174 HD
ATOM     34  H61 UNL     1       8.321   1.476  -1.424  1.00  0.00     0.174 HD
ENDBRANCH  26  32
ENDBRANCH  21  22
ENDBRANCH  18  21
ENDBRANCH   1  18
TORSDOF 10
