REMARK  10 active torsions:
REMARK  status: ('A' for Active; 'I' for Inactive)
REMARK    1  A    between atoms: C1_2  and  C2_4 
REMARK    2  A    between atoms: C2_4  and  C13_35 
REMARK    3  A    between atoms: C3_5  and  C4_6 
REMARK    4  A    between atoms: C5_8  and  N2_9 
REMARK    5  A    between atoms: C6_12  and  C7_13 
REMARK    6  A    between atoms: C8_18  and  C9_19 
REMARK    7  A    between atoms: C9_19  and  N6_20 
REMARK    8  A    between atoms: C9_19  and  N7_24 
REMARK    9  A    between atoms: C11_29  and  O4_30 
REMARK   10  A    between atoms: C11_29  and  C12_32 
ROOT
HETATM    1  N2  UNL     1      -1.806   0.289   0.072  1.00  0.00    -0.245 N 
HETATM    2  N3  UNL     1      -1.619   1.515   0.516  1.00  0.00    -0.275 N 
ATOM      3  H3  UNL     1      -0.808   2.091   0.292  1.00  0.00     0.189 HD
HETATM    4  C6  UNL     1      -2.618   1.901   1.289  1.00  0.00     0.188 A 
HETATM    5  N5  UNL     1      -3.475   0.869   1.335  1.00  0.00    -0.322 N 
ATOM      6  H5  UNL     1      -4.355   0.844   1.850  1.00  0.00     0.169 HD
HETATM    7  C8  UNL     1      -2.966  -0.135   0.576  1.00  0.00     0.161 A 
ENDROOT
BRANCH   1   8
HETATM    8  C5  UNL     1      -0.864  -0.400  -0.794  1.00  0.00     0.250 C 
HETATM    9  O2  UNL     1       0.095   0.499  -1.187  1.00  0.00    -0.352 OA
HETATM   10  C4  UNL     1       1.371  -0.051  -1.102  1.00  0.00     0.193 C 
HETATM   11  C11 UNL     1       1.194  -1.521  -0.835  1.00  0.00     0.179 C 
HETATM   12  C10 UNL     1      -0.156  -1.513  -0.149  1.00  0.00     0.108 C 
BRANCH  10  13
HETATM   13  C3  UNL     1       2.171   0.601  -0.065  1.00  0.00     0.032 C 
HETATM   14  C2  UNL     1       3.472   0.779  -0.015  1.00  0.00     0.104 C 
BRANCH  14  15
HETATM   15  C1  UNL     1       4.050   1.480   1.162  1.00  0.00     0.271 C 
HETATM   16  N1  UNL     1       3.170   1.917   2.162  1.00  0.00    -0.057 NA
HETATM   17  O1  UNL     1       5.263   1.659   1.232  1.00  0.00    -0.271 OA
ENDBRANCH  14  15
BRANCH  14  18
HETATM   18  C13 UNL     1       4.431   0.357  -1.006  1.00  0.00     0.214 C 
HETATM   19  O7  UNL     1       4.106  -0.238  -2.040  1.00  0.00    -0.644 OA
HETATM   20  O8  UNL     1       5.778   0.618  -0.810  1.00  0.00    -0.644 OA
ENDBRANCH  14  18
ENDBRANCH  10  13
BRANCH  11  21
HETATM   21  O4  UNL     1       2.163  -2.058   0.013  1.00  0.00    -0.376 OA
ATOM     22  H4  UNL     1       2.051  -2.986   0.182  1.00  0.00     0.211 HD
ENDBRANCH  11  21
BRANCH  11  23
HETATM   23  C12 UNL     1       1.109  -2.271  -2.112  1.00  0.00     0.212 C 
HETATM   24  O5  UNL     1       0.310  -1.947  -3.021  1.00  0.00    -0.646 OA
HETATM   25  O6  UNL     1       1.917  -3.379  -2.365  1.00  0.00    -0.646 OA
ENDBRANCH  11  23
ENDBRANCH   1   8
BRANCH   7  26
HETATM   26  C9  UNL     1      -3.612  -1.433   0.368  1.00  0.00     0.446 C 
BRANCH  26  27
HETATM   27  N6  UNL     1      -3.687  -1.851  -1.017  1.00  0.00    -0.043 N 
ATOM     28  H63 UNL     1      -4.142  -1.133  -1.581  1.00  0.00     0.277 HD
ATOM     29  H62 UNL     1      -2.759  -1.844  -1.441  1.00  0.00     0.277 HD
ATOM     30  H61 UNL     1      -4.137  -2.755  -1.162  1.00  0.00     0.277 HD
ENDBRANCH  26  27
BRANCH  26  31
HETATM   31  N7  UNL     1      -5.022  -1.334   0.797  1.00  0.00    -0.043 N 
ATOM     32  H73 UNL     1      -5.116  -1.001   1.756  1.00  0.00     0.277 HD
ATOM     33  H72 UNL     1      -5.518  -0.572   0.334  1.00  0.00     0.277 HD
ATOM     34  H71 UNL     1      -5.472  -2.238   0.652  1.00  0.00     0.277 HD
ENDBRANCH  26  31
ENDBRANCH   7  26
BRANCH   4  35
HETATM   35  C7  UNL     1      -2.783   3.196   1.974  1.00  0.00     0.300 C 
HETATM   36  N4  UNL     1      -1.797   4.208   1.842  1.00  0.00    -0.054 NA
HETATM   37  O3  UNL     1      -3.789   3.408   2.674  1.00  0.00    -0.268 OA
ENDBRANCH   4  35
TORSDOF 10
