REMARK  2 active torsions:
REMARK  status: ('A' for Active; 'I' for Inactive)
REMARK    1  A    between atoms: C3_4  and  O1_5 
REMARK    2  A    between atoms: C4_7  and  O2_8 
ROOT
HETATM    1  C1  UNL     1       1.923  -0.243  -0.040  1.00  0.00     0.313 C 
HETATM    2  N1  UNL     1       0.645  -0.312  -0.701  1.00  0.00     0.118 N 
HETATM    3  C2  UNL     1      -0.344  -1.160  -0.090  1.00  0.00     0.311 C 
HETATM    4  C3  UNL     1      -1.089   0.065   0.420  1.00  0.00     0.205 C 
HETATM    5  C4  UNL     1      -0.214   0.830  -0.544  1.00  0.00     0.386 C 
ENDROOT
BRANCH   4   6
HETATM    6  O1  UNL     1      -2.438   0.101   0.079  1.00  0.00    -0.389 OA
ATOM      7  H1  UNL     1      -2.903   0.866   0.397  1.00  0.00     0.210 HD
ENDBRANCH   4   6
BRANCH   5   8
HETATM    8  O2  UNL     1       0.370   1.961   0.010  1.00  0.00    -0.366 OA
ATOM      9  H2  UNL     1      -0.198   2.716   0.114  1.00  0.00     0.212 HD
ENDBRANCH   5   8
TORSDOF 2
