REMARK  0 active torsions:
REMARK  status: ('A' for Active; 'I' for Inactive)
REMARK       I    between atoms: C1_4  and  N3_6 
ROOT
HETATM    1  N1  UNL     1       2.281  -1.047   0.408  1.00  0.00    -0.374 N 
ATOM      2  H11 UNL     1       1.930  -2.004   0.444  1.00  0.00     0.158 HD
ATOM      3  H12 UNL     1       3.280  -0.914   0.565  1.00  0.00     0.158 HD
HETATM    4  C1  UNL     1       1.556  -0.024   0.182  1.00  0.00     0.185 C 
HETATM    5  N2  UNL     1       2.042   1.303   0.132  1.00  0.00    -0.064 NA
HETATM    6  N3  UNL     1       0.165  -0.209  -0.036  1.00  0.00    -0.333 N 
HETATM    7  C2  UNL     1      -0.874   0.103   0.907  1.00  0.00     0.154 C 
HETATM    8  C3  UNL     1      -2.091   0.205   0.014  1.00  0.00     0.190 C 
HETATM    9  O1  UNL     1      -1.791  -0.371  -1.187  1.00  0.00    -0.370 OA
HETATM   10  C4  UNL     1      -0.473  -0.733  -1.215  1.00  0.00     0.295 C 
ENDROOT
TORSDOF 0
