REMARK  0 active torsions:
REMARK  status: ('A' for Active; 'I' for Inactive)
REMARK       I    between atoms: C2_4  and  N2_5 
REMARK       I    between atoms: C2_4  and  N3_8 
ROOT
HETATM    1  C1  UNL     1       2.456  -0.131   0.489  1.00  0.00     0.165 C 
HETATM    2  N1  UNL     1       1.202  -0.556  -0.041  1.00  0.00    -0.230 N 
ATOM      3  H1  UNL     1       1.133  -1.533  -0.325  1.00  0.00     0.177 HD
HETATM    4  C2  UNL     1       0.159   0.158  -0.196  1.00  0.00     0.682 C 
HETATM    5  N2  UNL     1      -1.003  -0.466  -0.748  1.00  0.00    -0.230 N 
ATOM      6  H2  UNL     1      -1.319  -0.179  -1.674  1.00  0.00     0.177 HD
HETATM    7  C3  UNL     1      -1.746  -1.484  -0.050  1.00  0.00     0.165 C 
HETATM    8  N3  UNL     1       0.060   1.536   0.139  1.00  0.00    -0.126 N 
ATOM      9  H3  UNL     1       0.863   2.150   0.002  1.00  0.00     0.197 HD
HETATM   10  C4  UNL     1      -1.132   2.056   0.655  1.00  0.00     0.196 C 
HETATM   11  N4  UNL     1      -2.111   2.485   1.091  1.00  0.00    -0.171 NA
ENDROOT
TORSDOF 0
