REMARK  2 active torsions:
REMARK  status: ('A' for Active; 'I' for Inactive)
REMARK    1  A    between atoms: N1_1  and  C1_5 
REMARK    2  A    between atoms: C4_8  and  O1_9 
ROOT
HETATM    1  C1  UNL     1      -1.083   0.366  -0.193  1.00  0.00     0.194 C 
HETATM    2  C2  UNL     1      -0.348   0.114   1.086  1.00  0.00     0.019 C 
HETATM    3  C3  UNL     1       0.913   0.919   0.905  1.00  0.00     0.039 C 
HETATM    4  C4  UNL     1       1.193   0.603  -0.578  1.00  0.00     0.124 C 
HETATM    5  C5  UNL     1       0.073  -0.381  -0.820  1.00  0.00     0.045 C 
HETATM    6  C6  UNL     1       0.101  -1.205   0.442  1.00  0.00     0.016 C 
ENDROOT
BRANCH   1   7
HETATM    7  N1  UNL     1      -2.367  -0.178  -0.357  1.00  0.00    -0.074 N 
ATOM      8  H13 UNL     1      -2.321  -1.184  -0.197  1.00  0.00     0.274 HD
ATOM      9  H12 UNL     1      -2.953   0.120   0.423  1.00  0.00     0.274 HD
ATOM     10  H11 UNL     1      -2.868  -0.006  -1.229  1.00  0.00     0.274 HD
ENDBRANCH   1   7
BRANCH   4  11
HETATM   11  O1  UNL     1       2.429   0.035  -0.749  1.00  0.00    -0.395 OA
ATOM     12  H1  UNL     1       2.602  -0.160  -1.663  1.00  0.00     0.210 HD
ENDBRANCH   4  11
TORSDOF 2
