REMARK  13 active torsions:
REMARK  status: ('A' for Active; 'I' for Inactive)
REMARK    1  A    between atoms: C2_2  and  C3_3 
REMARK    2  A    between atoms: C6_6  and  C7_7 
REMARK    3  A    between atoms: C7_7  and  C9_9 
REMARK    4  A    between atoms: C9_9  and  C10_10 
REMARK    5  A    between atoms: C12_13  and  C13_14 
REMARK    6  A    between atoms: C13_14  and  C14_15 
REMARK    7  A    between atoms: C14_15  and  C15_17 
REMARK    8  A    between atoms: C15_17  and  C16_18 
REMARK    9  A    between atoms: C16_18  and  C17_19 
REMARK   10  A    between atoms: C17_19  and  C18_20 
REMARK   11  A    between atoms: C20_22  and  O3_23 
REMARK   12  A    between atoms: C21_25  and  O4_26 
REMARK   13  A    between atoms: C26_32  and  O5_33 
ROOT
HETATM    1  C10 UNL     1      -0.177  -0.126   2.270  1.00  0.00     0.045 C 
HETATM    2  C11 UNL     1       0.803   1.079   2.270  1.00  0.00     0.175 C 
HETATM    3  O1  UNL     1       1.933   0.672   2.942  1.00  0.00    -0.382 OA
HETATM    4  C12 UNL     1       2.780  -0.042   2.072  1.00  0.00     0.159 C 
HETATM    5  C20 UNL     1       1.977  -1.062   1.311  1.00  0.00     0.176 C 
HETATM    6  C21 UNL     1       0.658  -1.350   2.000  1.00  0.00     0.155 C 
ENDROOT
BRANCH   1   7
HETATM    7  C9  UNL     1      -1.168   0.160   1.193  1.00  0.00     0.043 C 
BRANCH   7   8
HETATM    8  C7  UNL     1      -2.266  -0.832   1.022  1.00  0.00    -0.084 C 
HETATM    9  C8  UNL     1      -2.445  -1.728   1.930  1.00  0.00     0.015 C 
BRANCH   8  10
HETATM   10  C6  UNL     1      -3.007  -0.651  -0.244  1.00  0.00     0.019 C 
HETATM   11  C5  UNL     1      -3.443   0.820  -0.231  1.00  0.00     0.025 C 
HETATM   12  C3  UNL     1      -4.603   1.105  -1.115  1.00  0.00    -0.000 C 
HETATM   13  C4  UNL     1      -4.084   1.150  -2.554  1.00  0.00     0.022 C 
HETATM   14  C26 UNL     1      -5.782   0.213  -0.962  1.00  0.00     0.134 C 
HETATM   15  C24 UNL     1      -5.487  -1.081  -0.234  1.00  0.00     0.016 C 
HETATM   16  C22 UNL     1      -4.092  -1.534  -0.624  1.00  0.00    -0.004 C 
HETATM   17  C25 UNL     1      -5.781  -1.032   1.211  1.00  0.00     0.013 C 
HETATM   18  C23 UNL     1      -3.943  -3.002  -0.474  1.00  0.00     0.011 C 
BRANCH  12  19
HETATM   19  C2  UNL     1      -5.046   2.506  -0.808  1.00  0.00    -0.025 C 
HETATM   20  C1  UNL     1      -4.260   3.509  -1.113  1.00  0.00     0.008 C 
ENDBRANCH  12  19
BRANCH  14  21
HETATM   21  O5  UNL     1      -6.870   0.829  -0.333  1.00  0.00    -0.394 OA
ATOM     22  H5  UNL     1      -7.624   0.259  -0.235  1.00  0.00     0.210 HD
ENDBRANCH  14  21
ENDBRANCH   8  10
ENDBRANCH   7   8
ENDBRANCH   1   7
BRANCH   6  23
HETATM   23  O4  UNL     1       0.940  -2.031   3.208  1.00  0.00    -0.392 OA
ATOM     24  H4  UNL     1       1.467  -2.803   3.038  1.00  0.00     0.210 HD
ENDBRANCH   6  23
BRANCH   5  25
HETATM   25  O3  UNL     1       2.670  -2.268   1.327  1.00  0.00    -0.390 OA
ATOM     26  H3  UNL     1       2.163  -2.912   0.847  1.00  0.00     0.210 HD
ENDBRANCH   5  25
BRANCH   4  27
HETATM   27  C13 UNL     1       3.461   0.956   1.198  1.00  0.00     0.112 C 
BRANCH  27  28
HETATM   28  C14 UNL     1       4.420   0.385   0.211  1.00  0.00     0.129 C 
HETATM   29  O2  UNL     1       4.692  -0.786   0.094  1.00  0.00    -0.298 OA
BRANCH  28  30
HETATM   30  C15 UNL     1       5.075   1.366  -0.686  1.00  0.00     0.078 C 
BRANCH  30  31
HETATM   31  C16 UNL     1       6.130   0.808  -1.565  1.00  0.00     0.007 C 
BRANCH  31  32
HETATM   32  C17 UNL     1       7.275   0.269  -0.789  1.00  0.00     0.000 C 
BRANCH  32  33
HETATM   33  C18 UNL     1       8.326  -0.281  -1.741  1.00  0.00    -0.005 C 
HETATM   34  C19 UNL     1       8.860   0.772  -2.681  1.00  0.00     0.005 C 
ENDBRANCH  32  33
ENDBRANCH  31  32
ENDBRANCH  30  31
ENDBRANCH  28  30
ENDBRANCH  27  28
ENDBRANCH   4  27
TORSDOF 13
