REMARK  13 active torsions:
REMARK  status: ('A' for Active; 'I' for Inactive)
REMARK    1  A    between atoms: C2_2  and  C3_3 
REMARK    2  A    between atoms: C3_3  and  C4_4 
REMARK    3  A    between atoms: C4_4  and  C5_5 
REMARK    4  A    between atoms: C5_5  and  C6_6 
REMARK    5  A    between atoms: C6_6  and  C7_7 
REMARK    6  A    between atoms: C7_7  and  C8_8 
REMARK    7  A    between atoms: C8_8  and  C9_9 
REMARK    8  A    between atoms: C9_9  and  C10_10 
REMARK    9  A    between atoms: C10_10  and  C11_11 
REMARK   10  A    between atoms: C11_11  and  O1_12 
REMARK   11  A    between atoms: C12_14  and  N1_15 
REMARK   12  A    between atoms: C25_30  and  O4_31 
REMARK   13  A    between atoms: C26_33  and  O5_34 
ROOT
HETATM    1  C11 UNL     1      -1.333  -0.552   0.203  1.00  0.00     0.118 C 
HETATM    2  C12 UNL     1      -2.164  -1.758   0.110  1.00  0.00     0.264 C 
HETATM    3  C16 UNL     1      -3.657  -1.595   0.135  1.00  0.00     0.025 C 
HETATM    4  C17 UNL     1      -4.281  -2.904   0.586  1.00  0.00     0.012 C 
HETATM    5  C18 UNL     1      -4.278  -1.280  -1.194  1.00  0.00     0.085 C 
HETATM    6  C19 UNL     1      -4.434   0.188  -1.329  1.00  0.00     0.141 C 
HETATM    7  O2  UNL     1      -4.813   0.559  -2.413  1.00  0.00    -0.297 OA
HETATM    8  C20 UNL     1      -4.222   1.320  -0.402  1.00  0.00     0.162 C 
HETATM    9  C21 UNL     1      -4.808   2.575  -0.872  1.00  0.00     0.141 C 
HETATM   10  O3  UNL     1      -5.766   2.726  -1.559  1.00  0.00    -0.297 OA
HETATM   11  C22 UNL     1      -3.961   3.658  -0.313  1.00  0.00     0.086 C 
HETATM   12  C23 UNL     1      -2.600   3.009  -0.424  1.00  0.00     0.027 C 
HETATM   13  C24 UNL     1      -2.150   3.110  -1.839  1.00  0.00     0.014 C 
HETATM   14  C25 UNL     1      -2.825   1.543   0.030  1.00  0.00     0.107 C 
HETATM   15  C26 UNL     1      -1.768   0.679  -0.521  1.00  0.00     0.190 C 
ENDROOT
BRANCH   1  16
HETATM   16  C10 UNL     1       0.052  -0.806  -0.311  1.00  0.00     0.043 C 
BRANCH  16  17
HETATM   17  C9  UNL     1       1.044   0.280  -0.345  1.00  0.00     0.003 C 
BRANCH  17  18
HETATM   18  C8  UNL     1       1.366   0.875   0.985  1.00  0.00     0.000 C 
BRANCH  18  19
HETATM   19  C7  UNL     1       2.416   1.973   0.879  1.00  0.00     0.000 C 
BRANCH  19  20
HETATM   20  C6  UNL     1       3.671   1.392   0.292  1.00  0.00     0.000 C 
BRANCH  20  21
HETATM   21  C5  UNL     1       4.240   0.266   1.116  1.00  0.00     0.000 C 
BRANCH  21  22
HETATM   22  C4  UNL     1       5.480  -0.248   0.435  1.00  0.00     0.000 C 
BRANCH  22  23
HETATM   23  C3  UNL     1       6.537   0.817   0.289  1.00  0.00    -0.000 C 
BRANCH  23  24
HETATM   24  C2  UNL     1       7.775   0.238  -0.402  1.00  0.00    -0.005 C 
HETATM   25  C1  UNL     1       7.415  -0.283  -1.775  1.00  0.00     0.005 C 
ENDBRANCH  23  24
ENDBRANCH  22  23
ENDBRANCH  21  22
ENDBRANCH  20  21
ENDBRANCH  19  20
ENDBRANCH  18  19
ENDBRANCH  17  18
ENDBRANCH  16  17
ENDBRANCH   1  16
BRANCH   1  26
HETATM   26  O1  UNL     1      -1.220  -0.181   1.534  1.00  0.00    -0.385 OA
ATOM     27  H1  UNL     1      -2.098  -0.020   1.860  1.00  0.00     0.210 HD
ENDBRANCH   1  26
BRANCH   2  28
HETATM   28  N1  UNL     1      -1.873  -2.880   0.867  1.00  0.00     0.104 N 
HETATM   29  C13 UNL     1      -0.843  -3.822   0.920  1.00  0.00     0.308 A 
HETATM   30  C14 UNL     1      -1.151  -3.012   2.072  1.00  0.00     0.248 A 
HETATM   31  C15 UNL     1      -1.924  -3.723   3.199  1.00  0.00     0.045 C 
ENDBRANCH   2  28
BRANCH  15  32
HETATM   32  O5  UNL     1      -1.866   0.487  -1.911  1.00  0.00    -0.389 OA
ATOM     33  H5  UNL     1      -2.143   1.270  -2.372  1.00  0.00     0.210 HD
ENDBRANCH  15  32
BRANCH  14  34
HETATM   34  O4  UNL     1      -2.675   1.649   1.417  1.00  0.00    -0.385 OA
ATOM     35  H4  UNL     1      -1.778   1.792   1.694  1.00  0.00     0.210 HD
ENDBRANCH  14  34
TORSDOF 13
