REMARK  12 active torsions:
REMARK  status: ('A' for Active; 'I' for Inactive)
REMARK    1  A    between atoms: C3_4  and  O2_5 
REMARK    2  A    between atoms: O2_5  and  C4_6 
REMARK    3  A    between atoms: C10_12  and  C11_13 
REMARK    4  A    between atoms: C11_13  and  C12_14 
REMARK    5  A    between atoms: C12_14  and  O3_17 
REMARK    6  A    between atoms: C19_23  and  C20_24 
REMARK    7  A    between atoms: C20_24  and  O4_25 
REMARK    8  A    between atoms: C21_27  and  O5_28 
REMARK    9  A    between atoms: O5_28  and  C22_29 
REMARK   10  A    between atoms: C22_29  and  C23_30 
REMARK   11  A    between atoms: C23_30  and  C24_31 
REMARK   12  A    between atoms: C24_31  and  C25_32 
ROOT
HETATM    1  C1  UNL     1       3.378   2.335  -0.353  1.00  0.00     0.042 C 
HETATM    2  C2  UNL     1       2.463   1.184  -0.146  1.00  0.00     0.150 C 
HETATM    3  O1  UNL     1       1.607   0.934  -1.220  1.00  0.00    -0.354 OA
HETATM    4  C3  UNL     1       0.528   0.184  -0.756  1.00  0.00     0.261 C 
HETATM    5  C18 UNL     1       0.983  -1.163  -0.172  1.00  0.00     0.070 C 
HETATM    6  C19 UNL     1       2.046  -0.943   0.886  1.00  0.00     0.045 C 
HETATM    7  C21 UNL     1       3.143  -0.133   0.162  1.00  0.00     0.156 C 
ENDROOT
BRANCH   4   8
HETATM    8  O2  UNL     1      -0.091   0.881   0.233  1.00  0.00    -0.350 OA
BRANCH   8   9
HETATM    9  C4  UNL     1      -1.409   1.187   0.057  1.00  0.00     0.065 C 
HETATM   10  C5  UNL     1      -1.711   2.027  -1.148  1.00  0.00     0.043 C 
HETATM   11  C6  UNL     1      -3.185   2.360  -1.105  1.00  0.00    -0.011 C 
HETATM   12  C7  UNL     1      -3.582   3.114   0.122  1.00  0.00     0.009 C 
HETATM   13  C15 UNL     1      -4.045   1.114  -1.182  1.00  0.00     0.014 C 
HETATM   14  C8  UNL     1      -3.304   2.220   1.317  1.00  0.00    -0.011 C 
HETATM   15  C9  UNL     1      -4.080   0.921   1.227  1.00  0.00     0.014 C 
HETATM   16  C17 UNL     1      -1.828   1.956   1.311  1.00  0.00     0.043 C 
HETATM   17  C10 UNL     1      -3.731   0.180  -0.036  1.00  0.00    -0.034 C 
HETATM   18  C16 UNL     1      -2.207  -0.048   0.017  1.00  0.00     0.048 C 
BRANCH  17  19
HETATM   19  C11 UNL     1      -4.255  -1.179  -0.176  1.00  0.00     0.046 C 
BRANCH  19  20
HETATM   20  C12 UNL     1      -5.664  -1.514  -0.179  1.00  0.00     0.051 C 
HETATM   21  C13 UNL     1      -6.425  -1.148   1.072  1.00  0.00     0.045 C 
HETATM   22  C14 UNL     1      -5.766  -3.056  -0.267  1.00  0.00     0.045 C 
BRANCH  20  23
HETATM   23  O3  UNL     1      -6.415  -1.081  -1.262  1.00  0.00    -0.391 OA
ATOM     24  H3  UNL     1      -7.339  -1.301  -1.264  1.00  0.00     0.210 HD
ENDBRANCH  20  23
ENDBRANCH  19  20
ENDBRANCH  17  19
ENDBRANCH   8   9
ENDBRANCH   4   8
BRANCH   6  25
HETATM   25  C20 UNL     1       2.519  -2.284   1.340  1.00  0.00     0.171 C 
BRANCH  25  26
HETATM   26  O4  UNL     1       3.495  -2.235   2.326  1.00  0.00    -0.400 OA
ATOM     27  H4  UNL     1       3.796  -3.088   2.615  1.00  0.00     0.209 HD
ENDBRANCH  25  26
ENDBRANCH   6  25
BRANCH   7  28
HETATM   28  O5  UNL     1       4.287  -0.012   0.888  1.00  0.00    -0.383 OA
BRANCH  28  29
HETATM   29  C22 UNL     1       5.428  -0.578   0.335  1.00  0.00     0.168 C 
BRANCH  29  30
HETATM   30  C23 UNL     1       5.860  -0.032  -0.972  1.00  0.00     0.035 C 
BRANCH  30  31
HETATM   31  C24 UNL     1       7.084  -0.750  -1.464  1.00  0.00     0.101 C 
BRANCH  31  32
HETATM   32  C25 UNL     1       8.214  -0.526  -0.543  1.00  0.00     0.231 C 
HETATM   33  N1  UNL     1       9.324  -1.430  -0.679  1.00  0.00    -0.062 NA
HETATM   34  O6  UNL     1       8.254   0.377   0.313  1.00  0.00    -0.277 OA
ENDBRANCH  31  32
ENDBRANCH  30  31
ENDBRANCH  29  30
ENDBRANCH  28  29
ENDBRANCH   7  28
TORSDOF 12
