REMARK  14 active torsions:
REMARK  status: ('A' for Active; 'I' for Inactive)
REMARK    1  A    between atoms: C2_2  and  C3_3 
REMARK    2  A    between atoms: C3_3  and  C4_4 
REMARK    3  A    between atoms: C4_4  and  C5_5 
REMARK    4  A    between atoms: C5_5  and  C6_6 
REMARK    5  A    between atoms: C6_6  and  C7_7 
REMARK    6  A    between atoms: C7_7  and  O2_9 
REMARK    7  A    between atoms: O2_9  and  C8_10 
REMARK    8  A    between atoms: C10_12  and  C11_13 
REMARK    9  A    between atoms: C14_16  and  C15_17 
REMARK   10  A    between atoms: C15_17  and  O3_18 
REMARK   11  A    between atoms: C15_17  and  C16_20 
REMARK   12  A    between atoms: C16_20  and  C18_22 
REMARK   13  A    between atoms: C18_22  and  O4_24 
REMARK   14  A    between atoms: C22_29  and  O6_30 
ROOT
HETATM    1  C8  UNL     1       1.738  -1.105   0.293  1.00  0.00     0.141 C 
HETATM    2  C9  UNL     1       0.578  -0.503   1.069  1.00  0.00     0.065 C 
HETATM    3  C10 UNL     1      -0.682  -1.276   1.022  1.00  0.00     0.128 C 
HETATM    4  O5  UNL     1      -0.944  -1.996  -0.108  1.00  0.00    -0.377 OA
HETATM    5  C21 UNL     1       0.139  -2.715  -0.526  1.00  0.00     0.157 C 
HETATM    6  C22 UNL     1      -0.041  -3.521  -1.750  1.00  0.00     0.148 C 
HETATM    7  C23 UNL     1       1.095  -3.196  -2.712  1.00  0.00     0.039 C 
HETATM    8  C24 UNL     1       2.090  -2.380  -1.870  1.00  0.00    -0.007 C 
HETATM    9  C25 UNL     1       3.097  -3.284  -1.265  1.00  0.00     0.010 C 
HETATM   10  C26 UNL     1       1.187  -1.678  -0.955  1.00  0.00     0.050 C 
ENDROOT
BRANCH   3  11
HETATM   11  C11 UNL     1      -1.820  -0.247   1.147  1.00  0.00     0.015 C 
HETATM   12  C12 UNL     1      -1.777   0.744   0.030  1.00  0.00     0.007 C 
HETATM   13  C13 UNL     1      -3.240   1.186  -0.168  1.00  0.00     0.007 C 
HETATM   14  C14 UNL     1      -4.039  -0.030   0.154  1.00  0.00     0.015 C 
HETATM   15  C20 UNL     1      -3.162  -0.885   1.060  1.00  0.00     0.014 C 
BRANCH  14  16
HETATM   16  C15 UNL     1      -5.346   0.142   0.812  1.00  0.00     0.128 C 
BRANCH  16  17
HETATM   17  O3  UNL     1      -5.863  -1.178   1.012  1.00  0.00    -0.395 OA
ATOM     18  H3  UNL     1      -6.706  -1.067   1.436  1.00  0.00     0.210 HD
ENDBRANCH  16  17
BRANCH  16  19
HETATM   19  C16 UNL     1      -6.424   0.878   0.099  1.00  0.00     0.039 C 
HETATM   20  C17 UNL     1      -7.696   0.875   1.003  1.00  0.00     0.015 C 
BRANCH  19  21
HETATM   21  C18 UNL     1      -6.188   2.331  -0.183  1.00  0.00     0.120 C 
HETATM   22  C19 UNL     1      -7.455   2.819  -0.914  1.00  0.00     0.040 C 
BRANCH  21  23
HETATM   23  O4  UNL     1      -6.059   3.064   1.015  1.00  0.00    -0.396 OA
ATOM     24  H4  UNL     1      -5.909   3.985   0.836  1.00  0.00     0.210 HD
ENDBRANCH  21  23
ENDBRANCH  19  21
ENDBRANCH  16  19
ENDBRANCH  14  16
ENDBRANCH   3  11
BRANCH   1  25
HETATM   25  O2  UNL     1       2.667  -0.067   0.093  1.00  0.00    -0.315 OA
BRANCH  25  26
HETATM   26  C7  UNL     1       3.888  -0.138   0.702  1.00  0.00     0.259 C 
HETATM   27  O1  UNL     1       4.209  -1.115   1.442  1.00  0.00    -0.265 OA
BRANCH  26  28
HETATM   28  C6  UNL     1       4.941   0.922   0.547  1.00  0.00     0.111 C 
BRANCH  28  29
HETATM   29  C5  UNL     1       6.097   0.447  -0.264  1.00  0.00     0.010 C 
BRANCH  29  30
HETATM   30  C4  UNL     1       7.113   1.541  -0.392  1.00  0.00     0.004 C 
BRANCH  30  31
HETATM   31  C3  UNL     1       7.648   1.984   0.931  1.00  0.00     0.026 C 
BRANCH  31  32
HETATM   32  C2  UNL     1       8.651   3.059   0.747  1.00  0.00    -0.037 C 
HETATM   33  C1  UNL     1       8.450   4.233   1.299  1.00  0.00     0.007 C 
ENDBRANCH  31  32
ENDBRANCH  30  31
ENDBRANCH  29  30
ENDBRANCH  28  29
ENDBRANCH  26  28
ENDBRANCH  25  26
ENDBRANCH   1  25
BRANCH   6  34
HETATM   34  O6  UNL     1      -1.280  -3.426  -2.340  1.00  0.00    -0.393 OA
ATOM     35  H6  UNL     1      -1.396  -3.945  -3.128  1.00  0.00     0.210 HD
ENDBRANCH   6  34
TORSDOF 14
