REMARK  2 active torsions:
REMARK  status: ('A' for Active; 'I' for Inactive)
REMARK    1  A    between atoms: C6_6  and  O1_7 
REMARK    2  A    between atoms: C14_16  and  O2_17 
ROOT
HETATM    1  C1  UNL     1      -2.654  -2.912   0.640  1.00  0.00     0.039 C 
HETATM    2  C2  UNL     1      -2.013  -1.613   0.274  1.00  0.00     0.117 C 
HETATM    3  C3  UNL     1      -2.949  -0.778  -0.602  1.00  0.00     0.032 C 
HETATM    4  C4  UNL     1      -3.224   0.573   0.039  1.00  0.00     0.005 C 
HETATM    5  C5  UNL     1      -2.447   1.682  -0.589  1.00  0.00     0.032 C 
HETATM    6  C6  UNL     1      -1.099   1.913   0.105  1.00  0.00     0.118 C 
HETATM    7  C7  UNL     1      -0.712   3.333  -0.167  1.00  0.00     0.032 C 
HETATM    8  C8  UNL     1       0.715   3.651   0.002  1.00  0.00     0.002 C 
HETATM    9  C9  UNL     1       1.605   2.554   0.440  1.00  0.00     0.000 C 
HETATM   10  C10 UNL     1       2.475   2.039  -0.715  1.00  0.00     0.000 C 
HETATM   11  C11 UNL     1       3.318   0.901  -0.164  1.00  0.00     0.000 C 
HETATM   12  C12 UNL     1       2.713  -0.387  -0.662  1.00  0.00     0.002 C 
HETATM   13  C13 UNL     1       2.810  -1.433   0.418  1.00  0.00     0.032 C 
HETATM   14  C14 UNL     1       1.459  -2.072   0.717  1.00  0.00     0.120 C 
HETATM   15  C15 UNL     1       1.097  -3.022  -0.385  1.00  0.00     0.058 C 
HETATM   16  C16 UNL     1      -0.388  -2.909  -0.759  1.00  0.00     0.170 C 
HETATM   17  O3  UNL     1      -0.815  -1.692  -0.345  1.00  0.00    -0.386 OA
ENDROOT
BRANCH   6  18
HETATM   18  O1  UNL     1      -1.283   1.788   1.489  1.00  0.00    -0.396 OA
ATOM     19  H1  UNL     1      -0.448   1.931   1.919  1.00  0.00     0.210 HD
ENDBRANCH   6  18
BRANCH  14  20
HETATM   20  O2  UNL     1       1.588  -2.789   1.894  1.00  0.00    -0.396 OA
ATOM     21  H2  UNL     1       0.746  -3.187   2.080  1.00  0.00     0.210 HD
ENDBRANCH  14  20
TORSDOF 2
