REMARK  3 active torsions:
REMARK  status: ('A' for Active; 'I' for Inactive)
REMARK    1  A    between atoms: C9_9  and  O1_10 
REMARK    2  A    between atoms: C15_17  and  O2_18 
REMARK    3  A    between atoms: C16_20  and  O3_21 
ROOT
HETATM    1  C1  UNL     1       4.111  -0.406   1.615  1.00  0.00     0.038 C 
HETATM    2  C2  UNL     1       2.948   0.375   1.075  1.00  0.00     0.001 C 
HETATM    3  C3  UNL     1       2.228  -0.113   0.047  1.00  0.00     0.045 C 
HETATM    4  C4  UNL     1       2.699  -1.427  -0.444  1.00  0.00     0.064 C 
HETATM    5  C5  UNL     1       1.819  -2.220  -1.298  1.00  0.00     0.006 C 
HETATM    6  C6  UNL     1       0.425  -2.475  -0.987  1.00  0.00     0.000 C 
HETATM    7  C7  UNL     1      -0.065  -2.410   0.424  1.00  0.00     0.002 C 
HETATM    8  C8  UNL     1      -1.547  -2.175   0.376  1.00  0.00     0.032 C 
HETATM    9  C9  UNL     1      -2.129  -1.125   1.242  1.00  0.00     0.121 C 
HETATM   10  C10 UNL     1      -3.134  -0.252   0.461  1.00  0.00     0.059 C 
HETATM   11  C11 UNL     1      -3.062   1.179   0.800  1.00  0.00    -0.022 C 
HETATM   12  C12 UNL     1      -2.183   2.097   0.534  1.00  0.00    -0.085 C 
HETATM   13  C13 UNL     1      -2.526   3.479   1.100  1.00  0.00     0.043 C 
HETATM   14  C14 UNL     1      -0.909   2.083  -0.189  1.00  0.00     0.070 C 
HETATM   15  C15 UNL     1      -0.774   1.306  -1.433  1.00  0.00     0.177 C 
HETATM   16  C16 UNL     1       0.746   1.059  -1.648  1.00  0.00     0.291 C 
HETATM   17  O4  UNL     1       1.198   0.593  -0.422  1.00  0.00    -0.323 OA
ENDROOT
BRANCH  16  18
HETATM   18  O3  UNL     1       1.280   2.298  -2.001  1.00  0.00    -0.368 OA
ATOM     19  H3  UNL     1       2.209   2.147  -2.132  1.00  0.00     0.212 HD
ENDBRANCH  16  18
BRANCH  15  20
HETATM   20  O2  UNL     1      -1.122   2.110  -2.541  1.00  0.00    -0.390 OA
ATOM     21  H2  UNL     1      -1.035   1.609  -3.343  1.00  0.00     0.210 HD
ENDBRANCH  15  20
BRANCH   9  22
HETATM   22  O1  UNL     1      -1.332  -0.323   1.974  1.00  0.00    -0.395 OA
ATOM     23  H1  UNL     1      -1.706   0.351   2.530  1.00  0.00     0.210 HD
ENDBRANCH   9  22
TORSDOF 3
