REMARK  5 active torsions:
REMARK  status: ('A' for Active; 'I' for Inactive)
REMARK    1  A    between atoms: C2_2  and  C4_4 
REMARK    2  A    between atoms: C4_4  and  N1_5 
REMARK    3  A    between atoms: C4_4  and  C5_9 
REMARK    4  A    between atoms: C7_13  and  O2_14 
REMARK    5  A    between atoms: C8_16  and  O3_17 
ROOT
HETATM    1  C5  UNL     1      -0.283  -0.746  -0.423  1.00  0.00     0.185 C 
HETATM    2  O1  UNL     1      -0.742  -1.279   0.748  1.00  0.00    -0.362 OA
HETATM    3  C6  UNL     1      -2.006  -0.833   1.005  1.00  0.00     0.224 C 
HETATM    4 BR1  UNL     1      -3.310  -2.275   1.031  1.00  0.00    -0.059 Br
HETATM    5  C7  UNL     1      -2.417   0.140  -0.046  1.00  0.00     0.189 C 
HETATM    6  C8  UNL     1      -1.506  -0.249  -1.193  1.00  0.00     0.181 C 
ENDROOT
BRANCH   1   7
HETATM    7  C4  UNL     1       0.546   0.515  -0.137  1.00  0.00     0.218 C 
BRANCH   7   8
HETATM    8  C2  UNL     1       1.613   0.153   0.884  1.00  0.00     0.010 C 
HETATM    9  C1  UNL     1       2.327   1.409   1.324  1.00  0.00     0.011 C 
HETATM   10  C3  UNL     1       2.563  -0.826   0.233  1.00  0.00     0.011 C 
ENDBRANCH   7   8
BRANCH   7  11
HETATM   11  N1  UNL     1       1.059   1.131  -1.279  1.00  0.00    -0.072 N 
ATOM     12  H13 UNL     1       1.614   1.950  -1.030  1.00  0.00     0.274 HD
ATOM     13  H12 UNL     1       1.787   0.556  -1.704  1.00  0.00     0.274 HD
ATOM     14  H11 UNL     1       0.343   1.374  -1.964  1.00  0.00     0.274 HD
ENDBRANCH   7  11
ENDBRANCH   1   7
BRANCH   6  15
HETATM   15  O3  UNL     1      -2.083  -1.313  -1.883  1.00  0.00    -0.390 OA
ATOM     16  H3  UNL     1      -2.843  -1.004  -2.362  1.00  0.00     0.210 HD
ENDBRANCH   6  15
BRANCH   5  17
HETATM   17  O2  UNL     1      -3.751   0.017  -0.432  1.00  0.00    -0.389 OA
ATOM     18  H2  UNL     1      -4.013   0.637  -1.102  1.00  0.00     0.210 HD
ENDBRANCH   5  17
TORSDOF 5
