REMARK  3 active torsions:
REMARK  status: ('A' for Active; 'I' for Inactive)
REMARK    1  A    between atoms: N2_3  and  C2_5 
REMARK    2  A    between atoms: C4_7  and  O1_8 
REMARK    3  A    between atoms: C9_14  and  C10_16 
ROOT
HETATM    1  N1  UNL     1      -0.885   4.628   0.890  1.00  0.00    -0.172 NA
HETATM    2  C1  UNL     1      -0.509   3.651   0.364  1.00  0.00     0.177 C 
HETATM    3  N2  UNL     1      -0.070   2.482  -0.255  1.00  0.00    -0.321 N 
ATOM      4  H2  UNL     1       0.284   2.531  -1.211  1.00  0.00     0.172 HD
ENDROOT
BRANCH   3   5
HETATM    5  C2  UNL     1      -0.101   1.199   0.419  1.00  0.00     0.135 C 
HETATM    6  C3  UNL     1      -1.502   0.836   0.814  1.00  0.00     0.067 C 
HETATM    7  C4  UNL     1      -2.260   0.027  -0.157  1.00  0.00     0.060 C 
HETATM    8  C5  UNL     1      -2.262  -1.428   0.337  1.00  0.00     0.038 C 
HETATM    9  C8  UNL     1      -1.509  -0.144  -1.468  1.00  0.00     0.045 C 
HETATM   10  C6  UNL     1      -0.820  -1.817   0.113  1.00  0.00     0.011 C 
HETATM   11  C7  UNL     1      -0.285  -0.893  -0.972  1.00  0.00     0.031 C 
HETATM   12  C9  UNL     1       0.622   0.155  -0.352  1.00  0.00     0.135 C 
HETATM   13  F1  UNL     1       1.297   0.746  -1.432  1.00  0.00    -0.240 F 
BRANCH   7  14
HETATM   14  O1  UNL     1      -3.571   0.387  -0.343  1.00  0.00    -0.390 OA
ATOM     15  H1  UNL     1      -4.060  -0.134  -0.969  1.00  0.00     0.210 HD
ENDBRANCH   7  14
BRANCH  12  16
HETATM   16  C10 UNL     1       1.692  -0.490   0.495  1.00  0.00     0.079 C 
HETATM   17  C11 UNL     1       2.499  -1.561  -0.158  1.00  0.00     0.241 C 
HETATM   18  N3  UNL     1       3.659  -1.034   0.577  1.00  0.00    -0.074 N 
HETATM   19  C12 UNL     1       3.021   0.276   0.447  1.00  0.00     0.241 C 
ATOM     20  H32 UNL     1       3.934  -1.409   1.485  1.00  0.00     0.277 HD
ATOM     21  H31 UNL     1       4.614  -1.199   0.260  1.00  0.00     0.277 HD
ENDBRANCH  12  16
ENDBRANCH   3   5
TORSDOF 3
