REMARK  3 active torsions:
REMARK  status: ('A' for Active; 'I' for Inactive)
REMARK    1  A    between atoms: C3_3  and  O1_4 
REMARK    2  A    between atoms: C5_8  and  N1_9 
REMARK    3  A    between atoms: C7_13  and  N3_14 
REMARK       I    between atoms: N3_14  and  C8_16 
REMARK       I    between atoms: C8_16  and  N4_18 
ROOT
HETATM    1  N1  UNL     1      -1.745   1.941   0.257  1.00  0.00    -0.319 N 
ATOM      2  H1  UNL     1      -1.116   2.145   1.034  1.00  0.00     0.172 HD
HETATM    3  C6  UNL     1      -2.698   2.891  -0.124  1.00  0.00     0.177 C 
HETATM    4  N2  UNL     1      -3.489   3.671  -0.454  1.00  0.00    -0.172 NA
ENDROOT
BRANCH   1   5
HETATM    5  C5  UNL     1      -1.637   0.676  -0.431  1.00  0.00     0.156 C 
HETATM    6  C4  UNL     1      -2.911  -0.135  -0.364  1.00  0.00     0.228 C 
HETATM    7  C3  UNL     1      -2.387  -1.487  -0.809  1.00  0.00     0.184 C 
HETATM    8  F1  UNL     1      -3.904   0.346  -1.167  1.00  0.00    -0.244 F 
HETATM    9  C2  UNL     1      -1.212  -1.627   0.077  1.00  0.00    -0.033 C 
HETATM   10  C1  UNL     1      -0.747  -2.749   0.566  1.00  0.00     0.019 C 
HETATM   11  C7  UNL     1      -0.670  -0.264   0.302  1.00  0.00     0.143 C 
BRANCH   7  12
HETATM   12  O1  UNL     1      -3.324  -2.497  -0.638  1.00  0.00    -0.388 OA
ATOM     13  H1  UNL     1      -4.079  -2.407  -1.207  1.00  0.00     0.210 HD
ENDBRANCH   7  12
BRANCH  11  14
HETATM   14  N3  UNL     1       0.670  -0.108  -0.160  1.00  0.00    -0.332 N 
HETATM   15  C8  UNL     1       1.658   0.396   0.762  1.00  0.00     0.318 C 
HETATM   16  O2  UNL     1       1.336   0.687   1.942  1.00  0.00    -0.247 OA
HETATM   17  N4  UNL     1       3.004   0.576   0.371  1.00  0.00    -0.343 N 
HETATM   18  C9  UNL     1       3.410   0.253  -0.973  1.00  0.00     0.154 C 
HETATM   19  C10 UNL     1       3.962   1.080   1.316  1.00  0.00     0.154 C 
ATOM     20  H3  UNL     1       0.923  -0.347  -1.119  1.00  0.00     0.165 HD
ENDBRANCH  11  14
ENDBRANCH   1   5
TORSDOF 3
