REMARK  5 active torsions:
REMARK  status: ('A' for Active; 'I' for Inactive)
REMARK    1  A    between atoms: O1_2  and  C2_3 
REMARK    2  A    between atoms: C2_3  and  C3_4 
REMARK    3  A    between atoms: C5_6  and  O2_7 
REMARK    4  A    between atoms: C6_9  and  O3_10 
REMARK    5  A    between atoms: C7_12  and  O4_13 
ROOT
HETATM    1  C3  UNL     1       0.702  -0.209  -0.305  1.00  0.00     0.029 C 
HETATM    2  C4  UNL     1      -0.178  -0.553   0.885  1.00  0.00     0.042 C 
HETATM    3  C5  UNL     1      -1.461   0.237   0.894  1.00  0.00     0.150 C 
HETATM    4  C6  UNL     1      -2.185   0.001  -0.401  1.00  0.00     0.176 C 
HETATM    5  C7  UNL     1      -1.276   0.478  -1.542  1.00  0.00     0.164 C 
HETATM    6  C8  UNL     1      -0.093  -0.484  -1.545  1.00  0.00     0.095 C 
HETATM    7 BR1  UNL     1       0.925  -0.391  -3.151  1.00  0.00    -0.088 Br
ENDROOT
BRANCH   1   8
HETATM    8  C2  UNL     1       1.931  -1.089  -0.207  1.00  0.00     0.172 C 
BRANCH   8   9
HETATM    9  O1  UNL     1       2.636  -0.890   0.949  1.00  0.00    -0.396 OA
HETATM   10  C1  UNL     1       3.109   0.385   1.132  1.00  0.00     0.201 C 
ENDBRANCH   8   9
ENDBRANCH   1   8
BRANCH   3  11
HETATM   11  O2  UNL     1      -2.254  -0.275   1.918  1.00  0.00    -0.393 OA
ATOM     12  H2  UNL     1      -3.063   0.223   1.924  1.00  0.00     0.210 HD
ENDBRANCH   3  11
BRANCH   5  13
HETATM   13  O4  UNL     1      -0.781   1.721  -1.194  1.00  0.00    -0.392 OA
ATOM     14  H4  UNL     1      -0.218   2.016  -1.900  1.00  0.00     0.210 HD
ENDBRANCH   5  13
BRANCH   4  15
HETATM   15  O3  UNL     1      -3.422   0.608  -0.446  1.00  0.00    -0.390 OA
ATOM     16  H3  UNL     1      -3.880   0.459  -1.265  1.00  0.00     0.210 HD
ENDBRANCH   4  15
TORSDOF 5
