REMARK  1 active torsions:
REMARK  status: ('A' for Active; 'I' for Inactive)
REMARK    1  A    between atoms: N2_4  and  N3_5 
ROOT
HETATM    1  C1  UNL     1      -1.799   1.037   0.018  1.00  0.00     0.313 C 
HETATM    2  N1  UNL     1      -0.982   0.120  -0.704  1.00  0.00     0.118 N 
HETATM    3  C2  UNL     1       0.390   0.549  -0.840  1.00  0.00     0.387 C 
HETATM    4  N2  UNL     1       0.937   0.271   0.479  1.00  0.00    -0.207 NA
HETATM    5  C3  UNL     1       0.374  -1.011   0.860  1.00  0.00     0.167 C 
HETATM    6  C4  UNL     1      -0.836  -1.171  -0.052  1.00  0.00     0.334 C 
HETATM    7 CL1  UNL     1      -0.477  -2.339  -1.369  1.00  0.00    -0.090 Cl
ENDROOT
BRANCH   4   8
HETATM    8  N3  UNL     1       2.345   0.211   0.404  1.00  0.00    -0.362 NA
ATOM      9  H32 UNL     1       2.741   1.112   0.136  1.00  0.00     0.171 HD
ATOM     10  H31 UNL     1       2.729   0.016   1.329  1.00  0.00     0.171 HD
ENDBRANCH   4   8
TORSDOF 1
