REMARK  3 active torsions:
REMARK  status: ('A' for Active; 'I' for Inactive)
REMARK    1  A    between atoms: C2_2  and  N1_3 
REMARK    2  A    between atoms: N2_5  and  N3_7 
REMARK    3  A    between atoms: C4_11  and  O1_12 
ROOT
HETATM    1  C1  UNL     1      -0.839  -0.651  -1.223  1.00  0.00     0.045 C 
HETATM    2  C2  UNL     1      -0.208  -0.373   0.122  1.00  0.00     0.092 A 
HETATM    3  C3  UNL     1      -1.189  -0.018   1.195  1.00  0.00     0.094 A 
HETATM    4  C4  UNL     1      -0.225   0.986   0.686  1.00  0.00     0.163 A 
HETATM    5 CL1  UNL     1       1.017   1.500   1.848  1.00  0.00    -0.086 Cl
ENDROOT
BRANCH   2   6
HETATM    6  N1  UNL     1       0.945  -1.174   0.410  1.00  0.00    -0.309 N 
HETATM    7  N2  UNL     1       2.075  -0.853  -0.049  1.00  0.00    -0.253 N 
ATOM      8  H2  UNL     1       2.865  -1.455   0.185  1.00  0.00     0.207 HD
ATOM      9  H1  UNL     1       0.851  -2.008   0.989  1.00  0.00     0.182 HD
BRANCH   7  10
HETATM   10  N3  UNL     1       2.330   0.256  -0.848  1.00  0.00    -0.331 N 
ATOM     11  H32 UNL     1       1.529   0.846  -1.071  1.00  0.00     0.178 HD
ATOM     12  H31 UNL     1       3.244   0.516  -1.219  1.00  0.00     0.178 HD
ENDBRANCH   7  10
ENDBRANCH   2   6
BRANCH   4  13
HETATM   13  O1  UNL     1      -0.655   2.000  -0.166  1.00  0.00    -0.372 OA
ATOM     14  H1  UNL     1      -0.666   2.877   0.198  1.00  0.00     0.212 HD
ENDBRANCH   4  13
TORSDOF 3
