REMARK  2 active torsions:
REMARK  status: ('A' for Active; 'I' for Inactive)
REMARK    1  A    between atoms: N1_1  and  C1_5 
REMARK    2  A    between atoms: C1_5  and  N2_6 
ROOT
HETATM    1  C1  UNL     1       0.037   0.422   0.359  1.00  0.00     0.448 C 
HETATM    2 BR1  UNL     1       0.095   1.800  -0.971  1.00  0.00    -0.030 Br
ENDROOT
BRANCH   1   3
HETATM    3  N1  UNL     1      -1.153  -0.423   0.228  1.00  0.00    -0.041 N 
ATOM      4  H13 UNL     1      -1.179  -0.966  -0.635  1.00  0.00     0.277 HD
ATOM      5  H12 UNL     1      -1.166  -1.217   0.868  1.00  0.00     0.277 HD
ATOM      6  H11 UNL     1      -1.946   0.209   0.340  1.00  0.00     0.277 HD
ENDBRANCH   1   3
BRANCH   1   7
HETATM    7  N2  UNL     1       1.174  -0.484   0.198  1.00  0.00    -0.041 N 
ATOM      8  H23 UNL     1       1.161  -1.278   0.838  1.00  0.00     0.277 HD
ATOM      9  H22 UNL     1       1.148  -1.027  -0.665  1.00  0.00     0.277 HD
ATOM     10  H21 UNL     1       2.002   0.104   0.289  1.00  0.00     0.277 HD
ENDBRANCH   1   7
TORSDOF 2
