REMARK  13 active torsions:
REMARK  status: ('A' for Active; 'I' for Inactive)
REMARK    1  A    between atoms: O1_2  and  C2_3 
REMARK    2  A    between atoms: C2_3  and  C3_4 
REMARK    3  A    between atoms: C6_11  and  C7_12 
REMARK    4  A    between atoms: C7_12  and  N2_13 
REMARK    5  A    between atoms: N2_13  and  C8_15 
REMARK    6  A    between atoms: C12_26  and  N6_27 
REMARK    7  A    between atoms: N6_27  and  N7_29 
REMARK    8  A    between atoms: C13_32  and  C14_33 
REMARK    9  A    between atoms: C19_38  and  N8_39 
REMARK   10  A    between atoms: C20_44  and  O5_45 
REMARK   11  A    between atoms: C20_44  and  C21_47 
REMARK   12  A    between atoms: C21_47  and  C22_52 
REMARK   13  A    between atoms: N10_48  and  O6_50 
ROOT
HETATM    1  C2  UNL     1      -1.124  -1.359   1.069  1.00  0.00     0.262 C 
HETATM    2  C4  UNL     1       0.264  -1.308   0.407  1.00  0.00     0.067 C 
HETATM    3  C5  UNL     1       0.286  -0.205  -0.457  1.00  0.00     0.048 C 
HETATM    4  N1  UNL     1       1.145  -0.058  -1.471  1.00  0.00    -0.345 N 
ATOM      5  H1  UNL     1       0.771   0.349  -2.328  1.00  0.00     0.167 HD
HETATM    6  C6  UNL     1       2.464  -0.392  -1.484  1.00  0.00     0.102 C 
HETATM    7  N5  UNL     1       3.018  -1.483  -0.879  1.00  0.00    -0.310 N 
ATOM      8  H5  UNL     1       3.888  -1.816  -1.295  1.00  0.00     0.170 HD
HETATM    9  C11 UNL     1       2.587  -2.183   0.184  1.00  0.00     0.275 C 
HETATM   10  O4  UNL     1       3.451  -2.843   0.791  1.00  0.00    -0.266 OA
HETATM   11  C12 UNL     1       1.251  -2.220   0.649  1.00  0.00     0.129 C 
HETATM   12  C13 UNL     1      -0.792   0.608   0.064  1.00  0.00     0.147 C 
HETATM   13  N9  UNL     1      -1.820  -0.508   0.129  1.00  0.00    -0.304 N 
HETATM   14  C20 UNL     1      -3.039  -0.473  -0.482  1.00  0.00     0.167 C 
ENDROOT
BRANCH   1  15
HETATM   15  O1  UNL     1      -1.139  -0.827   2.296  1.00  0.00    -0.352 OA
HETATM   16  C1  UNL     1      -0.345  -1.134   3.305  1.00  0.00     0.206 C 
ENDBRANCH   1  15
BRANCH   1  17
HETATM   17  C3  UNL     1      -1.447  -2.788   1.080  1.00  0.00     0.237 C 
HETATM   18  O2  UNL     1      -1.706  -3.472   2.123  1.00  0.00    -0.644 OA
HETATM   19  O3  UNL     1      -1.468  -3.454  -0.170  1.00  0.00    -0.644 OA
ENDBRANCH   1  17
BRANCH  12  20
HETATM   20  C14 UNL     1      -1.204   1.835  -0.557  1.00  0.00     0.045 C 
HETATM   21  C15 UNL     1      -2.236   2.543   0.307  1.00  0.00     0.009 C 
HETATM   22  C16 UNL     1      -2.708   3.824  -0.398  1.00  0.00     0.001 C 
HETATM   23  C17 UNL     1      -1.564   4.813  -0.480  1.00  0.00     0.002 C 
HETATM   24  C18 UNL     1      -0.388   4.138  -1.090  1.00  0.00     0.033 C 
HETATM   25  C19 UNL     1      -0.003   2.823  -0.459  1.00  0.00     0.190 C 
BRANCH  25  26
HETATM   26  N8  UNL     1       0.388   3.020   0.904  1.00  0.00    -0.075 N 
ATOM     27  H83 UNL     1      -0.397   3.323   1.481  1.00  0.00     0.274 HD
ATOM     28  H82 UNL     1       0.590   2.135   1.370  1.00  0.00     0.274 HD
ATOM     29  H81 UNL     1       1.174   3.667   0.968  1.00  0.00     0.274 HD
ENDBRANCH  25  26
ENDBRANCH  12  20
BRANCH  14  30
HETATM   30  O5  UNL     1      -3.205   0.297  -1.546  1.00  0.00    -0.345 OA
ATOM     31  H5  UNL     1      -4.054   0.321  -1.972  1.00  0.00     0.219 HD
ENDBRANCH  14  30
BRANCH  14  32
HETATM   32  C21 UNL     1      -4.262  -1.190  -0.109  1.00  0.00     0.086 C 
HETATM   33  N10 UNL     1      -4.347  -1.923   0.884  1.00  0.00    -0.269 N 
ATOM     34  H10 UNL     1      -3.473  -1.969   1.408  1.00  0.00     0.194 HD
BRANCH  33  35
HETATM   35  O6  UNL     1      -5.285  -2.651   1.422  1.00  0.00    -0.290 OA
ATOM     36  H6  UNL     1      -5.350  -3.214   2.185  1.00  0.00     0.244 HD
ENDBRANCH  33  35
BRANCH  32  37
HETATM   37  C22 UNL     1      -5.474  -1.023  -0.975  1.00  0.00     0.042 A 
HETATM   38  C23 UNL     1      -6.746  -1.680  -0.759  1.00  0.00     0.011 A 
HETATM   39  C24 UNL     1      -5.779  -2.153  -1.889  1.00  0.00     0.011 A 
ENDBRANCH  32  37
ENDBRANCH  14  32
BRANCH  11  40
HETATM   40  N6  UNL     1       1.060  -3.262   1.351  1.00  0.00    -0.301 N 
ATOM     41  H6  UNL     1       0.124  -3.394   1.734  1.00  0.00     0.186 HD
BRANCH  40  42
HETATM   42  N7  UNL     1       1.993  -4.231   1.646  1.00  0.00    -0.344 N 
ATOM     43  H72 UNL     1       2.923  -4.082   1.255  1.00  0.00     0.176 HD
ATOM     44  H71 UNL     1       1.840  -5.067   2.209  1.00  0.00     0.176 HD
ENDBRANCH  40  42
ENDBRANCH  11  40
BRANCH   6  45
HETATM   45  C7  UNL     1       3.396   0.481  -2.213  1.00  0.00     0.199 C 
BRANCH  45  46
HETATM   46  N2  UNL     1       4.776   0.219  -1.958  1.00  0.00    -0.355 N 
ATOM     47  H2  UNL     1       5.364  -0.062  -2.743  1.00  0.00     0.163 HD
BRANCH  46  48
HETATM   48  C8  UNL     1       5.379   0.326  -0.676  1.00  0.00     0.171 A 
HETATM   49  N3  UNL     1       5.096   1.159   0.277  1.00  0.00    -0.361 N 
HETATM   50  C9  UNL     1       5.922   0.964   1.431  1.00  0.00     0.142 A 
ATOM     51  H3  UNL     1       4.369   1.871   0.212  1.00  0.00     0.162 HD
HETATM   52  C10 UNL     1       6.893  -0.138   1.063  1.00  0.00     0.142 A 
HETATM   53  N4  UNL     1       6.441  -0.519  -0.238  1.00  0.00    -0.361 N 
ATOM     54  H4  UNL     1       6.826  -1.292  -0.781  1.00  0.00     0.162 HD
ENDBRANCH  46  48
ENDBRANCH  45  46
ENDBRANCH   6  45
TORSDOF 13
