REMARK  11 active torsions:
REMARK  status: ('A' for Active; 'I' for Inactive)
REMARK    1  A    between atoms: N1_1  and  C1_4 
REMARK    2  A    between atoms: C3_8  and  N3_9 
REMARK    3  A    between atoms: N3_9  and  C4_11 
REMARK    4  A    between atoms: C5_12  and  O1_13 
REMARK    5  A    between atoms: C9_18  and  C10_19 
REMARK    6  A    between atoms: N5_25  and  C12_26 
REMARK    7  A    between atoms: C12_26  and  C13_27 
REMARK    8  A    between atoms: C13_27  and  N6_28 
REMARK    9  A    between atoms: N10_43  and  C21_44 
REMARK   10  A    between atoms: C21_44  and  C22_45 
REMARK   11  A    between atoms: C22_45  and  N11_46 
ROOT
HETATM    1  C4  UNL     1      -0.292   0.973  -1.269  1.00  0.00     0.137 A 
HETATM    2  C5  UNL     1      -0.625   2.262  -0.925  1.00  0.00     0.112 A 
HETATM    3  C6  UNL     1      -1.939   2.634  -0.658  1.00  0.00     0.044 A 
HETATM    4  C7  UNL     1      -2.268   3.919  -0.316  1.00  0.00     0.021 A 
HETATM    5  C8  UNL     1      -3.579   4.222  -0.066  1.00  0.00     0.038 A 
HETATM    6  C9  UNL     1      -4.535   3.238  -0.164  1.00  0.00     0.111 A 
HETATM    7  N4  UNL     1      -4.174   1.996  -0.500  1.00  0.00    -0.336 N 
ATOM      8  H4  UNL     1      -4.903   1.285  -0.564  1.00  0.00     0.168 HD
HETATM    9  C11 UNL     1      -2.894   1.625  -0.761  1.00  0.00     0.124 A 
HETATM   10  N5  UNL     1      -2.591   0.357  -1.096  1.00  0.00    -0.296 N 
HETATM   11  C18 UNL     1      -1.302   0.040  -1.347  1.00  0.00     0.279 A 
HETATM   12  O4  UNL     1      -1.062  -1.145  -1.654  1.00  0.00    -0.265 OA
ENDROOT
BRANCH   1  13
HETATM   13  N3  UNL     1       1.025   0.614  -1.535  1.00  0.00    -0.334 N 
ATOM     14  H3  UNL     1       1.297   0.662  -2.517  1.00  0.00     0.168 HD
BRANCH  13  15
HETATM   15  C3  UNL     1       1.937   0.237  -0.744  1.00  0.00     0.138 A 
HETATM   16  C2  UNL     1       3.168  -0.057  -1.300  1.00  0.00     0.138 A 
HETATM   17  N2  UNL     1       3.645  -0.033  -2.572  1.00  0.00    -0.184 N 
HETATM   18  C20 UNL     1       4.214  -0.473  -0.513  1.00  0.00     0.155 A 
HETATM   19  C1  UNL     1       4.930  -0.421  -2.540  1.00  0.00     0.680 A 
ATOM     20  H2  UNL     1       3.119   0.233  -3.405  1.00  0.00     0.184 HD
HETATM   21  N10 UNL     1       5.298  -0.696  -1.282  1.00  0.00    -0.165 N 
HETATM   22  N9  UNL     1       3.989  -0.580   0.817  1.00  0.00    -0.336 N 
HETATM   23  C19 UNL     1       2.801  -0.297   1.365  1.00  0.00     0.183 A 
ATOM     24  H9  UNL     1       4.750  -0.887   1.422  1.00  0.00     0.168 HD
HETATM   25  N8  UNL     1       1.791   0.107   0.584  1.00  0.00    -0.337 N 
ATOM     26  H8  UNL     1       0.889   0.321   1.009  1.00  0.00     0.168 HD
BRANCH  19  27
HETATM   27  N1  UNL     1       5.752  -0.536  -3.542  1.00  0.00    -0.234 N 
ATOM     28  H12 UNL     1       5.472  -0.327  -4.500  1.00  0.00     0.174 HD
ATOM     29  H11 UNL     1       6.728  -0.831  -3.518  1.00  0.00     0.174 HD
ENDBRANCH  19  27
BRANCH  21  30
HETATM   30  C21 UNL     1       6.581  -1.144  -0.778  1.00  0.00     0.169 C 
BRANCH  30  31
HETATM   31  C22 UNL     1       7.447   0.054  -0.418  1.00  0.00     0.143 C 
BRANCH  31  32
HETATM   32  N11 UNL     1       8.740  -0.348   0.087  1.00  0.00    -0.365 N 
HETATM   33  C23 UNL     1       8.839  -0.770   1.286  1.00  0.00     0.197 C 
HETATM   34  N12 UNL     1       7.705  -0.847   2.115  1.00  0.00    -0.067 NA
HETATM   35  N13 UNL     1      10.101  -1.162   1.784  1.00  0.00    -0.067 NA
ATOM     36  H11 UNL     1       9.565  -0.295  -0.510  1.00  0.00     0.161 HD
ENDBRANCH  31  32
ENDBRANCH  30  31
ENDBRANCH  21  30
ENDBRANCH  13  15
ENDBRANCH   1  13
BRANCH   2  37
HETATM   37  O1  UNL     1       0.423   3.159  -0.861  1.00  0.00    -0.357 OA
ATOM     38  H1  UNL     1       0.193   4.050  -0.623  1.00  0.00     0.217 HD
ENDBRANCH   2  37
BRANCH  10  39
HETATM   39  C12 UNL     1      -3.650  -0.647  -1.184  1.00  0.00     0.164 C 
BRANCH  39  40
HETATM   40  C13 UNL     1      -3.773  -1.265   0.187  1.00  0.00     0.292 C 
BRANCH  40  41
HETATM   41  N6  UNL     1      -4.762  -2.271   0.289  1.00  0.00     0.093 N 
HETATM   42  C14 UNL     1      -6.117  -1.864   0.177  1.00  0.00     0.291 C 
HETATM   43  C15 UNL     1      -6.789  -1.479   1.449  1.00  0.00     0.144 C 
HETATM   44  N7  UNL     1      -5.937  -1.402   2.594  1.00  0.00    -0.418 N 
HETATM   45  C16 UNL     1      -5.007  -2.468   2.735  1.00  0.00     0.144 C 
ATOM     46  H7  UNL     1      -5.992  -0.635   3.264  1.00  0.00     0.153 HD
HETATM   47  C17 UNL     1      -4.576  -3.095   1.435  1.00  0.00     0.291 C 
ENDBRANCH  40  41
ENDBRANCH  39  40
ENDBRANCH  10  39
BRANCH   6  48
HETATM   48  C10 UNL     1      -5.946   3.574   0.106  1.00  0.00     0.226 C 
HETATM   49  O2  UNL     1      -6.319   4.724   0.424  1.00  0.00    -0.643 OA
HETATM   50  O3  UNL     1      -6.898   2.576   0.004  1.00  0.00    -0.643 OA
ENDBRANCH   6  48
TORSDOF 11
