REMARK  15 active torsions:
REMARK  status: ('A' for Active; 'I' for Inactive)
REMARK    1  A    between atoms: N1_1  and  C1_4 
REMARK    2  A    between atoms: C2_7  and  C3_8 
REMARK    3  A    between atoms: C6_11  and  S1_12 
REMARK    4  A    between atoms: S1_12  and  N3_13 
REMARK    5  A    between atoms: C10_21  and  C11_22 
REMARK    6  A    between atoms: C11_22  and  C12_23 
REMARK    7  A    between atoms: C12_23  and  C13_24 
REMARK    8  A    between atoms: C14_25  and  C15_26 
REMARK    9  A    between atoms: C15_26  and  C16_27 
REMARK   10  A    between atoms: C16_27  and  N4_28 
REMARK   11  A    between atoms: N4_28  and  C17_30 
REMARK   12  A    between atoms: C17_30  and  C18_31 
REMARK   13  A    between atoms: C19_36  and  N7_37 
REMARK   14  A    between atoms: C20_42  and  N9_43 
REMARK   15  A    between atoms: N9_43  and  N10_45 
ROOT
HETATM    1  C13 UNL     1       3.291   1.331   0.454  1.00  0.00     0.046 A 
HETATM    2  C14 UNL     1       4.594   0.788   0.238  1.00  0.00     0.118 A 
HETATM    3  N6  UNL     1       5.642   1.514   0.587  1.00  0.00    -0.183 N 
ATOM      4  H6  UNL     1       6.572   1.125   0.432  1.00  0.00     0.185 HD
HETATM    5  C19 UNL     1       5.546   2.738   1.135  1.00  0.00     0.678 A 
HETATM    6  N8  UNL     1       4.332   3.259   1.342  1.00  0.00    -0.175 N 
ATOM      7  H8  UNL     1       4.251   4.187   1.758  1.00  0.00     0.186 HD
HETATM    8  C20 UNL     1       3.193   2.571   1.007  1.00  0.00     0.150 A 
ENDROOT
BRANCH   1   9
HETATM    9  C12 UNL     1       2.161   0.549   0.050  1.00  0.00     0.020 C 
BRANCH   9  10
HETATM   10  C11 UNL     1       0.899   0.692   0.244  1.00  0.00     0.031 C 
BRANCH  10  11
HETATM   11  C10 UNL     1      -0.097  -0.264  -0.285  1.00  0.00     0.051 A 
HETATM   12  C9  UNL     1      -1.452  -0.068  -0.025  1.00  0.00     0.061 A 
HETATM   13  C2  UNL     1      -2.436  -0.909  -0.484  1.00  0.00     0.061 A 
HETATM   14  N2  UNL     1      -2.022  -1.966  -1.219  1.00  0.00    -0.191 N 
HETATM   15  C1  UNL     1      -0.746  -2.188  -1.490  1.00  0.00     0.676 A 
ATOM     16  H2  UNL     1      -2.720  -2.617  -1.578  1.00  0.00     0.184 HD
HETATM   17  N14 UNL     1       0.193  -1.334  -1.018  1.00  0.00    -0.192 N 
ATOM     18  H14 UNL     1       1.172  -1.521  -1.236  1.00  0.00     0.184 HD
BRANCH  13  19
HETATM   19  C3  UNL     1      -3.853  -0.716  -0.217  1.00  0.00    -0.009 A 
HETATM   20  C4  UNL     1      -4.758  -1.628  -0.739  1.00  0.00     0.015 A 
HETATM   21  C5  UNL     1      -6.114  -1.524  -0.534  1.00  0.00     0.026 A 
HETATM   22  C6  UNL     1      -6.623  -0.479   0.218  1.00  0.00     0.079 A 
HETATM   23  C7  UNL     1      -5.749   0.433   0.742  1.00  0.00     0.026 A 
HETATM   24  C8  UNL     1      -4.382   0.309   0.522  1.00  0.00     0.015 A 
BRANCH  22  25
HETATM   25  S1  UNL     1      -8.334  -0.296   0.515  1.00  0.00     0.256 S 
HETATM   26  O1  UNL     1      -8.512   0.439   1.819  1.00  0.00    -0.201 OA
HETATM   27  O2  UNL     1      -9.008  -1.630   0.680  1.00  0.00    -0.201 OA
BRANCH  25  28
HETATM   28  N3  UNL     1      -9.046   0.644  -0.727  1.00  0.00    -0.324 N 
ATOM     29  H32 UNL     1      -8.532   1.033  -1.518  1.00  0.00     0.169 HD
ATOM     30  H31 UNL     1     -10.045   0.751  -0.554  1.00  0.00     0.169 HD
ENDBRANCH  25  28
ENDBRANCH  22  25
ENDBRANCH  13  19
BRANCH  15  31
HETATM   31  N1  UNL     1      -0.370  -3.209  -2.199  1.00  0.00    -0.234 N 
ATOM     32  H12 UNL     1      -1.077  -3.852  -2.555  1.00  0.00     0.174 HD
ATOM     33  H11 UNL     1       0.614  -3.380  -2.408  1.00  0.00     0.174 HD
ENDBRANCH  15  31
ENDBRANCH  10  11
ENDBRANCH   9  10
ENDBRANCH   1   9
BRANCH   2  34
HETATM   34  C15 UNL     1       4.674  -0.505  -0.335  1.00  0.00    -0.024 C 
BRANCH  34  35
HETATM   35  C16 UNL     1       4.746  -1.626  -0.828  1.00  0.00     0.013 C 
BRANCH  35  36
HETATM   36  N4  UNL     1       4.802  -2.908  -1.397  1.00  0.00    -0.342 N 
ATOM     37  H4  UNL     1       5.472  -3.124  -2.135  1.00  0.00     0.170 HD
BRANCH  36  38
HETATM   38  C17 UNL     1       3.887  -3.912  -0.910  1.00  0.00     0.228 C 
BRANCH  38  39
HETATM   39  C18 UNL     1       4.279  -4.245   0.487  1.00  0.00     0.249 C 
HETATM   40  N5  UNL     1       5.377  -3.635   1.149  1.00  0.00    -0.061 NA
HETATM   41  O3  UNL     1       3.583  -5.111   1.081  1.00  0.00    -0.275 OA
ENDBRANCH  38  39
ENDBRANCH  36  38
ENDBRANCH  35  36
ENDBRANCH  34  35
ENDBRANCH   2  34
BRANCH   8  42
HETATM   42  N9  UNL     1       1.974   3.250   1.236  1.00  0.00    -0.264 N 
ATOM     43  H9  UNL     1       1.442   3.094   2.092  1.00  0.00     0.190 HD
BRANCH  42  44
HETATM   44  N10 UNL     1       1.508   4.156   0.242  1.00  0.00    -0.175 N 
HETATM   45  C21 UNL     1       0.372   4.868   0.317  1.00  0.00     0.238 A 
HETATM   46  N11 UNL     1       0.228   5.628  -0.786  1.00  0.00    -0.279 N 
HETATM   47  N12 UNL     1       1.298   5.363  -1.531  1.00  0.00    -0.006 NA
ATOM     48  H11 UNL     1      -0.536   6.268  -1.003  1.00  0.00     0.184 HD
HETATM   49  N13 UNL     1       2.078   4.469  -0.908  1.00  0.00     0.015 NA
ENDBRANCH  42  44
ENDBRANCH   8  42
BRANCH   5  50
HETATM   50  N7  UNL     1       6.611   3.385   1.450  1.00  0.00    -0.234 N 
ATOM     51  H72 UNL     1       7.537   2.988   1.292  1.00  0.00     0.174 HD
ATOM     52  H71 UNL     1       6.538   4.314   1.866  1.00  0.00     0.174 HD
ENDBRANCH   5  50
TORSDOF 15
