REMARK  9 active torsions:
REMARK  status: ('A' for Active; 'I' for Inactive)
REMARK    1  A    between atoms: C2_7  and  C3_8 
REMARK       I    between atoms: C3_8  and  N3_10 
REMARK    2  A    between atoms: N3_10  and  C4_12 
REMARK    3  A    between atoms: C7_16  and  C8_17 
REMARK    4  A    between atoms: C9_20  and  C10_21 
REMARK    5  A    between atoms: C10_21  and  O4_22 
REMARK    6  A    between atoms: O4_22  and  C11_23 
REMARK    7  A    between atoms: C13_27  and  S1_28 
REMARK    8  A    between atoms: N8_40  and  C18_41 
REMARK    9  A    between atoms: C18_41  and  C19_42 
ROOT
HETATM    1  C3  UNL     1       1.728  -0.364   0.421  1.00  0.00     0.286 C 
HETATM    2  O1  UNL     1       1.702  -1.094   1.445  1.00  0.00    -0.264 OA
HETATM    3  N3  UNL     1       0.581  -0.312  -0.420  1.00  0.00    -0.347 N 
ATOM      4  H3  UNL     1       0.603   0.271  -1.257  1.00  0.00     0.163 HD
ENDROOT
BRANCH   3   5
HETATM    5  C4  UNL     1      -0.617  -1.067  -0.116  1.00  0.00     0.113 C 
HETATM    6  C5  UNL     1      -0.442  -2.518  -0.652  1.00  0.00     0.047 C 
HETATM    7  C6  UNL     1      -1.812  -2.922  -1.094  1.00  0.00     0.126 C 
HETATM    8  N4  UNL     1      -2.611  -1.711  -1.168  1.00  0.00    -0.364 N 
HETATM    9  C7  UNL     1      -3.912  -1.169  -1.414  1.00  0.00     0.117 C 
HETATM   10  C14 UNL     1      -1.772  -0.576  -0.875  1.00  0.00     0.142 C 
HETATM   11  C9  UNL     1      -4.021  -0.026  -0.695  1.00  0.00     0.009 C 
HETATM   12  C12 UNL     1      -2.767   0.253  -0.028  1.00  0.00    -0.009 C 
HETATM   13  C13 UNL     1      -2.377   0.996   0.944  1.00  0.00     0.143 C 
BRANCH   9  14
HETATM   14  C8  UNL     1      -4.852  -1.854  -2.276  1.00  0.00     0.227 C 
HETATM   15  O2  UNL     1      -4.518  -2.931  -2.880  1.00  0.00    -0.643 OA
HETATM   16  O3  UNL     1      -6.130  -1.430  -2.510  1.00  0.00    -0.643 OA
ENDBRANCH   9  14
BRANCH  11  17
HETATM   17  C10 UNL     1      -5.234   0.813  -0.701  1.00  0.00     0.222 C 
BRANCH  17  18
HETATM   18  O4  UNL     1      -5.839   0.936   0.548  1.00  0.00    -0.302 OA
BRANCH  18  19
HETATM   19  C11 UNL     1      -7.010   1.697   0.662  1.00  0.00     0.372 C 
HETATM   20  N5  UNL     1      -7.689   1.879   1.888  1.00  0.00    -0.032 NA
HETATM   21  O5  UNL     1      -7.460   2.232  -0.373  1.00  0.00    -0.242 OA
ENDBRANCH  18  19
ENDBRANCH  17  18
ENDBRANCH  11  17
BRANCH  13  22
HETATM   22  S1  UNL     1      -3.096   2.106   2.032  1.00  0.00     0.127 S 
HETATM   23  O6  UNL     1      -2.006   2.822   2.870  1.00  0.00    -0.592 OA
HETATM   24  O7  UNL     1      -3.812   3.244   1.373  1.00  0.00    -0.592 OA
HETATM   25  O8  UNL     1      -3.999   1.295   3.178  1.00  0.00    -0.592 OA
ENDBRANCH  13  22
ENDBRANCH   3   5
BRANCH   1  26
HETATM   26  C2  UNL     1       2.944   0.388   0.150  1.00  0.00     0.177 A 
HETATM   27  N2  UNL     1       2.920   1.431  -0.690  1.00  0.00    -0.322 N 
HETATM   28  C1  UNL     1       4.111   2.062  -0.957  1.00  0.00     0.131 A 
ATOM     29  H2  UNL     1       2.048   1.746  -1.116  1.00  0.00     0.169 HD
HETATM   30  N1  UNL     1       4.101   3.059  -1.681  1.00  0.00    -0.383 N 
HETATM   31  C16 UNL     1       5.305   1.639  -0.381  1.00  0.00     0.122 A 
ATOM     32  H12 UNL     1       3.226   3.369  -2.103  1.00  0.00     0.157 HD
ATOM     33  H11 UNL     1       4.985   3.527  -1.879  1.00  0.00     0.157 HD
HETATM   34  C15 UNL     1       5.267   0.563   0.473  1.00  0.00     0.141 A 
HETATM   35  N7  UNL     1       6.582   2.052  -0.454  1.00  0.00    -0.346 N 
HETATM   36  N6  UNL     1       4.089  -0.029   0.712  1.00  0.00    -0.322 N 
HETATM   37  N8  UNL     1       6.529   0.363   0.890  1.00  0.00    -0.319 N 
ATOM     38  H6  UNL     1       4.061  -0.828   1.346  1.00  0.00     0.169 HD
HETATM   39  C17 UNL     1       7.354   1.274   0.327  1.00  0.00     0.185 A 
ATOM     40  H7  UNL     1       6.915   2.836  -1.016  1.00  0.00     0.167 HD
BRANCH  37  41
HETATM   41  C18 UNL     1       7.025  -0.657   1.798  1.00  0.00     0.230 C 
BRANCH  41  42
HETATM   42  C19 UNL     1       7.449  -1.873   1.110  1.00  0.00     0.249 C 
HETATM   43  N9  UNL     1       7.370  -2.026  -0.295  1.00  0.00    -0.061 NA
HETATM   44  O9  UNL     1       7.909  -2.841   1.774  1.00  0.00    -0.275 OA
ENDBRANCH  41  42
ENDBRANCH  37  41
ENDBRANCH   1  26
TORSDOF 9
