REMARK  3 active torsions:
REMARK  status: ('A' for Active; 'I' for Inactive)
REMARK    1  A    between atoms: N1_2  and  C2_3 
REMARK    2  A    between atoms: N1_2  and  C3_9 
REMARK    3  A    between atoms: C2_3  and  N2_4 
ROOT
HETATM    1  C1  UNL     1      -1.615  -1.501  -1.181  1.00  0.00     0.312 C 
HETATM    2  N1  UNL     1      -1.452  -0.132  -0.648  1.00  0.00     0.107 N 
ENDROOT
BRANCH   2   3
HETATM    3  C2  UNL     1      -2.513  -0.037   0.356  1.00  0.00     0.411 C 
BRANCH   3   4
HETATM    4  N2  UNL     1      -2.561   1.216   1.016  1.00  0.00    -0.316 N 
HETATM    5  N3  UNL     1      -3.305   2.130   0.565  1.00  0.00    -0.348 N 
ATOM      6  H32 UNL     1      -3.862   1.952  -0.271  1.00  0.00     0.176 HD
ATOM      7  H31 UNL     1      -3.340   3.032   1.040  1.00  0.00     0.176 HD
ATOM      8  H2  UNL     1      -1.998   1.378   1.851  1.00  0.00     0.181 HD
ENDBRANCH   3   4
ENDBRANCH   2   3
BRANCH   2   9
HETATM    9  C3  UNL     1      -0.166  -0.158   0.041  1.00  0.00     0.224 C 
HETATM   10  C4  UNL     1       0.342   1.175   0.447  1.00  0.00     0.036 C 
HETATM   11  C5  UNL     1       1.727   1.495  -0.069  1.00  0.00     0.002 C 
HETATM   12  C6  UNL     1       2.733   0.418   0.165  1.00  0.00     0.000 C 
HETATM   13  C7  UNL     1       2.119  -0.951   0.158  1.00  0.00     0.002 C 
HETATM   14  C8  UNL     1       0.903  -0.878  -0.770  1.00  0.00     0.036 C 
ENDBRANCH   2   9
TORSDOF 3
