REMARK  3 active torsions:
REMARK  status: ('A' for Active; 'I' for Inactive)
REMARK    1  A    between atoms: C2_2  and  N1_3 
REMARK    2  A    between atoms: N1_3  and  C3_4 
REMARK    3  A    between atoms: C3_4  and  C4_5 
ROOT
HETATM    1  N1  UNL     1      -0.530   0.199  -0.508  1.00  0.00     0.012 N 
HETATM    2  C7  UNL     1      -1.562  -0.265  -1.452  1.00  0.00     0.262 C 
HETATM    3  C8  UNL     1      -1.858  -1.696  -1.052  1.00  0.00     0.048 C 
HETATM    4  C9  UNL     1      -1.556  -1.628   0.434  1.00  0.00     0.144 C 
HETATM    5  N3  UNL     1      -0.601  -0.595   0.599  1.00  0.00    -0.047 NA
ENDROOT
BRANCH   1   6
HETATM    6  C2  UNL     1      -0.902   1.595  -0.220  1.00  0.00     0.256 C 
HETATM    7  C1  UNL     1      -1.610   1.747   1.074  1.00  0.00     0.036 C 
ENDBRANCH   1   6
BRANCH   1   8
HETATM    8  C3  UNL     1       0.710   0.172  -1.212  1.00  0.00     0.293 C 
BRANCH   8   9
HETATM    9  C4  UNL     1       1.920  -0.090  -0.397  1.00  0.00     0.215 C 
HETATM   10  C5  UNL     1       2.266   0.840   0.707  1.00  0.00     0.062 C 
HETATM   11  C6  UNL     1       2.893  -0.422   1.322  1.00  0.00     0.235 C 
HETATM   12  N2  UNL     1       1.915  -1.177   0.522  1.00  0.00    -0.069 N 
ATOM     13  H22 UNL     1       1.045  -1.514   0.935  1.00  0.00     0.277 HD
ATOM     14  H21 UNL     1       2.111  -2.129   0.213  1.00  0.00     0.277 HD
ENDBRANCH   8   9
ENDBRANCH   1   8
TORSDOF 3
