REMARK  4 active torsions:
REMARK  status: ('A' for Active; 'I' for Inactive)
REMARK    1  A    between atoms: C2_2  and  N1_3 
REMARK    2  A    between atoms: N1_3  and  C5_6 
REMARK    3  A    between atoms: C5_6  and  C6_7 
REMARK    4  A    between atoms: C9_13  and  N3_14 
ROOT
HETATM    1  C6  UNL     1       0.991  -0.495  -0.518  1.00  0.00     0.069 C 
HETATM    2  C7  UNL     1       2.077  -1.586  -0.490  1.00  0.00     0.240 C 
HETATM    3  N2  UNL     1       3.323  -0.874  -0.480  1.00  0.00    -0.073 N 
ATOM      4  H21 UNL     1       3.646  -0.572  -1.399  1.00  0.00     0.277 HD
ATOM      5  H22 UNL     1       4.138  -1.449  -0.266  1.00  0.00     0.277 HD
HETATM    6  C8  UNL     1       3.084   0.197   0.452  1.00  0.00     0.265 C 
HETATM    7  C9  UNL     1       1.609   0.555   0.337  1.00  0.00     0.216 C 
ENDROOT
BRANCH   1   8
HETATM    8  C5  UNL     1      -0.231  -1.125   0.009  1.00  0.00     0.244 C 
BRANCH   8   9
HETATM    9  N1  UNL     1      -1.404  -0.345   0.098  1.00  0.00    -0.075 N 
HETATM   10  C3  UNL     1      -2.520  -1.302   0.252  1.00  0.00     0.272 C 
HETATM   11  C4  UNL     1      -1.450   0.437   1.345  1.00  0.00     0.272 C 
BRANCH   9  12
HETATM   12  C2  UNL     1      -1.721   0.451  -1.049  1.00  0.00     0.232 C 
HETATM   13  C1  UNL     1      -2.388   1.779  -0.664  1.00  0.00     0.034 C 
ENDBRANCH   9  12
ENDBRANCH   8   9
ENDBRANCH   1   8
BRANCH   7  14
HETATM   14  N3  UNL     1       1.564   1.878  -0.308  1.00  0.00    -0.073 N 
ATOM     15  H33 UNL     1       1.990   1.855  -1.235  1.00  0.00     0.274 HD
ATOM     16  H32 UNL     1       0.612   2.129  -0.576  1.00  0.00     0.274 HD
ATOM     17  H31 UNL     1       1.988   2.598   0.278  1.00  0.00     0.274 HD
ENDBRANCH   7  14
TORSDOF 4
