REMARK  5 active torsions:
REMARK  status: ('A' for Active; 'I' for Inactive)
REMARK    1  A    between atoms: N1_2  and  C4_5 
REMARK    2  A    between atoms: C4_5  and  C5_6 
REMARK    3  A    between atoms: C6_7  and  N2_8 
REMARK    4  A    between atoms: C8_13  and  C9_14 
REMARK    5  A    between atoms: C9_14  and  N3_15 
ROOT
HETATM    1  C5  UNL     1       0.392  -0.480  -0.759  1.00  0.00     0.048 C 
HETATM    2  C6  UNL     1       1.457  -1.582  -0.900  1.00  0.00     0.190 C 
HETATM    3  C7  UNL     1       2.469  -0.456  -0.948  1.00  0.00     0.040 C 
HETATM    4  C8  UNL     1       1.459   0.343  -0.110  1.00  0.00     0.021 C 
ENDROOT
BRANCH   1   5
HETATM    5  C4  UNL     1      -0.714  -0.990   0.094  1.00  0.00     0.243 C 
BRANCH   5   6
HETATM    6  N1  UNL     1      -1.798  -0.110   0.339  1.00  0.00    -0.078 N 
HETATM    7  C1  UNL     1      -2.977  -0.952   0.607  1.00  0.00     0.271 C 
HETATM    8  C2  UNL     1      -1.629   0.698   1.540  1.00  0.00     0.271 C 
HETATM    9  C3  UNL     1      -2.146   0.761  -0.738  1.00  0.00     0.271 C 
ENDBRANCH   5   6
ENDBRANCH   1   5
BRANCH   2  10
HETATM   10  N2  UNL     1       1.598  -2.377   0.305  1.00  0.00    -0.075 N 
ATOM     11  H23 UNL     1       1.787  -1.786   1.114  1.00  0.00     0.274 HD
ATOM     12  H22 UNL     1       0.701  -2.768   0.593  1.00  0.00     0.274 HD
ATOM     13  H21 UNL     1       2.304  -3.107   0.212  1.00  0.00     0.274 HD
ENDBRANCH   2  10
BRANCH   4  14
HETATM   14  C9  UNL     1       1.499   1.809  -0.467  1.00  0.00     0.234 C 
BRANCH  14  15
HETATM   15  N3  UNL     1       2.619   2.386   0.290  1.00  0.00    -0.079 N 
ATOM     16  H33 UNL     1       2.561   2.215   1.294  1.00  0.00     0.274 HD
ATOM     17  H32 UNL     1       3.505   1.906   0.132  1.00  0.00     0.274 HD
ATOM     18  H31 UNL     1       2.646   3.377   0.049  1.00  0.00     0.274 HD
ENDBRANCH  14  15
ENDBRANCH   4  14
TORSDOF 5
