REMARK  5 active torsions:
REMARK  status: ('A' for Active; 'I' for Inactive)
REMARK    1  A    between atoms: C1_4  and  C2_5 
REMARK    2  A    between atoms: C2_5  and  C3_6 
REMARK    3  A    between atoms: C3_6  and  C4_7 
REMARK    4  A    between atoms: C4_7  and  C5_8 
REMARK    5  A    between atoms: C6_9  and  C7_10 
ROOT
HETATM    1  C7  UNL     1       3.261   1.287  -0.539  1.00  0.00     0.015 C 
HETATM    2  C8  UNL     1       4.172   2.036  -0.242  1.00  0.00     0.066 C 
HETATM    3  O1  UNL     1       5.199   2.889   0.084  1.00  0.00    -0.313 OA
ATOM      4  H1  UNL     1       5.911   3.474   0.316  1.00  0.00     0.230 HD
ENDROOT
BRANCH   1   5
HETATM    5  C6  UNL     1       2.188   0.425  -0.866  1.00  0.00    -0.013 C 
HETATM    6  C5  UNL     1       1.262  -0.302  -1.129  1.00  0.00    -0.092 C 
BRANCH   6   7
HETATM    7  C4  UNL     1       0.117  -1.183  -1.431  1.00  0.00     0.095 C 
BRANCH   7   8
HETATM    8  C3  UNL     1      -1.143  -0.640  -0.749  1.00  0.00     0.017 C 
BRANCH   8   9
HETATM    9  C2  UNL     1      -0.921  -0.594   0.757  1.00  0.00     0.044 C 
BRANCH   9  10
HETATM   10  C1  UNL     1      -2.135  -0.073   1.398  1.00  0.00     0.052 C 
HETATM   11  N1  UNL     1      -2.121   0.562   2.514  1.00  0.00    -0.411 N 
ATOM     12  H12 UNL     1      -1.216   0.702   2.963  1.00  0.00     0.155 HD
ATOM     13  H11 UNL     1      -2.964   0.924   2.959  1.00  0.00     0.155 HD
ENDBRANCH   9  10
ENDBRANCH   8   9
ENDBRANCH   7   8
ENDBRANCH   6   7
ENDBRANCH   1   5
TORSDOF 5
