REMARK  3 active torsions:
REMARK  status: ('A' for Active; 'I' for Inactive)
REMARK    1  A    between atoms: C1_2  and  N1_3 
REMARK    2  A    between atoms: C2_5  and  N2_6 
REMARK    3  A    between atoms: N2_6  and  C3_8 
ROOT
HETATM    1  N2  UNL     1       0.088  -1.154  -0.115  1.00  0.00    -0.375 N 
ATOM      2  H2  UNL     1      -0.313  -2.088  -0.198  1.00  0.00     0.161 HD
ENDROOT
BRANCH   1   3
HETATM    3  C2  UNL     1       1.450  -0.982  -0.484  1.00  0.00     0.178 C 
HETATM    4  N1  UNL     1       2.182  -0.137   0.112  1.00  0.00    -0.331 N 
ATOM      5  H1  UNL     1       1.750   0.406   0.860  1.00  0.00     0.168 HD
BRANCH   4   6
HETATM    6  C1  UNL     1       3.533   0.119  -0.165  1.00  0.00     0.353 C 
HETATM    7  O1  UNL     1       4.179   0.898   0.588  1.00  0.00    -0.283 OA
ENDBRANCH   4   6
ENDBRANCH   1   3
BRANCH   1   8
HETATM    8  C3  UNL     1      -0.755  -0.110   0.363  1.00  0.00     0.152 C 
HETATM    9  C4  UNL     1      -0.961   1.069  -0.550  1.00  0.00     0.040 C 
HETATM   10  C5  UNL     1      -2.446   0.794  -0.463  1.00  0.00     0.083 C 
HETATM   11  C6  UNL     1      -2.186  -0.498   0.225  1.00  0.00     0.149 C 
HETATM   12  O2  UNL     1      -2.922  -1.422   0.507  1.00  0.00    -0.296 OA
ENDBRANCH   1   8
TORSDOF 3
