REMARK  3 active torsions:
REMARK  status: ('A' for Active; 'I' for Inactive)
REMARK    1  A    between atoms: C3_3  and  N1_4 
REMARK    2  A    between atoms: N1_4  and  C4_7 
REMARK    3  A    between atoms: C4_7  and  C5_8 
ROOT
HETATM    1  C1  UNL     1       4.199   0.344  -0.667  1.00  0.00     0.013 C 
HETATM    2  C2  UNL     1       3.447  -0.454  -0.176  1.00  0.00    -0.090 C 
HETATM    3  C3  UNL     1       2.504  -1.415   0.435  1.00  0.00     0.324 C 
ENDROOT
BRANCH   3   4
HETATM    4  N1  UNL     1       1.277  -0.713   0.819  1.00  0.00    -0.065 N 
ATOM      5  H12 UNL     1       0.692  -1.274   1.438  1.00  0.00     0.278 HD
ATOM      6  H11 UNL     1       1.463   0.063   1.454  1.00  0.00     0.278 HD
BRANCH   4   7
HETATM    7  C4  UNL     1       0.564  -0.288  -0.363  1.00  0.00     0.240 C 
BRANCH   7   8
HETATM    8  C5  UNL     1      -0.593   0.590  -0.089  1.00  0.00     0.050 A 
HETATM    9  C6  UNL     1      -1.760   0.239   0.736  1.00  0.00     0.050 A 
HETATM   10  C7  UNL     1      -3.025   1.061   0.640  1.00  0.00     0.239 C 
HETATM   11  C8  UNL     1      -1.905   0.103  -0.727  1.00  0.00     0.198 A 
HETATM   12  N2  UNL     1      -2.986   1.040  -0.818  1.00  0.00    -0.070 N 
ATOM     13  H22 UNL     1      -3.822   0.823  -1.360  1.00  0.00     0.277 HD
ATOM     14  H21 UNL     1      -2.886   1.904  -1.351  1.00  0.00     0.277 HD
ENDBRANCH   7   8
ENDBRANCH   4   7
ENDBRANCH   3   4
TORSDOF 3
