REMARK  4 active torsions:
REMARK  status: ('A' for Active; 'I' for Inactive)
REMARK    1  A    between atoms: C5_7  and  C6_8 
REMARK    2  A    between atoms: C6_8  and  C7_9 
REMARK    3  A    between atoms: C7_9  and  C8_10 
REMARK    4  A    between atoms: C8_10  and  N2_11 
ROOT
HETATM    1  C1  UNL     1       2.039   1.850  -0.525  1.00  0.00     0.044 C 
HETATM    2  C2  UNL     1       1.877   0.602  -0.073  1.00  0.00     0.032 A 
HETATM    3  N1  UNL     1       2.849  -0.314   0.053  1.00  0.00    -0.366 N 
ATOM      4  H1  UNL     1       3.828  -0.155  -0.185  1.00  0.00     0.165 HD
HETATM    5  C3  UNL     1       2.363  -1.462   0.532  1.00  0.00     0.089 A 
HETATM    6  C4  UNL     1       1.002  -1.246   0.716  1.00  0.00     0.030 A 
HETATM    7  C5  UNL     1       0.708   0.025   0.342  1.00  0.00    -0.013 A 
ENDROOT
BRANCH   7   8
HETATM    8  C6  UNL     1      -0.462   0.623   0.362  1.00  0.00    -0.011 C 
BRANCH   8   9
HETATM    9  C7  UNL     1      -1.677  -0.111   0.839  1.00  0.00     0.055 C 
BRANCH   9  10
HETATM   10  C8  UNL     1      -2.313  -0.728  -0.406  1.00  0.00     0.233 C 
BRANCH  10  11
HETATM   11  N2  UNL     1      -2.680   0.305  -1.357  1.00  0.00    -0.079 N 
ATOM     12  H23 UNL     1      -3.282   1.012  -0.935  1.00  0.00     0.274 HD
ATOM     13  H22 UNL     1      -1.887   0.902  -1.593  1.00  0.00     0.274 HD
ATOM     14  H21 UNL     1      -3.105  -0.107  -2.188  1.00  0.00     0.274 HD
ENDBRANCH  10  11
ENDBRANCH   9  10
ENDBRANCH   8   9
ENDBRANCH   7   8
TORSDOF 4
