REMARK  4 active torsions:
REMARK  status: ('A' for Active; 'I' for Inactive)
REMARK    1  A    between atoms: N1_2  and  C2_4 
REMARK    2  A    between atoms: C2_4  and  C3_5 
REMARK    3  A    between atoms: C3_5  and  N2_6 
REMARK    4  A    between atoms: N2_6  and  C4_8 
ROOT
HETATM    1  C4  UNL     1       1.485  -0.274  -0.171  1.00  0.00     0.677 A 
HETATM    2  N3  UNL     1       2.511  -0.790  -0.859  1.00  0.00    -0.201 N 
ATOM      3  H3  UNL     1       2.443  -1.410  -1.666  1.00  0.00     0.183 HD
HETATM    4  C5  UNL     1       3.644  -0.346  -0.297  1.00  0.00     0.123 A 
HETATM    5  C6  UNL     1       3.285   0.453   0.751  1.00  0.00     0.123 A 
HETATM    6  N4  UNL     1       1.945   0.497   0.828  1.00  0.00    -0.201 N 
ATOM      7  H4  UNL     1       1.388   1.013   1.509  1.00  0.00     0.183 HD
ENDROOT
BRANCH   1   8
HETATM    8  N2  UNL     1       0.221  -0.499  -0.445  1.00  0.00    -0.224 N 
ATOM      9  H2  UNL     1      -0.041  -1.101  -1.225  1.00  0.00     0.177 HD
BRANCH   8  10
HETATM   10  C3  UNL     1      -0.791   0.119   0.375  1.00  0.00     0.157 C 
BRANCH  10  11
HETATM   11  C2  UNL     1      -2.136   0.049  -0.339  1.00  0.00     0.138 C 
BRANCH  11  12
HETATM   12  N1  UNL     1      -3.174   0.640   0.415  1.00  0.00    -0.406 N 
HETATM   13  C1  UNL     1      -4.232   0.063   0.796  1.00  0.00     0.112 C 
ATOM     14  H1  UNL     1      -3.060   1.620   0.675  1.00  0.00     0.158 HD
ENDBRANCH  11  12
ENDBRANCH  10  11
ENDBRANCH   8  10
ENDBRANCH   1   8
TORSDOF 4
