REMARK  9 active torsions:
REMARK  status: ('A' for Active; 'I' for Inactive)
REMARK    1  A    between atoms: O1_1  and  C1_3 
REMARK    2  A    between atoms: C1_3  and  C2_4 
REMARK    3  A    between atoms: C3_6  and  C4_7 
REMARK    4  A    between atoms: C7_11  and  O3_12 
REMARK    5  A    between atoms: C8_14  and  C9_15 
REMARK    6  A    between atoms: C9_15  and  C10_16 
REMARK    7  A    between atoms: C15_26  and  C16_27 
REMARK    8  A    between atoms: C16_27  and  O5_28 
REMARK    9  A    between atoms: C17_30  and  O6_31 
ROOT
HETATM    1  C4  UNL     1      -0.306  -0.947   0.900  1.00  0.00    -0.001 A 
HETATM    2  C5  UNL     1      -0.264  -2.327   0.809  1.00  0.00     0.039 A 
HETATM    3  C6  UNL     1       0.949  -2.976   0.909  1.00  0.00     0.068 A 
HETATM    4 CL1  UNL     1       0.985  -4.713   0.793  1.00  0.00    -0.081 Cl
HETATM    5  C7  UNL     1       2.118  -2.264   1.100  1.00  0.00     0.093 A 
HETATM    6  C8  UNL     1       2.112  -0.878   1.196  1.00  0.00    -0.022 A 
HETATM    7  C14 UNL     1       0.879  -0.269   1.090  1.00  0.00     0.022 A 
ENDROOT
BRANCH   1   8
HETATM    8  C3  UNL     1      -1.607  -0.206   0.795  1.00  0.00     0.295 C 
HETATM    9  O2  UNL     1      -1.521   0.887  -0.040  1.00  0.00    -0.347 OA
HETATM   10  C2  UNL     1      -2.718   1.567   0.020  1.00  0.00     0.179 C 
HETATM   11  C17 UNL     1      -3.782   0.737  -0.655  1.00  0.00     0.180 C 
HETATM   12  C15 UNL     1      -3.337  -0.723  -0.639  1.00  0.00     0.179 C 
HETATM   13  O4  UNL     1      -2.628  -1.067   0.489  1.00  0.00    -0.347 OA
BRANCH  10  14
HETATM   14  C1  UNL     1      -2.645   2.913  -0.653  1.00  0.00     0.198 C 
BRANCH  14  15
HETATM   15  O1  UNL     1      -2.308   2.849  -1.996  1.00  0.00    -0.398 OA
ATOM     16  H1  UNL     1      -2.262   3.698  -2.420  1.00  0.00     0.209 HD
ENDBRANCH  14  15
ENDBRANCH  10  14
BRANCH  11  17
HETATM   17  O6  UNL     1      -3.876   1.093  -1.986  1.00  0.00    -0.390 OA
ATOM     18  H6  UNL     1      -4.546   0.570  -2.411  1.00  0.00     0.210 HD
ENDBRANCH  11  17
BRANCH  12  19
HETATM   19  C16 UNL     1      -4.587  -1.570  -0.717  1.00  0.00     0.198 C 
BRANCH  19  20
HETATM   20  O5  UNL     1      -5.390  -1.359   0.414  1.00  0.00    -0.398 OA
ATOM     21  H5  UNL     1      -6.175  -1.891   0.365  1.00  0.00     0.209 HD
ENDBRANCH  19  20
ENDBRANCH  12  19
ENDBRANCH   1   8
BRANCH   6  22
HETATM   22  C9  UNL     1       3.381  -0.132   1.400  1.00  0.00     0.052 C 
BRANCH  22  23
HETATM   23  C10 UNL     1       4.210  -0.028   0.153  1.00  0.00     0.075 C 
HETATM   24  C11 UNL     1       3.498   0.691  -0.999  1.00  0.00     0.096 C 
HETATM   25  C12 UNL     1       4.863   1.317  -1.313  1.00  0.00     0.308 C 
HETATM   26  F1  UNL     1       5.672   0.432  -1.991  1.00  0.00    -0.200 F 
HETATM   27  F2  UNL     1       4.800   2.586  -1.791  1.00  0.00    -0.200 F 
HETATM   28  C13 UNL     1       5.136   1.195   0.192  1.00  0.00     0.311 C 
HETATM   29  F3  UNL     1       4.528   2.259   0.837  1.00  0.00    -0.199 F 
HETATM   30  F4  UNL     1       6.425   0.940   0.525  1.00  0.00    -0.199 F 
ENDBRANCH  22  23
ENDBRANCH   6  22
BRANCH   5  31
HETATM   31  O3  UNL     1       3.311  -2.942   1.196  1.00  0.00    -0.358 OA
ATOM     32  H3  UNL     1       4.115  -2.453   1.327  1.00  0.00     0.217 HD
ENDBRANCH   5  31
TORSDOF 9
