REMARK  10 active torsions:
REMARK  status: ('A' for Active; 'I' for Inactive)
REMARK    1  A    between atoms: O1_1  and  N1_3 
REMARK    2  A    between atoms: C1_5  and  O2_6 
REMARK    3  A    between atoms: C1_5  and  C2_8 
REMARK    4  A    between atoms: C4_11  and  C5_12 
REMARK    5  A    between atoms: C5_12  and  C6_13 
REMARK    6  A    between atoms: C6_13  and  O4_14 
REMARK    7  A    between atoms: O4_14  and  C7_15 
REMARK    8  A    between atoms: C10_18  and  C11_19 
REMARK    9  A    between atoms: C16_29  and  O5_30 
REMARK   10  A    between atoms: C17_32  and  O6_33 
ROOT
HETATM    1  C2  UNL     1       4.151   0.219  -0.965  1.00  0.00     0.229 C 
HETATM    2  O3  UNL     1       2.881   0.655  -0.670  1.00  0.00    -0.368 OA
HETATM    3  C3  UNL     1       2.424   0.285   0.590  1.00  0.00     0.145 C 
HETATM    4  C4  UNL     1       0.944   0.099   0.633  1.00  0.00     0.090 C 
HETATM    5  C14 UNL     1       1.144  -1.192  -0.104  1.00  0.00     0.258 C 
HETATM    6  F4  UNL     1       0.250  -2.208   0.224  1.00  0.00    -0.205 F 
HETATM    7  F5  UNL     1       1.437  -1.098  -1.414  1.00  0.00    -0.205 F 
HETATM    8  C15 UNL     1       2.466  -1.238   0.740  1.00  0.00     0.119 C 
HETATM    9  C16 UNL     1       3.596  -1.943   0.166  1.00  0.00     0.162 C 
HETATM   10  C17 UNL     1       4.382  -1.252  -0.880  1.00  0.00     0.184 C 
ENDROOT
BRANCH   4  11
HETATM   11  C5  UNL     1       0.037   1.148   0.154  1.00  0.00     0.040 C 
BRANCH  11  12
HETATM   12  C6  UNL     1      -1.392   0.706   0.243  1.00  0.00     0.176 C 
BRANCH  12  13
HETATM   13  O4  UNL     1      -2.373   1.687  -0.040  1.00  0.00    -0.351 OA
BRANCH  13  14
HETATM   14  C7  UNL     1      -3.718   1.183   0.009  1.00  0.00     0.068 A 
HETATM   15  C8  UNL     1      -4.726   2.075  -0.200  1.00  0.00     0.037 A 
HETATM   16  C9  UNL     1      -6.070   1.607  -0.172  1.00  0.00     0.019 A 
HETATM   17  C10 UNL     1      -6.292   0.274   0.073  1.00  0.00     0.048 A 
HETATM   18  C12 UNL     1      -5.293  -0.626   0.291  1.00  0.00     0.019 A 
HETATM   19  C13 UNL     1      -3.983  -0.135   0.251  1.00  0.00     0.037 A 
BRANCH  17  20
HETATM   20  C11 UNL     1      -7.711  -0.270   0.051  1.00  0.00     0.417 C 
HETATM   21  F1  UNL     1      -8.559   0.647   0.593  1.00  0.00    -0.166 F 
HETATM   22  F2  UNL     1      -7.962  -0.571  -1.284  1.00  0.00    -0.166 F 
HETATM   23  F3  UNL     1      -7.666  -1.455   0.742  1.00  0.00    -0.166 F 
ENDBRANCH  17  20
ENDBRANCH  13  14
ENDBRANCH  12  13
ENDBRANCH  11  12
ENDBRANCH   4  11
BRANCH   1  24
HETATM   24  C1  UNL     1       5.223   1.000  -0.318  1.00  0.00     0.167 C 
HETATM   25  N1  UNL     1       5.060   2.216   0.018  1.00  0.00    -0.249 N 
ATOM     26  H1  UNL     1       5.856   2.680   0.456  1.00  0.00     0.196 HD
BRANCH  25  27
HETATM   27  O1  UNL     1       3.929   2.965  -0.147  1.00  0.00    -0.288 OA
ATOM     28  H1  UNL     1       3.807   3.873   0.104  1.00  0.00     0.244 HD
ENDBRANCH  25  27
BRANCH  24  29
HETATM   29  O2  UNL     1       6.437   0.375  -0.087  1.00  0.00    -0.346 OA
ATOM     30  H2  UNL     1       6.559  -0.533  -0.338  1.00  0.00     0.219 HD
ENDBRANCH  24  29
ENDBRANCH   1  24
BRANCH   9  31
HETATM   31  O5  UNL     1       3.140  -3.182  -0.292  1.00  0.00    -0.392 OA
ATOM     32  H5  UNL     1       3.880  -3.644  -0.668  1.00  0.00     0.210 HD
ENDBRANCH   9  31
BRANCH  10  33
HETATM   33  O6  UNL     1       4.173  -1.870  -2.109  1.00  0.00    -0.390 OA
ATOM     34  H6  UNL     1       4.320  -2.807  -2.055  1.00  0.00     0.210 HD
ENDBRANCH  10  33
TORSDOF 10
