REMARK  1 active torsions:
REMARK  status: ('A' for Active; 'I' for Inactive)
REMARK    1  A    between atoms: C2_2  and  N1_3 
ROOT
HETATM    1  N1  UNL     1       0.217  -0.092   0.228  1.00  0.00    -0.026 N 
HETATM    2  C3  UNL     1       0.939  -1.288   0.592  1.00  0.00     0.280 C 
HETATM    3  C4  UNL     1      -0.367  -0.163  -1.083  1.00  0.00     0.272 C 
HETATM    4  C5  UNL     1      -1.867  -0.082  -0.897  1.00  0.00     0.262 C 
HETATM    5  N2  UNL     1      -2.091  -0.082   0.523  1.00  0.00    -0.049 N 
ATOM      6  H21 UNL     1      -2.582  -0.917   0.842  1.00  0.00     0.279 HD
ATOM      7  H22 UNL     1      -2.786   0.607   0.809  1.00  0.00     0.279 HD
HETATM    8  C6  UNL     1      -0.836   0.100   1.181  1.00  0.00     0.473 C 
ENDROOT
BRANCH   1   9
HETATM    9  C2  UNL     1       1.148   0.997   0.267  1.00  0.00     0.194 C 
HETATM   10  C1  UNL     1       2.220   0.950  -0.527  1.00  0.00     0.038 C 
ENDBRANCH   1   9
TORSDOF 1
