REMARK  0 active torsions:
REMARK  status: ('A' for Active; 'I' for Inactive)
ROOT
HETATM    1  C1  UNL     1       2.221   0.711   0.322  1.00  0.00     0.013 C 
HETATM    2  C2  UNL     1       1.307  -0.174  -0.484  1.00  0.00     0.034 C 
HETATM    3  C3  UNL     1       0.375  -0.926   0.424  1.00  0.00     0.242 C 
HETATM    4  N1  UNL     1      -0.741  -0.156  -0.036  1.00  0.00    -0.074 N 
HETATM    5  C4  UNL     1      -1.797  -1.024  -0.508  1.00  0.00     0.272 C 
HETATM    6  C5  UNL     1      -1.264   0.833   0.874  1.00  0.00     0.272 C 
HETATM    7  C6  UNL     1       0.079   0.454  -1.039  1.00  0.00     0.242 C 
ENDROOT
TORSDOF 0
