REMARK  2 active torsions:
REMARK  status: ('A' for Active; 'I' for Inactive)
REMARK    1  A    between atoms: C2_2  and  C3_3 
REMARK    2  A    between atoms: C6_6  and  C7_7 
ROOT
HETATM    1  C3  UNL     1       1.131   0.613   0.960  1.00  0.00     0.017 A 
HETATM    2  C4  UNL     1       0.595  -0.751   1.028  1.00  0.00    -0.000 A 
HETATM    3  C5  UNL     1      -0.815  -0.919   1.502  1.00  0.00     0.020 A 
HETATM    4  C6  UNL     1      -1.283   0.056   0.446  1.00  0.00     0.080 A 
HETATM    5  C8  UNL     1       0.142   0.131  -0.049  1.00  0.00     0.011 A 
ENDROOT
BRANCH   4   6
HETATM    6  C7  UNL     1      -2.269  -0.466  -0.491  1.00  0.00     0.235 C 
HETATM    7  N1  UNL     1      -2.779   0.357  -1.520  1.00  0.00    -0.062 NA
HETATM    8  O1  UNL     1      -2.686  -1.641  -0.410  1.00  0.00    -0.276 OA
ENDBRANCH   4   6
BRANCH   1   9
HETATM    9  C2  UNL     1       2.561   0.760   0.609  1.00  0.00    -0.031 C 
HETATM   10  C1  UNL     1       3.055   0.487  -0.576  1.00  0.00     0.007 C 
ENDBRANCH   1   9
TORSDOF 2
