REMARK  3 active torsions:
REMARK  status: ('A' for Active; 'I' for Inactive)
REMARK    1  A    between atoms: C3_3  and  C4_4 
REMARK    2  A    between atoms: C4_4  and  N1_5 
REMARK    3  A    between atoms: C5_7  and  C6_8 
ROOT
HETATM    1  N1  UNL     1       0.279  -0.168   0.291  1.00  0.00    -0.398 N 
ATOM      2  H1  UNL     1       0.213   0.375  -0.570  1.00  0.00     0.158 HD
HETATM    3  C5  UNL     1       1.410  -0.576   0.730  1.00  0.00     0.059 C 
ENDROOT
BRANCH   1   4
HETATM    4  C4  UNL     1      -0.894  -0.500   1.049  1.00  0.00     0.145 C 
BRANCH   4   5
HETATM    5  C3  UNL     1      -2.060   0.273   0.576  1.00  0.00    -0.012 C 
HETATM    6  C2  UNL     1      -3.116  -0.373   0.113  1.00  0.00    -0.033 C 
HETATM    7  C1  UNL     1      -4.312   0.369  -0.373  1.00  0.00     0.036 C 
ENDBRANCH   4   5
ENDBRANCH   1   4
BRANCH   3   8
HETATM    8  C6  UNL     1       2.628  -0.245  -0.036  1.00  0.00     0.015 C 
HETATM    9  C7  UNL     1       2.387  -0.641  -1.495  1.00  0.00     0.015 C 
HETATM   10  C8  UNL     1       2.967   1.223  -0.012  1.00  0.00     0.015 C 
ENDBRANCH   3   8
TORSDOF 3
