REMARK  2 active torsions:
REMARK  status: ('A' for Active; 'I' for Inactive)
REMARK    1  A    between atoms: C2_2  and  C4_4 
REMARK    2  A    between atoms: N1_5  and  C5_7 
ROOT
HETATM    1  C4  UNL     1       0.389  -0.304  -0.445  1.00  0.00     0.059 C 
HETATM    2  N1  UNL     1      -0.399   0.278   0.343  1.00  0.00    -0.398 N 
ATOM      3  H1  UNL     1      -0.043   0.526   1.266  1.00  0.00     0.159 HD
ENDROOT
BRANCH   2   4
HETATM    4  C5  UNL     1      -1.756   0.619   0.046  1.00  0.00     0.072 C 
HETATM    5  C6  UNL     1      -2.586   0.261   1.265  1.00  0.00     0.031 C 
HETATM    6  C7  UNL     1      -2.309  -0.151  -1.121  1.00  0.00     0.031 C 
ENDBRANCH   2   4
BRANCH   1   7
HETATM    7  C2  UNL     1       1.769  -0.602  -0.025  1.00  0.00     0.015 C 
HETATM    8  C1  UNL     1       2.165   0.422   1.018  1.00  0.00     0.015 C 
HETATM    9  C3  UNL     1       2.754  -0.519  -1.172  1.00  0.00     0.015 C 
ENDBRANCH   1   7
TORSDOF 2
