REMARK  2 active torsions:
REMARK  status: ('A' for Active; 'I' for Inactive)
REMARK    1  A    between atoms: N1_2  and  C4_5 
REMARK    2  A    between atoms: C5_6  and  C6_7 
ROOT
HETATM    1  C4  UNL     1       0.171  -0.337   0.339  1.00  0.00     0.199 C 
HETATM    2  C5  UNL     1       0.846  -0.260  -0.792  1.00  0.00     0.032 C 
ENDROOT
BRANCH   2   3
HETATM    3  C6  UNL     1       2.299  -0.583  -0.887  1.00  0.00     0.235 A 
HETATM    4  C7  UNL     1       3.210   0.591  -0.587  1.00  0.00     0.270 A 
HETATM    5  N2  UNL     1       3.126  -0.549   0.281  1.00  0.00    -0.064 N 
ATOM      6  H22 UNL     1       2.925  -0.650   1.276  1.00  0.00     0.278 HD
ATOM      7  H21 UNL     1       3.827  -1.190   0.653  1.00  0.00     0.278 HD
ENDBRANCH   2   3
BRANCH   1   8
HETATM    8  N1  UNL     1      -1.211  -0.010   0.335  1.00  0.00    -0.059 N 
HETATM    9  C1  UNL     1      -1.391   1.427   0.289  1.00  0.00     0.277 C 
HETATM   10  C2  UNL     1      -1.862  -0.540   1.540  1.00  0.00     0.277 C 
HETATM   11  C3  UNL     1      -1.844  -0.662  -0.792  1.00  0.00     0.277 C 
ENDBRANCH   1   8
TORSDOF 2
