REMARK  3 active torsions:
REMARK  status: ('A' for Active; 'I' for Inactive)
REMARK    1  A    between atoms: C3_3  and  C4_4 
REMARK    2  A    between atoms: C4_4  and  N1_6 
REMARK    3  A    between atoms: N1_6  and  C6_9 
ROOT
HETATM    1  C1  UNL     1      -4.016   1.164  -0.830  1.00  0.00     0.112 C 
HETATM    2  C2  UNL     1      -2.712   0.573  -0.493  1.00  0.00    -0.109 C 
HETATM    3  C3  UNL     1      -1.643   0.067  -0.229  1.00  0.00    -0.074 C 
ENDROOT
BRANCH   3   4
HETATM    4  C4  UNL     1      -0.355  -0.567   0.077  1.00  0.00     0.260 C 
HETATM    5  C5  UNL     1      -0.423  -1.407   1.325  1.00  0.00     0.054 C 
BRANCH   4   6
HETATM    6  N1  UNL     1       0.626   0.484   0.169  1.00  0.00    -0.057 N 
ATOM      7  H12 UNL     1       0.546   1.174  -0.578  1.00  0.00     0.279 HD
ATOM      8  H11 UNL     1       0.461   1.119   0.950  1.00  0.00     0.279 HD
BRANCH   6   9
HETATM    9  C6  UNL     1       1.944  -0.164   0.219  1.00  0.00     0.187 A 
HETATM   10  C7  UNL     1       3.172   0.632   0.143  1.00  0.00     0.035 A 
HETATM   11  C8  UNL     1       2.708  -0.120  -1.058  1.00  0.00     0.035 A 
ENDBRANCH   6   9
ENDBRANCH   4   6
ENDBRANCH   3   4
TORSDOF 3
