REMARK  1 active torsions:
REMARK  status: ('A' for Active; 'I' for Inactive)
REMARK    1  A    between atoms: N1_2  and  C4_5 
ROOT
HETATM    1  C4  UNL     1       0.419   0.400  -0.193  1.00  0.00     0.194 C 
HETATM    2  C5  UNL     1       1.017  -0.404  -1.364  1.00  0.00     0.039 C 
HETATM    3  C6  UNL     1       2.295   0.025  -0.625  1.00  0.00    -0.006 A 
HETATM    4  C7  UNL     1       2.791  -0.462   0.609  1.00  0.00     0.012 A 
HETATM    5  C8  UNL     1       1.375  -0.516   0.553  1.00  0.00     0.021 A 
ENDROOT
BRANCH   1   6
HETATM    6  N1  UNL     1      -0.950   0.200   0.061  1.00  0.00    -0.074 N 
HETATM    7  C1  UNL     1      -1.543  -0.974  -0.471  1.00  0.00     0.272 C 
HETATM    8  C2  UNL     1      -1.250   0.230   1.502  1.00  0.00     0.272 C 
HETATM    9  C3  UNL     1      -1.671   1.360  -0.492  1.00  0.00     0.272 C 
ENDBRANCH   1   6
TORSDOF 1
