REMARK  1 active torsions:
REMARK  status: ('A' for Active; 'I' for Inactive)
REMARK    1  A    between atoms: C5_5  and  C6_6 
ROOT
HETATM    1  C1  UNL     1       3.033   0.408   1.123  1.00  0.00     0.097 C 
HETATM    2  C2  UNL     1       1.974   0.008   0.665  1.00  0.00    -0.182 C 
HETATM    3  C3  UNL     1       0.727  -0.453   0.105  1.00  0.00     0.065 A 
HETATM    4  C4  UNL     1       0.359  -0.126  -1.313  1.00  0.00     0.032 A 
HETATM    5  C5  UNL     1      -0.248   0.669  -0.223  1.00  0.00     0.091 A 
ENDROOT
BRANCH   5   6
HETATM    6  C6  UNL     1      -1.609   0.406   0.258  1.00  0.00     0.236 C 
HETATM    7  N1  UNL     1      -2.232  -0.870   0.239  1.00  0.00    -0.062 NA
HETATM    8  O1  UNL     1      -2.262   1.375   0.716  1.00  0.00    -0.276 OA
ENDBRANCH   5   6
TORSDOF 1
