REMARK  1 active torsions:
REMARK  status: ('A' for Active; 'I' for Inactive)
REMARK    1  A    between atoms: C1_2  and  C2_4 
ROOT
HETATM    1  C2  UNL     1       0.236  -0.097  -0.424  1.00  0.00     0.075 C 
HETATM    2  C3  UNL     1      -0.626   1.019   0.131  1.00  0.00     0.013 C 
HETATM    3  C4  UNL     1      -1.877   0.177  -0.081  1.00  0.00     0.002 C 
HETATM    4  C5  UNL     1      -0.965  -1.007  -0.289  1.00  0.00     0.013 C 
ENDROOT
BRANCH   1   5
HETATM    5  C1  UNL     1       1.337  -0.526   0.455  1.00  0.00     0.235 C 
HETATM    6  N1  UNL     1       2.384   0.316   0.916  1.00  0.00    -0.062 NA
HETATM    7  O1  UNL     1       1.360  -1.725   0.828  1.00  0.00    -0.277 OA
ENDBRANCH   1   5
TORSDOF 1
