REMARK  1 active torsions:
REMARK  status: ('A' for Active; 'I' for Inactive)
REMARK    1  A    between atoms: C1_2  and  C2_4 
ROOT
HETATM    1  C2  UNL     1       0.386  -0.021  -0.507  1.00  0.00     0.075 C 
HETATM    2  C3  UNL     1      -0.263  -1.174   0.265  1.00  0.00     0.013 C 
HETATM    3  C4  UNL     1      -1.682  -0.702   0.372  1.00  0.00     0.001 C 
HETATM    4  C5  UNL     1      -1.698   0.776   0.109  1.00  0.00     0.001 C 
HETATM    5  C6  UNL     1      -0.237   1.145   0.274  1.00  0.00     0.013 C 
ENDROOT
BRANCH   1   6
HETATM    6  C1  UNL     1       1.839  -0.036  -0.420  1.00  0.00     0.235 C 
HETATM    7  N1  UNL     1       2.456   0.064   0.858  1.00  0.00    -0.062 NA
HETATM    8  O1  UNL     1       2.533  -0.134  -1.440  1.00  0.00    -0.277 OA
ENDBRANCH   1   6
TORSDOF 1
