REMARK  2 active torsions:
REMARK  status: ('A' for Active; 'I' for Inactive)
REMARK    1  A    between atoms: C4_4  and  C5_5 
REMARK    2  A    between atoms: C5_5  and  N1_7 
REMARK       I    between atoms: N1_7  and  C7_9 
ROOT
HETATM    1  C1  UNL     1       4.614   0.678   0.939  1.00  0.00     0.017 C 
HETATM    2  C2  UNL     1       3.584   0.205   0.528  1.00  0.00    -0.090 C 
HETATM    3  C3  UNL     1       2.336  -0.345   0.016  1.00  0.00     0.061 C 
HETATM    4  C4  UNL     1       1.178   0.034   0.520  1.00  0.00     0.007 C 
ENDROOT
BRANCH   4   5
HETATM    5  C5  UNL     1      -0.058  -0.554  -0.033  1.00  0.00     0.103 C 
HETATM    6  C6  UNL     1      -0.131  -1.988   0.477  1.00  0.00     0.036 C 
BRANCH   5   7
HETATM    7  N1  UNL     1      -1.227   0.204   0.338  1.00  0.00    -0.354 N 
HETATM    8  C7  UNL     1      -2.022   0.774  -0.687  1.00  0.00     0.214 C 
HETATM    9  C8  UNL     1      -3.231   1.557  -0.305  1.00  0.00     0.117 C 
HETATM   10  O1  UNL     1      -1.707   0.618  -1.915  1.00  0.00    -0.274 OA
ATOM     11  H1  UNL     1      -1.477   0.327   1.319  1.00  0.00     0.163 HD
ENDBRANCH   5   7
ENDBRANCH   4   5
TORSDOF 2
