REMARK  5 active torsions:
REMARK  status: ('A' for Active; 'I' for Inactive)
REMARK    1  A    between atoms: C2_2  and  C3_3 
REMARK    2  A    between atoms: C3_3  and  N1_4 
REMARK    3  A    between atoms: C3_3  and  N3_8 
REMARK    4  A    between atoms: N1_4  and  N2_5 
REMARK    5  A    between atoms: N3_8  and  C4_10 
ROOT
HETATM    1  C3  UNL     1       1.029   0.824  -0.124  1.00  0.00     0.198 C 
ENDROOT
BRANCH   1   2
HETATM    2  C2  UNL     1       2.212   0.135  -0.591  1.00  0.00     0.055 C 
HETATM    3  C1  UNL     1       2.419  -1.133  -0.299  1.00  0.00     0.016 C 
ENDBRANCH   1   2
BRANCH   1   4
HETATM    4  N1  UNL     1       0.839   2.034  -0.407  1.00  0.00    -0.315 NA
BRANCH   4   5
HETATM    5  N2  UNL     1       0.909   3.265  -0.416  1.00  0.00    -0.278 N 
ATOM      6  H22 UNL     1       1.610   3.320   0.323  1.00  0.00     0.191 HD
ATOM      7  H21 UNL     1       0.755   4.247  -0.646  1.00  0.00     0.191 HD
ENDBRANCH   4   5
ENDBRANCH   1   4
BRANCH   1   8
HETATM    8  N3  UNL     1       0.039   0.192   0.663  1.00  0.00    -0.359 N 
ATOM      9  H3  UNL     1       0.031   0.311   1.676  1.00  0.00     0.162 HD
BRANCH   8  10
HETATM   10  C4  UNL     1      -0.953  -0.618   0.018  1.00  0.00     0.084 A 
HETATM   11  C5  UNL     1      -1.825   0.069  -0.996  1.00  0.00     0.027 A 
HETATM   12  C6  UNL     1      -2.398  -0.443   0.278  1.00  0.00     0.027 A 
ENDBRANCH   8  10
ENDBRANCH   1   8
TORSDOF 5
