REMARK  2 active torsions:
REMARK  status: ('A' for Active; 'I' for Inactive)
REMARK    1  A    between atoms: C4_4  and  N1_5 
REMARK    2  A    between atoms: N1_5  and  C7_8 
ROOT
HETATM    1  N1  UNL     1       0.908   0.293  -0.236  1.00  0.00    -0.037 N 
HETATM    2  C5  UNL     1       1.811   0.570   0.869  1.00  0.00     0.280 C 
HETATM    3  C6  UNL     1       0.565   1.552  -0.837  1.00  0.00     0.280 C 
ENDROOT
BRANCH   1   4
HETATM    4  C4  UNL     1      -0.220  -0.427   0.284  1.00  0.00     0.200 A 
HETATM    5  C2  UNL     1      -1.599  -0.195  -0.161  1.00  0.00     0.015 A 
HETATM    6  C1  UNL     1      -2.595  -1.332  -0.000  1.00  0.00     0.012 C 
HETATM    7  C3  UNL     1      -1.141   0.392   1.156  1.00  0.00     0.040 A 
ENDBRANCH   1   4
BRANCH   1   8
HETATM    8  C7  UNL     1       1.630  -0.466  -1.213  1.00  0.00     0.286 C 
HETATM    9  N2  UNL     1       2.135  -1.596  -0.907  1.00  0.00    -0.389 N 
ATOM     10  H22 UNL     1       2.015  -1.947   0.043  1.00  0.00     0.156 HD
ATOM     11  H21 UNL     1       2.649  -2.136  -1.603  1.00  0.00     0.156 HD
ENDBRANCH   1   8
TORSDOF 2
