REMARK  6 active torsions:
REMARK  status: ('A' for Active; 'I' for Inactive)
REMARK    1  A    between atoms: N1_2  and  C3_4 
REMARK    2  A    between atoms: N2_7  and  C6_8 
REMARK    3  A    between atoms: C6_8  and  C7_9 
REMARK    4  A    between atoms: C10_13  and  O1_14 
REMARK    5  A    between atoms: C11_16  and  C12_17 
REMARK    6  A    between atoms: C12_17  and  C15_20 
ROOT
HETATM    1  C7  UNL     1      -0.177  -0.594   0.492  1.00  0.00    -0.018 A 
HETATM    2  C8  UNL     1       0.317   0.189   1.512  1.00  0.00     0.039 A 
HETATM    3  C9  UNL     1      -0.504   1.111   2.159  1.00  0.00     0.068 A 
HETATM    4 CL1  UNL     1       0.188   2.083   3.455  1.00  0.00    -0.081 Cl
HETATM    5  C10 UNL     1      -1.822   1.251   1.786  1.00  0.00     0.094 A 
HETATM    6  C11 UNL     1      -2.354   0.475   0.758  1.00  0.00    -0.014 A 
HETATM    7  C19 UNL     1      -1.522  -0.411   0.154  1.00  0.00     0.023 A 
ENDROOT
BRANCH   1   8
HETATM    8  C6  UNL     1       0.632  -1.594  -0.250  1.00  0.00     0.101 C 
BRANCH   8   9
HETATM    9  N2  UNL     1       2.013  -1.328  -0.246  1.00  0.00    -0.369 N 
HETATM   10  C5  UNL     1       2.490  -0.134  -0.816  1.00  0.00     0.065 C 
HETATM   11  C4  UNL     1       3.923  -0.202  -1.290  1.00  0.00     0.080 C 
HETATM   12  C3  UNL     1       4.813  -0.937  -0.331  1.00  0.00     0.228 C 
HETATM   13  C21 UNL     1       4.075  -1.238   0.952  1.00  0.00     0.056 C 
HETATM   14  C20 UNL     1       2.867  -2.099   0.563  1.00  0.00     0.129 C 
BRANCH  12  15
HETATM   15  N1  UNL     1       6.059  -0.284  -0.074  1.00  0.00     0.085 N 
HETATM   16  C1  UNL     1       6.864  -0.162  -1.248  1.00  0.00     0.309 C 
HETATM   17  C2  UNL     1       5.953   0.965   0.611  1.00  0.00     0.309 C 
ENDBRANCH  12  15
ENDBRANCH   8   9
ENDBRANCH   1   8
BRANCH   6  18
HETATM   18  C12 UNL     1      -3.763   0.711   0.456  1.00  0.00    -0.011 C 
HETATM   19  C13 UNL     1      -4.559   0.398   1.728  1.00  0.00     0.021 C 
HETATM   20  C14 UNL     1      -3.908   2.208   0.181  1.00  0.00     0.021 C 
BRANCH  18  21
HETATM   21  C15 UNL     1      -4.385  -0.020  -0.661  1.00  0.00    -0.040 C 
HETATM   22  C16 UNL     1      -3.773   0.218  -2.014  1.00  0.00     0.015 C 
HETATM   23  C17 UNL     1      -4.532  -1.521  -0.379  1.00  0.00     0.015 C 
HETATM   24  C18 UNL     1      -5.830   0.499  -0.763  1.00  0.00     0.015 C 
ENDBRANCH  18  21
ENDBRANCH   6  18
BRANCH   5  25
HETATM   25  O1  UNL     1      -2.618   2.191   2.461  1.00  0.00    -0.358 OA
ATOM     26  H1  UNL     1      -3.527   2.288   2.204  1.00  0.00     0.217 HD
ENDBRANCH   5  25
TORSDOF 6
