REMARK  4 active torsions:
REMARK  status: ('A' for Active; 'I' for Inactive)
REMARK    1  A    between atoms: C1_2  and  N1_3 
REMARK    2  A    between atoms: C1_2  and  C8_14 
REMARK    3  A    between atoms: N1_3  and  C2_5 
REMARK    4  A    between atoms: C5_8  and  S2_9 
ROOT
HETATM    1  S1  UNL     1       1.518   0.861   1.610  1.00  0.00    -0.065 SA
HETATM    2  C1  UNL     1       0.680   0.324   0.345  1.00  0.00     0.086 C 
ENDROOT
BRANCH   2   3
HETATM    3  N1  UNL     1       1.303  -0.011  -0.865  1.00  0.00    -0.350 N 
ATOM      4  H1  UNL     1       0.660  -0.302  -1.602  1.00  0.00     0.166 HD
BRANCH   3   5
HETATM    5  C2  UNL     1       2.647  -0.017  -1.240  1.00  0.00     0.034 A 
HETATM    6  C3  UNL     1       2.994   0.135  -2.600  1.00  0.00     0.031 A 
HETATM    7  C4  UNL     1       4.301   0.107  -3.009  1.00  0.00     0.024 A 
HETATM    8  C5  UNL     1       5.329  -0.071  -2.111  1.00  0.00     0.038 A 
HETATM    9  C6  UNL     1       5.036  -0.224  -0.776  1.00  0.00     0.054 A 
HETATM   10 CL2  UNL     1       6.317  -0.454   0.409  1.00  0.00    -0.083 Cl
HETATM   11  C7  UNL     1       3.690  -0.192  -0.379  1.00  0.00     0.054 A 
BRANCH   8  12
HETATM   12  S2  UNL     1       7.040  -0.114  -2.593  1.00  0.00    -0.018 SA
HETATM   13 CL1  UNL     1       8.311  -0.399  -0.973  1.00  0.00    -0.038 Cl
ENDBRANCH   8  12
ENDBRANCH   3   5
ENDBRANCH   2   3
BRANCH   2  14
HETATM   14  C8  UNL     1      -0.813   0.229   0.502  1.00  0.00     0.014 C 
HETATM   15  C9  UNL     1      -1.544   1.126  -0.449  1.00  0.00     0.021 C 
HETATM   16  C10 UNL     1      -3.021   1.008  -0.152  1.00  0.00    -0.013 C 
HETATM   17  C11 UNL     1      -3.464  -0.410  -0.449  1.00  0.00     0.009 C 
HETATM   18  C15 UNL     1      -3.350   1.308   1.281  1.00  0.00     0.009 C 
HETATM   19  C12 UNL     1      -2.694  -1.379   0.401  1.00  0.00    -0.013 C 
HETATM   20  C13 UNL     1      -3.049  -1.122   1.846  1.00  0.00     0.009 C 
HETATM   21  C17 UNL     1      -1.222  -1.206   0.153  1.00  0.00     0.021 C 
HETATM   22  C14 UNL     1      -2.652   0.302   2.171  1.00  0.00    -0.013 C 
HETATM   23  C16 UNL     1      -1.181   0.432   1.948  1.00  0.00     0.021 C 
ENDBRANCH   2  14
TORSDOF 4
