REMARK  2 active torsions:
REMARK  status: ('A' for Active; 'I' for Inactive)
REMARK    1  A    between atoms: C2_2  and  C3_4 
REMARK    2  A    between atoms: C5_6  and  C6_8 
ROOT
HETATM    1  C3  UNL     1      -2.054   0.068  -0.388  1.00  0.00     0.065 C 
HETATM    2  C4  UNL     1      -1.793   1.359   0.241  1.00  0.00     0.043 C 
HETATM    3  C5  UNL     1      -0.609   2.233  -0.050  1.00  0.00     0.083 C 
HETATM    4 CL1  UNL     1      -1.074   3.254  -1.513  1.00  0.00    -0.115 Cl
HETATM    5  C7  UNL     1       0.632   1.582  -0.348  1.00  0.00     0.129 C 
HETATM    6  F1  UNL     1       0.405   1.317  -1.758  1.00  0.00    -0.240 F 
HETATM    7  C8  UNL     1       1.970   2.129  -0.489  1.00  0.00     0.047 C 
HETATM    8  C9  UNL     1       2.777   1.112  -1.354  1.00  0.00     0.013 C 
HETATM    9  C10 UNL     1       3.192  -0.106  -0.649  1.00  0.00    -0.035 A 
HETATM   10  C11 UNL     1       4.716  -0.081  -0.335  1.00  0.00     0.016 C 
HETATM   11  C12 UNL     1       2.554  -1.370  -0.358  1.00  0.00    -0.001 A 
HETATM   12  C13 UNL     1       1.433  -2.086  -0.995  1.00  0.00     0.006 C 
HETATM   13  C14 UNL     1       0.388  -2.748  -0.084  1.00  0.00     0.001 C 
HETATM   14  C15 UNL     1      -1.042  -2.291  -0.419  1.00  0.00     0.010 C 
HETATM   15  C16 UNL     1      -1.624  -1.182   0.406  1.00  0.00    -0.034 C 
HETATM   16  C17 UNL     1      -2.928  -1.787   0.936  1.00  0.00     0.016 C 
HETATM   17  C18 UNL     1      -0.922  -0.856   1.664  1.00  0.00     0.010 C 
HETATM   18  C19 UNL     1       0.268   0.013   1.683  1.00  0.00     0.009 C 
HETATM   19  C20 UNL     1       0.923   0.308   0.406  1.00  0.00     0.033 C 
HETATM   20  C21 UNL     1       2.318  -0.183   0.487  1.00  0.00     0.006 A 
ENDROOT
BRANCH   1  21
HETATM   21  C2  UNL     1      -3.495  -0.020  -0.783  1.00  0.00     0.128 C 
HETATM   22  C1  UNL     1      -4.136  -1.118  -1.528  1.00  0.00     0.091 C 
HETATM   23  O1  UNL     1      -4.259   0.908  -0.467  1.00  0.00    -0.298 OA
ENDBRANCH   1  21
BRANCH   3  24
HETATM   24  C6  UNL     1      -0.661   3.322   1.020  1.00  0.00     0.115 C 
HETATM   25  S1  UNL     1       0.664   4.503   0.907  1.00  0.00    -0.096 SA
ENDBRANCH   3  24
TORSDOF 2
