REMARK  3 active torsions:
REMARK  status: ('A' for Active; 'I' for Inactive)
REMARK    1  A    between atoms: O1_2  and  C2_3 
REMARK    2  A    between atoms: C6_8  and  C7_9 
REMARK    3  A    between atoms: N1_12  and  C10_13 
ROOT
HETATM    1  C2  UNL     1       5.573   0.648   0.574  1.00  0.00     0.072 A 
HETATM    2  C3  UNL     1       4.428   1.277   0.974  1.00  0.00     0.061 A 
HETATM    3  C4  UNL     1       3.171   0.687   0.785  1.00  0.00     0.050 A 
HETATM    4 CL1  UNL     1       1.773   1.451   1.468  1.00  0.00    -0.083 Cl
HETATM    5  C5  UNL     1       3.076  -0.547   0.180  1.00  0.00     0.026 A 
HETATM    6  C6  UNL     1       2.019  -1.376  -0.125  1.00  0.00     0.019 A 
HETATM    7  C18 UNL     1       2.666  -2.520  -0.707  1.00  0.00     0.115 A 
HETATM    8 CL2  UNL     1       1.749  -3.909  -1.266  1.00  0.00    -0.064 Cl
HETATM    9  N2  UNL     1       3.973  -2.380  -0.753  1.00  0.00    -0.345 N 
ATOM     10  H2  UNL     1       4.643  -3.054  -1.123  1.00  0.00     0.167 HD
HETATM   11  C19 UNL     1       4.254  -1.189  -0.224  1.00  0.00     0.049 A 
HETATM   12  C20 UNL     1       5.484  -0.600  -0.031  1.00  0.00     0.067 A 
ENDROOT
BRANCH   6  13
HETATM   13  C7  UNL     1       0.583  -1.148  -0.128  1.00  0.00    -0.062 C 
HETATM   14  C8  UNL     1      -0.330  -2.302   0.219  1.00  0.00     0.065 C 
HETATM   15  C9  UNL     1      -1.718  -1.756   0.621  1.00  0.00     0.277 C 
HETATM   16  N1  UNL     1      -2.323  -0.947  -0.408  1.00  0.00     0.093 N 
HETATM   17  C16 UNL     1      -1.365  -0.386  -1.327  1.00  0.00     0.277 C 
HETATM   18  C17 UNL     1      -0.118   0.088  -0.475  1.00  0.00     0.065 C 
BRANCH  16  19
HETATM   19  C10 UNL     1      -3.114   0.083   0.245  1.00  0.00     0.223 C 
HETATM   20  C11 UNL     1      -3.286   1.322  -0.555  1.00  0.00     0.036 C 
HETATM   21  C12 UNL     1      -4.428   2.197  -0.088  1.00  0.00     0.002 C 
HETATM   22  C13 UNL     1      -5.721   1.433  -0.007  1.00  0.00     0.000 C 
HETATM   23  C14 UNL     1      -5.483   0.386   1.079  1.00  0.00     0.002 C 
HETATM   24  C15 UNL     1      -4.424  -0.557   0.629  1.00  0.00     0.036 C 
ENDBRANCH  16  19
ENDBRANCH   6  13
BRANCH   1  25
HETATM   25  O1  UNL     1       6.823   1.216   0.752  1.00  0.00    -0.356 OA
HETATM   26  C1  UNL     1       7.024   2.460   1.345  1.00  0.00     0.210 C 
ENDBRANCH   1  25
TORSDOF 3
