REMARK  3 active torsions:
REMARK  status: ('A' for Active; 'I' for Inactive)
REMARK    1  A    between atoms: C2_2  and  C3_3 
REMARK    2  A    between atoms: C4_4  and  C5_5 
REMARK    3  A    between atoms: C7_10  and  C8_11 
ROOT
HETATM    1  C5  UNL     1      -0.724  -1.168   0.116  1.00  0.00     0.036 C 
HETATM    2  C6  UNL     1      -1.366  -0.884  -1.243  1.00  0.00     0.241 C 
HETATM    3  N1  UNL     1      -1.073   0.527  -1.420  1.00  0.00    -0.064 N 
ATOM      4  H11 UNL     1      -1.629   0.976  -2.147  1.00  0.00     0.278 HD
ATOM      5  H12 UNL     1      -0.162   0.710  -1.840  1.00  0.00     0.278 HD
HETATM    6  C7  UNL     1      -1.244   1.121  -0.088  1.00  0.00     0.247 C 
HETATM    7  C9  UNL     1      -1.190   0.017   0.909  1.00  0.00     0.050 C 
ENDROOT
BRANCH   1   8
HETATM    8  C4  UNL     1       0.724  -1.278  -0.045  1.00  0.00    -0.020 C 
HETATM    9  C3  UNL     1       1.640  -0.461   0.428  1.00  0.00    -0.004 C 
BRANCH   9  10
HETATM   10  C2  UNL     1       3.058  -0.631   0.229  1.00  0.00    -0.011 C 
HETATM   11  C1  UNL     1       3.893   0.239   0.742  1.00  0.00     0.011 C 
ENDBRANCH   9  10
ENDBRANCH   1   8
BRANCH   6  12
HETATM   12  C8  UNL     1      -2.511   1.887  -0.040  1.00  0.00     0.264 C 
HETATM   13  O1  UNL     1      -3.244   1.966  -0.997  1.00  0.00    -0.305 OA
ENDBRANCH   6  12
TORSDOF 3
