REMARK  4 active torsions:
REMARK  status: ('A' for Active; 'I' for Inactive)
REMARK    1  A    between atoms: N1_1  and  N2_4 
REMARK    2  A    between atoms: N2_4  and  N3_5 
REMARK    3  A    between atoms: N3_5  and  C1_7 
REMARK    4  A    between atoms: C1_7  and  C2_8 
ROOT
HETATM    1  C2  UNL     1       0.230   0.152   0.171  1.00  0.00    -0.008 A 
HETATM    2  C3  UNL     1      -0.905   0.260  -0.498  1.00  0.00     0.067 A 
HETATM    3  N4  UNL     1      -1.759   0.567  -1.492  1.00  0.00    -0.300 N 
ATOM      4  H4  UNL     1      -1.501   1.018  -2.370  1.00  0.00     0.187 HD
HETATM    5  N5  UNL     1      -2.992   0.192  -1.155  1.00  0.00    -0.311 N 
ATOM      6  H5  UNL     1      -3.817   0.317  -1.741  1.00  0.00     0.186 HD
HETATM    7  C4  UNL     1      -2.998  -0.369   0.055  1.00  0.00     0.120 A 
HETATM    8  C5  UNL     1      -1.690  -0.332   0.479  1.00  0.00     0.010 A 
HETATM    9  C6  UNL     1      -0.586  -0.469   1.201  1.00  0.00     0.026 A 
ENDROOT
BRANCH   1  10
HETATM   10  C1  UNL     1       1.672   0.510  -0.047  1.00  0.00     0.196 C 
BRANCH  10  11
HETATM   11  N3  UNL     1       2.460  -0.699   0.011  1.00  0.00    -0.248 N 
ATOM     12  H3  UNL     1       2.064  -1.574  -0.333  1.00  0.00     0.197 HD
BRANCH  11  13
HETATM   13  N2  UNL     1       3.592  -0.690   0.465  1.00  0.00    -0.248 NA
BRANCH  13  14
HETATM   14  N1  UNL     1       4.825  -0.723   0.641  1.00  0.00    -0.261 N 
ATOM     15  H12 UNL     1       5.004  -0.865  -0.353  1.00  0.00     0.193 HD
ATOM     16  H11 UNL     1       5.772  -0.715   1.021  1.00  0.00     0.193 HD
ENDBRANCH  13  14
ENDBRANCH  11  13
ENDBRANCH  10  11
ENDBRANCH   1  10
TORSDOF 4
