REMARK  5 active torsions:
REMARK  status: ('A' for Active; 'I' for Inactive)
REMARK    1  A    between atoms: N1_1  and  N2_4 
REMARK    2  A    between atoms: N2_4  and  C1_5 
REMARK    3  A    between atoms: C1_5  and  C2_6 
REMARK    4  A    between atoms: C2_6  and  N3_7 
REMARK    5  A    between atoms: C3_9  and  C4_10 
ROOT
HETATM    1  N3  UNL     1       0.853  -0.316  -0.099  1.00  0.00    -0.391 N 
ATOM      2  H3  UNL     1       0.853   0.702  -0.032  1.00  0.00     0.159 HD
HETATM    3  C3  UNL     1      -0.279  -0.886  -0.055  1.00  0.00     0.114 C 
ENDROOT
BRANCH   1   4
HETATM    4  C2  UNL     1       2.125  -0.943  -0.232  1.00  0.00     0.180 C 
BRANCH   4   5
HETATM    5  C1  UNL     1       3.112   0.115  -0.638  1.00  0.00     0.200 C 
BRANCH   5   6
HETATM    6  N2  UNL     1       3.337   1.027   0.161  1.00  0.00    -0.348 NA
BRANCH   6   7
HETATM    7  N1  UNL     1       3.699   1.798   1.062  1.00  0.00    -0.281 N 
ATOM      8  H12 UNL     1       4.293   1.055   1.431  1.00  0.00     0.191 HD
ATOM      9  H11 UNL     1       3.885   2.552   1.723  1.00  0.00     0.191 HD
ENDBRANCH   6   7
ENDBRANCH   5   6
ENDBRANCH   4   5
ENDBRANCH   1   4
BRANCH   3  10
HETATM   10  C4  UNL     1      -1.475  -0.060   0.085  1.00  0.00     0.063 A 
HETATM   11  C5  UNL     1      -1.528   1.331   0.180  1.00  0.00     0.119 A 
HETATM   12  N4  UNL     1      -2.822   1.674   0.296  1.00  0.00    -0.360 N 
HETATM   13  C6  UNL     1      -3.597   0.573   0.280  1.00  0.00     0.180 A 
ATOM     14  H4  UNL     1      -3.167   2.630   0.383  1.00  0.00     0.166 HD
HETATM   15  N5  UNL     1      -2.764  -0.472   0.151  1.00  0.00    -0.350 N 
ATOM     16  H5  UNL     1      -3.062  -1.447   0.108  1.00  0.00     0.166 HD
ENDBRANCH   3  10
TORSDOF 5
