REMARK  11 active torsions:
REMARK  status: ('A' for Active; 'I' for Inactive)
REMARK    1  A    between atoms: C2_2  and  C4_4 
REMARK    2  A    between atoms: C4_4  and  C5_5 
REMARK    3  A    between atoms: C5_5  and  C6_6 
REMARK    4  A    between atoms: C12_15  and  O4_16 
REMARK    5  A    between atoms: C12_15  and  C13_18 
REMARK    6  A    between atoms: C13_18  and  C14_19 
REMARK    7  A    between atoms: C14_19  and  C15_20 
REMARK    8  A    between atoms: C17_22  and  C18_23 
REMARK    9  A    between atoms: C19_24  and  C20_25 
REMARK   10  A    between atoms: C21_26  and  C23_28 
REMARK   11  A    between atoms: C23_28  and  O5_29 
ROOT
HETATM    1  C6  UNL     1      -2.657   0.450  -0.426  1.00  0.00     0.074 C 
HETATM    2  C7  UNL     1      -2.150   0.263  -1.844  1.00  0.00     0.029 C 
HETATM    3  C8  UNL     1      -3.626  -0.650  -0.126  1.00  0.00     0.153 C 
HETATM    4  O1  UNL     1      -4.242  -1.122  -1.058  1.00  0.00    -0.296 OA
HETATM    5  C9  UNL     1      -3.871  -1.188   1.233  1.00  0.00     0.152 C 
HETATM    6  C10 UNL     1      -3.749  -2.693   1.319  1.00  0.00     0.029 C 
HETATM    7  C11 UNL     1      -2.974  -0.565   2.233  1.00  0.00     0.272 C 
HETATM    8  O2  UNL     1      -2.951  -1.008   3.393  1.00  0.00    -0.264 OA
HETATM    9  O3  UNL     1      -2.185   0.492   1.858  1.00  0.00    -0.282 OA
HETATM   10  C12 UNL     1      -1.548   0.480   0.536  1.00  0.00     0.185 C 
ENDROOT
BRANCH  10  11
HETATM   11  O4  UNL     1      -0.923   1.767   0.518  1.00  0.00    -0.364 OA
ATOM     12  H4  UNL     1      -0.206   1.786   1.140  1.00  0.00     0.213 HD
ENDBRANCH  10  11
BRANCH  10  13
HETATM   13  C13 UNL     1      -0.499  -0.536   0.585  1.00  0.00     0.074 C 
BRANCH  13  14
HETATM   14  C14 UNL     1       0.396  -0.773  -0.585  1.00  0.00     0.039 C 
BRANCH  14  15
HETATM   15  C15 UNL     1       1.411  -1.819  -0.212  1.00  0.00    -0.084 C 
HETATM   16  C16 UNL     1       1.030  -3.192   0.200  1.00  0.00     0.043 C 
HETATM   17  C17 UNL     1       2.689  -1.466  -0.266  1.00  0.00     0.002 C 
BRANCH  17  18
HETATM   18  C18 UNL     1       3.753  -2.402   0.075  1.00  0.00     0.000 C 
HETATM   19  C19 UNL     1       5.026  -2.103   0.038  1.00  0.00     0.000 C 
BRANCH  19  20
HETATM   20  C20 UNL     1       5.603  -0.831  -0.334  1.00  0.00     0.004 C 
HETATM   21  C21 UNL     1       6.873  -0.536  -0.370  1.00  0.00    -0.061 C 
HETATM   22  C22 UNL     1       7.989  -1.452  -0.034  1.00  0.00     0.045 C 
BRANCH  21  23
HETATM   23  C23 UNL     1       7.293   0.857  -0.787  1.00  0.00     0.198 C 
BRANCH  23  24
HETATM   24  O5  UNL     1       8.096   0.705  -1.923  1.00  0.00    -0.397 OA
ATOM     25  H5  UNL     1       8.360   1.579  -2.185  1.00  0.00     0.209 HD
ENDBRANCH  23  24
ENDBRANCH  21  23
ENDBRANCH  19  20
ENDBRANCH  17  18
ENDBRANCH  14  15
ENDBRANCH  13  14
ENDBRANCH  10  13
BRANCH   1  26
HETATM   26  C5  UNL     1      -3.384   1.791  -0.507  1.00  0.00     0.027 C 
BRANCH  26  27
HETATM   27  C4  UNL     1      -4.018   2.292   0.721  1.00  0.00     0.034 C 
BRANCH  27  28
HETATM   28  C2  UNL     1      -4.706   3.620   0.434  1.00  0.00    -0.093 C 
HETATM   29  C1  UNL     1      -4.364   4.728   1.073  1.00  0.00     0.014 C 
HETATM   30  C3  UNL     1      -5.789   3.697  -0.584  1.00  0.00     0.042 C 
ENDBRANCH  27  28
ENDBRANCH  26  27
ENDBRANCH   1  26
TORSDOF 11
