REMARK  9 active torsions:
REMARK  status: ('A' for Active; 'I' for Inactive)
REMARK    1  A    between atoms: C2_2  and  C3_3 
REMARK    2  A    between atoms: C3_3  and  O1_4 
REMARK    3  A    between atoms: O1_4  and  C4_5 
REMARK    4  A    between atoms: C4_5  and  C5_6 
REMARK    5  A    between atoms: C5_6  and  O2_7 
REMARK    6  A    between atoms: O2_7  and  C6_8 
REMARK    7  A    between atoms: C6_8  and  O3_9 
REMARK    8  A    between atoms: O3_9  and  C7_10 
REMARK    9  A    between atoms: C19_22  and  O4_24 
ROOT
HETATM    1  C7  UNL     1       0.829   1.052   0.200  1.00  0.00     0.133 C 
HETATM    2  C8  UNL     1       1.743   2.015   0.878  1.00  0.00     0.071 C 
HETATM    3  C9  UNL     1      -0.140   1.903  -0.631  1.00  0.00     0.065 C 
HETATM    4  C10 UNL     1      -1.310   1.096  -1.094  1.00  0.00     0.041 C 
HETATM    5  C11 UNL     1      -1.981   0.488   0.055  1.00  0.00    -0.052 C 
HETATM    6  C12 UNL     1      -1.292   0.180   1.140  1.00  0.00     0.010 C 
HETATM    7  C13 UNL     1      -2.123  -0.441   2.244  1.00  0.00     0.058 C 
HETATM    8  C14 UNL     1      -2.832  -1.643   1.661  1.00  0.00     0.016 C 
HETATM    9  C15 UNL     1      -3.600  -1.282   0.408  1.00  0.00    -0.036 C 
HETATM   10  C16 UNL     1      -3.178  -2.193  -0.693  1.00  0.00     0.016 C 
HETATM   11  C17 UNL     1      -5.086  -1.490   0.682  1.00  0.00     0.012 C 
HETATM   12  C18 UNL     1      -5.856  -1.156  -0.551  1.00  0.00     0.038 C 
HETATM   13  C19 UNL     1      -5.583   0.197  -1.112  1.00  0.00     0.055 C 
HETATM   14  C20 UNL     1      -6.370   1.241  -0.324  1.00  0.00     0.045 C 
HETATM   15  C21 UNL     1      -4.130   0.567  -1.165  1.00  0.00     0.047 C 
HETATM   16  C22 UNL     1      -3.430   0.179   0.102  1.00  0.00     0.027 C 
HETATM   17  N1  UNL     1       0.071   0.398   1.275  1.00  0.00    -0.362 N 
ATOM     18  H1  UNL     1       0.550   0.102   2.126  1.00  0.00     0.162 HD
ENDROOT
BRANCH   1  19
HETATM   19  O3  UNL     1       1.387   0.082  -0.552  1.00  0.00    -0.337 OA
BRANCH  19  20
HETATM   20  C6  UNL     1       2.187   0.387  -1.592  1.00  0.00     0.341 C 
BRANCH  20  21
HETATM   21  O2  UNL     1       3.360   1.037  -1.318  1.00  0.00    -0.365 OA
BRANCH  21  22
HETATM   22  C5  UNL     1       4.194   0.256  -0.541  1.00  0.00     0.196 C 
BRANCH  22  23
HETATM   23  C4  UNL     1       5.440   1.076  -0.248  1.00  0.00     0.193 C 
BRANCH  23  24
HETATM   24  O1  UNL     1       6.348   0.401   0.524  1.00  0.00    -0.389 OA
BRANCH  24  25
HETATM   25  C3  UNL     1       6.806  -0.767  -0.044  1.00  0.00     0.167 C 
BRANCH  25  26
HETATM   26  C2  UNL     1       7.809  -1.406   0.912  1.00  0.00     0.022 C 
HETATM   27  C1  UNL     1       8.951  -0.425   1.120  1.00  0.00     0.007 C 
ENDBRANCH  25  26
ENDBRANCH  24  25
ENDBRANCH  23  24
ENDBRANCH  22  23
ENDBRANCH  21  22
ENDBRANCH  20  21
ENDBRANCH  19  20
ENDBRANCH   1  19
BRANCH  13  28
HETATM   28  O4  UNL     1      -6.070   0.229  -2.419  1.00  0.00    -0.390 OA
ATOM     29  H4  UNL     1      -5.896   1.092  -2.777  1.00  0.00     0.210 HD
ENDBRANCH  13  28
TORSDOF 9
