REMARK  10 active torsions:
REMARK  status: ('A' for Active; 'I' for Inactive)
REMARK    1  A    between atoms: C3_3  and  C4_4 
REMARK    2  A    between atoms: C4_4  and  C5_5 
REMARK    3  A    between atoms: C11_14  and  O4_15 
REMARK    4  A    between atoms: C11_14  and  C12_17 
REMARK    5  A    between atoms: C12_17  and  C13_18 
REMARK    6  A    between atoms: C13_18  and  C14_19 
REMARK    7  A    between atoms: C17_22  and  C18_23 
REMARK    8  A    between atoms: C18_23  and  O5_24 
REMARK    9  A    between atoms: C18_23  and  C19_26 
REMARK   10  A    between atoms: C19_26  and  C20_27 
ROOT
HETATM    1  C1  UNL     1       1.270   1.350  -3.140  1.00  0.00     0.015 C 
HETATM    2  C2  UNL     1       1.323   0.902  -2.029  1.00  0.00    -0.071 C 
HETATM    3  C3  UNL     1       1.393   0.338  -0.696  1.00  0.00     0.189 C 
HETATM    4  O2  UNL     1       1.692   1.342   0.224  1.00  0.00    -0.208 OA
HETATM    5  O3  UNL     1       0.686   2.111   0.306  1.00  0.00    -0.189 OA
HETATM    6  C11 UNL     1      -0.518   1.416   0.085  1.00  0.00     0.242 C 
HETATM    7  C16 UNL     1      -0.011   0.037  -0.202  1.00  0.00     0.036 C 
HETATM    8  C17 UNL     1      -0.493  -1.146  -0.122  1.00  0.00     0.017 C 
ENDROOT
BRANCH   3   9
HETATM    9  C4  UNL     1       2.320  -0.812  -0.539  1.00  0.00     0.092 C 
BRANCH   9  10
HETATM   10  C5  UNL     1       3.725  -0.405  -0.886  1.00  0.00     0.130 C 
HETATM   11  O1  UNL     1       4.229   0.609  -0.109  1.00  0.00    -0.380 OA
HETATM   12  C6  UNL     1       5.410   0.166   0.480  1.00  0.00     0.122 C 
HETATM   13  C7  UNL     1       5.047  -0.904   1.471  1.00  0.00     0.032 C 
HETATM   14  C10 UNL     1       5.989  -0.706  -0.651  1.00  0.00     0.039 C 
HETATM   15  C8  UNL     1       4.652  -2.118   0.615  1.00  0.00     0.010 C 
HETATM   16  C9  UNL     1       4.704  -1.553  -0.771  1.00  0.00     0.017 C 
ENDBRANCH   9  10
ENDBRANCH   3   9
BRANCH   6  17
HETATM   17  O4  UNL     1      -1.058   1.867  -1.104  1.00  0.00    -0.357 OA
ATOM     18  H4  UNL     1      -1.871   1.398  -1.253  1.00  0.00     0.214 HD
ENDBRANCH   6  17
BRANCH   6  19
HETATM   19  C12 UNL     1      -1.404   1.478   1.254  1.00  0.00     0.044 C 
BRANCH  19  20
HETATM   20  C13 UNL     1      -1.857   2.710   1.886  1.00  0.00    -0.025 C 
BRANCH  20  21
HETATM   21  C14 UNL     1      -2.659   3.723   1.190  1.00  0.00     0.022 C 
HETATM   22  C15 UNL     1      -2.021   4.465   0.090  1.00  0.00     0.009 C 
ENDBRANCH  20  21
ENDBRANCH  19  20
ENDBRANCH   6  19
BRANCH   8  23
HETATM   23  C18 UNL     1      -1.779  -1.690   0.309  1.00  0.00     0.142 C 
BRANCH  23  24
HETATM   24  O5  UNL     1      -1.581  -3.090   0.560  1.00  0.00    -0.392 OA
ATOM     25  H5  UNL     1      -2.417  -3.444   0.840  1.00  0.00     0.210 HD
ENDBRANCH  23  24
BRANCH  23  26
HETATM   26  C19 UNL     1      -2.853  -1.585  -0.759  1.00  0.00     0.039 C 
BRANCH  26  27
HETATM   27  C20 UNL     1      -4.150  -2.177  -0.217  1.00  0.00    -0.020 C 
HETATM   28  C21 UNL     1      -5.253  -2.104  -1.224  1.00  0.00     0.009 C 
HETATM   29  C22 UNL     1      -4.602  -1.417   1.017  1.00  0.00     0.009 C 
ENDBRANCH  26  27
ENDBRANCH  23  26
ENDBRANCH   8  23
TORSDOF 10
