REMARK  11 active torsions:
REMARK  status: ('A' for Active; 'I' for Inactive)
REMARK    1  A    between atoms: C2_2  and  C3_3 
REMARK    2  A    between atoms: C3_3  and  N1_4 
REMARK    3  A    between atoms: N1_4  and  C4_5 
REMARK    4  A    between atoms: N1_4  and  C11_13 
REMARK    5  A    between atoms: C4_5  and  C5_6 
REMARK    6  A    between atoms: C11_13  and  S1_17 
REMARK    7  A    between atoms: S1_17  and  C12_18 
REMARK    8  A    between atoms: C12_18  and  C13_19 
REMARK    9  A    between atoms: C13_19  and  O2_20 
REMARK   10  A    between atoms: C13_19  and  C14_22 
REMARK   11  A    between atoms: C14_22  and  N3_23 
ROOT
HETATM    1  C11 UNL     1       1.405  -1.162  -0.157  1.00  0.00     0.136 C 
HETATM    2  N2  UNL     1       1.152  -0.249  -1.028  1.00  0.00    -0.380 N 
ATOM      3  H21 UNL     1       0.260  -0.251  -1.523  1.00  0.00     0.158 HD
ATOM      4  H22 UNL     1       1.813   0.495  -1.252  1.00  0.00     0.158 HD
ENDROOT
BRANCH   1   5
HETATM    5  N1  UNL     1       2.656  -1.159   0.537  1.00  0.00    -0.354 N 
BRANCH   5   6
HETATM    6  C3  UNL     1       3.307  -2.423   0.774  1.00  0.00     0.151 C 
BRANCH   6   7
HETATM    7  C2  UNL     1       3.291  -2.773   2.233  1.00  0.00    -0.017 C 
HETATM    8  C1  UNL     1       4.419  -2.936   2.871  1.00  0.00     0.008 C 
ENDBRANCH   6   7
ENDBRANCH   5   6
BRANCH   5   9
HETATM    9  C4  UNL     1       3.203   0.095   0.969  1.00  0.00     0.166 C 
BRANCH   9  10
HETATM   10  C5  UNL     1       4.420   0.529   0.233  1.00  0.00    -0.009 A 
HETATM   11  C6  UNL     1       5.047  -0.092  -0.825  1.00  0.00     0.043 A 
HETATM   12  C7  UNL     1       6.131   0.709  -1.177  1.00  0.00     0.050 A 
HETATM   13  C8  UNL     1       7.089   0.388  -2.298  1.00  0.00     0.076 C 
HETATM   14  O1  UNL     1       6.127   1.720  -0.380  1.00  0.00    -0.320 OA
HETATM   15  C9  UNL     1       5.155   1.683   0.473  1.00  0.00     0.057 A 
HETATM   16  C10 UNL     1       4.816   2.666   1.551  1.00  0.00     0.077 C 
ENDBRANCH   9  10
ENDBRANCH   5   9
ENDBRANCH   1   5
BRANCH   1  17
HETATM   17  S1  UNL     1       0.261  -2.448   0.230  1.00  0.00    -0.092 SA
BRANCH  17  18
HETATM   18  C12 UNL     1      -1.276  -2.276  -0.712  1.00  0.00     0.119 C 
BRANCH  18  19
HETATM   19  C13 UNL     1      -2.032  -1.015  -0.276  1.00  0.00     0.166 C 
BRANCH  19  20
HETATM   20  O2  UNL     1      -2.283  -1.216   1.094  1.00  0.00    -0.390 OA
ATOM     21  H2  UNL     1      -2.751  -0.435   1.364  1.00  0.00     0.210 HD
ENDBRANCH  19  20
BRANCH  19  22
HETATM   22  C14 UNL     1      -3.326  -0.911  -1.000  1.00  0.00     0.100 C 
BRANCH  22  23
HETATM   23  N3  UNL     1      -4.204   0.096  -0.648  1.00  0.00    -0.352 N 
HETATM   24  C15 UNL     1      -3.956   1.447  -0.872  1.00  0.00     0.068 C 
HETATM   25  C16 UNL     1      -4.574   2.329   0.184  1.00  0.00     0.045 C 
HETATM   26  C17 UNL     1      -6.046   2.468   0.107  1.00  0.00     0.005 C 
HETATM   27  C18 UNL     1      -6.741   1.607  -0.905  1.00  0.00     0.005 C 
HETATM   28  C19 UNL     1      -6.585   0.134  -0.631  1.00  0.00     0.045 C 
HETATM   29  C20 UNL     1      -5.329  -0.168   0.158  1.00  0.00     0.068 C 
ENDBRANCH  22  23
ENDBRANCH  19  22
ENDBRANCH  18  19
ENDBRANCH  17  18
ENDBRANCH   1  17
TORSDOF 11
