REMARK  8 active torsions:
REMARK  status: ('A' for Active; 'I' for Inactive)
REMARK       I    between atoms: N2_3  and  C2_5 
REMARK    1  A    between atoms: C2_5  and  C3_7 
REMARK    2  A    between atoms: C5_9  and  N3_10 
REMARK    3  A    between atoms: N3_10  and  C6_12 
REMARK    4  A    between atoms: C6_12  and  C7_13 
REMARK    5  A    between atoms: N4_15  and  C9_16 
REMARK    6  A    between atoms: C10_17  and  N5_18 
REMARK    7  A    between atoms: C15_26  and  N7_27 
REMARK    8  A    between atoms: C16_32  and  N9_33 
ROOT
HETATM    1  N1  UNL     1      11.537   1.267   0.349  1.00  0.00    -0.172 NA
HETATM    2  C1  UNL     1      10.434   1.186   0.012  1.00  0.00     0.184 C 
HETATM    3  N2  UNL     1       9.107   1.065  -0.401  1.00  0.00    -0.258 N 
ATOM      4  H2  UNL     1       8.870   1.264  -1.373  1.00  0.00     0.181 HD
HETATM    5  C2  UNL     1       8.082   0.675   0.490  1.00  0.00     0.283 C 
HETATM    6  O1  UNL     1       8.350   0.427   1.697  1.00  0.00    -0.265 OA
ENDROOT
BRANCH   5   7
HETATM    7  C3  UNL     1       6.718   0.563   0.007  1.00  0.00     0.127 A 
HETATM    8  C4  UNL     1       5.629   0.205   0.772  1.00  0.00     0.095 A 
HETATM    9  C5  UNL     1       4.543   0.221  -0.106  1.00  0.00     0.168 A 
HETATM   10  O3  UNL     1       4.993   0.568  -1.296  1.00  0.00    -0.220 OA
HETATM   11  N12 UNL     1       6.265   0.769  -1.231  1.00  0.00    -0.254 N 
ATOM     12  H12 UNL     1       6.847   1.048  -2.021  1.00  0.00     0.195 HD
BRANCH   9  13
HETATM   13  N3  UNL     1       3.206  -0.078   0.218  1.00  0.00    -0.363 N 
ATOM     14  H3  UNL     1       2.975  -0.323   1.181  1.00  0.00     0.162 HD
BRANCH  13  15
HETATM   15  C6  UNL     1       2.162  -0.049  -0.757  1.00  0.00     0.181 C 
BRANCH  15  16
HETATM   16  C7  UNL     1       0.861  -0.439  -0.169  1.00  0.00     0.062 A 
HETATM   17  C8  UNL     1      -0.268  -0.839  -0.845  1.00  0.00     0.146 A 
HETATM   18  N4  UNL     1      -1.239  -1.107   0.073  1.00  0.00    -0.244 N 
HETATM   19  N10 UNL     1      -0.700  -0.872   1.252  1.00  0.00    -0.236 N 
HETATM   20  N11 UNL     1       0.565  -0.468   1.129  1.00  0.00    -0.287 N 
ATOM     21  H10 UNL     1      -1.186  -0.984   2.142  1.00  0.00     0.209 HD
ATOM     22  H11 UNL     1       1.194  -0.224   1.894  1.00  0.00     0.188 HD
BRANCH  18  23
HETATM   23  C9  UNL     1      -2.540  -1.558  -0.296  1.00  0.00     0.145 A 
HETATM   24  C10 UNL     1      -3.633  -0.726  -0.224  1.00  0.00     0.152 A 
HETATM   25  N6  UNL     1      -4.844  -1.225  -0.609  1.00  0.00    -0.174 N 
HETATM   26  C15 UNL     1      -5.041  -2.469  -1.052  1.00  0.00     0.679 A 
ATOM     27  H6  UNL     1      -5.653  -0.606  -0.555  1.00  0.00     0.186 HD
HETATM   28  N8  UNL     1      -3.969  -3.288  -1.122  1.00  0.00    -0.175 N 
HETATM   29  C16 UNL     1      -2.756  -2.845  -0.755  1.00  0.00     0.147 A 
ATOM     30  H8  UNL     1      -4.081  -4.246  -1.455  1.00  0.00     0.186 HD
BRANCH  24  31
HETATM   31  N5  UNL     1      -3.510   0.597   0.240  1.00  0.00    -0.361 N 
HETATM   32  C11 UNL     1      -2.997   1.613  -0.650  1.00  0.00     0.150 C 
HETATM   33  C12 UNL     1      -3.909   2.831  -0.413  1.00  0.00     0.187 C 
HETATM   34  O2  UNL     1      -3.608   3.259   0.858  1.00  0.00    -0.388 OA
HETATM   35  C13 UNL     1      -4.045   2.407   1.837  1.00  0.00     0.187 C 
HETATM   36  C14 UNL     1      -3.907   0.950   1.562  1.00  0.00     0.150 C 
ENDBRANCH  24  31
BRANCH  26  37
HETATM   37  N7  UNL     1      -6.195  -2.923  -1.411  1.00  0.00    -0.234 N 
ATOM     38  H72 UNL     1      -7.004  -2.305  -1.358  1.00  0.00     0.174 HD
ATOM     39  H71 UNL     1      -6.346  -3.873  -1.749  1.00  0.00     0.174 HD
ENDBRANCH  26  37
BRANCH  29  40
HETATM   40  N9  UNL     1      -1.759  -3.653  -0.833  1.00  0.00    -0.383 N 
ATOM     41  H92 UNL     1      -0.837  -3.316  -0.554  1.00  0.00     0.157 HD
ATOM     42  H91 UNL     1      -1.918  -4.602  -1.171  1.00  0.00     0.157 HD
ENDBRANCH  29  40
ENDBRANCH  18  23
ENDBRANCH  15  16
ENDBRANCH  13  15
ENDBRANCH   9  13
ENDBRANCH   5   7
TORSDOF 8
