REMARK  8 active torsions:
REMARK  status: ('A' for Active; 'I' for Inactive)
REMARK    1  A    between atoms: N2_3  and  S1_5 
REMARK    2  A    between atoms: S1_5  and  C2_8 
REMARK    3  A    between atoms: C4_10  and  N3_11 
REMARK    4  A    between atoms: C7_16  and  N4_17 
REMARK    5  A    between atoms: N4_17  and  N5_19 
REMARK    6  A    between atoms: N5_19  and  N6_21 
REMARK    7  A    between atoms: N6_21  and  C8_23 
REMARK    8  A    between atoms: C9_24  and  C10_25 
REMARK       I    between atoms: C10_25  and  N7_27 
REMARK       I    between atoms: N7_27  and  C11_29 
ROOT
HETATM    1  N1  UNL     1      -3.859   3.211   3.093  1.00  0.00    -0.171 NA
HETATM    2  C1  UNL     1      -3.450   3.186   2.012  1.00  0.00     0.192 C 
HETATM    3  N2  UNL     1      -2.962   3.134   0.668  1.00  0.00    -0.216 N 
ATOM      4  H2  UNL     1      -2.296   3.821   0.314  1.00  0.00     0.191 HD
ENDROOT
BRANCH   3   5
HETATM    5  S1  UNL     1      -3.544   1.876  -0.307  1.00  0.00     0.273 S 
HETATM    6  O1  UNL     1      -5.044   1.954  -0.444  1.00  0.00    -0.200 OA
HETATM    7  O2  UNL     1      -2.956   2.069  -1.699  1.00  0.00    -0.200 OA
BRANCH   5   8
HETATM    8  C2  UNL     1      -3.126   0.293   0.297  1.00  0.00     0.110 A 
HETATM    9  C3  UNL     1      -4.059  -0.538   0.844  1.00  0.00     0.063 A 
HETATM   10  C4  UNL     1      -3.667  -1.799   1.320  1.00  0.00     0.104 A 
HETATM   11  C5  UNL     1      -2.356  -2.225   1.246  1.00  0.00     0.038 A 
HETATM   12  C6  UNL     1      -1.416  -1.392   0.694  1.00  0.00     0.035 A 
HETATM   13  C7  UNL     1      -1.782  -0.122   0.212  1.00  0.00     0.073 A 
BRANCH  10  14
HETATM   14  N3  UNL     1      -4.627  -2.657   1.922  1.00  0.00    -0.116 N 
HETATM   15  O3  UNL     1      -4.291  -3.757   2.409  1.00  0.00    -0.532 OA
HETATM   16  O4  UNL     1      -5.939  -2.283   1.993  1.00  0.00    -0.532 OA
ENDBRANCH  10  14
BRANCH  13  17
HETATM   17  N4  UNL     1      -0.790   0.693  -0.365  1.00  0.00    -0.285 N 
ATOM     18  H4  UNL     1      -0.603   0.616  -1.365  1.00  0.00     0.188 HD
BRANCH  17  19
HETATM   19  N5  UNL     1      -0.060   1.598   0.390  1.00  0.00    -0.242 N 
ATOM     20  H5  UNL     1      -0.404   1.854   1.316  1.00  0.00     0.208 HD
BRANCH  19  21
HETATM   21  N6  UNL     1       1.036   2.129  -0.032  1.00  0.00    -0.278 N 
ATOM     22  H6  UNL     1       1.530   2.788   0.570  1.00  0.00     0.189 HD
BRANCH  21  23
HETATM   23  C8  UNL     1       1.579   1.822  -1.318  1.00  0.00     0.161 A 
HETATM   24  C9  UNL     1       2.696   0.995  -1.486  1.00  0.00     0.157 A 
HETATM   25  N10 UNL     1       2.867   0.912  -2.841  1.00  0.00    -0.249 N 
HETATM   26  O6  UNL     1       1.962   1.601  -3.440  1.00  0.00    -0.193 OA
ATOM     27  H10 UNL     1       3.603   0.382  -3.307  1.00  0.00     0.195 HD
HETATM   28  C12 UNL     1       1.163   2.172  -2.583  1.00  0.00     0.335 A 
HETATM   29  O7  UNL     1       0.163   2.928  -2.841  1.00  0.00    -0.255 OA
BRANCH  24  30
HETATM   30  C10 UNL     1       3.589   0.415  -0.475  1.00  0.00     0.279 C 
HETATM   31  O5  UNL     1       3.803   0.792   0.633  1.00  0.00    -0.265 OA
HETATM   32  N7  UNL     1       4.311  -0.835  -0.962  1.00  0.00    -0.296 N 
HETATM   33  C11 UNL     1       5.129  -1.444  -0.190  1.00  0.00     0.188 C 
ATOM     34  H7  UNL     1       4.142  -1.187  -1.904  1.00  0.00     0.171 HD
HETATM   35  N8  UNL     1       5.984  -2.080   0.616  1.00  0.00    -0.373 N 
HETATM   36  N9  UNL     1       5.335  -2.814  -1.256  1.00  0.00    -0.064 NA
ATOM     37  H82 UNL     1       5.864  -1.281   1.238  1.00  0.00     0.158 HD
ATOM     38  H81 UNL     1       6.636  -2.566   1.232  1.00  0.00     0.158 HD
ENDBRANCH  24  30
ENDBRANCH  21  23
ENDBRANCH  19  21
ENDBRANCH  17  19
ENDBRANCH  13  17
ENDBRANCH   5   8
ENDBRANCH   3   5
TORSDOF 8
