REMARK  10 active torsions:
REMARK  status: ('A' for Active; 'I' for Inactive)
REMARK    1  A    between atoms: C2_3  and  N2_4 
REMARK    2  A    between atoms: C3_6  and  O1_7 
REMARK    3  A    between atoms: C3_6  and  C4_9 
REMARK    4  A    between atoms: C4_9  and  S1_10 
REMARK    5  A    between atoms: S1_10  and  C5_11 
REMARK    6  A    between atoms: N4_19  and  C9_20 
REMARK    7  A    between atoms: C10_26  and  N7_27 
REMARK    8  A    between atoms: C12_31  and  N8_32 
REMARK    9  A    between atoms: C13_35  and  C14_36 
REMARK   10  A    between atoms: C14_36  and  N9_37 
ROOT
HETATM    1  C4  UNL     1      -0.644  -0.021   1.013  1.00  0.00     0.165 C 
ENDROOT
BRANCH   1   2
HETATM    2  C3  UNL     1      -0.029   0.519  -0.244  1.00  0.00     0.126 C 
HETATM    3  N2  UNL     1       1.195   0.589  -0.719  1.00  0.00    -0.326 N 
ATOM      4  H2  UNL     1       1.248   1.013  -1.645  1.00  0.00     0.169 HD
BRANCH   3   5
HETATM    5  C2  UNL     1       2.480   0.187  -0.195  1.00  0.00     0.111 A 
HETATM    6  N1  UNL     1       3.703   0.392  -0.769  1.00  0.00    -0.337 N 
HETATM    7  C1  UNL     1       3.840   0.723  -2.196  1.00  0.00     0.158 C 
HETATM    8  C13 UNL     1       4.700   0.039   0.063  1.00  0.00     0.071 A 
HETATM    9  C12 UNL     1       3.996  -0.464   1.223  1.00  0.00     0.130 A 
HETATM   10  C11 UNL     1       2.716  -0.330   1.036  1.00  0.00     0.086 A 
BRANCH   8  11
HETATM   11  C14 UNL     1       6.138  -0.006  -0.127  1.00  0.00     0.289 C 
BRANCH  11  12
HETATM   12  N9  UNL     1       6.607   1.392  -0.474  1.00  0.00    -0.074 N 
ATOM     13  H93 UNL     1       6.115   1.786  -1.276  1.00  0.00     0.274 HD
ATOM     14  H92 UNL     1       6.321   2.087   0.216  1.00  0.00     0.274 HD
ATOM     15  H91 UNL     1       7.618   1.360  -0.608  1.00  0.00     0.274 HD
ENDBRANCH  11  12
ENDBRANCH   8  11
BRANCH   9  16
HETATM   16  N8  UNL     1       4.734  -0.905   2.351  1.00  0.00    -0.113 N 
HETATM   17  O5  UNL     1       5.869  -0.526   2.625  1.00  0.00    -0.532 OA
HETATM   18  O6  UNL     1       4.146  -1.822   3.222  1.00  0.00    -0.532 OA
ENDBRANCH   9  16
ENDBRANCH   3   5
BRANCH   2  19
HETATM   19  O1  UNL     1      -1.009   1.044  -0.990  1.00  0.00    -0.349 OA
ATOM     20  H1  UNL     1      -1.893   0.993  -0.647  1.00  0.00     0.219 HD
ENDBRANCH   2  19
ENDBRANCH   1   2
BRANCH   1  21
HETATM   21  S1  UNL     1      -2.399   0.153   1.066  1.00  0.00    -0.103 SA
BRANCH  21  22
HETATM   22  C5  UNL     1      -3.368  -0.972   0.168  1.00  0.00     0.088 A 
HETATM   23  C6  UNL     1      -2.990  -2.062  -0.537  1.00  0.00     0.112 A 
HETATM   24  C7  UNL     1      -3.907  -2.862  -1.137  1.00  0.00     0.251 A 
HETATM   25  O2  UNL     1      -3.468  -3.867  -1.793  1.00  0.00    -0.268 OA
HETATM   26  N3  UNL     1      -5.231  -2.622  -1.070  1.00  0.00    -0.275 N 
HETATM   27  C8  UNL     1      -5.635  -1.534  -0.394  1.00  0.00     0.336 A 
ATOM     28  H3  UNL     1      -5.903  -3.245  -1.517  1.00  0.00     0.173 HD
HETATM   29  O3  UNL     1      -6.865  -1.277  -0.306  1.00  0.00    -0.246 OA
HETATM   30  N4  UNL     1      -4.740  -0.739   0.197  1.00  0.00    -0.238 N 
BRANCH  30  31
HETATM   31  C9  UNL     1      -5.135   0.463   0.857  1.00  0.00     0.185 A 
HETATM   32  N5  UNL     1      -5.581   0.650   2.081  1.00  0.00    -0.221 N 
HETATM   33  O4  UNL     1      -5.760   1.918   2.260  1.00  0.00    -0.153 OA
ATOM     34  H5  UNL     1      -5.756  -0.081   2.771  1.00  0.00     0.198 HD
HETATM   35  N6  UNL     1      -5.433   2.572   1.229  1.00  0.00    -0.222 N 
HETATM   36  C10 UNL     1      -5.021   1.714   0.256  1.00  0.00     0.168 A 
ATOM     37  H6  UNL     1      -5.472   3.587   1.140  1.00  0.00     0.198 HD
BRANCH  36  38
HETATM   38  N7  UNL     1      -4.679   1.941  -0.973  1.00  0.00    -0.381 N 
ATOM     39  H72 UNL     1      -4.370   1.298  -1.702  1.00  0.00     0.157 HD
ATOM     40  H71 UNL     1      -4.595   2.857  -1.413  1.00  0.00     0.157 HD
ENDBRANCH  36  38
ENDBRANCH  30  31
ENDBRANCH  21  22
ENDBRANCH   1  21
TORSDOF 10
