REMARK  2 active torsions:
REMARK  status: ('A' for Active; 'I' for Inactive)
REMARK    1  A    between atoms: C7_9  and  C8_10 
REMARK    2  A    between atoms: C8_10  and  N2_11 
ROOT
HETATM    1  C1  UNL     1       0.078  -1.673  -0.707  1.00  0.00     0.026 C 
HETATM    2  C2  UNL     1      -0.443  -0.522  -0.352  1.00  0.00    -0.010 A 
HETATM    3  C3  UNL     1      -1.828  -0.292  -0.358  1.00  0.00    -0.028 A 
HETATM    4  C4  UNL     1      -2.874  -1.265  -0.748  1.00  0.00     0.051 C 
HETATM    5  C5  UNL     1      -2.037   0.992   0.061  1.00  0.00     0.012 A 
HETATM    6  C6  UNL     1      -3.368   1.692   0.217  1.00  0.00     0.068 C 
HETATM    7  N1  UNL     1      -0.843   1.509   0.307  1.00  0.00    -0.358 N 
ATOM      8  H1  UNL     1      -0.701   2.464   0.637  1.00  0.00     0.166 HD
HETATM    9  C7  UNL     1       0.180   0.634   0.074  1.00  0.00     0.058 A 
ENDROOT
BRANCH   9  10
HETATM   10  C8  UNL     1       1.456   0.900   0.240  1.00  0.00     0.115 C 
BRANCH  10  11
HETATM   11  N2  UNL     1       2.555   0.088   0.032  1.00  0.00    -0.397 N 
HETATM   12  C9  UNL     1       3.235   0.065  -1.259  1.00  0.00     0.148 C 
HETATM   13  C10 UNL     1       3.077  -0.734   1.142  1.00  0.00     0.148 C 
ENDBRANCH  10  11
ENDBRANCH   9  10
TORSDOF 2
