REMARK  3 active torsions:
REMARK  status: ('A' for Active; 'I' for Inactive)
REMARK    1  A    between atoms: N2_3  and  C2_4 
REMARK    2  A    between atoms: N2_3  and  C5_7 
REMARK    3  A    between atoms: C5_7  and  N3_9 
ROOT
HETATM    1  C1  UNL     1      -1.896  -2.431   1.229  1.00  0.00     0.258 C 
HETATM    2  N1  UNL     1      -1.282  -1.550   0.770  1.00  0.00    -0.345 NA
HETATM    3  N2  UNL     1      -0.548  -0.549   0.251  1.00  0.00    -0.190 N 
ENDROOT
BRANCH   3   4
HETATM    4  C2  UNL     1      -1.166   0.434  -0.631  1.00  0.00     0.259 C 
HETATM    5  C3  UNL     1      -2.632   0.347  -0.443  1.00  0.00    -0.095 C 
HETATM    6  C4  UNL     1      -3.817   0.263  -0.264  1.00  0.00     0.014 C 
ENDBRANCH   3   4
BRANCH   3   7
HETATM    7  C5  UNL     1       0.837  -0.484   0.542  1.00  0.00     0.211 C 
HETATM    8  S1  UNL     1       1.547  -1.632   1.491  1.00  0.00    -0.038 SA
BRANCH   7   9
HETATM    9  N3  UNL     1       1.700   0.543   0.053  1.00  0.00    -0.291 N 
HETATM   10  C6  UNL     1       3.061   0.604   0.374  1.00  0.00     0.001 C 
HETATM   11  C7  UNL     1       4.234   0.688   0.667  1.00  0.00     0.037 C 
ATOM     12  H3  UNL     1       1.308   1.262  -0.555  1.00  0.00     0.178 HD
ENDBRANCH   7   9
ENDBRANCH   3   7
TORSDOF 3
