REMARK  7 active torsions:
REMARK  status: ('A' for Active; 'I' for Inactive)
REMARK    1  A    between atoms: N2_3  and  C2_5 
REMARK    2  A    between atoms: C2_5  and  N3_6 
REMARK    3  A    between atoms: N3_6  and  C3_9 
REMARK    4  A    between atoms: C3_9  and  N4_10 
REMARK    5  A    between atoms: C3_9  and  C4_14 
REMARK       I    between atoms: C4_14  and  N5_16 
REMARK    6  A    between atoms: N5_16  and  N6_18 
REMARK    7  A    between atoms: C5_20  and  C6_21 
ROOT
HETATM    1  N1  UNL     1       7.176  -1.021   0.932  1.00  0.00    -0.172 NA
HETATM    2  C1  UNL     1       6.274  -1.279   0.223  1.00  0.00     0.178 C 
HETATM    3  N2  UNL     1       5.221  -1.603  -0.619  1.00  0.00    -0.304 N 
ATOM      4  H2  UNL     1       5.375  -2.178  -1.447  1.00  0.00     0.173 HD
ENDROOT
BRANCH   3   5
HETATM    5  C2  UNL     1       3.893  -1.106  -0.297  1.00  0.00     0.367 C 
BRANCH   5   6
HETATM    6  N3  UNL     1       3.855   0.330  -0.253  1.00  0.00    -0.021 N 
ATOM      7  H32 UNL     1       4.545   0.707   0.397  1.00  0.00     0.282 HD
ATOM      8  H31 UNL     1       4.213   0.745  -1.113  1.00  0.00     0.282 HD
BRANCH   6   9
HETATM    9  C3  UNL     1       2.546   0.786   0.046  1.00  0.00     0.474 C 
BRANCH   9  10
HETATM   10  N4  UNL     1       2.524   2.243   0.291  1.00  0.00    -0.041 N 
ATOM     11  H43 UNL     1       3.188   2.509   1.018  1.00  0.00     0.277 HD
ATOM     12  H42 UNL     1       2.930   2.759  -0.489  1.00  0.00     0.277 HD
ATOM     13  H41 UNL     1       1.582   2.571   0.506  1.00  0.00     0.277 HD
ENDBRANCH   9  10
BRANCH   9  14
HETATM   14  C4  UNL     1       1.504   0.524  -0.956  1.00  0.00     0.294 C 
HETATM   15  O1  UNL     1       1.796  -0.028  -2.032  1.00  0.00    -0.267 OA
HETATM   16  N5  UNL     1       0.182   0.906  -0.680  1.00  0.00    -0.267 N 
ATOM     17  H5  UNL     1      -0.049   1.359   0.204  1.00  0.00     0.190 HD
BRANCH  16  18
HETATM   18  N6  UNL     1      -0.802   0.662  -1.617  1.00  0.00    -0.313 N 
HETATM   19  C5  UNL     1      -2.006   0.335  -1.431  1.00  0.00     0.084 C 
ATOM     20  H6  UNL     1      -0.517   0.759  -2.592  1.00  0.00     0.185 HD
BRANCH  19  21
HETATM   21  C6  UNL     1      -2.531   0.166  -0.056  1.00  0.00     0.025 C 
HETATM   22  C7  UNL     1      -3.730   1.046   0.144  1.00  0.00     0.010 C 
HETATM   23  C8  UNL     1      -4.865   0.099   0.522  1.00  0.00     0.001 C 
HETATM   24  C9  UNL     1      -4.119  -1.070   1.178  1.00  0.00     0.001 C 
HETATM   25  C10 UNL     1      -2.989  -1.250   0.203  1.00  0.00     0.010 C 
ENDBRANCH  19  21
ENDBRANCH  16  18
ENDBRANCH   9  14
ENDBRANCH   6   9
ENDBRANCH   5   6
ENDBRANCH   3   5
TORSDOF 7
