REMARK  5 active torsions:
REMARK  status: ('A' for Active; 'I' for Inactive)
REMARK    1  A    between atoms: N1_1  and  C1_4 
REMARK    2  A    between atoms: N3_7  and  C2_8 
REMARK    3  A    between atoms: C2_8  and  C3_9 
REMARK    4  A    between atoms: C3_9  and  N4_10 
REMARK       I    between atoms: N4_10  and  C4_12 
REMARK    5  A    between atoms: N7_20  and  C8_21 
ROOT
HETATM    1  C1  UNL     1      -2.534   2.037  -0.364  1.00  0.00     0.145 A 
HETATM    2  N2  UNL     1      -1.387   1.940   0.278  1.00  0.00    -0.280 N 
ATOM      3  H2  UNL     1      -0.890   2.736   0.678  1.00  0.00     0.189 HD
HETATM    4  N3  UNL     1      -0.948   0.671   0.345  1.00  0.00    -0.271 N 
HETATM    5  C5  UNL     1      -1.883  -0.079  -0.298  1.00  0.00     0.163 A 
HETATM    6  C6  UNL     1      -2.883   0.758  -0.749  1.00  0.00     0.125 A 
HETATM    7  N6  UNL     1      -3.818   0.060  -1.384  1.00  0.00    -0.346 N 
ATOM      8  H6  UNL     1      -4.668   0.421  -1.817  1.00  0.00     0.167 HD
HETATM    9  C7  UNL     1      -3.418  -1.205  -1.338  1.00  0.00     0.193 A 
HETATM   10  N7  UNL     1      -2.223  -1.325  -0.673  1.00  0.00    -0.268 N 
ENDROOT
BRANCH   4  11
HETATM   11  C2  UNL     1       0.264   0.221   0.971  1.00  0.00     0.170 C 
BRANCH  11  12
HETATM   12  C3  UNL     1       1.461   0.216   0.031  1.00  0.00     0.145 C 
BRANCH  12  13
HETATM   13  N4  UNL     1       2.623  -0.247   0.741  1.00  0.00    -0.344 N 
HETATM   14  C4  UNL     1       3.849  -0.325   0.033  1.00  0.00     0.328 C 
HETATM   15  N5  UNL     1       4.992  -0.782   0.742  1.00  0.00    -0.040 NA
HETATM   16  O1  UNL     1       3.943  -0.002  -1.188  1.00  0.00    -0.251 OA
ATOM     17  H4  UNL     1       2.567  -0.511   1.725  1.00  0.00     0.163 HD
ENDBRANCH  12  13
ENDBRANCH  11  12
ENDBRANCH   4  11
BRANCH   1  18
HETATM   18  N1  UNL     1      -3.240   3.088  -0.616  1.00  0.00    -0.382 N 
ATOM     19  H12 UNL     1      -2.982   4.033  -0.332  1.00  0.00     0.157 HD
ATOM     20  H11 UNL     1      -4.128   3.163  -1.113  1.00  0.00     0.157 HD
ENDBRANCH   1  18
BRANCH  10  21
HETATM   21  C8  UNL     1      -1.529  -2.526  -0.451  1.00  0.00     0.362 C 
HETATM   22  O2  UNL     1      -0.466  -2.735   0.125  1.00  0.00    -0.283 OA
ENDBRANCH  10  21
TORSDOF 5
