REMARK  7 active torsions:
REMARK  status: ('A' for Active; 'I' for Inactive)
REMARK    1  A    between atoms: N1_1  and  C1_4 
REMARK    2  A    between atoms: C1_4  and  C2_5 
REMARK    3  A    between atoms: C2_5  and  C3_6 
REMARK    4  A    between atoms: C3_6  and  N2_7 
REMARK       I    between atoms: N2_7  and  C4_9 
REMARK    5  A    between atoms: C4_9  and  C5_11 
REMARK    6  A    between atoms: C6_12  and  C7_13 
REMARK    7  A    between atoms: C7_13  and  C8_15 
ROOT
HETATM    1  C5  UNL     1       0.370   0.224  -0.580  1.00  0.00     0.077 C 
HETATM    2  C6  UNL     1      -0.884   0.063  -0.422  1.00  0.00     0.057 C 
ENDROOT
BRANCH   1   3
HETATM    3  C4  UNL     1       1.536  -0.316   0.014  1.00  0.00     0.241 C 
HETATM    4  N2  UNL     1       2.840   0.140  -0.505  1.00  0.00    -0.357 N 
ATOM      5  H2  UNL     1       2.888   0.802  -1.279  1.00  0.00     0.162 HD
HETATM    6  O1  UNL     1       1.566  -1.108   0.917  1.00  0.00    -0.269 OA
BRANCH   4   7
HETATM    7  C3  UNL     1       4.042  -0.367   0.101  1.00  0.00     0.136 C 
BRANCH   7   8
HETATM    8  C2  UNL     1       5.228   0.141  -0.605  1.00  0.00     0.123 C 
BRANCH   8   9
HETATM    9  C1  UNL     1       6.227   0.574   0.121  1.00  0.00    -0.076 C 
BRANCH   9  10
HETATM   10  N1  UNL     1       7.424   0.772   0.641  1.00  0.00    -0.370 N 
ATOM     11  H12 UNL     1       7.883   0.101   0.025  1.00  0.00     0.165 HD
ATOM     12  H11 UNL     1       8.203   1.109   1.207  1.00  0.00     0.165 HD
ENDBRANCH   9  10
ENDBRANCH   8   9
ENDBRANCH   7   8
ENDBRANCH   4   7
ENDBRANCH   1   3
BRANCH   2  13
HETATM   13  C7  UNL     1      -1.561  -0.833   0.476  1.00  0.00     0.172 C 
HETATM   14  O2  UNL     1      -1.056  -1.682   1.146  1.00  0.00    -0.291 OA
BRANCH  13  15
HETATM   15  C8  UNL     1      -3.072  -0.659   0.551  1.00  0.00     0.190 C 
HETATM   16  C9  UNL     1      -3.379   0.600   1.277  1.00  0.00     0.151 C 
HETATM   17  N3  UNL     1      -4.780   0.937   1.172  1.00  0.00    -0.383 N 
HETATM   18  C10 UNL     1      -5.328   0.731  -0.016  1.00  0.00     0.189 C 
ATOM     19  H3  UNL     1      -5.311   1.308   1.960  1.00  0.00     0.160 HD
HETATM   20  N4  UNL     1      -4.533   0.212  -1.049  1.00  0.00    -0.299 N 
HETATM   21  N5  UNL     1      -3.631  -0.845  -0.737  1.00  0.00    -0.126 NA
ATOM     22  H4  UNL     1      -4.599   0.582  -1.997  1.00  0.00     0.183 HD
ENDBRANCH  13  15
ENDBRANCH   2  13
TORSDOF 7
