REMARK  7 active torsions:
REMARK  status: ('A' for Active; 'I' for Inactive)
REMARK    1  A    between atoms: N1_1  and  N2_4 
REMARK    2  A    between atoms: N2_4  and  C1_6 
REMARK    3  A    between atoms: C1_6  and  C5_16 
REMARK    4  A    between atoms: C2_7  and  O1_8 
REMARK    5  A    between atoms: C2_7  and  C3_10 
REMARK    6  A    between atoms: C3_10  and  O2_11 
REMARK    7  A    between atoms: C3_10  and  C4_13 
ROOT
HETATM    1  C1  UNL     1      -0.746  -0.698  -0.049  1.00  0.00     0.090 C 
HETATM    2  C2  UNL     1       0.549  -0.651   0.479  1.00  0.00     0.109 C 
ENDROOT
BRANCH   1   3
HETATM    3  N2  UNL     1      -1.226  -1.875  -0.463  1.00  0.00    -0.304 N 
ATOM      4  H2  UNL     1      -2.172  -1.884  -0.844  1.00  0.00     0.186 HD
BRANCH   3   5
HETATM    5  N1  UNL     1      -0.560  -3.066  -0.420  1.00  0.00    -0.345 N 
ATOM      6  H12 UNL     1       0.384  -3.038  -0.036  1.00  0.00     0.176 HD
ATOM      7  H11 UNL     1      -0.926  -3.964  -0.736  1.00  0.00     0.176 HD
ENDBRANCH   3   5
ENDBRANCH   1   3
BRANCH   1   8
HETATM    8  C5  UNL     1      -1.744   0.417  -0.201  1.00  0.00     0.002 A 
HETATM    9  C6  UNL     1      -2.979   0.182  -0.756  1.00  0.00     0.021 A 
HETATM   10  C7  UNL     1      -3.845   1.232  -0.842  1.00  0.00     0.050 A 
HETATM   11  S1  UNL     1      -2.987   2.524  -0.175  1.00  0.00    -0.113 SA
HETATM   12  C8  UNL     1      -1.531   1.702   0.205  1.00  0.00     0.063 A 
ENDBRANCH   1   8
BRANCH   2  13
HETATM   13  O1  UNL     1       1.156  -1.822   0.544  1.00  0.00    -0.359 OA
ATOM     14  H1  UNL     1       2.035  -1.790   0.902  1.00  0.00     0.217 HD
ENDBRANCH   2  13
BRANCH   2  15
HETATM   15  C3  UNL     1       1.367   0.437   0.975  1.00  0.00     0.265 C 
BRANCH  15  16
HETATM   16  O2  UNL     1       2.438  -0.133   1.804  1.00  0.00    -0.380 OA
ATOM     17  H2  UNL     1       2.974   0.580   2.129  1.00  0.00     0.211 HD
ENDBRANCH  15  16
BRANCH  15  18
HETATM   18  C4  UNL     1       2.177   1.097  -0.108  1.00  0.00     0.266 C 
HETATM   19  N3  UNL     1       3.605   1.088  -0.042  1.00  0.00    -0.059 NA
HETATM   20  O3  UNL     1       1.683   1.673  -1.094  1.00  0.00    -0.274 OA
ENDBRANCH  15  18
ENDBRANCH   2  15
TORSDOF 7
