REMARK  6 active torsions:
REMARK  status: ('A' for Active; 'I' for Inactive)
REMARK    1  A    between atoms: N1_1  and  N2_4 
REMARK       I    between atoms: C1_6  and  N3_7 
REMARK       I    between atoms: C1_6  and  N5_12 
REMARK    2  A    between atoms: N3_7  and  N4_9 
REMARK    3  A    between atoms: N5_12  and  O1_14 
REMARK    4  A    between atoms: O1_14  and  C2_15 
REMARK    5  A    between atoms: C2_15  and  C3_16 
REMARK    6  A    between atoms: C8_21  and  N6_22 
ROOT
HETATM    1  N2  UNL     1       2.547   0.520  -0.653  1.00  0.00    -0.136 N 
ATOM      2  H2  UNL     1       1.687   0.942  -1.004  1.00  0.00     0.205 HD
HETATM    3  C1  UNL     1       2.463  -0.555  -0.023  1.00  0.00     0.730 C 
HETATM    4  N3  UNL     1       3.744  -1.077   0.443  1.00  0.00    -0.136 N 
ATOM      5  H3  UNL     1       4.268  -1.766  -0.096  1.00  0.00     0.205 HD
HETATM    6  N5  UNL     1       1.344  -1.290   0.300  1.00  0.00    -0.093 N 
ATOM      7  H5  UNL     1       1.543  -2.262   0.537  1.00  0.00     0.213 HD
ENDROOT
BRANCH   6   8
HETATM    8  O1  UNL     1       0.080  -0.980   0.360  1.00  0.00    -0.262 OA
BRANCH   8   9
HETATM    9  C2  UNL     1      -0.293   0.294   0.044  1.00  0.00     0.243 C 
BRANCH   9  10
HETATM   10  C3  UNL     1      -1.826   0.411   0.067  1.00  0.00     0.001 A 
HETATM   11  C4  UNL     1      -2.416   1.156   1.037  1.00  0.00     0.012 A 
HETATM   12  C5  UNL     1      -3.808   1.252   1.156  1.00  0.00     0.001 A 
HETATM   13  C6  UNL     1      -4.552   0.530   0.224  1.00  0.00     0.002 A 
HETATM   14  C7  UNL     1      -3.913  -0.206  -0.736  1.00  0.00     0.037 A 
HETATM   15  C8  UNL     1      -2.530  -0.287  -0.846  1.00  0.00     0.111 A 
BRANCH  15  16
HETATM   16  N6  UNL     1      -1.984  -1.105  -1.868  1.00  0.00    -0.115 N 
HETATM   17  O2  UNL     1      -2.544  -2.167  -2.209  1.00  0.00    -0.532 OA
HETATM   18  O3  UNL     1      -0.800  -0.783  -2.463  1.00  0.00    -0.532 OA
ENDBRANCH  15  16
ENDBRANCH   9  10
ENDBRANCH   8   9
ENDBRANCH   6   8
BRANCH   1  19
HETATM   19  N1  UNL     1       3.771   1.185  -0.906  1.00  0.00    -0.331 N 
ATOM     20  H12 UNL     1       4.621   0.749  -0.547  1.00  0.00     0.177 HD
ATOM     21  H11 UNL     1       3.840   2.063  -1.421  1.00  0.00     0.177 HD
ENDBRANCH   1  19
BRANCH   4  22
HETATM   22  N4  UNL     1       4.212  -0.594   1.647  1.00  0.00    -0.331 N 
ATOM     23  H42 UNL     1       3.676   0.095   2.175  1.00  0.00     0.177 HD
ATOM     24  H41 UNL     1       5.107  -0.959   1.973  1.00  0.00     0.177 HD
ENDBRANCH   4  22
TORSDOF 6
