REMARK  2 active torsions:
REMARK  status: ('A' for Active; 'I' for Inactive)
REMARK    1  A    between atoms: C3_9  and  C4_10 
REMARK       I    between atoms: C4_10  and  N4_12 
REMARK    2  A    between atoms: N4_12  and  N5_13 
ROOT
HETATM    1  N1  UNL     1      -2.965   0.499   2.294  1.00  0.00    -0.234 N 
ATOM      2  H11 UNL     1      -3.114   1.457   2.612  1.00  0.00     0.174 HD
ATOM      3  H12 UNL     1      -3.622  -0.202   2.636  1.00  0.00     0.174 HD
HETATM    4  C1  UNL     1      -1.927   0.355   1.628  1.00  0.00     0.680 A 
HETATM    5  N2  UNL     1      -1.725  -0.944   1.196  1.00  0.00    -0.178 N 
ATOM      6  H2  UNL     1      -2.340  -1.701   1.496  1.00  0.00     0.185 HD
HETATM    7  C2  UNL     1      -0.685  -1.177   0.362  1.00  0.00     0.154 A 
HETATM    8  N3  UNL     1      -0.490  -2.532  -0.102  1.00  0.00    -0.081 NA
HETATM    9  C3  UNL     1       0.161  -0.195  -0.064  1.00  0.00     0.158 A 
HETATM   10  C5  UNL     1      -0.032   1.073   0.358  1.00  0.00     0.280 A 
HETATM   11  O2  UNL     1       0.699   2.083   0.031  1.00  0.00    -0.266 OA
HETATM   12  N6  UNL     1      -1.057   1.283   1.175  1.00  0.00    -0.155 N 
ATOM     13  H6  UNL     1      -1.202   2.241   1.492  1.00  0.00     0.187 HD
ENDROOT
BRANCH   9  14
HETATM   14  C4  UNL     1       1.315  -0.601  -0.955  1.00  0.00     0.354 C 
HETATM   15  O1  UNL     1       1.566  -1.745  -1.135  1.00  0.00    -0.249 OA
HETATM   16  N4  UNL     1       2.044   0.577  -1.538  1.00  0.00    -0.288 NA
BRANCH  16  17
HETATM   17  N5  UNL     1       2.601   1.477  -1.983  1.00  0.00    -0.276 N 
ATOM     18  H52 UNL     1       2.111   0.683  -1.571  1.00  0.00     0.191 HD
ATOM     19  H51 UNL     1       3.096   2.276  -2.379  1.00  0.00     0.191 HD
ENDBRANCH  16  17
ENDBRANCH   9  14
TORSDOF 2
