REMARK  3 active torsions:
REMARK  status: ('A' for Active; 'I' for Inactive)
REMARK    1  A    between atoms: N3_9  and  N4_10 
REMARK    2  A    between atoms: C4_15  and  C5_16 
REMARK       I    between atoms: C5_16  and  N6_18 
REMARK    3  A    between atoms: N6_18  and  N7_20 
ROOT
HETATM    1  N1  UNL     1       1.013  -1.988   1.254  1.00  0.00    -0.384 N 
ATOM      2  H11 UNL     1       1.966  -1.626   1.214  1.00  0.00     0.157 HD
ATOM      3  H12 UNL     1       0.842  -2.874   1.730  1.00  0.00     0.157 HD
HETATM    4  C1  UNL     1       0.055  -1.327   0.709  1.00  0.00     0.122 A 
HETATM    5  N2  UNL     1      -1.221  -1.812   0.763  1.00  0.00    -0.292 N 
ATOM      6  H2  UNL     1      -1.378  -2.699   1.242  1.00  0.00     0.172 HD
HETATM    7  C2  UNL     1      -2.276  -1.192   0.224  1.00  0.00     0.348 A 
HETATM    8  O1  UNL     1      -3.430  -1.694   0.309  1.00  0.00    -0.245 OA
HETATM    9  N3  UNL     1      -2.081  -0.025  -0.409  1.00  0.00    -0.197 N 
HETATM   10  C3  UNL     1      -0.846   0.474  -0.478  1.00  0.00     0.162 A 
HETATM   11  N5  UNL     1      -0.655   1.702  -1.147  1.00  0.00    -0.079 NA
HETATM   12  C4  UNL     1       0.285  -0.137   0.069  1.00  0.00     0.120 A 
ENDROOT
BRANCH  12  13
HETATM   13  C5  UNL     1       1.565   0.512  -0.078  1.00  0.00     0.276 C 
HETATM   14  O2  UNL     1       1.603   1.633  -0.712  1.00  0.00    -0.266 OA
HETATM   15  N6  UNL     1       2.776   0.020   0.415  1.00  0.00    -0.272 N 
ATOM     16  H6  UNL     1       2.822  -0.861   0.927  1.00  0.00     0.189 HD
BRANCH  15  17
HETATM   17  N7  UNL     1       3.957   0.808   0.171  1.00  0.00    -0.342 N 
ATOM     18  H72 UNL     1       3.895   1.687  -0.342  1.00  0.00     0.176 HD
ATOM     19  H71 UNL     1       4.841   0.449   0.531  1.00  0.00     0.176 HD
ENDBRANCH  15  17
ENDBRANCH  12  13
BRANCH   9  20
HETATM   20  N4  UNL     1      -3.163   0.648  -0.983  1.00  0.00    -0.333 N 
ATOM     21  H42 UNL     1      -4.107   0.266  -0.930  1.00  0.00     0.177 HD
ATOM     22  H41 UNL     1      -3.015   1.535  -1.464  1.00  0.00     0.177 HD
ENDBRANCH   9  20
TORSDOF 3
