REMARK  4 active torsions:
REMARK  status: ('A' for Active; 'I' for Inactive)
REMARK    1  A    between atoms: N2_3  and  O1_4 
REMARK       I    between atoms: N3_6  and  C2_8 
REMARK       I    between atoms: C2_8  and  N5_12 
REMARK    2  A    between atoms: N5_12  and  N6_14 
REMARK    3  A    between atoms: N6_14  and  O2_15 
REMARK    4  A    between atoms: N6_14  and  O3_17 
ROOT
HETATM    1  N1  UNL     1       3.479  -0.788   1.082  1.00  0.00    -0.168 NA
HETATM    2  C1  UNL     1       2.981  -0.099   0.270  1.00  0.00     0.228 C 
HETATM    3  N2  UNL     1       2.408   0.735  -0.696  1.00  0.00    -0.076 N 
HETATM    4  N3  UNL     1       1.154   0.754  -0.891  1.00  0.00    -0.095 N 
ATOM      5  H3  UNL     1       0.750   1.368  -1.599  1.00  0.00     0.209 HD
HETATM    6  C2  UNL     1       0.330  -0.080  -0.120  1.00  0.00     0.707 C 
HETATM    7  N4  UNL     1       0.577  -1.334   0.001  1.00  0.00    -0.232 N 
ATOM      8  H41 UNL     1      -0.022  -1.940   0.561  1.00  0.00     0.174 HD
ATOM      9  H42 UNL     1       1.389  -1.731  -0.473  1.00  0.00     0.174 HD
HETATM   10  N5  UNL     1      -0.799   0.472   0.539  1.00  0.00    -0.103 N 
ATOM     11  H5  UNL     1      -0.688   1.242   1.199  1.00  0.00     0.204 HD
ENDROOT
BRANCH   3  12
HETATM   12  O1  UNL     1       3.160   1.583  -1.491  1.00  0.00    -0.259 OA
ATOM     13  H1  UNL     1       2.771   2.149  -2.147  1.00  0.00     0.247 HD
ENDBRANCH   3  12
BRANCH  10  14
HETATM   14  N6  UNL     1      -2.055  -0.050   0.273  1.00  0.00     0.047 NA
BRANCH  14  15
HETATM   15  O2  UNL     1      -2.858   0.102   1.360  1.00  0.00    -0.270 OA
ATOM     16  H2  UNL     1      -3.719  -0.256   1.178  1.00  0.00     0.241 HD
ENDBRANCH  14  15
BRANCH  14  17
HETATM   17  O3  UNL     1      -2.679   0.554  -0.760  1.00  0.00    -0.270 OA
ATOM     18  H3  UNL     1      -3.540   0.196  -0.942  1.00  0.00     0.241 HD
ENDBRANCH  14  17
ENDBRANCH  10  14
TORSDOF 4
