REMARK  1 active torsions:
REMARK  status: ('A' for Active; 'I' for Inactive)
REMARK       I    between atoms: C2_2  and  N1_4 
REMARK       I    between atoms: N1_4  and  C3_6 
REMARK       I    between atoms: C3_6  and  N2_8 
REMARK    1  A    between atoms: N2_8  and  N3_10 
REMARK       I    between atoms: N3_10  and  C4_12 
ROOT
HETATM    1  C1  UNL     1      -3.815   0.642   0.074  1.00  0.00     0.117 C 
HETATM    2  C2  UNL     1      -2.363   0.314  -0.222  1.00  0.00     0.221 C 
HETATM    3  O1  UNL     1      -1.984   0.396  -1.405  1.00  0.00    -0.274 OA
HETATM    4  N1  UNL     1      -1.542  -0.059   0.848  1.00  0.00    -0.278 N 
ATOM      5  H1  UNL     1      -1.973  -0.088   1.772  1.00  0.00     0.173 HD
HETATM    6  C3  UNL     1      -0.212  -0.389   0.772  1.00  0.00     0.341 C 
HETATM    7  O2  UNL     1       0.391  -0.709   1.863  1.00  0.00    -0.245 OA
HETATM    8  N2  UNL     1       0.574  -0.417  -0.375  1.00  0.00    -0.248 N 
ATOM      9  H2  UNL     1       0.147  -0.172  -1.268  1.00  0.00     0.192 HD
ENDROOT
BRANCH   8  10
HETATM   10  N3  UNL     1       1.944  -0.773  -0.350  1.00  0.00    -0.250 N 
HETATM   11  C4  UNL     1       2.843   0.112   0.263  1.00  0.00     0.347 C 
HETATM   12  N4  UNL     1       4.238  -0.151   0.342  1.00  0.00    -0.038 NA
HETATM   13  O3  UNL     1       2.449   1.201   0.783  1.00  0.00    -0.249 OA
ATOM     14  H3  UNL     1       2.267  -1.647  -0.765  1.00  0.00     0.191 HD
ENDBRANCH   8  10
TORSDOF 1
