REMARK  4 active torsions:
REMARK  status: ('A' for Active; 'I' for Inactive)
REMARK    1  A    between atoms: S1_2  and  C2_3 
REMARK    2  A    between atoms: C2_3  and  N4_13 
REMARK       I    between atoms: N1_4  and  C3_6 
REMARK       I    between atoms: C3_6  and  N2_8 
REMARK    3  A    between atoms: N2_8  and  N3_10 
REMARK    4  A    between atoms: N4_13  and  N5_15 
ROOT
HETATM    1  C2  UNL     1      -1.046   0.253   0.080  1.00  0.00     0.162 C 
HETATM    2  N1  UNL     1       0.192   0.333   0.348  1.00  0.00    -0.287 N 
ATOM      3  H1  UNL     1       0.554   1.245   0.626  1.00  0.00     0.172 HD
HETATM    4  C3  UNL     1       1.110  -0.743   0.292  1.00  0.00     0.340 C 
HETATM    5  O1  UNL     1       0.655  -1.899   0.500  1.00  0.00    -0.245 OA
HETATM    6  N2  UNL     1       2.468  -0.484   0.014  1.00  0.00    -0.258 N 
ATOM      7  H2  UNL     1       2.792   0.470  -0.147  1.00  0.00     0.191 HD
ENDROOT
BRANCH   1   8
HETATM    8  S1  UNL     1      -2.074   1.687   0.193  1.00  0.00    -0.097 SA
HETATM    9  C1  UNL     1      -1.101   3.134   0.712  1.00  0.00     0.099 C 
ENDBRANCH   1   8
BRANCH   1  10
HETATM   10  N4  UNL     1      -1.595  -0.978  -0.305  1.00  0.00    -0.286 N 
ATOM     11  H4  UNL     1      -1.345  -1.387  -1.206  1.00  0.00     0.188 HD
BRANCH  10  12
HETATM   12  N5  UNL     1      -2.467  -1.635   0.525  1.00  0.00    -0.343 N 
ATOM     13  H52 UNL     1      -2.706  -1.213   1.422  1.00  0.00     0.176 HD
ATOM     14  H51 UNL     1      -2.866  -2.531   0.245  1.00  0.00     0.176 HD
ENDBRANCH  10  12
ENDBRANCH   1  10
BRANCH   6  15
HETATM   15  N3  UNL     1       3.357  -1.552  -0.037  1.00  0.00    -0.341 N 
ATOM     16  H32 UNL     1       3.017  -2.500   0.126  1.00  0.00     0.177 HD
ATOM     17  H31 UNL     1       4.339  -1.365  -0.238  1.00  0.00     0.177 HD
ENDBRANCH   6  15
TORSDOF 4
