REMARK  5 active torsions:
REMARK  status: ('A' for Active; 'I' for Inactive)
REMARK    1  A    between atoms: N1_1  and  N2_4 
REMARK    2  A    between atoms: N2_4  and  C1_6 
REMARK    3  A    between atoms: C1_6  and  N3_8 
REMARK    4  A    between atoms: N3_8  and  S2_10 
REMARK    5  A    between atoms: S2_10  and  N4_11 
ROOT
HETATM    1  N3  UNL     1      -0.429   0.832   0.991  1.00  0.00    -0.243 N 
ATOM      2  H3  UNL     1      -0.823   1.228   1.844  1.00  0.00     0.182 HD
ENDROOT
BRANCH   1   3
HETATM    3  C1  UNL     1       0.909   1.160   0.745  1.00  0.00     0.201 C 
HETATM    4  S1  UNL     1       1.689   2.144   1.807  1.00  0.00    -0.038 SA
BRANCH   3   5
HETATM    5  N2  UNL     1       1.631   0.697  -0.361  1.00  0.00    -0.282 N 
ATOM      6  H2  UNL     1       2.598   1.013  -0.434  1.00  0.00     0.189 HD
BRANCH   5   7
HETATM    7  N1  UNL     1       1.182  -0.140  -1.367  1.00  0.00    -0.343 N 
ATOM      8  H12 UNL     1       0.213  -0.445  -1.277  1.00  0.00     0.176 HD
ATOM      9  H11 UNL     1       1.708  -0.477  -2.173  1.00  0.00     0.176 HD
ENDBRANCH   5   7
ENDBRANCH   3   5
ENDBRANCH   1   3
BRANCH   1  10
HETATM   10  S2  UNL     1      -1.491  -0.125   0.082  1.00  0.00     0.319 S 
HETATM   11  O1  UNL     1      -1.653   0.351  -1.315  1.00  0.00    -0.183 OA
HETATM   12  O2  UNL     1      -2.870  -0.124   0.780  1.00  0.00    -0.183 OA
BRANCH  10  13
HETATM   13  N4  UNL     1      -1.004  -1.789   0.173  1.00  0.00    -0.311 N 
ATOM     14  H42 UNL     1      -0.197  -2.124   0.699  1.00  0.00     0.170 HD
ATOM     15  H41 UNL     1      -1.643  -2.365  -0.374  1.00  0.00     0.170 HD
ENDBRANCH  10  13
ENDBRANCH   1  10
TORSDOF 5
