REMARK  3 active torsions:
REMARK  status: ('A' for Active; 'I' for Inactive)
REMARK    1  A    between atoms: C2_3  and  N2_4 
REMARK    2  A    between atoms: C2_3  and  C4_9 
REMARK       I    between atoms: N2_4  and  C3_6 
REMARK       I    between atoms: C4_9  and  N4_11 
REMARK    3  A    between atoms: N4_11  and  N5_13 
ROOT
HETATM    1  N1  UNL     1       0.269   3.170   0.074  1.00  0.00    -0.195 NA
HETATM    2  C1  UNL     1       0.121   2.061  -0.224  1.00  0.00     0.094 C 
HETATM    3  C2  UNL     1      -0.078   0.638  -0.589  1.00  0.00     0.287 C 
ENDROOT
BRANCH   3   4
HETATM    4  N2  UNL     1      -1.180   0.069   0.160  1.00  0.00    -0.320 N 
HETATM    5  C3  UNL     1      -2.297  -0.484  -0.510  1.00  0.00     0.330 C 
HETATM    6  N3  UNL     1      -3.358  -1.032   0.225  1.00  0.00    -0.040 NA
HETATM    7  O1  UNL     1      -2.290  -0.458  -1.777  1.00  0.00    -0.251 OA
ATOM      8  H2  UNL     1      -1.150   0.067   1.180  1.00  0.00     0.165 HD
ENDBRANCH   3   4
BRANCH   3   9
HETATM    9  C4  UNL     1       1.176  -0.059  -0.189  1.00  0.00     0.272 C 
HETATM   10  O2  UNL     1       1.090  -0.968   0.674  1.00  0.00    -0.268 OA
HETATM   11  N4  UNL     1       2.434   0.248  -0.726  1.00  0.00    -0.274 N 
ATOM     12  H4  UNL     1       2.531   0.981  -1.429  1.00  0.00     0.189 HD
BRANCH  11  13
HETATM   13  N5  UNL     1       3.551  -0.462  -0.287  1.00  0.00    -0.343 N 
ATOM     14  H52 UNL     1       3.437  -1.192   0.416  1.00  0.00     0.176 HD
ATOM     15  H51 UNL     1       4.466  -0.239  -0.678  1.00  0.00     0.176 HD
ENDBRANCH  11  13
ENDBRANCH   3   9
TORSDOF 3
