REMARK  2 active torsions:
REMARK  status: ('A' for Active; 'I' for Inactive)
REMARK    1  A    between atoms: N1_1  and  N2_4 
REMARK       I    between atoms: N2_4  and  C1_6 
REMARK       I    between atoms: C1_6  and  N3_8 
REMARK       I    between atoms: C2_10  and  N5_12 
REMARK    2  A    between atoms: N5_12  and  N6_14 
ROOT
HETATM    1  N2  UNL     1      -1.301   1.429   0.277  1.00  0.00    -0.258 N 
ATOM      2  H2  UNL     1      -0.545   1.731  -0.338  1.00  0.00     0.191 HD
HETATM    3  C1  UNL     1      -1.150   0.268   1.081  1.00  0.00     0.340 C 
HETATM    4  O1  UNL     1      -2.075  -0.099   1.833  1.00  0.00    -0.245 OA
HETATM    5  N3  UNL     1       0.085  -0.465   1.007  1.00  0.00    -0.280 N 
ATOM      6  H3  UNL     1       0.639  -0.597   1.853  1.00  0.00     0.173 HD
HETATM    7  C2  UNL     1       0.506  -0.959  -0.107  1.00  0.00     0.215 C 
HETATM    8  N4  UNL     1      -0.181  -0.835  -1.327  1.00  0.00    -0.062 NA
HETATM    9  N5  UNL     1       1.731  -1.665  -0.083  1.00  0.00    -0.213 N 
ATOM     10  H5  UNL     1       1.756  -2.652  -0.338  1.00  0.00     0.196 HD
ENDROOT
BRANCH   1  11
HETATM   11  N1  UNL     1      -2.495   2.154   0.336  1.00  0.00    -0.341 N 
ATOM     12  H12 UNL     1      -3.241   1.839   0.956  1.00  0.00     0.177 HD
ATOM     13  H11 UNL     1      -2.603   2.988  -0.241  1.00  0.00     0.177 HD
ENDBRANCH   1  11
BRANCH   9  14
HETATM   14  N6  UNL     1       2.904  -1.011   0.289  1.00  0.00    -0.036 N 
HETATM   15  O2  UNL     1       3.112   0.184   0.073  1.00  0.00    -0.516 OA
HETATM   16  O3  UNL     1       3.863  -1.764   0.931  1.00  0.00    -0.516 OA
ENDBRANCH   9  14
TORSDOF 2
