REMARK  3 active torsions:
REMARK  status: ('A' for Active; 'I' for Inactive)
REMARK    1  A    between atoms: N1_1  and  N2_4 
REMARK       I    between atoms: N2_4  and  C1_6 
REMARK    2  A    between atoms: C1_6  and  C2_8 
REMARK       I    between atoms: C2_8  and  N3_10 
REMARK    3  A    between atoms: N3_10  and  N4_12 
REMARK       I    between atoms: N4_12  and  C3_14 
ROOT
HETATM    1  C2  UNL     1      -0.495  -0.057   0.365  1.00  0.00     0.329 C 
HETATM    2  O2  UNL     1      -0.356   0.474   1.511  1.00  0.00    -0.261 OA
HETATM    3  N3  UNL     1       0.573  -0.614  -0.351  1.00  0.00    -0.258 N 
ATOM      4  H3  UNL     1       0.381  -1.023  -1.265  1.00  0.00     0.190 HD
ENDROOT
BRANCH   1   5
HETATM    5  C1  UNL     1      -1.849  -0.068  -0.201  1.00  0.00     0.329 C 
HETATM    6  N2  UNL     1      -2.955   0.495   0.502  1.00  0.00    -0.268 N 
ATOM      7  H2  UNL     1      -2.833   0.922   1.421  1.00  0.00     0.190 HD
HETATM    8  O1  UNL     1      -2.014  -0.598  -1.346  1.00  0.00    -0.261 OA
BRANCH   6   9
HETATM    9  N1  UNL     1      -4.208   0.443  -0.108  1.00  0.00    -0.342 N 
ATOM     10  H12 UNL     1      -4.313   0.013  -1.027  1.00  0.00     0.176 HD
ATOM     11  H11 UNL     1      -4.999   0.846   0.395  1.00  0.00     0.176 HD
ENDBRANCH   6   9
ENDBRANCH   1   5
BRANCH   3  12
HETATM   12  N4  UNL     1       1.886  -0.639   0.121  1.00  0.00    -0.251 N 
HETATM   13  C3  UNL     1       2.881   0.248  -0.373  1.00  0.00     0.347 C 
HETATM   14  N5  UNL     1       4.206   0.214   0.111  1.00  0.00    -0.038 NA
HETATM   15  O3  UNL     1       2.527   1.082  -1.277  1.00  0.00    -0.249 OA
ATOM     16  H4  UNL     1       2.139  -1.314   0.842  1.00  0.00     0.191 HD
ENDBRANCH   3  12
TORSDOF 3
