REMARK  4 active torsions:
REMARK  status: ('A' for Active; 'I' for Inactive)
REMARK    1  A    between atoms: C2_2  and  N2_6 
REMARK       I    between atoms: N2_6  and  C3_8 
REMARK    2  A    between atoms: C3_8  and  C4_10 
REMARK    3  A    between atoms: C4_10  and  N3_12 
REMARK    4  A    between atoms: C4_10  and  C6_16 
ROOT
HETATM    1  N2  UNL     1       0.990  -0.897   0.217  1.00  0.00    -0.315 N 
ATOM      2  H2  UNL     1       0.523  -1.790   0.373  1.00  0.00     0.170 HD
HETATM    3  C3  UNL     1       0.214   0.195  -0.192  1.00  0.00     0.268 C 
HETATM    4  O1  UNL     1       0.775   1.303  -0.390  1.00  0.00    -0.270 OA
ENDROOT
BRANCH   3   5
HETATM    5  C4  UNL     1      -1.245   0.154  -0.417  1.00  0.00     0.276 C 
HETATM    6  C5  UNL     1      -1.642   0.528  -1.816  1.00  0.00     0.067 C 
BRANCH   5   7
HETATM    7  N3  UNL     1      -1.730  -1.172  -0.150  1.00  0.00    -0.053 N 
ATOM      8  H33 UNL     1      -1.235  -1.881  -0.692  1.00  0.00     0.276 HD
ATOM      9  H32 UNL     1      -1.473  -1.497   0.782  1.00  0.00     0.276 HD
ATOM     10  H31 UNL     1      -2.738  -1.200  -0.305  1.00  0.00     0.276 HD
ENDBRANCH   5   7
BRANCH   5  11
HETATM   11  C6  UNL     1      -1.876   1.109   0.511  1.00  0.00     0.276 C 
HETATM   12  N4  UNL     1      -2.803   0.646   1.469  1.00  0.00    -0.059 NA
HETATM   13  O2  UNL     1      -1.607   2.351   0.473  1.00  0.00    -0.274 OA
ENDBRANCH   5  11
ENDBRANCH   3   5
BRANCH   1  14
HETATM   14  C2  UNL     1       2.387  -0.827   0.425  1.00  0.00     0.073 C 
HETATM   15  C1  UNL     1       3.156   0.434   0.221  1.00  0.00     0.088 C 
HETATM   16  N1  UNL     1       3.040  -1.898   0.809  1.00  0.00    -0.389 N 
ATOM     17  H12 UNL     1       4.048  -1.848   0.959  1.00  0.00     0.157 HD
ATOM     18  H11 UNL     1       2.514  -2.761   0.949  1.00  0.00     0.157 HD
ENDBRANCH   1  14
TORSDOF 4
