REMARK  15 active torsions:
REMARK  status: ('A' for Active; 'I' for Inactive)
REMARK    1  A    between atoms: N2_7  and  C4_8 
REMARK    2  A    between atoms: C6_10  and  N3_11 
REMARK    3  A    between atoms: N3_11  and  C7_13 
REMARK    4  A    between atoms: C7_13  and  C8_14 
REMARK       I    between atoms: N4_17  and  C10_18 
REMARK    5  A    between atoms: C10_18  and  C11_20 
REMARK    6  A    between atoms: C11_20  and  N5_21 
REMARK    7  A    between atoms: N6_25  and  C12_26 
REMARK    8  A    between atoms: C12_26  and  O3_27 
REMARK    9  A    between atoms: C12_26  and  C13_29 
REMARK   10  A    between atoms: C13_29  and  O4_30 
REMARK   11  A    between atoms: C13_29  and  N7_32 
REMARK   12  A    between atoms: C15_34  and  C16_35 
REMARK   13  A    between atoms: C16_35  and  O5_36 
REMARK   14  A    between atoms: C16_35  and  C17_38 
REMARK   15  A    between atoms: C17_38  and  O6_39 
ROOT
HETATM    1  C8  UNL     1       0.348  -0.903  -1.041  1.00  0.00     0.261 C 
HETATM    2  O1  UNL     1      -0.740  -1.880  -1.051  1.00  0.00    -0.343 OA
HETATM    3  C9  UNL     1      -0.700  -2.410   0.282  1.00  0.00     0.322 C 
HETATM    4  N4  UNL     1       0.733  -2.467   0.413  1.00  0.00    -0.233 N 
HETATM    5  C10 UNL     1       1.587  -3.501   0.744  1.00  0.00     0.265 C 
HETATM    6  O2  UNL     1       2.859  -3.265   0.718  1.00  0.00    -0.270 OA
HETATM    7  N6  UNL     1       1.051  -1.111   0.093  1.00  0.00    -0.257 N 
ENDROOT
BRANCH   1   8
HETATM    8  C7  UNL     1      -0.303   0.339  -1.475  1.00  0.00     0.176 C 
BRANCH   8   9
HETATM    9  N3  UNL     1      -1.373   0.767  -0.596  1.00  0.00    -0.372 N 
ATOM     10  H3  UNL     1      -1.106   1.239   0.268  1.00  0.00     0.161 HD
BRANCH   9  11
HETATM   11  C6  UNL     1      -2.612   0.605  -0.810  1.00  0.00     0.107 A 
HETATM   12  C5  UNL     1      -3.596   1.029   0.054  1.00  0.00     0.098 A 
HETATM   13  C4  UNL     1      -4.946   0.828  -0.220  1.00  0.00     0.132 A 
HETATM   14  N10 UNL     1      -5.228   0.201  -1.370  1.00  0.00    -0.315 N 
HETATM   15  C19 UNL     1      -4.295  -0.228  -2.239  1.00  0.00     0.195 A 
ATOM     16  H10 UNL     1      -6.208   0.039  -1.600  1.00  0.00     0.170 HD
HETATM   17  N8  UNL     1      -3.008  -0.014  -1.936  1.00  0.00    -0.317 N 
HETATM   18  N9  UNL     1      -4.689  -0.895  -3.452  1.00  0.00    -0.063 NA
ATOM     19  H8  UNL     1      -2.295  -0.336  -2.590  1.00  0.00     0.170 HD
BRANCH  13  20
HETATM   20  N2  UNL     1      -5.914   1.290   0.711  1.00  0.00    -0.249 N 
HETATM   21  C3  UNL     1      -5.833   1.105   2.056  1.00  0.00     0.122 A 
HETATM   22  C2  UNL     1      -6.942   1.684   2.649  1.00  0.00     0.068 A 
HETATM   23  C1  UNL     1      -7.680   2.215   1.612  1.00  0.00     0.115 A 
HETATM   24  N1  UNL     1      -8.796   2.839   1.800  1.00  0.00    -0.384 N 
HETATM   25  N11 UNL     1      -7.018   1.950   0.475  1.00  0.00    -0.278 N 
ATOM     26  H12 UNL     1      -9.299   3.040   2.664  1.00  0.00     0.157 HD
ATOM     27  H11 UNL     1      -9.342   3.232   1.033  1.00  0.00     0.157 HD
ATOM     28  H11 UNL     1      -7.335   2.228  -0.454  1.00  0.00     0.189 HD
ENDBRANCH  13  20
ENDBRANCH   9  11
ENDBRANCH   8   9
ENDBRANCH   1   8
BRANCH   7  29
HETATM   29  C12 UNL     1       1.321  -0.371   1.203  1.00  0.00     0.287 C 
BRANCH  29  30
HETATM   30  O3  UNL     1       1.938  -1.159   2.227  1.00  0.00    -0.371 OA
ATOM     31  H3  UNL     1       2.126  -0.643   3.002  1.00  0.00     0.212 HD
ENDBRANCH  29  30
BRANCH  29  32
HETATM   32  C13 UNL     1       2.201   0.847   1.124  1.00  0.00     0.275 C 
BRANCH  32  33
HETATM   33  O4  UNL     1       1.738   1.907   0.386  1.00  0.00    -0.372 OA
ATOM     34  H4  UNL     1       2.294   2.676   0.336  1.00  0.00     0.212 HD
ENDBRANCH  32  33
BRANCH  32  35
HETATM   35  N7  UNL     1       3.568   0.560   0.726  1.00  0.00    -0.295 N 
HETATM   36  C14 UNL     1       4.054   0.034  -0.534  1.00  0.00     0.166 C 
HETATM   37  C15 UNL     1       5.450   0.677  -0.609  1.00  0.00     0.182 C 
HETATM   38  O7  UNL     1       5.869   0.421   0.740  1.00  0.00    -0.294 OA
HETATM   39  C18 UNL     1       4.736   0.749   1.514  1.00  0.00     0.365 C 
HETATM   40  O8  UNL     1       4.840   1.143   2.718  1.00  0.00    -0.238 OA
BRANCH  37  41
HETATM   41  C16 UNL     1       5.322   2.172  -0.785  1.00  0.00     0.172 C 
BRANCH  41  42
HETATM   42  O5  UNL     1       4.924   2.504  -2.074  1.00  0.00    -0.391 OA
ATOM     43  H5  UNL     1       4.844   3.444  -2.185  1.00  0.00     0.210 HD
ENDBRANCH  41  42
BRANCH  41  44
HETATM   44  C17 UNL     1       6.615   2.861  -0.464  1.00  0.00     0.198 C 
BRANCH  44  45
HETATM   45  O6  UNL     1       7.574   2.443  -1.376  1.00  0.00    -0.398 OA
ATOM     46  H6  UNL     1       8.393   2.879  -1.173  1.00  0.00     0.209 HD
ENDBRANCH  44  45
ENDBRANCH  41  44
ENDBRANCH  37  41
ENDBRANCH  32  35
ENDBRANCH  29  32
ENDBRANCH   7  29
BRANCH   5  47
HETATM   47  C11 UNL     1       1.284  -4.891   1.143  1.00  0.00     0.334 C 
BRANCH  47  48
HETATM   48  N5  UNL     1      -0.088  -5.243   1.210  1.00  0.00    -0.071 N 
ATOM     49  H53 UNL     1      -0.580  -4.594   1.824  1.00  0.00     0.274 HD
ATOM     50  H52 UNL     1      -0.540  -5.035   0.320  1.00  0.00     0.274 HD
ATOM     51  H51 UNL     1      -0.297  -6.203   1.485  1.00  0.00     0.274 HD
ENDBRANCH  47  48
ENDBRANCH   5  47
TORSDOF 15
