REMARK  13 active torsions:
REMARK  status: ('A' for Active; 'I' for Inactive)
REMARK    1  A    between atoms: C1_4  and  C2_6 
REMARK    2  A    between atoms: N3_8  and  C4_9 
REMARK    3  A    between atoms: C6_12  and  O2_13 
REMARK    4  A    between atoms: O2_13  and  S1_14 
REMARK    5  A    between atoms: C7_18  and  N4_19 
REMARK    6  A    between atoms: C7_18  and  C14_39 
REMARK       I    between atoms: N4_19  and  C8_21 
REMARK    7  A    between atoms: C8_21  and  C9_23 
REMARK    8  A    between atoms: C11_25  and  C12_26 
REMARK    9  A    between atoms: C12_26  and  N5_27 
REMARK   10  A    between atoms: C12_26  and  C13_31 
REMARK   11  A    between atoms: C13_31  and  N6_32 
REMARK   12  A    between atoms: C15_42  and  O9_43 
REMARK   13  A    between atoms: C16_45  and  O10_46 
ROOT
HETATM    1  C4  UNL     1      -3.043  -0.606   1.348  1.00  0.00     0.193 C 
HETATM    2  C5  UNL     1      -2.513  -1.724   0.563  1.00  0.00     0.185 C 
HETATM    3  O1  UNL     1      -3.239  -2.652   0.323  1.00  0.00    -0.293 OA
HETATM    4  C6  UNL     1      -1.121  -1.725   0.072  1.00  0.00     0.256 C 
HETATM    5  C7  UNL     1      -0.154  -1.052   0.982  1.00  0.00     0.175 C 
HETATM    6  C15 UNL     1      -0.680   0.294   1.472  1.00  0.00     0.189 C 
HETATM    7  C16 UNL     1      -2.047   0.257   2.035  1.00  0.00     0.180 C 
ENDROOT
BRANCH   5   8
HETATM    8  N4  UNL     1       1.138  -0.772   0.396  1.00  0.00    -0.333 N 
HETATM    9  C8  UNL     1       2.029  -1.743  -0.113  1.00  0.00     0.271 C 
HETATM   10  O6  UNL     1       1.776  -2.955  -0.103  1.00  0.00    -0.266 OA
ATOM     11  H4  UNL     1       1.429   0.204   0.346  1.00  0.00     0.164 HD
BRANCH   9  12
HETATM   12  C9  UNL     1       3.323  -1.358  -0.690  1.00  0.00     0.124 A 
HETATM   13  C10 UNL     1       3.772  -0.060  -0.787  1.00  0.00     0.074 A 
HETATM   14  C11 UNL     1       5.030  -0.110  -1.385  1.00  0.00     0.111 A 
HETATM   15  O7  UNL     1       5.257  -1.370  -1.604  1.00  0.00    -0.240 OA
HETATM   16  N7  UNL     1       4.287  -2.117  -1.212  1.00  0.00    -0.256 N 
ATOM     17  H7  UNL     1       4.259  -3.134  -1.289  1.00  0.00     0.195 HD
BRANCH  14  18
HETATM   18  C12 UNL     1       5.900   1.048  -1.692  1.00  0.00     0.267 C 
BRANCH  18  19
HETATM   19  N5  UNL     1       6.431   0.899  -3.011  1.00  0.00    -0.067 N 
ATOM     20  H53 UNL     1       6.912   0.009  -3.137  1.00  0.00     0.275 HD
ATOM     21  H52 UNL     1       5.700   0.767  -3.710  1.00  0.00     0.275 HD
ATOM     22  H51 UNL     1       7.030   1.697  -3.222  1.00  0.00     0.275 HD
ENDBRANCH  18  19
BRANCH  18  23
HETATM   23  C13 UNL     1       6.979   1.191  -0.640  1.00  0.00     0.269 C 
BRANCH  23  24
HETATM   24  N6  UNL     1       7.822   2.319  -0.945  1.00  0.00    -0.077 N 
ATOM     25  H63 UNL     1       8.212   2.261  -1.886  1.00  0.00     0.274 HD
ATOM     26  H62 UNL     1       7.284   3.178  -1.059  1.00  0.00     0.274 HD
ATOM     27  H61 UNL     1       8.549   2.415  -0.236  1.00  0.00     0.274 HD
ENDBRANCH  23  24
ENDBRANCH  18  23
ENDBRANCH  14  18
ENDBRANCH   9  12
ENDBRANCH   5   8
BRANCH   5  28
HETATM   28  C14 UNL     1       0.094  -1.877   2.194  1.00  0.00     0.265 C 
HETATM   29  N8  UNL     1      -0.977  -2.380   2.981  1.00  0.00    -0.060 NA
HETATM   30  O8  UNL     1       1.277  -2.148   2.550  1.00  0.00    -0.274 OA
ENDBRANCH   5  28
BRANCH   4  31
HETATM   31  O2  UNL     1      -1.018  -1.274  -1.230  1.00  0.00    -0.241 OA
BRANCH  31  32
HETATM   32  S1  UNL     1      -0.989  -2.339  -2.448  1.00  0.00     0.252 S 
HETATM   33  O3  UNL     1      -0.964  -3.750  -1.892  1.00  0.00    -0.572 OA
HETATM   34  O4  UNL     1      -2.106  -2.207  -3.443  1.00  0.00    -0.572 OA
HETATM   35  O5  UNL     1       0.432  -2.160  -3.328  1.00  0.00    -0.572 OA
ENDBRANCH  31  32
ENDBRANCH   4  31
BRANCH   6  36
HETATM   36  O9  UNL     1      -0.586   1.279   0.491  1.00  0.00    -0.390 OA
ATOM     37  H9  UNL     1      -0.913   2.117   0.796  1.00  0.00     0.210 HD
ENDBRANCH   6  36
BRANCH   7  38
HETATM   38  O10 UNL     1      -2.543   1.585   1.965  1.00  0.00    -0.390 OA
ATOM     39  H10 UNL     1      -1.906   2.137   2.404  1.00  0.00     0.210 HD
ENDBRANCH   7  38
BRANCH   1  40
HETATM   40  N3  UNL     1      -4.032   0.182   0.598  1.00  0.00    -0.336 N 
HETATM   41  C3  UNL     1      -4.894   1.059   1.142  1.00  0.00     0.125 A 
HETATM   42  C2  UNL     1      -5.681   1.621   0.149  1.00  0.00     0.090 A 
HETATM   43  N9  UNL     1      -5.278   1.070  -0.986  1.00  0.00    -0.348 N 
HETATM   44  C17 UNL     1      -4.274   0.192  -0.720  1.00  0.00     0.184 A 
ATOM     45  H9  UNL     1      -5.659   1.272  -1.910  1.00  0.00     0.167 HD
BRANCH  42  46
HETATM   46  C1  UNL     1      -6.733   2.621   0.367  1.00  0.00     0.138 C 
HETATM   47  N1  UNL     1      -7.003   3.056   1.544  1.00  0.00    -0.386 N 
ATOM     48  H12 UNL     1      -7.734   3.751   1.695  1.00  0.00     0.157 HD
ATOM     49  H11 UNL     1      -6.502   2.729   2.370  1.00  0.00     0.157 HD
HETATM   50  N2  UNL     1      -7.431   3.077  -0.784  1.00  0.00    -0.081 NA
ENDBRANCH  42  46
ENDBRANCH   1  40
TORSDOF 13
