REMARK  13 active torsions:
REMARK  status: ('A' for Active; 'I' for Inactive)
REMARK    1  A    between atoms: C2_2  and  N1_3 
REMARK    2  A    between atoms: C4_7  and  N3_8 
REMARK    3  A    between atoms: N3_8  and  C5_10 
REMARK    4  A    between atoms: C6_14  and  C7_15 
REMARK    5  A    between atoms: C7_15  and  O1_16 
REMARK    6  A    between atoms: C8_19  and  S1_20 
REMARK    7  A    between atoms: S1_20  and  N5_23 
REMARK    8  A    between atoms: N5_23  and  C9_25 
REMARK    9  A    between atoms: C9_25  and  C10_26 
REMARK   10  A    between atoms: C10_26  and  C11_27 
REMARK   11  A    between atoms: C12_30  and  N7_31 
REMARK   12  A    between atoms: N10_44  and  N11_45 
REMARK   13  A    between atoms: C17_48  and  O7_49 
ROOT
HETATM    1  S1  UNL     1      -1.075  -0.840  -1.697  1.00  0.00     0.256 S 
HETATM    2  O3  UNL     1      -1.061  -1.803  -2.836  1.00  0.00    -0.203 OA
HETATM    3  O4  UNL     1      -1.598   0.484  -2.236  1.00  0.00    -0.203 OA
ENDROOT
BRANCH   1   4
HETATM    4  C8  UNL     1       0.557  -0.567  -1.047  1.00  0.00     0.298 C 
HETATM    5  O2  UNL     1       0.993  -1.708  -0.432  1.00  0.00    -0.332 OA
HETATM    6  C6  UNL     1       2.330  -1.995  -0.573  1.00  0.00     0.348 C 
HETATM    7  N4  UNL     1       3.097  -0.772  -0.376  1.00  0.00    -0.023 N 
HETATM    8  C5  UNL     1       2.855   0.163  -1.451  1.00  0.00     0.321 C 
ATOM      9  H42 UNL     1       4.092  -0.965  -0.260  1.00  0.00     0.282 HD
ATOM     10  H41 UNL     1       2.914  -0.354   0.536  1.00  0.00     0.282 HD
HETATM   11  C17 UNL     1       1.497  -0.045  -2.083  1.00  0.00     0.214 C 
BRANCH   6  12
HETATM   12  C7  UNL     1       2.710  -3.027   0.484  1.00  0.00     0.225 C 
BRANCH  12  13
HETATM   13  O1  UNL     1       2.450  -2.545   1.753  1.00  0.00    -0.397 OA
ATOM     14  H1  UNL     1       2.687  -3.188   2.411  1.00  0.00     0.209 HD
ENDBRANCH  12  13
ENDBRANCH   6  12
BRANCH   8  15
HETATM   15  N3  UNL     1       2.978   1.540  -1.015  1.00  0.00    -0.349 N 
ATOM     16  H3  UNL     1       2.198   2.180  -1.166  1.00  0.00     0.163 HD
BRANCH  15  17
HETATM   17  C4  UNL     1       4.158   2.023  -0.381  1.00  0.00     0.104 C 
HETATM   18  N2  UNL     1       4.430   3.227  -0.021  1.00  0.00    -0.353 N 
HETATM   19  C3  UNL     1       5.723   3.330   0.590  1.00  0.00     0.397 C 
ATOM     20  H2  UNL     1       3.799   4.017  -0.155  1.00  0.00     0.162 HD
HETATM   21  N1  UNL     1       6.398   2.112   0.179  1.00  0.00     0.112 N 
HETATM   22  C18 UNL     1       5.319   1.146  -0.024  1.00  0.00     0.350 C 
BRANCH  21  23
HETATM   23  C2  UNL     1       7.323   1.696   1.194  1.00  0.00     0.270 C 
HETATM   24  C1  UNL     1       8.012   0.419   0.739  1.00  0.00     0.037 C 
ENDBRANCH  21  23
ENDBRANCH  15  17
ENDBRANCH   8  15
BRANCH  11  25
HETATM   25  O7  UNL     1       1.657  -0.880  -3.176  1.00  0.00    -0.388 OA
ATOM     26  H7  UNL     1       0.804  -1.011  -3.573  1.00  0.00     0.210 HD
ENDBRANCH  11  25
ENDBRANCH   1   4
BRANCH   1  27
HETATM   27  N5  UNL     1      -2.174  -1.340  -0.466  1.00  0.00    -0.317 N 
ATOM     28  H5  UNL     1      -2.685  -2.221  -0.418  1.00  0.00     0.172 HD
BRANCH  27  29
HETATM   29  C9  UNL     1      -2.223  -0.222   0.511  1.00  0.00     0.138 C 
BRANCH  29  30
HETATM   30  C10 UNL     1      -3.167  -0.568   1.635  1.00  0.00     0.079 C 
BRANCH  30  31
HETATM   31  C11 UNL     1      -4.508  -0.780   1.078  1.00  0.00     0.047 A 
HETATM   32  N6  UNL     1      -4.866  -2.063   0.715  1.00  0.00    -0.195 N 
HETATM   33  C12 UNL     1      -6.036  -2.326   0.138  1.00  0.00     0.677 A 
ATOM     34  H6  UNL     1      -4.217  -2.829   0.894  1.00  0.00     0.184 HD
HETATM   35  N8  UNL     1      -6.902  -1.337  -0.104  1.00  0.00    -0.174 N 
HETATM   36  C13 UNL     1      -6.643  -0.060   0.214  1.00  0.00     0.164 A 
ATOM     37  H8  UNL     1      -7.793  -1.562  -0.547  1.00  0.00     0.186 HD
HETATM   38  C14 UNL     1      -5.402   0.224   0.828  1.00  0.00     0.102 A 
HETATM   39  N10 UNL     1      -7.553   0.907  -0.032  1.00  0.00    -0.194 N 
HETATM   40  C15 UNL     1      -5.145   1.518   1.174  1.00  0.00     0.265 A 
HETATM   41  O5  UNL     1      -4.085   1.844   1.721  1.00  0.00    -0.267 OA
HETATM   42  N9  UNL     1      -6.088   2.465   0.910  1.00  0.00    -0.273 N 
HETATM   43  C16 UNL     1      -7.249   2.164   0.327  1.00  0.00     0.349 A 
ATOM     44  H9  UNL     1      -5.900   3.434   1.166  1.00  0.00     0.173 HD
HETATM   45  O6  UNL     1      -8.111   3.072   0.092  1.00  0.00    -0.244 OA
BRANCH  33  46
HETATM   46  N7  UNL     1      -6.314  -3.571  -0.182  1.00  0.00    -0.234 N 
ATOM     47  H72 UNL     1      -5.653  -4.326   0.003  1.00  0.00     0.174 HD
ATOM     48  H71 UNL     1      -7.211  -3.773  -0.624  1.00  0.00     0.174 HD
ENDBRANCH  33  46
BRANCH  39  49
HETATM   49  N11 UNL     1      -8.768   0.584  -0.643  1.00  0.00    -0.333 N 
ATOM     50 2H11 UNL     1      -8.999  -0.371  -0.916  1.00  0.00     0.177 HD
ATOM     51 1H11 UNL     1      -9.455   1.314  -0.829  1.00  0.00     0.177 HD
ENDBRANCH  39  49
ENDBRANCH  30  31
ENDBRANCH  29  30
ENDBRANCH  27  29
ENDBRANCH   1  27
TORSDOF 13
