REMARK  12 active torsions:
REMARK  status: ('A' for Active; 'I' for Inactive)
REMARK    1  A    between atoms: N1_1  and  C1_4 
REMARK    2  A    between atoms: C3_9  and  C4_10 
REMARK    3  A    between atoms: C4_10  and  C5_12 
REMARK       I    between atoms: C5_12  and  N4_14 
REMARK    4  A    between atoms: N4_14  and  O3_16 
REMARK    5  A    between atoms: O3_16  and  C6_17 
REMARK    6  A    between atoms: C6_17  and  C7_18 
REMARK    7  A    between atoms: C7_18  and  O4_19 
REMARK    8  A    between atoms: O4_19  and  C8_20 
REMARK       I    between atoms: C8_20  and  N5_22 
REMARK    9  A    between atoms: N5_22  and  C9_24 
REMARK   10  A    between atoms: N8_31  and  O6_32 
REMARK   11  A    between atoms: C14_35  and  C15_36 
REMARK   12  A    between atoms: C17_41  and  O9_42 
ROOT
HETATM    1  C8  UNL     1      -0.028  -0.755  -0.555  1.00  0.00     0.367 C 
HETATM    2  O5  UNL     1      -0.471  -0.595  -1.670  1.00  0.00    -0.238 OA
HETATM    3  N5  UNL     1      -0.651  -0.746   0.666  1.00  0.00    -0.274 N 
ATOM      4  H5  UNL     1       0.031  -0.884   1.412  1.00  0.00     0.174 HD
ENDROOT
BRANCH   3   5
HETATM    5  C9  UNL     1      -1.916  -0.608   1.194  1.00  0.00     0.189 C 
HETATM    6  N6  UNL     1      -2.096  -0.675   2.563  1.00  0.00    -0.360 N 
HETATM    7  C10 UNL     1      -3.489  -0.520   2.878  1.00  0.00     0.149 C 
ATOM      8  H6  UNL     1      -1.352  -0.814   3.247  1.00  0.00     0.162 HD
HETATM    9  C11 UNL     1      -4.085  -1.102   1.572  1.00  0.00     0.129 C 
HETATM   10  C12 UNL     1      -5.496  -0.718   1.381  1.00  0.00     0.148 C 
HETATM   11  N10 UNL     1      -3.177  -0.359   0.664  1.00  0.00    -0.278 N 
HETATM   12  N7  UNL     1      -5.643   0.655   0.939  1.00  0.00    -0.152 NA
HETATM   13  N8  UNL     1      -6.998   1.015   1.034  1.00  0.00    -0.191 N 
HETATM   14  C17 UNL     1      -5.174   0.807  -0.443  1.00  0.00     0.283 C 
HETATM   15  C13 UNL     1      -7.911   0.508   0.066  1.00  0.00     0.158 C 
HETATM   16  C14 UNL     1      -7.461   0.015  -1.089  1.00  0.00     0.099 C 
HETATM   17  C16 UNL     1      -6.033  -0.003  -1.327  1.00  0.00     0.227 C 
HETATM   18  O8  UNL     1      -5.575  -0.718  -2.279  1.00  0.00    -0.287 OA
HETATM   19  C18 UNL     1      -3.749   0.385  -0.391  1.00  0.00     0.287 C 
HETATM   20  O10 UNL     1      -2.996   0.694  -1.330  1.00  0.00    -0.267 OA
BRANCH  13  21
HETATM   21  O6  UNL     1      -7.395   1.814   2.032  1.00  0.00    -0.272 OA
ATOM     22  H6  UNL     1      -8.311   2.057   2.096  1.00  0.00     0.246 HD
ENDBRANCH  13  21
BRANCH  16  23
HETATM   23  C15 UNL     1      -8.446  -0.494  -2.043  1.00  0.00     0.270 C 
HETATM   24  N9  UNL     1      -9.833  -0.478  -1.669  1.00  0.00    -0.057 NA
HETATM   25  O7  UNL     1      -8.061  -0.922  -3.143  1.00  0.00    -0.271 OA
ENDBRANCH  16  23
BRANCH  14  26
HETATM   26  O9  UNL     1      -5.276   2.174  -0.735  1.00  0.00    -0.360 OA
ATOM     27  H9  UNL     1      -4.972   2.272  -1.630  1.00  0.00     0.213 HD
ENDBRANCH  14  26
ENDBRANCH   3   5
BRANCH   1  28
HETATM   28  O4  UNL     1       1.337  -1.017  -0.529  1.00  0.00    -0.302 OA
BRANCH  28  29
HETATM   29  C7  UNL     1       2.417  -1.151  -1.247  1.00  0.00     0.209 C 
BRANCH  29  30
HETATM   30  C6  UNL     1       3.165   0.141  -1.607  1.00  0.00     0.228 C 
BRANCH  30  31
HETATM   31  O3  UNL     1       3.437   0.625  -0.261  1.00  0.00    -0.275 OA
BRANCH  31  32
HETATM   32  N4  UNL     1       4.665   0.497   0.067  1.00  0.00    -0.228 N 
HETATM   33  C5  UNL     1       5.947   0.854  -0.303  1.00  0.00     0.317 C 
HETATM   34  O2  UNL     1       6.249   1.600  -1.275  1.00  0.00    -0.262 OA
ATOM     35  H4  UNL     1       4.718  -0.078   0.908  1.00  0.00     0.198 HD
BRANCH  33  36
HETATM   36  C4  UNL     1       7.071   0.321   0.501  1.00  0.00     0.271 C 
HETATM   37  O1  UNL     1       6.730  -0.342   1.565  1.00  0.00    -0.280 OA
BRANCH  36  38
HETATM   38  C3  UNL     1       8.447   0.466   0.221  1.00  0.00     0.146 A 
HETATM   39  C2  UNL     1       9.470  -0.103   1.002  1.00  0.00     0.163 A 
HETATM   40  N2  UNL     1      10.651   0.204   0.481  1.00  0.00    -0.177 N 
HETATM   41  N3  UNL     1       9.305  -0.905   2.186  1.00  0.00    -0.080 NA
HETATM   42  C1  UNL     1      10.438   0.950  -0.607  1.00  0.00     0.677 A 
ATOM     43  H2  UNL     1      11.560  -0.079   0.846  1.00  0.00     0.185 HD
HETATM   44  N11 UNL     1       9.097   1.108  -0.763  1.00  0.00    -0.184 N 
ATOM     45  H11 UNL     1       8.652   1.635  -1.514  1.00  0.00     0.184 HD
BRANCH  42  46
HETATM   46  N1  UNL     1      11.325   1.446  -1.424  1.00  0.00    -0.234 N 
ATOM     47  H12 UNL     1      12.331   1.327  -1.307  1.00  0.00     0.174 HD
ATOM     48  H11 UNL     1      11.162   2.015  -2.254  1.00  0.00     0.174 HD
ENDBRANCH  42  46
ENDBRANCH  36  38
ENDBRANCH  33  36
ENDBRANCH  31  32
ENDBRANCH  30  31
ENDBRANCH  29  30
ENDBRANCH  28  29
ENDBRANCH   1  28
TORSDOF 12
