REMARK  4 active torsions:
REMARK  status: ('A' for Active; 'I' for Inactive)
REMARK    1  A    between atoms: N1_1  and  C1_5 
REMARK    2  A    between atoms: C1_5  and  C2_6 
REMARK       I    between atoms: C2_6  and  N2_8 
REMARK    3  A    between atoms: N2_8  and  N3_10 
REMARK    4  A    between atoms: N3_10  and  C3_12 
ROOT
HETATM    1  C3  UNL     1      -0.080  -0.280   1.320  1.00  0.00     0.191 C 
HETATM    2  N4  UNL     1      -0.378  -0.066   0.028  1.00  0.00    -0.321 N 
ATOM      3  H4  UNL     1       0.378  -0.268  -0.626  1.00  0.00     0.169 HD
HETATM    4  C4  UNL     1      -1.532   0.379  -0.548  1.00  0.00     0.144 A 
HETATM    5  N5  UNL     1      -1.841   0.290  -1.852  1.00  0.00    -0.292 N 
ATOM      6  H5  UNL     1      -1.247  -0.122  -2.572  1.00  0.00     0.172 HD
HETATM    7  C5  UNL     1      -3.054   0.829  -2.061  1.00  0.00     0.326 A 
HETATM    8  O2  UNL     1      -3.671   0.922  -3.169  1.00  0.00    -0.247 OA
HETATM    9  N6  UNL     1      -3.507   1.261  -0.857  1.00  0.00    -0.301 N 
ATOM     10  H6  UNL     1      -4.406   1.716  -0.696  1.00  0.00     0.171 HD
HETATM   11  C6  UNL     1      -2.592   0.998   0.090  1.00  0.00     0.149 A 
HETATM   12  C7  UNL     1      -2.716   1.300   1.438  1.00  0.00     0.279 C 
HETATM   13  O3  UNL     1      -3.522   2.225   1.693  1.00  0.00    -0.265 OA
HETATM   14  N7  UNL     1      -2.064   0.700   2.441  1.00  0.00    -0.285 N 
ATOM     15  H7  UNL     1      -2.479   0.803   3.367  1.00  0.00     0.172 HD
HETATM   16  C8  UNL     1      -0.921  -0.028   2.382  1.00  0.00     0.293 C 
HETATM   17  O4  UNL     1      -0.567  -0.560   3.463  1.00  0.00    -0.264 OA
ENDROOT
BRANCH   1  18
HETATM   18  N3  UNL     1       1.092  -0.760   1.567  1.00  0.00    -0.278 N 
ATOM     19  H3  UNL     1       1.383  -0.946   2.527  1.00  0.00     0.189 HD
BRANCH  18  20
HETATM   20  N2  UNL     1       1.957  -1.021   0.501  1.00  0.00    -0.267 N 
HETATM   21  C2  UNL     1       3.181  -0.331   0.343  1.00  0.00     0.261 C 
HETATM   22  O1  UNL     1       3.525   0.548   1.172  1.00  0.00    -0.270 OA
ATOM     23  H2  UNL     1       1.698  -1.731  -0.184  1.00  0.00     0.190 HD
BRANCH  21  24
HETATM   24  C1  UNL     1       4.072  -0.625  -0.788  1.00  0.00     0.333 C 
BRANCH  24  25
HETATM   25  N1  UNL     1       3.490  -1.657  -1.610  1.00  0.00    -0.071 N 
ATOM     26  H13 UNL     1       3.263  -2.494  -1.073  1.00  0.00     0.274 HD
ATOM     27  H12 UNL     1       2.547  -1.418  -1.916  1.00  0.00     0.274 HD
ATOM     28  H11 UNL     1       4.108  -1.861  -2.395  1.00  0.00     0.274 HD
ENDBRANCH  24  25
ENDBRANCH  21  24
ENDBRANCH  18  20
ENDBRANCH   1  18
TORSDOF 4
