REMARK  4 active torsions:
REMARK  status: ('A' for Active; 'I' for Inactive)
REMARK    1  A    between atoms: N1_1  and  C1_5 
REMARK    2  A    between atoms: C1_5  and  N2_6 
REMARK    3  A    between atoms: C1_5  and  C2_10 
REMARK       I    between atoms: C2_10  and  N3_12 
REMARK    4  A    between atoms: N3_12  and  C3_14 
ROOT
HETATM    1  C3  UNL     1       0.290  -0.413  -0.752  1.00  0.00     0.178 A 
HETATM    2  N4  UNL     1      -0.490   0.484  -0.118  1.00  0.00    -0.330 N 
ATOM      3  H4  UNL     1      -0.058   1.338   0.236  1.00  0.00     0.168 HD
HETATM    4  C4  UNL     1      -1.809   0.309   0.071  1.00  0.00     0.147 A 
HETATM    5  C5  UNL     1      -2.591   1.241   0.724  1.00  0.00     0.280 A 
HETATM    6  O2  UNL     1      -2.035   2.285   1.151  1.00  0.00    -0.265 OA
HETATM    7  N5  UNL     1      -3.916   1.003   0.881  1.00  0.00    -0.273 N 
ATOM      8  H5  UNL     1      -4.510   1.680   1.361  1.00  0.00     0.173 HD
HETATM    9  C6  UNL     1      -4.439  -0.142   0.394  1.00  0.00     0.328 A 
HETATM   10  O3  UNL     1      -5.669  -0.340   0.552  1.00  0.00    -0.247 OA
HETATM   11  N6  UNL     1      -3.704  -1.056  -0.239  1.00  0.00    -0.292 N 
ATOM     12  H6  UNL     1      -4.140  -1.908  -0.591  1.00  0.00     0.172 HD
HETATM   13  C7  UNL     1      -2.382  -0.851  -0.413  1.00  0.00     0.145 A 
HETATM   14  N7  UNL     1      -1.630  -1.782  -1.059  1.00  0.00    -0.304 N 
ATOM     15  H7  UNL     1      -2.065  -2.634  -1.412  1.00  0.00     0.171 HD
HETATM   16  C8  UNL     1      -0.312  -1.578  -1.232  1.00  0.00     0.291 A 
HETATM   17  O4  UNL     1       0.369  -2.436  -1.825  1.00  0.00    -0.264 OA
ENDROOT
BRANCH   1  18
HETATM   18  N3  UNL     1       1.537  -0.287  -0.951  1.00  0.00    -0.305 N 
HETATM   19  C2  UNL     1       2.360   0.769  -0.574  1.00  0.00     0.281 C 
HETATM   20  O1  UNL     1       2.062   1.940  -0.892  1.00  0.00    -0.269 OA
ATOM     21  H3  UNL     1       1.991  -1.053  -1.448  1.00  0.00     0.170 HD
BRANCH  19  22
HETATM   22  C1  UNL     1       3.599   0.567   0.203  1.00  0.00     0.468 C 
BRANCH  22  23
HETATM   23  N1  UNL     1       3.788  -0.838   0.483  1.00  0.00    -0.042 N 
ATOM     24  H13 UNL     1       3.863  -1.413  -0.356  1.00  0.00     0.277 HD
ATOM     25  H12 UNL     1       4.708  -1.056   0.866  1.00  0.00     0.277 HD
ATOM     26  H11 UNL     1       3.018  -1.110   1.095  1.00  0.00     0.277 HD
ENDBRANCH  22  23
BRANCH  22  27
HETATM   27  N2  UNL     1       4.709   0.959  -0.679  1.00  0.00    -0.042 N 
ATOM     28  H23 UNL     1       5.629   0.741  -0.296  1.00  0.00     0.277 HD
ATOM     29  H22 UNL     1       4.784   0.384  -1.518  1.00  0.00     0.277 HD
ATOM     30  H21 UNL     1       4.576   1.951  -0.877  1.00  0.00     0.277 HD
ENDBRANCH  22  27
ENDBRANCH  19  22
ENDBRANCH   1  18
TORSDOF 4
