REMARK  4 active torsions:
REMARK  status: ('A' for Active; 'I' for Inactive)
REMARK       I    between atoms: C2_2  and  N1_4 
REMARK    1  A    between atoms: N1_4  and  N2_6 
REMARK    2  A    between atoms: N2_6  and  C3_8 
REMARK    3  A    between atoms: C5_15  and  N5_16 
REMARK    4  A    between atoms: N5_16  and  N6_18 
ROOT
HETATM    1  C3  UNL     1      -1.475   0.324   0.879  1.00  0.00     0.194 C 
HETATM    2  N3  UNL     1      -1.141   0.155  -0.416  1.00  0.00    -0.288 N 
ATOM      3  H3  UNL     1      -1.922   0.011  -1.057  1.00  0.00     0.172 HD
HETATM    4  C4  UNL     1       0.087   0.150  -0.982  1.00  0.00     0.340 C 
HETATM    5  O2  UNL     1       0.148  -0.252  -2.177  1.00  0.00    -0.246 OA
HETATM    6  N4  UNL     1       1.251   0.520  -0.429  1.00  0.00    -0.140 N 
ATOM      7  H4  UNL     1       1.983   0.810  -1.077  1.00  0.00     0.189 HD
HETATM    8  C5  UNL     1       1.569   0.555   0.873  1.00  0.00     0.704 C 
HETATM    9  N9  UNL     1       0.772   0.312   1.925  1.00  0.00    -0.151 N 
ATOM     10  H9  UNL     1       1.224   0.060   2.804  1.00  0.00     0.188 HD
HETATM   11  C7  UNL     1      -0.572   0.373   1.919  1.00  0.00     0.305 C 
HETATM   12  O3  UNL     1      -1.126   0.497   3.038  1.00  0.00    -0.263 OA
ENDROOT
BRANCH   1  13
HETATM   13  N2  UNL     1      -2.714   0.450   1.192  1.00  0.00    -0.278 N 
ATOM     14  H2  UNL     1      -2.951   0.577   2.176  1.00  0.00     0.189 HD
BRANCH  13  15
HETATM   15  N1  UNL     1      -3.744   0.424   0.273  1.00  0.00    -0.269 N 
HETATM   16  C2  UNL     1      -4.454  -0.750  -0.061  1.00  0.00     0.232 C 
HETATM   17  C1  UNL     1      -5.550  -0.726  -1.053  1.00  0.00     0.119 C 
HETATM   18  O1  UNL     1      -4.166  -1.844   0.481  1.00  0.00    -0.272 OA
ATOM     19  H1  UNL     1      -4.005   1.296  -0.187  1.00  0.00     0.190 HD
ENDBRANCH  13  15
ENDBRANCH   1  13
BRANCH   8  20
HETATM   20  N5  UNL     1       2.789   0.857   1.210  1.00  0.00    -0.130 N 
ATOM     21  H5  UNL     1       3.079   0.897   2.187  1.00  0.00     0.205 HD
BRANCH  20  22
HETATM   22  N6  UNL     1       3.679   1.123   0.173  1.00  0.00    -0.262 N 
HETATM   23  C6  UNL     1       4.498   0.209  -0.203  1.00  0.00     0.216 C 
HETATM   24  N7  UNL     1       4.467  -1.044   0.453  1.00  0.00    -0.065 NA
HETATM   25  N8  UNL     1       5.413   0.484  -1.269  1.00  0.00    -0.065 NA
ATOM     26  H6  UNL     1       3.680   2.035  -0.283  1.00  0.00     0.190 HD
ENDBRANCH  20  22
ENDBRANCH   8  20
TORSDOF 4
