REMARK  3 active torsions:
REMARK  status: ('A' for Active; 'I' for Inactive)
REMARK    1  A    between atoms: N1_1  and  C1_4 
REMARK    2  A    between atoms: C2_7  and  C3_8 
REMARK    3  A    between atoms: C3_8  and  N3_9 
ROOT
HETATM    1  N3  UNL     1      -0.146  -1.564   0.795  1.00  0.00    -0.344 N 
ATOM      2  H3  UNL     1      -0.160  -1.861   1.771  1.00  0.00     0.167 HD
HETATM    3  C4  UNL     1      -1.162  -0.914   0.503  1.00  0.00     0.177 C 
HETATM    4  N4  UNL     1      -2.105  -0.732   1.582  1.00  0.00    -0.301 N 
ATOM      5  H4  UNL     1      -2.049  -1.414   2.339  1.00  0.00     0.171 HD
HETATM    6  C5  UNL     1      -3.111   0.282   1.730  1.00  0.00     0.303 C 
HETATM    7  O1  UNL     1      -3.817   0.289   2.761  1.00  0.00    -0.263 OA
HETATM    8  C6  UNL     1      -3.442   1.363   0.795  1.00  0.00     0.306 C 
HETATM    9  O2  UNL     1      -4.264   2.241   1.158  1.00  0.00    -0.276 OA
HETATM   10  C7  UNL     1      -2.929   1.573  -0.554  1.00  0.00     0.304 C 
HETATM   11  O3  UNL     1      -3.363   2.564  -1.187  1.00  0.00    -0.263 OA
HETATM   12  N5  UNL     1      -1.979   0.806  -1.298  1.00  0.00    -0.284 N 
ATOM     13  H5  UNL     1      -1.735   1.136  -2.232  1.00  0.00     0.172 HD
HETATM   14  C8  UNL     1      -1.340  -0.397  -0.830  1.00  0.00     0.292 C 
HETATM   15  O4  UNL     1      -0.869  -1.095  -1.739  1.00  0.00    -0.264 OA
ENDROOT
BRANCH   1  16
HETATM   16  C3  UNL     1       1.011  -1.998   0.146  1.00  0.00     0.140 C 
BRANCH  16  17
HETATM   17  C2  UNL     1       2.037  -0.901   0.191  1.00  0.00     0.151 A 
HETATM   18  N2  UNL     1       2.314   0.047  -0.714  1.00  0.00    -0.173 N 
HETATM   19  C1  UNL     1       3.302   0.806  -0.246  1.00  0.00     0.692 A 
ATOM     20  H2  UNL     1       1.846   0.167  -1.612  1.00  0.00     0.186 HD
HETATM   21  N7  UNL     1       3.652   0.335   0.963  1.00  0.00    -0.131 N 
HETATM   22  N6  UNL     1       2.883  -0.693   1.214  1.00  0.00    -0.270 N 
ATOM     23  H7  UNL     1       4.381   0.709   1.571  1.00  0.00     0.205 HD
ATOM     24  H6  UNL     1       2.920  -1.256   2.064  1.00  0.00     0.189 HD
BRANCH  19  25
HETATM   25  N1  UNL     1       3.869   1.841  -0.823  1.00  0.00    -0.233 N 
ATOM     26  H12 UNL     1       3.603   2.198  -1.741  1.00  0.00     0.174 HD
ATOM     27  H11 UNL     1       4.626   2.423  -0.464  1.00  0.00     0.174 HD
ENDBRANCH  19  25
ENDBRANCH  16  17
ENDBRANCH   1  16
TORSDOF 3
