REMARK  3 active torsions:
REMARK  status: ('A' for Active; 'I' for Inactive)
REMARK    1  A    between atoms: C2_2  and  N1_4 
REMARK    2  A    between atoms: C2_2  and  S1_8 
REMARK    3  A    between atoms: S1_8  and  N2_11 
ROOT
HETATM    1  N2  UNL     1       0.256  -0.224   0.689  1.00  0.00    -0.264 N 
ATOM      2  H2  UNL     1      -0.065  -0.630   1.568  1.00  0.00     0.180 HD
HETATM    3  C4  UNL     1       1.525  -0.112   0.428  1.00  0.00     0.186 A 
HETATM    4  N3  UNL     1       2.010   0.444  -0.781  1.00  0.00    -0.172 N 
ATOM      5  H3  UNL     1       1.355   0.776  -1.489  1.00  0.00     0.186 HD
HETATM    6  C5  UNL     1       3.406   0.539  -1.008  1.00  0.00     0.680 A 
HETATM    7  N4  UNL     1       3.892   1.045  -2.109  1.00  0.00    -0.234 N 
ATOM      8  H41 UNL     1       4.897   1.113  -2.272  1.00  0.00     0.174 HD
ATOM      9  H42 UNL     1       3.260   1.386  -2.833  1.00  0.00     0.174 HD
HETATM   10  N5  UNL     1       4.287   0.064   0.001  1.00  0.00    -0.153 N 
ATOM     11  H5  UNL     1       5.291   0.133  -0.167  1.00  0.00     0.187 HD
HETATM   12  C6  UNL     1       3.850  -0.504   1.234  1.00  0.00     0.313 A 
HETATM   13  O3  UNL     1       4.651  -0.919   2.115  1.00  0.00    -0.263 OA
HETATM   14  C7  UNL     1       2.418  -0.607   1.480  1.00  0.00     0.284 A 
HETATM   15  O4  UNL     1       1.967  -1.097   2.543  1.00  0.00    -0.278 OA
ENDROOT
BRANCH   1  16
HETATM   16  S1  UNL     1      -0.867   0.332  -0.490  1.00  0.00     0.266 S 
HETATM   17  O1  UNL     1      -0.749  -0.458  -1.763  1.00  0.00    -0.203 OA
HETATM   18  O2  UNL     1      -0.733   1.807  -0.707  1.00  0.00    -0.203 OA
BRANCH  16  19
HETATM   19  C2  UNL     1      -2.514   0.049   0.127  1.00  0.00     0.236 C 
HETATM   20  C1  UNL     1      -3.498   0.529  -0.892  1.00  0.00     0.065 C 
HETATM   21  C3  UNL     1      -2.628  -1.452   0.384  1.00  0.00     0.065 C 
BRANCH  19  22
HETATM   22  N1  UNL     1      -2.646   0.710   1.397  1.00  0.00    -0.055 N 
ATOM     23  H13 UNL     1      -2.590   1.722   1.287  1.00  0.00     0.276 HD
ATOM     24  H12 UNL     1      -3.600   0.632   1.749  1.00  0.00     0.276 HD
ATOM     25  H11 UNL     1      -1.975   0.383   2.092  1.00  0.00     0.276 HD
ENDBRANCH  19  22
ENDBRANCH  16  19
ENDBRANCH   1  16
TORSDOF 3
