REMARK  3 active torsions:
REMARK  status: ('A' for Active; 'I' for Inactive)
REMARK       I    between atoms: N1_2  and  C3_5 
REMARK    1  A    between atoms: C3_5  and  C4_7 
REMARK    2  A    between atoms: C5_8  and  C6_9 
REMARK       I    between atoms: C6_9  and  N3_11 
REMARK    3  A    between atoms: N3_11  and  N4_13 
ROOT
HETATM    1  C1  UNL     1       2.521  -0.404   0.930  1.00  0.00     0.172 C 
HETATM    2  N1  UNL     1       2.377  -0.658  -0.491  1.00  0.00    -0.255 N 
HETATM    3  C2  UNL     1       3.317  -1.514  -1.075  1.00  0.00     0.186 C 
HETATM    4  N2  UNL     1       4.087  -2.238  -1.567  1.00  0.00    -0.172 NA
HETATM    5  C3  UNL     1       1.323  -0.056  -1.243  1.00  0.00     0.274 C 
HETATM    6  O1  UNL     1       1.270  -0.323  -2.472  1.00  0.00    -0.266 OA
ENDROOT
BRANCH   5   7
HETATM    7  C4  UNL     1       0.342   0.829  -0.649  1.00  0.00     0.133 A 
HETATM    8  C5  UNL     1      -0.849   0.377  -0.122  1.00  0.00     0.127 A 
HETATM    9  N5  UNL     1      -1.735   1.256   0.434  1.00  0.00    -0.303 N 
HETATM   10  C7  UNL     1      -1.470   2.561   0.479  1.00  0.00     0.327 A 
ATOM     11  H5  UNL     1      -2.612   0.908   0.820  1.00  0.00     0.171 HD
HETATM   12  O3  UNL     1      -2.327   3.342   1.007  1.00  0.00    -0.247 OA
HETATM   13  N6  UNL     1      -0.316   3.016  -0.030  1.00  0.00    -0.275 N 
HETATM   14  C8  UNL     1       0.585   2.193  -0.586  1.00  0.00     0.267 A 
ATOM     15  H6  UNL     1      -0.118   4.016   0.007  1.00  0.00     0.173 HD
HETATM   16  O4  UNL     1       1.645   2.688  -1.043  1.00  0.00    -0.267 OA
BRANCH   8  17
HETATM   17  C6  UNL     1      -1.165  -1.039  -0.166  1.00  0.00     0.287 C 
HETATM   18  O2  UNL     1      -0.372  -1.859  -0.698  1.00  0.00    -0.264 OA
HETATM   19  N3  UNL     1      -2.360  -1.579   0.375  1.00  0.00    -0.271 N 
ATOM     20  H3  UNL     1      -3.038  -0.959   0.818  1.00  0.00     0.189 HD
BRANCH  19  21
HETATM   21  N4  UNL     1      -2.622  -2.962   0.307  1.00  0.00    -0.342 N 
ATOM     22  H42 UNL     1      -1.934  -3.568  -0.140  1.00  0.00     0.176 HD
ATOM     23  H41 UNL     1      -3.481  -3.350   0.696  1.00  0.00     0.176 HD
ENDBRANCH  19  21
ENDBRANCH   8  17
ENDBRANCH   5   7
TORSDOF 3
