REMARK  4 active torsions:
REMARK  status: ('A' for Active; 'I' for Inactive)
REMARK    1  A    between atoms: N1_1  and  N2_4 
REMARK       I    between atoms: N2_4  and  C1_6 
REMARK    2  A    between atoms: C1_6  and  C2_8 
REMARK    3  A    between atoms: C3_9  and  S1_10 
REMARK    4  A    between atoms: S1_10  and  N3_11 
ROOT
HETATM    1  C2  UNL     1      -0.042  -0.565   0.109  1.00  0.00     0.141 A 
HETATM    2  C3  UNL     1      -1.104   0.333   0.256  1.00  0.00     0.174 A 
HETATM    3  N4  UNL     1      -2.382  -0.139   0.266  1.00  0.00    -0.296 N 
ATOM      4  H4  UNL     1      -3.157   0.515   0.374  1.00  0.00     0.171 HD
HETATM    5  C4  UNL     1      -2.634  -1.428   0.138  1.00  0.00     0.328 A 
HETATM    6  O4  UNL     1      -3.853  -1.806   0.154  1.00  0.00    -0.247 OA
HETATM    7  N5  UNL     1      -1.671  -2.334  -0.005  1.00  0.00    -0.275 N 
ATOM      8  H5  UNL     1      -1.894  -3.325  -0.102  1.00  0.00     0.173 HD
HETATM    9  C5  UNL     1      -0.375  -1.902  -0.019  1.00  0.00     0.268 A 
HETATM   10  O5  UNL     1       0.471  -2.820  -0.156  1.00  0.00    -0.267 OA
ENDROOT
BRANCH   1  11
HETATM   11  C1  UNL     1       1.352  -0.140   0.130  1.00  0.00     0.278 C 
HETATM   12  N2  UNL     1       2.425  -0.893  -0.382  1.00  0.00    -0.272 N 
ATOM     13  H2  UNL     1       2.257  -1.804  -0.809  1.00  0.00     0.189 HD
HETATM   14  O1  UNL     1       1.711   0.986   0.630  1.00  0.00    -0.266 OA
BRANCH  12  15
HETATM   15  N1  UNL     1       3.735  -0.377  -0.299  1.00  0.00    -0.342 N 
ATOM     16  H12 UNL     1       3.886   0.535   0.131  1.00  0.00     0.176 HD
ATOM     17  H11 UNL     1       4.513  -0.923  -0.670  1.00  0.00     0.176 HD
ENDBRANCH  12  15
ENDBRANCH   1  11
BRANCH   2  18
HETATM   18  S1  UNL     1      -0.841   2.052   0.417  1.00  0.00     0.273 S 
HETATM   19  O2  UNL     1      -0.272   2.461   1.739  1.00  0.00    -0.199 OA
HETATM   20  O3  UNL     1      -2.234   2.722   0.427  1.00  0.00    -0.199 OA
BRANCH  18  21
HETATM   21  N3  UNL     1      -0.006   2.776  -0.847  1.00  0.00    -0.323 N 
ATOM     22  H32 UNL     1       0.319   2.234  -1.648  1.00  0.00     0.169 HD
ATOM     23  H31 UNL     1       0.148   3.780  -0.753  1.00  0.00     0.169 HD
ENDBRANCH  18  21
ENDBRANCH   2  18
TORSDOF 4
