REMARK  4 active torsions:
REMARK  status: ('A' for Active; 'I' for Inactive)
REMARK    1  A    between atoms: C2_2  and  C4_4 
REMARK    2  A    between atoms: C8_8  and  O1_9 
REMARK    3  A    between atoms: C15_18  and  O3_19 
REMARK    4  A    between atoms: N1_24  and  O4_25 
ROOT
HETATM    1  C4  UNL     1       2.840  -0.452   0.722  1.00  0.00     0.051 C 
HETATM    2  C5  UNL     1       3.005  -1.736  -0.002  1.00  0.00     0.013 C 
HETATM    3  C6  UNL     1       2.585  -1.347  -1.410  1.00  0.00     0.011 C 
HETATM    4  C7  UNL     1       1.408  -0.467  -1.246  1.00  0.00     0.058 C 
HETATM    5  C8  UNL     1       1.691   0.286   0.062  1.00  0.00     0.100 C 
HETATM    6  C9  UNL     1       0.453  -0.004   0.830  1.00  0.00     0.183 C 
HETATM    7  O2  UNL     1       0.165  -1.327   0.435  1.00  0.00    -0.369 OA
HETATM    8  C10 UNL     1       0.121  -1.122  -0.957  1.00  0.00     0.074 C 
HETATM    9  C11 UNL     1      -0.234  -2.309  -1.736  1.00  0.00     0.047 C 
HETATM   10  C12 UNL     1      -0.997  -0.069  -1.016  1.00  0.00     0.015 C 
HETATM   11  C13 UNL     1      -0.752   0.694  -2.292  1.00  0.00     0.020 C 
HETATM   12  C14 UNL     1      -2.347  -0.722  -1.129  1.00  0.00     0.048 C 
HETATM   13  C15 UNL     1      -3.399   0.158  -0.532  1.00  0.00     0.148 C 
HETATM   14  C16 UNL     1      -3.083   0.394   0.911  1.00  0.00     0.073 C 
HETATM   15  C17 UNL     1      -3.599  -0.771   1.766  1.00  0.00     0.043 C 
HETATM   16  C18 UNL     1      -3.921   1.603   1.354  1.00  0.00     0.043 C 
HETATM   17  N1  UNL     1      -1.750   0.633   1.234  1.00  0.00    -0.277 N 
HETATM   18  C19 UNL     1      -0.776   0.697   0.226  1.00  0.00     0.152 C 
ENDROOT
BRANCH   1  19
HETATM   19  C2  UNL     1       4.032   0.393   0.860  1.00  0.00    -0.086 C 
HETATM   20  C1  UNL     1       5.217   0.158   0.319  1.00  0.00     0.014 C 
HETATM   21  C3  UNL     1       3.895   1.639   1.703  1.00  0.00     0.043 C 
ENDBRANCH   1  19
BRANCH   5  22
HETATM   22  O1  UNL     1       1.937   1.614  -0.158  1.00  0.00    -0.386 OA
ATOM     23  H1  UNL     1       1.217   2.076  -0.571  1.00  0.00     0.210 HD
ENDBRANCH   5  22
BRANCH  17  24
HETATM   24  O4  UNL     1      -1.549   1.635   2.125  1.00  0.00    -0.291 OA
ATOM     25  H4  UNL     1      -0.639   1.798   2.345  1.00  0.00     0.244 HD
ENDBRANCH  17  24
BRANCH  13  26
HETATM   26  O3  UNL     1      -3.525   1.389  -1.139  1.00  0.00    -0.393 OA
ATOM     27  H3  UNL     1      -4.193   1.948  -0.760  1.00  0.00     0.210 HD
ENDBRANCH  13  26
TORSDOF 4
