REMARK  4 active torsions:
REMARK  status: ('A' for Active; 'I' for Inactive)
REMARK    1  A    between atoms: O1_2  and  C2_3 
REMARK    2  A    between atoms: C4_5  and  O2_6 
REMARK    3  A    between atoms: C18_22  and  O4_23 
REMARK    4  A    between atoms: C19_25  and  O5_26 
ROOT
HETATM    1  C2  UNL     1      -3.228  -1.285  -0.788  1.00  0.00     0.155 C 
HETATM    2  C3  UNL     1      -1.805  -1.699  -0.999  1.00  0.00     0.079 C 
HETATM    3  C4  UNL     1      -1.303  -2.618   0.123  1.00  0.00     0.199 C 
HETATM    4  C5  UNL     1       0.018  -2.401   0.505  1.00  0.00    -0.075 C 
HETATM    5  C6  UNL     1       1.077  -2.229   0.833  1.00  0.00    -0.104 C 
HETATM    6  C7  UNL     1       2.412  -2.013   1.273  1.00  0.00     0.094 C 
HETATM    7  C8  UNL     1       3.473  -2.565   0.366  1.00  0.00     0.012 C 
HETATM    8  C9  UNL     1       3.758  -1.734  -0.829  1.00  0.00     0.001 C 
HETATM    9  C10 UNL     1       3.329  -0.313  -0.737  1.00  0.00     0.000 C 
HETATM   10  C11 UNL     1       4.365   0.577  -0.051  1.00  0.00     0.000 C 
HETATM   11  C12 UNL     1       3.848   1.997  -0.128  1.00  0.00     0.002 C 
HETATM   12  C13 UNL     1       3.031   2.340   1.081  1.00  0.00     0.026 C 
HETATM   13  C14 UNL     1       1.928   3.326   0.714  1.00  0.00     0.167 C 
HETATM   14  O3  UNL     1       0.794   2.563   0.405  1.00  0.00    -0.391 OA
HETATM   15  C15 UNL     1      -0.353   3.349   0.553  1.00  0.00     0.167 C 
HETATM   16  C16 UNL     1      -1.507   2.789  -0.226  1.00  0.00     0.029 C 
HETATM   17  C17 UNL     1      -2.571   2.175   0.667  1.00  0.00     0.036 C 
HETATM   18  C18 UNL     1      -2.549   0.675   0.594  1.00  0.00     0.149 C 
HETATM   19  C19 UNL     1      -3.405   0.191  -0.574  1.00  0.00     0.175 C 
ENDROOT
BRANCH   1  20
HETATM   20  O1  UNL     1      -4.083  -1.692  -1.782  1.00  0.00    -0.388 OA
HETATM   21  C1  UNL     1      -5.075  -2.556  -1.363  1.00  0.00     0.202 C 
ENDBRANCH   1  20
BRANCH  19  22
HETATM   22  O5  UNL     1      -3.218   0.943  -1.705  1.00  0.00    -0.390 OA
ATOM     23  H5  UNL     1      -3.330   1.877  -1.570  1.00  0.00     0.210 HD
ENDBRANCH  19  22
BRANCH   3  24
HETATM   24  O2  UNL     1      -1.504  -3.960  -0.230  1.00  0.00    -0.383 OA
ATOM     25  H2  UNL     1      -1.193  -4.529   0.465  1.00  0.00     0.211 HD
ENDBRANCH   3  24
BRANCH  18  26
HETATM   26  O4  UNL     1      -3.154   0.193   1.760  1.00  0.00    -0.393 OA
ATOM     27  H4  UNL     1      -3.140  -0.756   1.714  1.00  0.00     0.210 HD
ENDBRANCH  18  26
TORSDOF 4
