REMARK  4 active torsions:
REMARK  status: ('A' for Active; 'I' for Inactive)
REMARK    1  A    between atoms: C5_6  and  O2_7 
REMARK    2  A    between atoms: C5_6  and  C6_9 
REMARK    3  A    between atoms: C6_9  and  O3_10 
REMARK    4  A    between atoms: C18_24  and  O5_25 
ROOT
HETATM    1  C1  UNL     1      -1.876  -1.361  -2.108  1.00  0.00     0.018 C 
HETATM    2  C2  UNL     1      -1.341  -0.876  -0.750  1.00  0.00    -0.015 C 
HETATM    3  C3  UNL     1      -1.635  -1.979   0.227  1.00  0.00     0.177 C 
HETATM    4  O1  UNL     1      -2.058  -1.603   1.464  1.00  0.00    -0.387 OA
HETATM    5  C4  UNL     1      -3.118  -0.741   1.489  1.00  0.00     0.208 C 
HETATM    6  C5  UNL     1      -3.383  -0.049   0.198  1.00  0.00     0.104 C 
HETATM    7  C7  UNL     1      -2.074   0.386  -0.432  1.00  0.00     0.034 C 
HETATM    8  C8  UNL     1      -1.446   1.413   0.393  1.00  0.00     0.009 C 
HETATM    9  C9  UNL     1      -0.122   1.976  -0.042  1.00  0.00     0.012 C 
HETATM   10  C10 UNL     1       1.087   1.211   0.219  1.00  0.00    -0.010 C 
HETATM   11  C11 UNL     1       1.752   1.320   1.550  1.00  0.00     0.178 C 
HETATM   12  O4  UNL     1       2.379   0.096   1.811  1.00  0.00    -0.384 OA
HETATM   13  C12 UNL     1       2.067  -0.779   0.745  1.00  0.00     0.136 C 
HETATM   14  C13 UNL     1       0.759  -0.281   0.297  1.00  0.00     0.027 C 
HETATM   15  C14 UNL     1       0.159  -0.713  -0.952  1.00  0.00     0.020 C 
HETATM   16  C15 UNL     1       3.185  -0.669  -0.241  1.00  0.00     0.005 C 
HETATM   17  C16 UNL     1       4.479  -0.558   0.582  1.00  0.00     0.020 C 
HETATM   18  C17 UNL     1       3.348  -1.941  -1.059  1.00  0.00     0.020 C 
HETATM   19  C18 UNL     1       3.070   0.472  -1.184  1.00  0.00     0.129 C 
HETATM   20  C19 UNL     1       2.112   1.531  -0.831  1.00  0.00     0.044 C 
ENDROOT
BRANCH   6  21
HETATM   21  O2  UNL     1      -3.989  -1.008  -0.668  1.00  0.00    -0.385 OA
ATOM     22  H2  UNL     1      -4.158  -0.566  -1.492  1.00  0.00     0.210 HD
ENDBRANCH   6  21
BRANCH   6  23
HETATM   23  C6  UNL     1      -4.416   1.018   0.351  1.00  0.00     0.204 C 
BRANCH  23  24
HETATM   24  O3  UNL     1      -4.123   2.042   1.229  1.00  0.00    -0.398 OA
ATOM     25  H3  UNL     1      -4.780   2.721   1.326  1.00  0.00     0.209 HD
ENDBRANCH  23  24
ENDBRANCH   6  23
BRANCH  19  26
HETATM   26  O5  UNL     1       4.364   1.029  -1.329  1.00  0.00    -0.395 OA
ATOM     27  H5  UNL     1       4.290   1.759  -1.932  1.00  0.00     0.210 HD
ENDBRANCH  19  26
TORSDOF 4
