REMARK  4 active torsions:
REMARK  status: ('A' for Active; 'I' for Inactive)
REMARK    1  A    between atoms: C10_12  and  O3_13 
REMARK    2  A    between atoms: C14_18  and  O4_19 
REMARK    3  A    between atoms: C15_21  and  C16_22 
REMARK    4  A    between atoms: C16_22  and  O5_23 
ROOT
HETATM    1  C1  UNL     1       2.693   2.916   0.527  1.00  0.00     0.010 C 
HETATM    2  C2  UNL     1       1.633   1.928   0.086  1.00  0.00    -0.012 C 
HETATM    3  C3  UNL     1       0.239   2.286   0.541  1.00  0.00     0.005 C 
HETATM    4  C4  UNL     1      -0.830   2.362  -0.530  1.00  0.00     0.003 C 
HETATM    5  C5  UNL     1      -2.110   1.663  -0.315  1.00  0.00     0.038 C 
HETATM    6  C6  UNL     1      -2.488   0.384  -0.915  1.00  0.00     0.066 C 
HETATM    7  C7  UNL     1      -2.676   0.568  -2.412  1.00  0.00     0.046 C 
HETATM    8  O1  UNL     1      -3.786   0.111  -0.404  1.00  0.00    -0.356 OA
HETATM    9  C8  UNL     1      -3.806  -0.320   0.883  1.00  0.00     0.339 C 
HETATM   10  O2  UNL     1      -2.996  -1.409   1.199  1.00  0.00    -0.359 OA
HETATM   11  C9  UNL     1      -1.658  -1.058   0.814  1.00  0.00     0.159 C 
HETATM   12  C10 UNL     1      -0.651  -1.907   1.468  1.00  0.00     0.148 C 
HETATM   13  C11 UNL     1       0.626  -1.150   1.929  1.00  0.00     0.040 C 
HETATM   14  C12 UNL     1       1.105  -0.452   0.779  1.00  0.00     0.008 C 
HETATM   15  C13 UNL     1       2.137   0.563   0.624  1.00  0.00     0.024 C 
HETATM   16  C14 UNL     1       2.575  -0.277  -0.600  1.00  0.00     0.134 C 
HETATM   17  C15 UNL     1       1.663  -1.406  -0.233  1.00  0.00     0.011 C 
HETATM   18  C17 UNL     1       0.634  -1.805  -1.235  1.00  0.00     0.015 C 
HETATM   19  C18 UNL     1      -0.536  -0.968  -1.479  1.00  0.00     0.011 C 
HETATM   20  C19 UNL     1      -1.746  -0.911  -0.656  1.00  0.00     0.051 C 
ENDROOT
BRANCH  17  21
HETATM   21  C16 UNL     1       2.466  -2.562   0.297  1.00  0.00     0.176 C 
BRANCH  21  22
HETATM   22  O5  UNL     1       3.574  -2.109   1.011  1.00  0.00    -0.400 OA
ATOM     23  H5  UNL     1       4.081  -2.839   1.346  1.00  0.00     0.209 HD
ENDBRANCH  21  22
ENDBRANCH  17  21
BRANCH  16  24
HETATM   24  O4  UNL     1       2.399   0.298  -1.824  1.00  0.00    -0.394 OA
ATOM     25  H4  UNL     1       2.668  -0.218  -2.575  1.00  0.00     0.210 HD
ENDBRANCH  16  24
BRANCH  12  26
HETATM   26  O3  UNL     1      -1.226  -2.281   2.720  1.00  0.00    -0.393 OA
ATOM     27  H3  UNL     1      -0.575  -2.829   3.142  1.00  0.00     0.210 HD
ENDBRANCH  12  26
TORSDOF 4
