REMARK  5 active torsions:
REMARK  status: ('A' for Active; 'I' for Inactive)
REMARK    1  A    between atoms: C2_2  and  N1_3 
REMARK    2  A    between atoms: N1_3  and  C3_5 
REMARK    3  A    between atoms: C4_8  and  C5_9 
REMARK    4  A    between atoms: C5_9  and  N3_10 
REMARK    5  A    between atoms: C6_17  and  N5_18 
ROOT
HETATM    1  C3  UNL     1       0.351   0.092   0.063  1.00  0.00     0.694 A 
HETATM    2  N2  UNL     1      -0.718  -0.701   0.255  1.00  0.00    -0.175 N 
ATOM      3  H2  UNL     1      -0.581  -1.689   0.469  1.00  0.00     0.185 HD
HETATM    4  C4  UNL     1      -1.975  -0.204   0.167  1.00  0.00     0.174 A 
HETATM    5  N4  UNL     1      -2.113   1.114  -0.121  1.00  0.00    -0.175 N 
ATOM      6  H4  UNL     1      -3.053   1.503  -0.191  1.00  0.00     0.185 HD
HETATM    7  C6  UNL     1      -1.063   1.929  -0.318  1.00  0.00     0.691 A 
HETATM    8  N6  UNL     1       0.185   1.396  -0.221  1.00  0.00    -0.023 N 
ATOM      9  H6  UNL     1       1.001   1.990  -0.365  1.00  0.00     0.203 HD
ENDROOT
BRANCH   4  10
HETATM   10  C5  UNL     1      -3.127  -1.095   0.382  1.00  0.00     0.433 C 
HETATM   11  F1  UNL     1      -3.400  -1.282   1.700  1.00  0.00    -0.211 F 
BRANCH  10  12
HETATM   12  N3  UNL     1      -2.925  -2.342  -0.338  1.00  0.00    -0.041 N 
ATOM     13  H33 UNL     1      -2.739  -2.187  -1.329  1.00  0.00     0.278 HD
ATOM     14  H32 UNL     1      -2.042  -2.789  -0.091  1.00  0.00     0.278 HD
ATOM     15  H31 UNL     1      -3.723  -2.959  -0.189  1.00  0.00     0.278 HD
ENDBRANCH  10  12
ENDBRANCH   4  10
BRANCH   1  16
HETATM   16  N1  UNL     1       1.551  -0.411   0.154  1.00  0.00    -0.226 N 
ATOM     17  H1  UNL     1       1.659  -1.402   0.371  1.00  0.00     0.177 HD
BRANCH  16  18
HETATM   18  C2  UNL     1       2.730   0.398  -0.044  1.00  0.00     0.133 C 
HETATM   19  C1  UNL     1       3.936  -0.427   0.321  1.00  0.00     0.027 C 
ENDBRANCH  16  18
ENDBRANCH   1  16
BRANCH   7  20
HETATM   20  N5  UNL     1      -1.154   3.179  -0.591  1.00  0.00    -0.234 N 
ATOM     21  H52 UNL     1      -2.090   3.579  -0.664  1.00  0.00     0.174 HD
ATOM     22  H51 UNL     1      -0.357   3.798  -0.741  1.00  0.00     0.174 HD
ENDBRANCH   7  20
TORSDOF 5
