REMARK  3 active torsions:
REMARK  status: ('A' for Active; 'I' for Inactive)
REMARK    1  A    between atoms: C2_2  and  N1_3 
REMARK    2  A    between atoms: N1_3  and  C3_5 
REMARK    3  A    between atoms: C5_15  and  N6_16 
ROOT
HETATM    1  C3  UNL     1       0.256  -0.417   0.313  1.00  0.00     0.148 A 
HETATM    2  N2  UNL     1       0.350  -1.755   0.365  1.00  0.00    -0.269 N 
ATOM      3  H2  UNL     1       1.264  -2.188   0.494  1.00  0.00     0.190 HD
HETATM    4  N3  UNL     1      -0.728  -2.527   0.251  1.00  0.00    -0.239 N 
ATOM      5  H3  UNL     1      -0.607  -3.539   0.296  1.00  0.00     0.208 HD
HETATM    6  N4  UNL     1      -1.946  -2.048   0.082  1.00  0.00    -0.268 N 
ATOM      7  H4  UNL     1      -2.742  -2.681  -0.000  1.00  0.00     0.190 HD
HETATM    8  C4  UNL     1      -2.127  -0.716   0.019  1.00  0.00     0.168 A 
HETATM    9  N5  UNL     1      -3.227   0.072  -0.144  1.00  0.00    -0.173 N 
ATOM     10  H5  UNL     1      -4.188  -0.251  -0.256  1.00  0.00     0.186 HD
HETATM   11  C5  UNL     1      -2.816   1.351  -0.130  1.00  0.00     0.678 A 
HETATM   12  N7  UNL     1      -1.500   1.369   0.037  1.00  0.00    -0.184 N 
ATOM     13  H7  UNL     1      -0.935   2.217   0.084  1.00  0.00     0.184 HD
HETATM   14  C6  UNL     1      -1.007   0.112   0.137  1.00  0.00     0.140 A 
ENDROOT
BRANCH   1  15
HETATM   15  N1  UNL     1       1.261   0.383   0.417  1.00  0.00    -0.374 N 
ATOM     16  H1  UNL     1       1.076   1.385   0.364  1.00  0.00     0.161 HD
BRANCH  15  17
HETATM   17  C2  UNL     1       2.614  -0.031   0.601  1.00  0.00     0.117 C 
HETATM   18  C1  UNL     1       3.270  -0.257  -0.745  1.00  0.00     0.026 C 
ENDBRANCH  15  17
ENDBRANCH   1  15
BRANCH  11  19
HETATM   19  N6  UNL     1      -3.564   2.394  -0.256  1.00  0.00    -0.234 N 
ATOM     20  H62 UNL     1      -4.576   2.380  -0.384  1.00  0.00     0.174 HD
ATOM     21  H61 UNL     1      -3.252   3.365  -0.245  1.00  0.00     0.174 HD
ENDBRANCH  11  19
TORSDOF 3
