REMARK  3 active torsions:
REMARK  status: ('A' for Active; 'I' for Inactive)
REMARK    1  A    between atoms: N1_1  and  C1_4 
REMARK    2  A    between atoms: C2_5  and  C3_6 
REMARK    3  A    between atoms: N4_11  and  N5_12 
ROOT
HETATM    1  C1  UNL     1      -0.099  -0.434  -0.118  1.00  0.00     0.161 A 
HETATM    2  C2  UNL     1       1.059   0.230   0.270  1.00  0.00     0.080 A 
HETATM    3  N2  UNL     1       0.641   1.445   0.641  1.00  0.00    -0.282 N 
ATOM      4  H2  UNL     1       1.248   2.190   0.983  1.00  0.00     0.184 HD
HETATM    5  N3  UNL     1      -0.684   1.546   0.500  1.00  0.00     0.002 NA
HETATM    6  N4  UNL     1      -1.145   0.397   0.034  1.00  0.00    -0.169 N 
ENDROOT
BRANCH   1   7
HETATM    7  N1  UNL     1      -0.118  -1.664  -0.543  1.00  0.00    -0.381 N 
ATOM      8  H12 UNL     1       0.676  -2.294  -0.658  1.00  0.00     0.157 HD
ATOM      9  H11 UNL     1      -0.968  -2.151  -0.828  1.00  0.00     0.157 HD
ENDBRANCH   1   7
BRANCH   2  10
HETATM   10  C3  UNL     1       2.461  -0.290   0.269  1.00  0.00     0.147 C 
HETATM   11 BR1  UNL     1       3.160  -0.258  -1.538  1.00  0.00    -0.090 Br
ENDBRANCH   2  10
BRANCH   6  12
HETATM   12  N5  UNL     1      -2.493   0.079  -0.259  1.00  0.00    -0.324 N 
ATOM     13  H52 UNL     1      -2.848  -0.807  -0.618  1.00  0.00     0.178 HD
ATOM     14  H51 UNL     1      -3.287   0.709  -0.144  1.00  0.00     0.178 HD
ENDBRANCH   6  12
TORSDOF 3
