REMARK  3 active torsions:
REMARK  status: ('A' for Active; 'I' for Inactive)
REMARK    1  A    between atoms: N1_1  and  C1_4 
REMARK    2  A    between atoms: C2_9  and  C3_10 
REMARK    3  A    between atoms: C3_10  and  N4_11 
ROOT
HETATM    1  C1  UNL     1       2.199   0.306   0.376  1.00  0.00     0.691 A 
HETATM    2  N2  UNL     1       1.414   1.372   0.149  1.00  0.00    -0.132 N 
ATOM      3  H2  UNL     1       1.826   2.302   0.077  1.00  0.00     0.205 HD
HETATM    4  N3  UNL     1       0.108   1.215   0.019  1.00  0.00    -0.286 N 
ATOM      5  H3  UNL     1      -0.475   2.034  -0.153  1.00  0.00     0.187 HD
HETATM    6  C2  UNL     1      -0.477  -0.002   0.108  1.00  0.00     0.086 A 
HETATM    7  C4  UNL     1       0.359  -1.068   0.341  1.00  0.00     0.121 A 
HETATM    8 BR1  UNL     1      -0.422  -2.815   0.475  1.00  0.00    -0.029 Br
HETATM    9  N5  UNL     1       1.692  -0.945   0.478  1.00  0.00    -0.182 N 
ATOM     10  H5  UNL     1       2.290  -1.753   0.650  1.00  0.00     0.185 HD
ENDROOT
BRANCH   6  11
HETATM   11  C3  UNL     1      -1.934  -0.210  -0.032  1.00  0.00     0.290 C 
BRANCH  11  12
HETATM   12  N4  UNL     1      -2.603   1.033  -0.268  1.00  0.00    -0.074 N 
ATOM     13  H43 UNL     1      -2.387   1.721   0.453  1.00  0.00     0.274 HD
ATOM     14  H42 UNL     1      -2.213   1.525  -1.071  1.00  0.00     0.274 HD
ATOM     15  H41 UNL     1      -3.608   0.889  -0.365  1.00  0.00     0.274 HD
ENDBRANCH  11  12
ENDBRANCH   6  11
BRANCH   1  16
HETATM   16  N1  UNL     1       3.488   0.397   0.512  1.00  0.00    -0.233 N 
ATOM     17  H12 UNL     1       3.870   1.340   0.435  1.00  0.00     0.174 HD
ATOM     18  H11 UNL     1       4.084  -0.413   0.684  1.00  0.00     0.174 HD
ENDBRANCH   1  16
TORSDOF 3
