REMARK  3 active torsions:
REMARK  status: ('A' for Active; 'I' for Inactive)
REMARK    1  A    between atoms: N1_2  and  C2_3 
REMARK    2  A    between atoms: N1_2  and  C4_8 
REMARK    3  A    between atoms: C2_3  and  C3_4 
ROOT
HETATM    1  C1  UNL     1       0.860   1.841  -0.621  1.00  0.00     0.160 C 
HETATM    2  N1  UNL     1       0.745   0.482  -0.159  1.00  0.00    -0.344 N 
ENDROOT
BRANCH   2   3
HETATM    3  C2  UNL     1       1.685  -0.011   0.522  1.00  0.00    -0.027 C 
BRANCH   3   4
HETATM    4  C3  UNL     1       2.706  -0.528   1.145  1.00  0.00     0.156 C 
HETATM    5  N2  UNL     1       3.823  -1.147   1.326  1.00  0.00    -0.401 N 
ATOM      6  H22 UNL     1       4.011  -1.359   0.346  1.00  0.00     0.156 HD
ATOM      7  H21 UNL     1       4.622  -1.552   1.814  1.00  0.00     0.156 HD
ENDBRANCH   3   4
ENDBRANCH   2   3
BRANCH   2   8
HETATM    8  C4  UNL     1      -0.395  -0.301  -0.457  1.00  0.00     0.143 C 
HETATM    9  C5  UNL     1      -1.723   0.215   0.041  1.00  0.00     0.259 C 
HETATM   10  N3  UNL     1      -2.114  -1.197   0.187  1.00  0.00    -0.071 N 
HETATM   11  C6  UNL     1      -0.699  -1.440   0.513  1.00  0.00     0.259 C 
ATOM     12  H32 UNL     1      -2.868  -1.486   0.810  1.00  0.00     0.277 HD
ATOM     13  H31 UNL     1      -2.590  -1.704  -0.559  1.00  0.00     0.277 HD
ENDBRANCH   2   8
TORSDOF 3
