REMARK  0 active torsions:
REMARK  status: ('A' for Active; 'I' for Inactive)
ROOT
HETATM    1  C1  UNL     1      -2.044   0.046   1.041  1.00  0.00     0.299 C 
HETATM    2  N1  UNL     1      -1.124  -0.076  -0.100  1.00  0.00     0.029 N 
HETATM    3  C2  UNL     1      -1.964   0.040  -1.289  1.00  0.00     0.299 C 
HETATM    4  C3  UNL     1      -0.487  -1.371  -0.099  1.00  0.00     0.291 C 
HETATM    5  C4  UNL     1       0.965  -1.069  -0.288  1.00  0.00     0.291 C 
HETATM    6  N2  UNL     1       1.079   0.305   0.118  1.00  0.00     0.029 N 
HETATM    7  C5  UNL     1       1.587   0.391   1.468  1.00  0.00     0.299 C 
HETATM    8  C6  UNL     1       2.080   1.001  -0.710  1.00  0.00     0.299 C 
HETATM    9  N3  UNL     1      -0.138   0.889  -0.076  1.00  0.00     0.165 NA
ENDROOT
TORSDOF 0
