REMARK  7 active torsions:
REMARK  status: ('A' for Active; 'I' for Inactive)
REMARK    1  A    between atoms: C2_2  and  O2_4 
REMARK    2  A    between atoms: O2_4  and  C3_5 
REMARK    3  A    between atoms: C11_14  and  C12_15 
REMARK    4  A    between atoms: C12_15  and  O4_17 
REMARK    5  A    between atoms: O4_17  and  C13_18 
REMARK    6  A    between atoms: C14_20  and  N1_21 
REMARK       I    between atoms: N1_21  and  C16_23 
REMARK    7  A    between atoms: C16_23  and  C17_25 
ROOT
HETATM    1  C3  UNL     1      -2.034   0.434   0.668  1.00  0.00     0.161 C 
HETATM    2  C4  UNL     1      -3.314   0.182   1.461  1.00  0.00     0.042 C 
HETATM    3  C5  UNL     1      -4.485   1.038   1.008  1.00  0.00     0.030 C 
HETATM    4 BR1  UNL     1      -3.194   0.854   3.303  1.00  0.00    -0.083 Br
HETATM    5  C6  UNL     1      -3.781  -1.203   1.556  1.00  0.00     0.024 C 
HETATM    6  C7  UNL     1      -2.898  -2.293   1.050  1.00  0.00     0.012 C 
HETATM    7  C8  UNL     1      -2.153  -1.844  -0.120  1.00  0.00    -0.031 C 
HETATM    8  C9  UNL     1      -3.097  -1.480  -1.216  1.00  0.00     0.016 C 
HETATM    9  C10 UNL     1      -1.013  -2.514  -0.700  1.00  0.00     0.033 C 
HETATM   10  C11 UNL     1      -0.282  -1.158  -0.558  1.00  0.00     0.081 C 
HETATM   11  C14 UNL     1       0.857  -1.469   0.420  1.00  0.00     0.110 C 
HETATM   12  C21 UNL     1      -0.197  -1.186   1.423  1.00  0.00     0.019 C 
HETATM   13  C22 UNL     1       0.105  -0.408   2.611  1.00  0.00     0.013 C 
HETATM   14  C23 UNL     1      -1.222  -0.749   0.384  1.00  0.00     0.019 C 
ENDROOT
BRANCH  11  15
HETATM   15  N1  UNL     1       2.086  -0.834   0.289  1.00  0.00    -0.349 N 
HETATM   16  C15 UNL     1       3.286  -1.713   0.187  1.00  0.00     0.153 C 
HETATM   17  C16 UNL     1       2.441   0.521   0.242  1.00  0.00     0.227 C 
HETATM   18  O6  UNL     1       1.474   1.333   0.337  1.00  0.00    -0.273 OA
BRANCH  17  19
HETATM   19  C17 UNL     1       3.755   1.140   0.099  1.00  0.00     0.030 C 
HETATM   20  C18 UNL     1       4.802   0.686   1.084  1.00  0.00     0.025 C 
HETATM   21  C19 UNL     1       3.637   2.669   0.363  1.00  0.00     0.025 C 
HETATM   22  C20 UNL     1       4.252   1.056  -1.325  1.00  0.00     0.025 C 
ENDBRANCH  17  19
ENDBRANCH  11  15
BRANCH  10  23
HETATM   23  C12 UNL     1       0.108  -0.628  -1.838  1.00  0.00     0.277 C 
HETATM   24  O3  UNL     1      -0.280   0.408  -2.364  1.00  0.00    -0.264 OA
BRANCH  23  25
HETATM   25  O4  UNL     1       1.046  -1.372  -2.599  1.00  0.00    -0.252 OA
BRANCH  25  26
HETATM   26  C13 UNL     1       1.440  -0.894  -3.838  1.00  0.00     0.406 C 
HETATM   27  O5  UNL     1       0.997   0.189  -4.328  1.00  0.00    -0.276 OA
ENDBRANCH  25  26
ENDBRANCH  23  25
ENDBRANCH  10  23
BRANCH   1  28
HETATM   28  O2  UNL     1      -2.100   1.487  -0.203  1.00  0.00    -0.314 OA
BRANCH  28  29
HETATM   29  C2  UNL     1      -1.776   2.783  -0.187  1.00  0.00     0.255 C 
HETATM   30  C1  UNL     1      -1.966   3.709  -1.332  1.00  0.00     0.126 C 
HETATM   31  O1  UNL     1      -1.302   3.095   0.905  1.00  0.00    -0.266 OA
ENDBRANCH  28  29
ENDBRANCH   1  28
TORSDOF 7
