REMARK  7 active torsions:
REMARK  status: ('A' for Active; 'I' for Inactive)
REMARK    1  A    between atoms: N2_10  and  C9_12 
REMARK    2  A    between atoms: C9_12  and  C10_13 
REMARK    3  A    between atoms: C12_15  and  O1_16 
REMARK    4  A    between atoms: C18_25  and  C19_26 
REMARK    5  A    between atoms: C20_27  and  C21_28 
REMARK    6  A    between atoms: C21_28  and  O2_29 
REMARK    7  A    between atoms: O2_29  and  C22_30 
ROOT
HETATM    1  N1  UNL     1      -5.910  -3.964  -2.289  1.00  0.00    -0.191 NA
HETATM    2  C1  UNL     1      -5.043  -3.611  -1.609  1.00  0.00     0.099 C 
HETATM    3  C2  UNL     1      -3.982  -3.157  -0.756  1.00  0.00     0.045 A 
HETATM    4  C3  UNL     1      -3.006  -4.005  -0.277  1.00  0.00     0.025 A 
HETATM    5  C4  UNL     1      -2.013  -3.508   0.540  1.00  0.00     0.039 A 
HETATM    6  C5  UNL     1      -2.020  -2.165   0.861  1.00  0.00     0.082 A 
HETATM    7  C6  UNL     1      -2.998  -1.306   0.385  1.00  0.00     0.042 A 
HETATM    8  C7  UNL     1      -3.999  -1.798  -0.437  1.00  0.00     0.040 A 
HETATM    9  C8  UNL     1      -3.151   0.159   0.643  1.00  0.00     0.113 C 
HETATM   10  N2  UNL     1      -4.275   0.605   0.484  1.00  0.00    -0.375 N 
ATOM     11  H2  UNL     1      -4.830  -0.202   0.199  1.00  0.00     0.161 HD
HETATM   12  N3  UNL     1      -2.034   0.949   1.048  1.00  0.00    -0.355 N 
HETATM   13  C13 UNL     1      -2.094   2.272   0.465  1.00  0.00     0.130 C 
HETATM   14  C14 UNL     1      -0.768   2.771  -0.019  1.00  0.00     0.062 C 
HETATM   15  C15 UNL     1       0.370   1.844   0.202  1.00  0.00    -0.009 A 
HETATM   16  C16 UNL     1       1.548   2.004  -0.545  1.00  0.00     0.124 A 
HETATM   17  F1  UNL     1       1.577   3.014  -1.448  1.00  0.00    -0.205 F 
HETATM   18  C17 UNL     1       2.609   1.155  -0.341  1.00  0.00     0.063 A 
HETATM   19  C18 UNL     1       2.583   0.125   0.578  1.00  0.00     0.021 A 
HETATM   20  C26 UNL     1       1.420  -0.009   1.294  1.00  0.00     0.030 A 
HETATM   21  C27 UNL     1       0.329   0.824   1.121  1.00  0.00    -0.022 A 
HETATM   22  C28 UNL     1      -0.910   0.656   1.900  1.00  0.00     0.144 C 
HETATM   23  C29 UNL     1      -0.986  -0.685   2.586  1.00  0.00     0.206 C 
HETATM   24  O4  UNL     1      -0.955  -1.782   1.702  1.00  0.00    -0.348 OA
ENDROOT
BRANCH  10  25
HETATM   25  C9  UNL     1      -5.165   1.640   0.495  1.00  0.00     0.128 C 
BRANCH  25  26
HETATM   26  C10 UNL     1      -5.805   1.823  -0.893  1.00  0.00     0.035 A 
HETATM   27  C11 UNL     1      -6.791   2.947  -0.946  1.00  0.00     0.041 A 
HETATM   28  C12 UNL     1      -7.240   1.481  -1.059  1.00  0.00     0.124 A 
BRANCH  28  29
HETATM   29  O1  UNL     1      -7.704   1.082  -2.312  1.00  0.00    -0.395 OA
ATOM     30  H1  UNL     1      -8.622   0.863  -2.418  1.00  0.00     0.210 HD
ENDBRANCH  28  29
ENDBRANCH  25  26
ENDBRANCH  10  25
BRANCH  19  31
HETATM   31  C19 UNL     1       3.714  -0.746   0.768  1.00  0.00    -0.065 C 
HETATM   32  C20 UNL     1       4.653  -1.489   0.934  1.00  0.00    -0.075 C 
BRANCH  32  33
HETATM   33  C21 UNL     1       5.787  -2.419   1.141  1.00  0.00     0.262 C 
BRANCH  33  34
HETATM   34  O2  UNL     1       6.685  -2.183   0.111  1.00  0.00    -0.372 OA
BRANCH  34  35
HETATM   35  C22 UNL     1       7.161  -0.886   0.097  1.00  0.00     0.148 C 
HETATM   36  C23 UNL     1       6.741  -0.265  -1.239  1.00  0.00     0.060 C 
HETATM   37  C24 UNL     1       8.065  -0.050  -1.939  1.00  0.00     0.170 C 
HETATM   38  O3  UNL     1       8.984   0.177  -0.914  1.00  0.00    -0.389 OA
HETATM   39  C25 UNL     1       8.655  -0.783   0.058  1.00  0.00     0.199 C 
ENDBRANCH  34  35
ENDBRANCH  33  34
ENDBRANCH  32  33
ENDBRANCH  19  31
TORSDOF 7
