REMARK  4 active torsions:
REMARK  status: ('A' for Active; 'I' for Inactive)
REMARK    1  A    between atoms: C11_11  and  O1_12 
REMARK    2  A    between atoms: O1_12  and  C12_13 
REMARK    3  A    between atoms: C12_13  and  C13_14 
REMARK    4  A    between atoms: C15_16  and  O2_17 
ROOT
HETATM    1  C1  UNL     1      -5.828  -3.756   0.815  1.00  0.00     0.014 C 
HETATM    2  C2  UNL     1      -5.496  -2.494   0.722  1.00  0.00    -0.089 C 
HETATM    3  C3  UNL     1      -4.680  -1.863   1.804  1.00  0.00     0.036 C 
HETATM    4  C4  UNL     1      -4.418  -0.420   1.533  1.00  0.00     0.051 C 
HETATM    5  C5  UNL     1      -3.924  -0.126   0.141  1.00  0.00     0.189 C 
HETATM    6  C6  UNL     1      -4.635  -0.949  -0.916  1.00  0.00     0.051 C 
HETATM    7  C7  UNL     1      -5.883  -1.617  -0.411  1.00  0.00     0.036 C 
HETATM    8  C8  UNL     1      -2.481  -0.442   0.025  1.00  0.00    -0.011 A 
HETATM    9  C9  UNL     1      -1.836  -1.677   0.011  1.00  0.00     0.013 A 
HETATM   10  C10 UNL     1      -0.479  -1.762  -0.104  1.00  0.00     0.037 A 
HETATM   11  C11 UNL     1       0.240  -0.597  -0.207  1.00  0.00     0.069 A 
HETATM   12  C21 UNL     1      -0.401   0.619  -0.194  1.00  0.00     0.046 A 
HETATM   13  C22 UNL     1      -1.793   0.732  -0.076  1.00  0.00    -0.013 A 
HETATM   14  C23 UNL     1      -2.728   1.842  -0.035  1.00  0.00     0.272 C 
HETATM   15  C24 UNL     1      -2.538   2.817  -1.204  1.00  0.00     0.181 C 
HETATM   16  S1  UNL     1      -3.865   3.989  -1.022  1.00  0.00     0.148 S 
HETATM   17  O3  UNL     1      -3.260   5.188  -0.301  1.00  0.00    -0.228 OA
HETATM   18  O4  UNL     1      -4.265   4.527  -2.388  1.00  0.00    -0.228 OA
HETATM   19  C25 UNL     1      -5.246   3.354  -0.152  1.00  0.00     0.170 C 
HETATM   20  C26 UNL     1      -5.091   1.975   0.368  1.00  0.00     0.290 C 
HETATM   21  N2  UNL     1      -4.011   1.243  -0.231  1.00  0.00     0.113 N 
ENDROOT
BRANCH  11  22
HETATM   22  O1  UNL     1       1.622  -0.619  -0.327  1.00  0.00    -0.351 OA
BRANCH  22  23
HETATM   23  C12 UNL     1       2.372   0.559  -0.433  1.00  0.00     0.182 C 
BRANCH  23  24
HETATM   24  C13 UNL     1       3.842   0.163  -0.545  1.00  0.00     0.041 C 
HETATM   25  C14 UNL     1       4.181  -0.598   0.701  1.00  0.00     0.040 C 
HETATM   26  C15 UNL     1       5.637  -0.467   1.089  1.00  0.00     0.123 C 
HETATM   27  C17 UNL     1       6.582  -0.971   0.058  1.00  0.00     0.063 C 
HETATM   28  C18 UNL     1       5.929  -1.766  -1.041  1.00  0.00     0.281 C 
HETATM   29  N1  UNL     1       5.381  -0.958  -2.093  1.00  0.00     0.080 N 
HETATM   30  C19 UNL     1       6.183   0.194  -2.410  1.00  0.00     0.317 C 
HETATM   31  F1  UNL     1       5.359  -1.734  -3.218  1.00  0.00    -0.018 F 
HETATM   32  C20 UNL     1       4.010  -0.618  -1.807  1.00  0.00     0.285 C 
BRANCH  26  33
HETATM   33  O2  UNL     1       5.849   0.852   1.456  1.00  0.00    -0.391 OA
HETATM   34  C16 UNL     1       6.135   1.013   2.800  1.00  0.00     0.202 C 
ENDBRANCH  26  33
ENDBRANCH  23  24
ENDBRANCH  22  23
ENDBRANCH  11  22
TORSDOF 4
