REMARK  2 active torsions:
REMARK  status: ('A' for Active; 'I' for Inactive)
REMARK    1  A    between atoms: C2_2  and  N1_3 
REMARK    2  A    between atoms: C4_5  and  O1_6 
ROOT
HETATM    1  N1  UNL     1      -0.139   0.367  -0.106  1.00  0.00    -0.054 N 
HETATM    2  C3  UNL     1       0.578  -0.331   0.894  1.00  0.00     0.272 C 
HETATM    3  C4  UNL     1       1.891  -0.246   0.164  1.00  0.00     0.177 C 
HETATM    4  C5  UNL     1       0.984   0.173  -1.001  1.00  0.00     0.246 A 
HETATM    5  C6  UNL     1       0.378   1.479  -0.823  1.00  0.00     0.274 A 
ENDROOT
BRANCH   1   6
HETATM    6  C2  UNL     1      -1.437  -0.134  -0.453  1.00  0.00     0.234 C 
HETATM    7  C1  UNL     1      -2.263  -0.207   0.811  1.00  0.00     0.035 C 
ENDBRANCH   1   6
BRANCH   3   8
HETATM    8  O1  UNL     1       2.523  -1.458  -0.010  1.00  0.00    -0.392 OA
ATOM      9  H1  UNL     1       3.352  -1.404  -0.471  1.00  0.00     0.210 HD
ENDBRANCH   3   8
TORSDOF 2
