REMARK  1 active torsions:
REMARK  status: ('A' for Active; 'I' for Inactive)
REMARK    1  A    between atoms: C2_4  and  C3_5 
ROOT
HETATM    1  C3  UNL     1       0.122   0.641  -0.150  1.00  0.00     0.223 C 
HETATM    2  C4  UNL     1      -0.411  -0.639  -0.686  1.00  0.00     0.038 C 
HETATM    3  C5  UNL     1      -1.884  -0.749  -0.753  1.00  0.00     0.004 C 
HETATM    4  C6  UNL     1      -2.649   0.095   0.190  1.00  0.00     0.027 C 
HETATM    5  C7  UNL     1      -1.973   1.384   0.564  1.00  0.00     0.233 C 
HETATM    6  N2  UNL     1      -0.637   1.084   0.992  1.00  0.00    -0.066 N 
ATOM      7  H21 UNL     1      -0.196   1.867   1.475  1.00  0.00     0.278 HD
ATOM      8  H22 UNL     1      -0.614   0.414   1.761  1.00  0.00     0.278 HD
ENDROOT
BRANCH   1   9
HETATM    9  C2  UNL     1       1.528   0.375   0.344  1.00  0.00     0.087 C 
HETATM   10  N1  UNL     1       2.310  -0.389  -0.299  1.00  0.00    -0.405 N 
HETATM   11  C1  UNL     1       3.628  -0.612   0.203  1.00  0.00     0.145 C 
ATOM     12  H1  UNL     1       2.002  -0.837  -1.162  1.00  0.00     0.158 HD
ENDBRANCH   1   9
TORSDOF 1
