REMARK  12 active torsions:
REMARK  status: ('A' for Active; 'I' for Inactive)
REMARK    1  A    between atoms: C5_5  and  C6_6 
REMARK    2  A    between atoms: C6_6  and  C7_7 
REMARK    3  A    between atoms: C7_7  and  C8_8 
REMARK    4  A    between atoms: C8_8  and  N1_9 
REMARK    5  A    between atoms: C12_13  and  C13_14 
REMARK    6  A    between atoms: C14_15  and  C15_16 
REMARK    7  A    between atoms: C15_16  and  C16_17 
REMARK    8  A    between atoms: C16_17  and  C17_18 
REMARK    9  A    between atoms: C17_18  and  O1_21 
REMARK   10  A    between atoms: C21_26  and  C22_27 
REMARK   11  A    between atoms: C22_27  and  N3_28 
REMARK   12  A    between atoms: N3_28  and  N4_30 
ROOT
HETATM    1  C7  UNL     1      -1.704  -1.131   0.761  1.00  0.00     0.026 C 
ENDROOT
BRANCH   1   2
HETATM    2  C6  UNL     1      -2.562  -0.101   1.363  1.00  0.00     0.059 C 
BRANCH   2   3
HETATM    3  C5  UNL     1      -3.902   0.075   0.731  1.00  0.00     0.016 A 
HETATM    4  C3  UNL     1      -4.950  -0.839   0.843  1.00  0.00    -0.028 A 
HETATM    5  C2  UNL     1      -6.066  -0.350   0.159  1.00  0.00    -0.009 A 
HETATM    6  C4  UNL     1      -4.841  -2.111   1.587  1.00  0.00     0.051 C 
HETATM    7  C1  UNL     1      -7.200  -0.983   0.086  1.00  0.00     0.026 C 
HETATM    8  C21 UNL     1      -5.684   0.859  -0.362  1.00  0.00     0.059 A 
HETATM    9  N2  UNL     1      -4.376   1.069   0.010  1.00  0.00    -0.357 N 
ATOM     10  H2  UNL     1      -3.837   1.897  -0.243  1.00  0.00     0.166 HD
BRANCH   8  11
HETATM   11  C22 UNL     1      -6.364   1.716  -1.090  1.00  0.00     0.136 C 
BRANCH  11  12
HETATM   12  N3  UNL     1      -7.692   1.518  -1.481  1.00  0.00    -0.316 N 
ATOM     13  H3  UNL     1      -7.947   0.835  -2.194  1.00  0.00     0.185 HD
BRANCH  12  14
HETATM   14  N4  UNL     1      -8.574   2.245  -0.891  1.00  0.00    -0.345 N 
ATOM     15  H42 UNL     1      -8.303   2.924  -0.179  1.00  0.00     0.176 HD
ATOM     16  H41 UNL     1      -9.543   2.101  -1.176  1.00  0.00     0.176 HD
ENDBRANCH  12  14
ENDBRANCH  11  12
ENDBRANCH   8  11
ENDBRANCH   2   3
ENDBRANCH   1   2
BRANCH   1  17
HETATM   17  C8  UNL     1      -1.263  -0.861  -0.627  1.00  0.00     0.128 C 
BRANCH  17  18
HETATM   18  N1  UNL     1      -0.395   0.264  -0.815  1.00  0.00    -0.365 N 
HETATM   19  C9  UNL     1      -0.766   1.488  -1.118  1.00  0.00     0.090 A 
HETATM   20  C10 UNL     1       0.132   2.552  -1.266  1.00  0.00     0.019 A 
HETATM   21  C11 UNL     1       1.470   2.254  -1.077  1.00  0.00     0.023 A 
HETATM   22  C12 UNL     1       1.901   0.984  -0.760  1.00  0.00     0.034 A 
HETATM   23  C20 UNL     1       0.941   0.017  -0.637  1.00  0.00     0.111 A 
BRANCH  22  24
HETATM   24  C13 UNL     1       3.280   0.637  -0.560  1.00  0.00    -0.051 C 
HETATM   25  C14 UNL     1       4.440   0.334  -0.412  1.00  0.00    -0.009 C 
BRANCH  25  26
HETATM   26  C15 UNL     1       5.812  -0.042  -0.258  1.00  0.00    -0.012 C 
BRANCH  26  27
HETATM   27  C16 UNL     1       6.969  -0.368  -0.149  1.00  0.00    -0.055 C 
BRANCH  27  28
HETATM   28  C17 UNL     1       8.381  -0.764  -0.043  1.00  0.00     0.114 C 
HETATM   29  C18 UNL     1       9.248   0.285  -0.745  1.00  0.00     0.060 C 
HETATM   30  C19 UNL     1       8.814  -0.802   1.417  1.00  0.00     0.060 C 
BRANCH  28  31
HETATM   31  O1  UNL     1       8.501  -2.007  -0.654  1.00  0.00    -0.378 OA
ATOM     32  H1  UNL     1       9.413  -2.263  -0.586  1.00  0.00     0.211 HD
ENDBRANCH  28  31
ENDBRANCH  27  28
ENDBRANCH  26  27
ENDBRANCH  25  26
ENDBRANCH  22  24
ENDBRANCH  17  18
ENDBRANCH   1  17
TORSDOF 12
