REMARK  4 active torsions:
REMARK  status: ('A' for Active; 'I' for Inactive)
REMARK       I    between atoms: C2_4  and  N2_5 
REMARK       I    between atoms: C2_4  and  N9_32 
REMARK       I    between atoms: C3_7  and  N3_8 
REMARK       I    between atoms: C3_7  and  N6_20 
REMARK    1  A    between atoms: N3_8  and  C4_10 
REMARK    2  A    between atoms: C4_10  and  C5_11 
REMARK    3  A    between atoms: C5_11  and  N4_12 
REMARK    4  A    between atoms: N6_20  and  C12_22 
ROOT
HETATM    1  C1  UNL     1      -2.560  -1.808   3.495  1.00  0.00     0.165 C 
HETATM    2  N1  UNL     1      -2.435  -0.926   2.353  1.00  0.00    -0.230 N 
ATOM      3  H1  UNL     1      -2.322   0.078   2.496  1.00  0.00     0.177 HD
HETATM    4  C2  UNL     1      -2.465  -1.398   1.173  1.00  0.00     0.689 C 
HETATM    5  N2  UNL     1      -2.344  -0.551   0.065  1.00  0.00    -0.023 N 
ATOM      6  H2  UNL     1      -3.085  -0.613  -0.633  1.00  0.00     0.203 HD
HETATM    7  C3  UNL     1      -1.413   0.291  -0.173  1.00  0.00     0.693 C 
HETATM    8  N3  UNL     1      -0.314   0.499   0.692  1.00  0.00    -0.224 N 
ATOM      9  H3  UNL     1      -0.128  -0.232   1.379  1.00  0.00     0.177 HD
HETATM   10  N6  UNL     1      -1.552   1.035  -1.401  1.00  0.00    -0.188 N 
ATOM     11  H6  UNL     1      -1.039   0.775  -2.243  1.00  0.00     0.184 HD
HETATM   12  N9  UNL     1      -2.624  -2.802   0.884  1.00  0.00    -0.226 N 
HETATM   13  C17 UNL     1      -3.924  -3.309   0.460  1.00  0.00     0.168 C 
HETATM   14  C18 UNL     1      -1.527  -3.744   0.996  1.00  0.00     0.168 C 
ENDROOT
BRANCH   8  15
HETATM   15  C4  UNL     1       0.560   1.623   0.704  1.00  0.00     0.166 C 
BRANCH  15  16
HETATM   16  C5  UNL     1       1.464   1.782  -0.463  1.00  0.00     0.259 C 
BRANCH  16  17
HETATM   17  N4  UNL     1       2.387   0.687  -0.693  1.00  0.00    -0.044 N 
HETATM   18  C6  UNL     1       2.064   0.059  -1.982  1.00  0.00     0.274 C 
HETATM   19  C7  UNL     1       3.749   1.166  -0.804  1.00  0.00     0.267 C 
HETATM   20  C8  UNL     1       4.574  -0.069  -0.585  1.00  0.00     0.266 C 
HETATM   21  N5  UNL     1       3.781  -0.867   0.300  1.00  0.00    -0.049 N 
HETATM   22  C9  UNL     1       3.732  -2.256  -0.158  1.00  0.00     0.274 C 
HETATM   23  C10 UNL     1       4.402  -0.879   1.617  1.00  0.00     0.274 C 
HETATM   24  C11 UNL     1       2.454  -0.272   0.361  1.00  0.00     0.471 C 
ENDBRANCH  16  17
ENDBRANCH  15  16
ENDBRANCH   8  15
BRANCH  10  25
HETATM   25  C12 UNL     1      -2.436   2.146  -1.383  1.00  0.00     0.092 A 
HETATM   26  C13 UNL     1      -3.125   2.491  -0.227  1.00  0.00     0.035 A 
HETATM   27  C14 UNL     1      -3.995   3.549  -0.136  1.00  0.00     0.019 A 
HETATM   28  C15 UNL     1      -4.193   4.316  -1.268  1.00  0.00     0.090 A 
HETATM   29  N7  UNL     1      -3.535   4.002  -2.407  1.00  0.00    -0.351 N 
HETATM   30  C16 UNL     1      -2.674   2.945  -2.476  1.00  0.00     0.126 A 
ATOM     31  H7  UNL     1      -3.687   4.572  -3.239  1.00  0.00     0.166 HD
HETATM   32  N8  UNL     1      -2.102   2.733  -3.599  1.00  0.00    -0.384 N 
ATOM     33  H82 UNL     1      -1.459   1.943  -3.651  1.00  0.00     0.157 HD
ATOM     34  H81 UNL     1      -2.279   3.326  -4.410  1.00  0.00     0.157 HD
ENDBRANCH  10  25
TORSDOF 4
