REMARK  7 active torsions:
REMARK  status: ('A' for Active; 'I' for Inactive)
REMARK    1  A    between atoms: C2_2  and  C3_3 
REMARK    2  A    between atoms: C7_9  and  C8_10 
REMARK    3  A    between atoms: C9_13  and  C11_15 
REMARK    4  A    between atoms: C11_15  and  O1_16 
REMARK    5  A    between atoms: C11_15  and  N3_18 
REMARK    6  A    between atoms: N3_18  and  C12_19 
REMARK    7  A    between atoms: N3_18  and  C14_21 
ROOT
HETATM    1  C8  UNL     1       0.805   0.188  -0.310  1.00  0.00     0.052 C 
HETATM    2  N2  UNL     1      -0.224   0.118   0.451  1.00  0.00    -0.368 N 
ATOM      3  H2  UNL     1      -0.078  -0.099   1.437  1.00  0.00     0.161 HD
HETATM    4  C9  UNL     1      -1.614   0.334  -0.017  1.00  0.00     0.151 C 
HETATM    5  C10 UNL     1      -1.835   1.820  -0.105  1.00  0.00     0.056 C 
HETATM    6  C16 UNL     1      -1.702  -0.333  -1.337  1.00  0.00     0.120 A 
HETATM    7  N4  UNL     1      -2.601  -1.061  -1.982  1.00  0.00    -0.352 N 
ATOM      8  H4  UNL     1      -3.514  -1.315  -1.604  1.00  0.00     0.166 HD
HETATM    9  C17 UNL     1      -2.160  -1.420  -3.192  1.00  0.00     0.106 A 
HETATM   10  C18 UNL     1      -0.900  -0.884  -3.317  1.00  0.00     0.110 A 
HETATM   11  N5  UNL     1      -0.651  -0.231  -2.173  1.00  0.00    -0.337 N 
HETATM   12  C19 UNL     1       0.548   0.481  -1.768  1.00  0.00     0.189 C 
ENDROOT
BRANCH   1  13
HETATM   13  C7  UNL     1       2.158  -0.029   0.194  1.00  0.00     0.059 A 
HETATM   14  C6  UNL     1       2.550  -0.328   1.481  1.00  0.00     0.063 A 
HETATM   15  C5  UNL     1       3.926  -0.438   1.459  1.00  0.00     0.061 A 
HETATM   16  N1  UNL     1       5.047  -0.683   2.186  1.00  0.00    -0.363 N 
HETATM   17  C20 UNL     1       4.376  -0.209   0.171  1.00  0.00     0.067 A 
HETATM   18  C4  UNL     1       6.141  -0.613   1.405  1.00  0.00     0.097 A 
ATOM     19  H1  UNL     1       5.058  -0.891   3.185  1.00  0.00     0.165 HD
HETATM   20  C3  UNL     1       5.750  -0.312   0.115  1.00  0.00    -0.014 A 
HETATM   21  N6  UNL     1       3.272   0.034  -0.559  1.00  0.00    -0.352 N 
ATOM     22  H6  UNL     1       3.278   0.240  -1.558  1.00  0.00     0.166 HD
BRANCH  20  23
HETATM   23  C2  UNL     1       6.655  -0.147  -1.053  1.00  0.00     0.038 C 
HETATM   24  C1  UNL     1       6.841   1.320  -1.410  1.00  0.00     0.010 C 
ENDBRANCH  20  23
ENDBRANCH   1  13
BRANCH   4  25
HETATM   25  C11 UNL     1      -2.515  -0.211   1.009  1.00  0.00     0.150 C 
BRANCH  25  26
HETATM   26  O1  UNL     1      -1.906  -0.889   1.940  1.00  0.00    -0.347 OA
ATOM     27  H1  UNL     1      -2.488  -1.241   2.603  1.00  0.00     0.219 HD
ENDBRANCH  25  26
BRANCH  25  28
HETATM   28  N3  UNL     1      -3.891  -0.131   1.160  1.00  0.00    -0.364 N 
BRANCH  28  29
HETATM   29  C12 UNL     1      -4.878   0.569   0.383  1.00  0.00     0.120 C 
HETATM   30  C13 UNL     1      -5.186   1.965   0.885  1.00  0.00     0.026 C 
ENDBRANCH  28  29
BRANCH  28  31
HETATM   31  C14 UNL     1      -4.478  -0.887   2.297  1.00  0.00     0.120 C 
HETATM   32  C15 UNL     1      -4.859  -2.281   1.885  1.00  0.00     0.026 C 
ENDBRANCH  28  31
ENDBRANCH  25  28
ENDBRANCH   4  25
TORSDOF 7
