REMARK  7 active torsions:
REMARK  status: ('A' for Active; 'I' for Inactive)
REMARK    1  A    between atoms: N1_2  and  N2_5 
REMARK    2  A    between atoms: N2_5  and  C4_7 
REMARK    3  A    between atoms: N4_15  and  C12_17 
REMARK    4  A    between atoms: C12_17  and  C13_18 
REMARK    5  A    between atoms: C14_19  and  C15_20 
REMARK    6  A    between atoms: C15_20  and  C16_21 
REMARK    7  A    between atoms: C20_27  and  O1_28 
ROOT
HETATM    1  C4  UNL     1      -3.596  -0.832  -0.159  1.00  0.00     0.138 C 
HETATM    2  C5  UNL     1      -3.581  -2.373  -0.279  1.00  0.00     0.035 C 
HETATM    3  C6  UNL     1      -2.245  -2.682   0.331  1.00  0.00     0.016 C 
HETATM    4  C7  UNL     1      -2.312  -1.729   1.534  1.00  0.00     0.042 C 
HETATM    5  C8  UNL     1      -2.381  -0.470   0.639  1.00  0.00     0.215 C 
HETATM    6  N3  UNL     1      -1.143  -0.632  -0.082  1.00  0.00    -0.055 N 
HETATM    7  C9  UNL     1      -0.939   0.280  -1.162  1.00  0.00     0.266 C 
HETATM    8  C10 UNL     1       0.288  -0.164  -1.926  1.00  0.00     0.269 C 
HETATM    9  N4  UNL     1       1.432   0.128  -1.111  1.00  0.00    -0.032 N 
HETATM   10  C11 UNL     1       1.925   1.447  -1.541  1.00  0.00     0.276 C 
HETATM   11  C20 UNL     1       1.164   0.220   0.286  1.00  0.00     0.350 C 
HETATM   12  C21 UNL     1       0.011  -0.560   0.787  1.00  0.00     0.299 C 
HETATM   13  C22 UNL     1      -1.219  -2.017  -0.518  1.00  0.00     0.243 C 
ENDROOT
BRANCH   1  14
HETATM   14  N2  UNL     1      -4.840  -0.407   0.388  1.00  0.00    -0.247 N 
ATOM     15  H2  UNL     1      -5.541  -1.088   0.681  1.00  0.00     0.187 HD
BRANCH  14  16
HETATM   16  N1  UNL     1      -5.074   0.931   0.512  1.00  0.00    -0.003 N 
HETATM   17  C1  UNL     1      -4.432   1.771  -0.482  1.00  0.00     0.300 C 
HETATM   18  C2  UNL     1      -6.524   1.121   0.265  1.00  0.00     0.300 C 
HETATM   19  C3  UNL     1      -4.797   1.497   1.798  1.00  0.00     0.300 C 
ENDBRANCH  14  16
ENDBRANCH   1  14
BRANCH  11  20
HETATM   20  O1  UNL     1       1.109   1.566   0.717  1.00  0.00    -0.368 OA
ATOM     21  H1  UNL     1       0.930   1.627   1.648  1.00  0.00     0.212 HD
ENDBRANCH  11  20
BRANCH   9  22
HETATM   22  C12 UNL     1       2.478  -0.824  -1.433  1.00  0.00     0.333 C 
BRANCH  22  23
HETATM   23  C13 UNL     1       3.788  -0.141  -1.556  1.00  0.00    -0.078 C 
HETATM   24  C14 UNL     1       4.850   0.425  -1.641  1.00  0.00    -0.099 C 
BRANCH  24  25
HETATM   25  C15 UNL     1       6.150   1.112  -1.720  1.00  0.00     0.150 C 
BRANCH  25  26
HETATM   26  C16 UNL     1       7.017   0.523  -0.665  1.00  0.00     0.020 A 
HETATM   27  C17 UNL     1       7.117   0.980   0.631  1.00  0.00     0.027 A 
HETATM   28  C18 UNL     1       8.019   0.178   1.306  1.00  0.00     0.019 A 
HETATM   29  C19 UNL     1       8.458  -0.764   0.402  1.00  0.00     0.088 A 
HETATM   30  N5  UNL     1       7.839  -0.537  -0.785  1.00  0.00    -0.368 N 
ATOM     31  H5  UNL     1       7.975  -1.084  -1.635  1.00  0.00     0.165 HD
ENDBRANCH  25  26
ENDBRANCH  24  25
ENDBRANCH  22  23
ENDBRANCH   9  22
TORSDOF 7
