REMARK  10 active torsions:
REMARK  status: ('A' for Active; 'I' for Inactive)
REMARK    1  A    between atoms: C2_2  and  N1_4 
REMARK    2  A    between atoms: C2_2  and  C4_8 
REMARK    3  A    between atoms: N2_12  and  C8_13 
REMARK    4  A    between atoms: C8_13  and  C9_14 
REMARK    5  A    between atoms: C10_15  and  C11_16 
REMARK    6  A    between atoms: N3_21  and  C16_22 
REMARK    7  A    between atoms: C16_22  and  C17_23 
REMARK    8  A    between atoms: C18_24  and  C19_25 
REMARK    9  A    between atoms: C19_25  and  N4_26 
REMARK   10  A    between atoms: C21_30  and  N6_31 
ROOT
HETATM    1  C11 UNL     1       1.107   0.414  -1.872  1.00  0.00     0.089 A 
HETATM    2  C12 UNL     1       1.070  -0.642  -2.769  1.00  0.00     0.039 A 
HETATM    3  C13 UNL     1       1.704  -0.488  -3.998  1.00  0.00     0.004 A 
HETATM    4  C14 UNL     1       2.343   0.710  -4.274  1.00  0.00     0.017 A 
HETATM    5  C15 UNL     1       2.363   1.751  -3.352  1.00  0.00     0.093 A 
HETATM    6  N3  UNL     1       1.741   1.569  -2.174  1.00  0.00    -0.339 N 
ENDROOT
BRANCH   1   7
HETATM    7  C10 UNL     1       0.446   0.243  -0.608  1.00  0.00    -0.047 C 
HETATM    8  C9  UNL     1      -0.134   0.100   0.448  1.00  0.00    -0.080 C 
BRANCH   8   9
HETATM    9  C8  UNL     1      -0.867  -0.071   1.723  1.00  0.00     0.221 C 
BRANCH   9  10
HETATM   10  N2  UNL     1      -2.020  -0.869   1.405  1.00  0.00    -0.355 N 
HETATM   11  C7  UNL     1      -2.041  -2.203   1.455  1.00  0.00     0.091 A 
HETATM   12  C6  UNL     1      -3.199  -2.886   1.126  1.00  0.00     0.018 A 
HETATM   13  C5  UNL     1      -4.361  -2.236   0.740  1.00  0.00     0.012 A 
HETATM   14  C4  UNL     1      -4.304  -0.859   0.700  1.00  0.00    -0.008 A 
HETATM   15  C22 UNL     1      -3.148  -0.225   1.030  1.00  0.00     0.101 A 
BRANCH  14  16
HETATM   16  C2  UNL     1      -5.530  -0.131   0.291  1.00  0.00     0.144 C 
HETATM   17  C1  UNL     1      -5.240   1.362   0.253  1.00  0.00     0.051 C 
HETATM   18  C3  UNL     1      -6.689  -0.365   1.224  1.00  0.00     0.051 C 
BRANCH  16  19
HETATM   19  N1  UNL     1      -5.836  -0.525  -1.070  1.00  0.00    -0.067 N 
ATOM     20  H13 UNL     1      -6.588   0.022  -1.490  1.00  0.00     0.275 HD
ATOM     21  H12 UNL     1      -5.107  -0.272  -1.737  1.00  0.00     0.275 HD
ATOM     22  H11 UNL     1      -6.030  -1.526  -1.045  1.00  0.00     0.275 HD
ENDBRANCH  16  19
ENDBRANCH  14  16
ENDBRANCH   9  10
ENDBRANCH   8   9
ENDBRANCH   1   7
BRANCH   6  23
HETATM   23  C16 UNL     1       1.708   2.606  -1.131  1.00  0.00     0.223 C 
BRANCH  23  24
HETATM   24  C17 UNL     1       2.901   2.405  -0.272  1.00  0.00    -0.085 C 
HETATM   25  C18 UNL     1       3.879   2.228   0.409  1.00  0.00    -0.083 C 
BRANCH  25  26
HETATM   26  C19 UNL     1       5.092   1.990   1.229  1.00  0.00     0.244 C 
BRANCH  26  27
HETATM   27  N4  UNL     1       5.575   0.625   0.986  1.00  0.00    -0.262 N 
HETATM   28  C20 UNL     1       6.455   0.282   0.030  1.00  0.00     0.219 A 
HETATM   29  N5  UNL     1       6.683  -1.041   0.078  1.00  0.00    -0.185 N 
HETATM   30  C21 UNL     1       5.920  -1.509   1.089  1.00  0.00     0.691 A 
ATOM     31  H5  UNL     1       7.304  -1.581  -0.525  1.00  0.00     0.185 HD
HETATM   32  N7  UNL     1       5.260  -0.489   1.622  1.00  0.00    -0.129 N 
ATOM     33  H7  UNL     1       4.608  -0.555   2.404  1.00  0.00     0.206 HD
BRANCH  30  34
HETATM   34  N6  UNL     1       5.879  -2.747   1.434  1.00  0.00    -0.233 N 
ATOM     35  H62 UNL     1       6.386  -3.531   1.024  1.00  0.00     0.174 HD
ATOM     36  H61 UNL     1       5.303  -3.101   2.198  1.00  0.00     0.174 HD
ENDBRANCH  30  34
ENDBRANCH  26  27
ENDBRANCH  25  26
ENDBRANCH  23  24
ENDBRANCH   6  23
TORSDOF 10
