REMARK  11 active torsions:
REMARK  status: ('A' for Active; 'I' for Inactive)
REMARK    1  A    between atoms: C3_3  and  N1_4 
REMARK       I    between atoms: N1_4  and  C4_6 
REMARK       I    between atoms: C4_6  and  N3_10 
REMARK    2  A    between atoms: N3_10  and  C5_12 
REMARK    3  A    between atoms: C5_12  and  C6_13 
REMARK    4  A    between atoms: C6_13  and  C7_14 
REMARK    5  A    between atoms: C7_14  and  C8_15 
REMARK    6  A    between atoms: C8_15  and  N4_16 
REMARK    7  A    between atoms: C9_18  and  N5_20 
REMARK    8  A    between atoms: N6_24  and  C14_25 
REMARK    9  A    between atoms: N7_28  and  C17_29 
REMARK   10  A    between atoms: C17_29  and  C18_30 
REMARK   11  A    between atoms: C18_30  and  O1_31 
ROOT
HETATM    1  C1  UNL     1      10.745   1.489   0.170  1.00  0.00     0.014 C 
HETATM    2  C2  UNL     1       9.925   0.667  -0.157  1.00  0.00    -0.097 C 
HETATM    3  C3  UNL     1       8.929  -0.352  -0.533  1.00  0.00     0.231 C 
ENDROOT
BRANCH   3   4
HETATM    4  N1  UNL     1       7.661  -0.115   0.140  1.00  0.00    -0.216 N 
HETATM    5  C4  UNL     1       6.830   0.991  -0.139  1.00  0.00     0.668 C 
HETATM    6  N2  UNL     1       7.149   2.158   0.281  1.00  0.00    -0.235 N 
HETATM    7  N3  UNL     1       5.650   0.813  -0.883  1.00  0.00    -0.227 N 
ATOM      8  H22 UNL     1       8.005   2.287   0.821  1.00  0.00     0.174 HD
ATOM      9  H21 UNL     1       6.548   2.957   0.079  1.00  0.00     0.174 HD
ATOM     10  H3  UNL     1       5.324   1.554  -1.503  1.00  0.00     0.177 HD
ATOM     11  H1  UNL     1       7.357  -0.782   0.849  1.00  0.00     0.178 HD
BRANCH   7  12
HETATM   12  C5  UNL     1       4.904  -0.406  -0.774  1.00  0.00     0.138 C 
BRANCH  12  13
HETATM   13  C6  UNL     1       4.242  -0.610   0.543  1.00  0.00     0.022 C 
BRANCH  13  14
HETATM   14  C7  UNL     1       3.511  -1.923   0.557  1.00  0.00     0.021 C 
BRANCH  14  15
HETATM   15  C8  UNL     1       2.438  -2.009  -0.486  1.00  0.00     0.121 C 
BRANCH  15  16
HETATM   16  N4  UNL     1       1.428  -1.009  -0.354  1.00  0.00    -0.380 N 
HETATM   17  C9  UNL     1       0.474  -1.018   0.499  1.00  0.00     0.071 C 
HETATM   18  C10 UNL     1       0.339  -2.129   1.466  1.00  0.00     0.088 C 
ATOM     19  H4  UNL     1       1.470  -0.218  -0.996  1.00  0.00     0.160 HD
BRANCH  17  20
HETATM   20  N5  UNL     1      -0.428   0.074   0.473  1.00  0.00    -0.362 N 
HETATM   21  C11 UNL     1      -0.663   0.659  -0.817  1.00  0.00     0.126 C 
HETATM   22  C12 UNL     1      -2.025   0.373  -1.384  1.00  0.00     0.040 C 
HETATM   23  C13 UNL     1      -3.088   1.093  -0.549  1.00  0.00     0.128 C 
HETATM   24  N6  UNL     1      -3.372   0.337   0.653  1.00  0.00    -0.337 N 
HETATM   25  C20 UNL     1      -2.456   0.082   1.725  1.00  0.00     0.238 C 
HETATM   26  O3  UNL     1      -2.871  -0.533   2.741  1.00  0.00    -0.272 OA
HETATM   27  C21 UNL     1      -1.024   0.495   1.734  1.00  0.00     0.227 C 
BRANCH  24  28
HETATM   28  C14 UNL     1      -4.681  -0.242   0.832  1.00  0.00     0.181 C 
HETATM   29  C15 UNL     1      -5.119  -1.127  -0.304  1.00  0.00     0.055 C 
HETATM   30  C16 UNL     1      -6.619  -1.019  -0.219  1.00  0.00     0.128 C 
HETATM   31  N7  UNL     1      -6.856   0.341   0.177  1.00  0.00    -0.348 N 
HETATM   32  C19 UNL     1      -5.711   0.833   0.839  1.00  0.00     0.242 C 
HETATM   33  O2  UNL     1      -5.549   1.949   1.347  1.00  0.00    -0.271 OA
BRANCH  31  34
HETATM   34  C17 UNL     1      -8.047   1.155  -0.017  1.00  0.00     0.151 C 
BRANCH  34  35
HETATM   35  C18 UNL     1      -7.916   1.903  -1.324  1.00  0.00     0.183 C 
BRANCH  35  36
HETATM   36  O1  UNL     1      -6.774   2.701  -1.215  1.00  0.00    -0.399 OA
ATOM     37  H1  UNL     1      -6.692   3.171  -2.036  1.00  0.00     0.209 HD
ENDBRANCH  35  36
ENDBRANCH  34  35
ENDBRANCH  31  34
ENDBRANCH  24  28
ENDBRANCH  17  20
ENDBRANCH  15  16
ENDBRANCH  14  15
ENDBRANCH  13  14
ENDBRANCH  12  13
ENDBRANCH   7  12
ENDBRANCH   3   4
TORSDOF 11
