REMARK  9 active torsions:
REMARK  status: ('A' for Active; 'I' for Inactive)
REMARK    1  A    between atoms: C1_2  and  C2_4 
REMARK       I    between atoms: N2_8  and  C6_9 
REMARK    2  A    between atoms: C6_9  and  C7_11 
REMARK    3  A    between atoms: C7_11  and  C8_12 
REMARK    4  A    between atoms: C7_11  and  C12_20 
REMARK    5  A    between atoms: C8_12  and  C9_13 
REMARK    6  A    between atoms: C9_13  and  C10_14 
REMARK    7  A    between atoms: C10_14  and  N3_15 
REMARK    8  A    between atoms: C12_20  and  C13_21 
REMARK       I    between atoms: C13_21  and  N6_23 
REMARK    9  A    between atoms: C15_25  and  N7_26 
ROOT
HETATM    1  C7  UNL     1      -1.408   0.172   0.326  1.00  0.00     0.087 C 
ENDROOT
BRANCH   1   2
HETATM    2  C6  UNL     1      -2.233  -0.876  -0.344  1.00  0.00     0.225 C 
HETATM    3  N2  UNL     1      -2.503  -2.090   0.401  1.00  0.00    -0.339 N 
HETATM    4  C2  UNL     1      -3.246  -3.222  -0.087  1.00  0.00     0.176 C 
HETATM    5  C5  UNL     1      -2.097  -2.327   1.760  1.00  0.00     0.127 C 
HETATM    6  C3  UNL     1      -3.139  -4.256   1.017  1.00  0.00     0.036 C 
HETATM    7  C4  UNL     1      -1.890  -3.846   1.789  1.00  0.00     0.022 C 
HETATM    8  O2  UNL     1      -2.677  -0.749  -1.478  1.00  0.00    -0.273 OA
BRANCH   4   9
HETATM    9  C1  UNL     1      -2.752  -3.767  -1.367  1.00  0.00     0.254 C 
HETATM   10  N1  UNL     1      -3.513  -4.749  -2.040  1.00  0.00    -0.060 NA
HETATM   11  O1  UNL     1      -1.674  -3.364  -1.847  1.00  0.00    -0.275 OA
ENDBRANCH   4   9
ENDBRANCH   1   2
BRANCH   1  12
HETATM   12  C8  UNL     1      -1.667   1.513  -0.376  1.00  0.00     0.016 C 
BRANCH  12  13
HETATM   13  C9  UNL     1      -3.095   1.942  -0.290  1.00  0.00     0.020 C 
BRANCH  13  14
HETATM   14  C10 UNL     1      -3.545   2.113   1.163  1.00  0.00     0.122 C 
BRANCH  14  15
HETATM   15  N3  UNL     1      -4.934   2.531   1.132  1.00  0.00    -0.367 N 
HETATM   16  C11 UNL     1      -5.315   3.711   0.822  1.00  0.00     0.196 C 
HETATM   17  N4  UNL     1      -6.711   3.999   0.829  1.00  0.00    -0.067 NA
HETATM   18  N5  UNL     1      -4.448   4.770   0.468  1.00  0.00    -0.067 NA
ATOM     19  H3  UNL     1      -5.648   1.843   1.372  1.00  0.00     0.161 HD
ENDBRANCH  14  15
ENDBRANCH  13  14
ENDBRANCH  12  13
ENDBRANCH   1  12
BRANCH   1  20
HETATM   20  C12 UNL     1       0.050  -0.131   0.190  1.00  0.00     0.118 C 
BRANCH  20  21
HETATM   21  C13 UNL     1       0.917   0.830   0.893  1.00  0.00     0.236 C 
HETATM   22  O3  UNL     1       0.466   1.695   1.677  1.00  0.00    -0.272 OA
HETATM   23  N6  UNL     1       2.336   0.825   0.714  1.00  0.00    -0.263 N 
HETATM   24  C14 UNL     1       3.073  -0.077  -0.121  1.00  0.00     0.185 C 
HETATM   25  N8  UNL     1       3.241   1.693   1.316  1.00  0.00    -0.134 NA
HETATM   26  C15 UNL     1       4.528   0.239   0.097  1.00  0.00     0.258 C 
HETATM   27  C20 UNL     1       4.472   0.894   1.463  1.00  0.00     0.172 C 
BRANCH  26  28
HETATM   28  N7  UNL     1       5.054   1.211  -0.817  1.00  0.00     0.096 N 
HETATM   29  C16 UNL     1       4.999   0.804  -2.201  1.00  0.00     0.273 C 
HETATM   30  C17 UNL     1       5.934  -0.377  -2.326  1.00  0.00     0.032 C 
HETATM   31  C18 UNL     1       7.028  -0.005  -1.333  1.00  0.00     0.032 C 
HETATM   32  C19 UNL     1       6.512   1.230  -0.621  1.00  0.00     0.273 C 
ENDBRANCH  26  28
ENDBRANCH  20  21
ENDBRANCH   1  20
TORSDOF 9
