REMARK  9 active torsions:
REMARK  status: ('A' for Active; 'I' for Inactive)
REMARK    1  A    between atoms: C2_2  and  C3_3 
REMARK    2  A    between atoms: C3_3  and  N1_4 
REMARK    3  A    between atoms: N1_4  and  C4_5 
REMARK       I    between atoms: N1_4  and  C7_8 
REMARK    4  A    between atoms: C4_5  and  C5_6 
REMARK    5  A    between atoms: C7_8  and  C8_10 
REMARK    6  A    between atoms: C10_12  and  N2_13 
REMARK       I    between atoms: N2_13  and  C11_15 
REMARK    7  A    between atoms: C11_15  and  C12_17 
REMARK    8  A    between atoms: C13_20  and  C14_21 
REMARK    9  A    between atoms: C14_21  and  N5_22 
ROOT
HETATM    1  N2  UNL     1       0.153  -0.872  -1.367  1.00  0.00    -0.353 N 
ATOM      2  H2  UNL     1       0.309  -0.183  -2.103  1.00  0.00     0.163 HD
HETATM    3  C11 UNL     1       1.249  -1.428  -0.660  1.00  0.00     0.258 C 
HETATM    4  O2  UNL     1       1.049  -2.264   0.232  1.00  0.00    -0.270 OA
ENDROOT
BRANCH   1   5
HETATM    5  C10 UNL     1      -1.181  -1.292  -1.033  1.00  0.00     0.085 C 
HETATM    6  C9  UNL     1      -2.006  -0.117  -0.479  1.00  0.00     0.039 C 
HETATM    7  C8  UNL     1      -3.360  -0.451  -0.994  1.00  0.00     0.083 C 
HETATM    8  C20 UNL     1      -3.065  -0.778  -2.456  1.00  0.00    -0.004 C 
HETATM    9  C19 UNL     1      -1.920  -1.765  -2.266  1.00  0.00     0.030 C 
HETATM   10  C21 UNL     1      -2.553   0.382  -3.237  1.00  0.00     0.011 C 
BRANCH   7  11
HETATM   11  C7  UNL     1      -4.414   0.515  -0.816  1.00  0.00     0.224 C 
HETATM   12  N1  UNL     1      -5.150   0.668   0.368  1.00  0.00    -0.352 N 
HETATM   13  O1  UNL     1      -4.702   1.287  -1.794  1.00  0.00    -0.273 OA
BRANCH  12  14
HETATM   14  C3  UNL     1      -6.153   1.735   0.434  1.00  0.00     0.125 C 
BRANCH  14  15
HETATM   15  C2  UNL     1      -5.472   2.983   0.955  1.00  0.00     0.015 C 
HETATM   16  C1  UNL     1      -6.417   4.142   1.062  1.00  0.00     0.006 C 
ENDBRANCH  14  15
ENDBRANCH  12  14
BRANCH  12  17
HETATM   17  C4  UNL     1      -4.963  -0.223   1.495  1.00  0.00     0.125 C 
BRANCH  17  18
HETATM   18  C5  UNL     1      -5.891  -1.416   1.467  1.00  0.00     0.015 C 
HETATM   19  C6  UNL     1      -5.597  -2.254   2.679  1.00  0.00     0.006 C 
ENDBRANCH  17  18
ENDBRANCH  12  17
ENDBRANCH   7  11
ENDBRANCH   1   5
BRANCH   3  20
HETATM   20  C12 UNL     1       2.626  -0.964  -1.037  1.00  0.00     0.287 C 
HETATM   21  N3  UNL     1       3.590  -1.661  -0.187  1.00  0.00    -0.112 NA
HETATM   22  N4  UNL     1       4.864  -1.118  -0.384  1.00  0.00    -0.130 NA
HETATM   23  C13 UNL     1       4.932   0.119   0.369  1.00  0.00     0.213 C 
HETATM   24  C18 UNL     1       3.884   1.012  -0.186  1.00  0.00     0.241 C 
HETATM   25  O3  UNL     1       3.988   2.259  -0.063  1.00  0.00    -0.272 OA
HETATM   26  N6  UNL     1       2.755   0.468  -0.861  1.00  0.00    -0.332 N 
ATOM     27  H6  UNL     1       2.032   1.090  -1.223  1.00  0.00     0.164 HD
BRANCH  23  28
HETATM   28  C14 UNL     1       6.298   0.763   0.259  1.00  0.00     0.268 C 
BRANCH  28  29
HETATM   29  N5  UNL     1       7.339  -0.108   0.767  1.00  0.00    -0.076 N 
HETATM   30  C15 UNL     1       7.730  -1.122  -0.196  1.00  0.00     0.271 C 
HETATM   31  C16 UNL     1       8.510   0.695   1.054  1.00  0.00     0.271 C 
HETATM   32  C17 UNL     1       6.934  -0.716   2.029  1.00  0.00     0.271 C 
ENDBRANCH  28  29
ENDBRANCH  23  28
ENDBRANCH   3  20
TORSDOF 9
