REMARK  9 active torsions:
REMARK  status: ('A' for Active; 'I' for Inactive)
REMARK    1  A    between atoms: C2_2  and  C3_3 
REMARK    2  A    between atoms: C3_3  and  N1_4 
REMARK    3  A    between atoms: C7_8  and  C8_9 
REMARK       I    between atoms: C8_9  and  N2_11 
REMARK    4  A    between atoms: C12_15  and  C13_16 
REMARK       I    between atoms: C13_16  and  N3_18 
REMARK    5  A    between atoms: C14_20  and  C15_22 
REMARK    6  A    between atoms: C15_22  and  C16_23 
REMARK    7  A    between atoms: C16_23  and  C17_24 
REMARK    8  A    between atoms: C17_24  and  C18_25 
REMARK    9  A    between atoms: C18_25  and  N5_26 
ROOT
HETATM    1  C8  UNL     1      -1.712  -0.069  -0.782  1.00  0.00     0.225 C 
HETATM    2  O1  UNL     1      -1.356   1.078  -1.115  1.00  0.00    -0.273 OA
HETATM    3  N2  UNL     1      -0.877  -1.165  -0.879  1.00  0.00    -0.338 N 
HETATM    4  C9  UNL     1      -1.358  -2.525  -0.442  1.00  0.00     0.127 C 
HETATM    5  C10 UNL     1      -0.636  -3.493  -1.326  1.00  0.00     0.022 C 
HETATM    6  C11 UNL     1       0.115  -2.613  -2.288  1.00  0.00     0.037 C 
HETATM    7  C12 UNL     1       0.426  -1.414  -1.318  1.00  0.00     0.179 C 
ENDROOT
BRANCH   7   8
HETATM    8  C13 UNL     1       1.265  -0.461  -1.992  1.00  0.00     0.245 C 
HETATM    9  O2  UNL     1       0.912   0.679  -2.326  1.00  0.00    -0.271 OA
HETATM   10  N3  UNL     1       2.637  -0.775  -2.346  1.00  0.00    -0.317 N 
HETATM   11  C14 UNL     1       3.615  -0.522  -1.496  1.00  0.00     0.095 C 
ATOM     12  H3  UNL     1       2.846  -1.192  -3.253  1.00  0.00     0.169 HD
HETATM   13  N4  UNL     1       4.897  -0.872  -1.956  1.00  0.00    -0.087 NA
BRANCH  11  14
HETATM   14  C15 UNL     1       3.328   0.077  -0.189  1.00  0.00     0.073 C 
BRANCH  14  15
HETATM   15  C16 UNL     1       3.768  -0.759   0.950  1.00  0.00     0.009 C 
BRANCH  15  16
HETATM   16  C17 UNL     1       5.206  -1.008   1.157  1.00  0.00     0.020 C 
BRANCH  16  17
HETATM   17  C18 UNL     1       6.057   0.165   1.507  1.00  0.00     0.122 C 
BRANCH  17  18
HETATM   18  N5  UNL     1       6.112   1.252   0.603  1.00  0.00    -0.367 N 
HETATM   19  C19 UNL     1       7.136   1.645  -0.072  1.00  0.00     0.196 C 
HETATM   20  N6  UNL     1       8.390   0.986   0.027  1.00  0.00    -0.067 NA
HETATM   21  N7  UNL     1       6.980   2.761  -0.922  1.00  0.00    -0.067 NA
ATOM     22  H5  UNL     1       5.249   1.780   0.472  1.00  0.00     0.161 HD
ENDBRANCH  17  18
ENDBRANCH  16  17
ENDBRANCH  15  16
ENDBRANCH  14  15
ENDBRANCH  11  14
ENDBRANCH   7   8
BRANCH   1  23
HETATM   23  C7  UNL     1      -3.136  -0.128  -0.269  1.00  0.00     0.087 C 
HETATM   24  C6  UNL     1      -3.871   1.127  -0.675  1.00  0.00     0.016 C 
HETATM   25  C5  UNL     1      -3.703   2.250   0.315  1.00  0.00     0.021 C 
HETATM   26  C4  UNL     1      -4.931   2.346   1.233  1.00  0.00     0.126 C 
HETATM   27  N1  UNL     1      -5.349   1.040   1.659  1.00  0.00    -0.349 N 
HETATM   28  C21 UNL     1      -4.611  -0.161   1.649  1.00  0.00     0.220 C 
HETATM   29  C20 UNL     1      -3.199  -0.357   1.213  1.00  0.00     0.117 C 
HETATM   30  O3  UNL     1      -5.235  -1.181   2.062  1.00  0.00    -0.273 OA
BRANCH  27  31
HETATM   31  C3  UNL     1      -6.729   1.019   2.156  1.00  0.00     0.152 C 
BRANCH  31  32
HETATM   32  C2  UNL     1      -7.604   0.728   0.968  1.00  0.00    -0.017 C 
HETATM   33  C1  UNL     1      -8.542   1.557   0.558  1.00  0.00     0.008 C 
ENDBRANCH  31  32
ENDBRANCH  27  31
ENDBRANCH   1  23
TORSDOF 9
