REMARK  14 active torsions:
REMARK  status: ('A' for Active; 'I' for Inactive)
REMARK    1  A    between atoms: N1_2  and  C2_3 
REMARK    2  A    between atoms: C2_3  and  C3_4 
REMARK    3  A    between atoms: C3_4  and  C4_5 
REMARK    4  A    between atoms: C4_5  and  C5_6 
REMARK    5  A    between atoms: C5_6  and  C6_7 
REMARK    6  A    between atoms: C6_7  and  N2_8 
REMARK    7  A    between atoms: C8_13  and  O2_14 
REMARK    8  A    between atoms: C9_18  and  C10_19 
REMARK    9  A    between atoms: C10_19  and  C11_20 
REMARK   10  A    between atoms: C11_20  and  C12_21 
REMARK   11  A    between atoms: C12_21  and  C13_22 
REMARK   12  A    between atoms: C13_22  and  N5_23 
REMARK   13  A    between atoms: C14_27  and  O3_28 
REMARK   14  A    between atoms: C19_35  and  O4_36 
ROOT
HETATM    1  N2  UNL     1       0.755  -0.122   0.999  1.00  0.00    -0.270 N 
HETATM    2  N3  UNL     1       0.794  -1.460   0.590  1.00  0.00    -0.259 N 
ATOM      3  H3  UNL     1       1.558  -1.701  -0.042  1.00  0.00     0.190 HD
HETATM    4  C7  UNL     1      -0.084  -2.542   0.930  1.00  0.00     0.310 C 
HETATM    5  O1  UNL     1       0.251  -3.762   0.645  1.00  0.00    -0.262 OA
HETATM    6  C8  UNL     1      -1.368  -2.394   1.597  1.00  0.00     0.208 C 
HETATM    7  N4  UNL     1      -2.480  -1.650   1.124  1.00  0.00    -0.354 N 
ATOM      8  H4  UNL     1      -2.923  -1.003   1.776  1.00  0.00     0.162 HD
HETATM    9  C9  UNL     1      -3.027  -1.735  -0.188  1.00  0.00     0.158 C 
HETATM   10  C14 UNL     1      -2.418  -0.857  -1.207  1.00  0.00     0.137 C 
HETATM   11  N6  UNL     1      -2.010   0.486  -1.114  1.00  0.00    -0.351 N 
HETATM   12  C15 UNL     1      -2.531   1.578  -1.991  1.00  0.00     0.125 C 
HETATM   13  C16 UNL     1      -1.227   2.155  -2.501  1.00  0.00     0.022 C 
HETATM   14  C17 UNL     1      -0.212   1.817  -1.441  1.00  0.00     0.035 C 
HETATM   15  C18 UNL     1      -1.104   1.187  -0.323  1.00  0.00     0.162 C 
HETATM   16  C19 UNL     1      -0.376   0.763   0.814  1.00  0.00     0.156 C 
ENDROOT
BRANCH   1  17
HETATM   17  C6  UNL     1       1.941   0.428   1.704  1.00  0.00     0.151 C 
BRANCH  17  18
HETATM   18  C5  UNL     1       2.914   1.116   0.786  1.00  0.00     0.022 C 
BRANCH  18  19
HETATM   19  C4  UNL     1       3.461   0.254  -0.323  1.00  0.00     0.003 C 
BRANCH  19  20
HETATM   20  C3  UNL     1       4.476   0.956  -1.176  1.00  0.00     0.028 C 
BRANCH  20  21
HETATM   21  C2  UNL     1       5.712   1.335  -0.439  1.00  0.00     0.237 C 
BRANCH  21  22
HETATM   22  N1  UNL     1       6.412   0.180   0.033  1.00  0.00    -0.068 N 
HETATM   23  C1  UNL     1       6.583  -0.916  -0.913  1.00  0.00     0.272 C 
HETATM   24  C20 UNL     1       7.526   0.408   0.962  1.00  0.00     0.265 A 
HETATM   25  C21 UNL     1       6.276  -0.215   1.403  1.00  0.00     0.265 A 
ENDBRANCH  21  22
ENDBRANCH  20  21
ENDBRANCH  19  20
ENDBRANCH  18  19
ENDBRANCH  17  18
ENDBRANCH   1  17
BRANCH  16  26
HETATM   26  O4  UNL     1      -0.742   1.229   1.977  1.00  0.00    -0.347 OA
ATOM     27  H4  UNL     1      -1.484   1.810   1.856  1.00  0.00     0.219 HD
ENDBRANCH  16  26
BRANCH   6  28
HETATM   28  O2  UNL     1      -1.544  -2.992   2.746  1.00  0.00    -0.342 OA
ATOM     29  H2  UNL     1      -2.383  -2.895   3.182  1.00  0.00     0.219 HD
ENDBRANCH   6  28
BRANCH  10  30
HETATM   30  O3  UNL     1      -2.261  -1.474  -2.343  1.00  0.00    -0.348 OA
ATOM     31  H3  UNL     1      -1.869  -0.909  -2.999  1.00  0.00     0.219 HD
ENDBRANCH  10  30
BRANCH   9  32
HETATM   32  C10 UNL     1      -4.550  -1.645  -0.176  1.00  0.00     0.033 C 
BRANCH  32  33
HETATM   33  C11 UNL     1      -5.084  -0.386   0.405  1.00  0.00     0.004 C 
BRANCH  33  34
HETATM   34  C12 UNL     1      -6.614  -0.501   0.325  1.00  0.00     0.027 C 
BRANCH  34  35
HETATM   35  C13 UNL     1      -7.274   0.729   0.890  1.00  0.00     0.229 C 
BRANCH  35  36
HETATM   36  N5  UNL     1      -8.710   0.528   0.772  1.00  0.00    -0.079 N 
ATOM     37  H53 UNL     1      -9.009   0.313  -0.179  1.00  0.00     0.274 HD
ATOM     38  H52 UNL     1      -9.032  -0.337   1.207  1.00  0.00     0.274 HD
ATOM     39  H51 UNL     1      -9.157   1.361   1.155  1.00  0.00     0.274 HD
ENDBRANCH  35  36
ENDBRANCH  34  35
ENDBRANCH  33  34
ENDBRANCH  32  33
ENDBRANCH   9  32
TORSDOF 14
