REMARK  9 active torsions:
REMARK  status: ('A' for Active; 'I' for Inactive)
REMARK       I    between atoms: N1_2  and  C3_4 
REMARK    1  A    between atoms: N3_6  and  C4_8 
REMARK    2  A    between atoms: C4_8  and  C5_9 
REMARK    3  A    between atoms: C5_9  and  C6_10 
REMARK    4  A    between atoms: C6_10  and  C7_11 
REMARK    5  A    between atoms: C10_16  and  C11_17 
REMARK    6  A    between atoms: C11_17  and  C12_18 
REMARK    7  A    between atoms: C12_18  and  C13_19 
REMARK    8  A    between atoms: C13_19  and  N5_20 
REMARK    9  A    between atoms: N9_29  and  C16_30 
ROOT
HETATM    1  C7  UNL     1      -0.642  -0.442  -0.400  1.00  0.00     0.193 C 
HETATM    2  N4  UNL     1       0.026   0.549  -1.198  1.00  0.00    -0.333 N 
HETATM    3  C8  UNL     1      -0.722   1.143  -2.290  1.00  0.00     0.155 C 
HETATM    4  C9  UNL     1       1.361   1.079  -1.111  1.00  0.00     0.244 C 
HETATM    5  O1  UNL     1       1.519   2.147  -1.731  1.00  0.00    -0.271 OA
HETATM    6  C10 UNL     1       2.483   0.499  -0.395  1.00  0.00     0.178 C 
HETATM    7  N8  UNL     1       2.514  -0.948  -0.566  1.00  0.00    -0.330 N 
ATOM      8  H8  UNL     1       3.449  -1.354  -0.591  1.00  0.00     0.165 HD
HETATM    9  C15 UNL     1       1.456  -1.887  -0.704  1.00  0.00     0.321 C 
HETATM   10  O2  UNL     1       1.767  -3.035  -1.168  1.00  0.00    -0.247 OA
HETATM   11  N9  UNL     1       0.076  -1.732  -0.394  1.00  0.00    -0.308 N 
ENDROOT
BRANCH   1  12
HETATM   12  C6  UNL     1      -0.925  -0.001   1.001  1.00  0.00     0.049 C 
BRANCH  12  13
HETATM   13  C5  UNL     1      -1.797   1.188   1.151  1.00  0.00     0.023 C 
BRANCH  13  14
HETATM   14  C4  UNL     1      -3.170   0.992   0.576  1.00  0.00     0.122 C 
BRANCH  14  15
HETATM   15  N3  UNL     1      -3.997   2.188   0.741  1.00  0.00    -0.365 N 
HETATM   16  C3  UNL     1      -5.264   2.054   0.518  1.00  0.00     0.185 C 
HETATM   17  N1  UNL     1      -5.860   0.823   0.131  1.00  0.00    -0.364 N 
HETATM   18  N2  UNL     1      -6.115   3.180   0.663  1.00  0.00    -0.064 NA
HETATM   19  C1  UNL     1      -5.793   0.377  -1.245  1.00  0.00     0.151 C 
HETATM   20  C2  UNL     1      -6.549  -0.024   1.082  1.00  0.00     0.151 C 
ATOM     21  H3  UNL     1      -3.594   3.083   1.018  1.00  0.00     0.162 HD
ENDBRANCH  14  15
ENDBRANCH  13  14
ENDBRANCH  12  13
ENDBRANCH   1  12
BRANCH  11  22
HETATM   22  C16 UNL     1      -0.675  -2.873  -0.058  1.00  0.00     0.091 C 
HETATM   23  C17 UNL     1      -0.289  -3.683   1.115  1.00  0.00     0.025 C 
HETATM   24  C18 UNL     1      -1.293  -4.843   1.049  1.00  0.00     0.002 C 
HETATM   25  C19 UNL     1      -1.902  -4.789  -0.348  1.00  0.00     0.002 C 
HETATM   26  C20 UNL     1      -0.910  -3.900  -1.134  1.00  0.00     0.025 C 
ENDBRANCH  11  22
BRANCH   6  27
HETATM   27  C11 UNL     1       3.828   1.015  -0.669  1.00  0.00     0.037 C 
BRANCH  27  28
HETATM   28  C12 UNL     1       4.134   2.435  -0.420  1.00  0.00     0.022 C 
BRANCH  28  29
HETATM   29  C13 UNL     1       5.616   2.634  -0.804  1.00  0.00     0.122 C 
BRANCH  29  30
HETATM   30  N5  UNL     1       6.462   1.794  -0.011  1.00  0.00    -0.367 N 
HETATM   31  C14 UNL     1       7.605   2.096   0.454  1.00  0.00     0.196 C 
HETATM   32  N6  UNL     1       8.159   3.380   0.199  1.00  0.00    -0.067 NA
HETATM   33  N7  UNL     1       8.299   1.116   1.226  1.00  0.00    -0.067 NA
ATOM     34  H5  UNL     1       6.112   0.860   0.202  1.00  0.00     0.161 HD
ENDBRANCH  29  30
ENDBRANCH  28  29
ENDBRANCH  27  28
ENDBRANCH   6  27
TORSDOF 9
