REMARK  11 active torsions:
REMARK  status: ('A' for Active; 'I' for Inactive)
REMARK    1  A    between atoms: C2_2  and  C3_3 
REMARK    2  A    between atoms: C3_3  and  N1_4 
REMARK    3  A    between atoms: N1_4  and  C4_5 
REMARK       I    between atoms: N1_4  and  C19_32 
REMARK    4  A    between atoms: C4_5  and  C5_6 
REMARK    5  A    between atoms: C5_6  and  C6_7 
REMARK    6  A    between atoms: C6_7  and  N2_8 
REMARK    7  A    between atoms: N2_8  and  C7_10 
REMARK    8  A    between atoms: C13_19  and  C14_20 
REMARK    9  A    between atoms: C16_27  and  O2_28 
REMARK   10  A    between atoms: C19_32  and  C20_34 
REMARK   11  A    between atoms: C20_34  and  N7_35 
ROOT
HETATM    1  C7  UNL     1       0.748  -1.008   0.154  1.00  0.00     0.117 A 
HETATM    2  C8  UNL     1       0.954  -1.883   1.200  1.00  0.00     0.139 A 
HETATM    3  N3  UNL     1       2.168  -2.077   1.744  1.00  0.00    -0.356 N 
HETATM    4  C9  UNL     1       2.417  -2.984   2.839  1.00  0.00     0.156 C 
HETATM    5  C10 UNL     1       3.252  -1.399   1.264  1.00  0.00     0.061 A 
HETATM    6  C11 UNL     1       3.061  -0.526   0.224  1.00  0.00     0.071 A 
HETATM    7  N4  UNL     1       1.827  -0.347  -0.309  1.00  0.00    -0.339 N 
ATOM      8  H4  UNL     1       1.712   0.307  -1.083  1.00  0.00     0.167 HD
HETATM    9  C12 UNL     1       4.392   0.065  -0.082  1.00  0.00    -0.005 A 
HETATM   10  C13 UNL     1       4.546   0.963  -1.021  1.00  0.00     0.048 C 
HETATM   11  C17 UNL     1       5.308  -0.547   0.860  1.00  0.00     0.016 A 
HETATM   12  C18 UNL     1       4.663  -1.406   1.655  1.00  0.00     0.033 A 
ENDROOT
BRANCH   1  13
HETATM   13  N2  UNL     1      -0.437  -0.810  -0.374  1.00  0.00    -0.375 N 
ATOM     14  H2  UNL     1      -0.580  -0.162  -1.149  1.00  0.00     0.161 HD
BRANCH  13  15
HETATM   15  C6  UNL     1      -1.526  -1.559   0.201  1.00  0.00     0.123 C 
BRANCH  15  16
HETATM   16  C5  UNL     1      -2.861  -1.193  -0.430  1.00  0.00     0.039 C 
BRANCH  16  17
HETATM   17  C4  UNL     1      -3.181   0.255  -0.260  1.00  0.00     0.127 C 
BRANCH  17  18
HETATM   18  N1  UNL     1      -4.464   0.555  -0.831  1.00  0.00    -0.347 N 
HETATM   19  C19 UNL     1      -5.685   0.492  -0.067  1.00  0.00     0.241 C 
HETATM   20  O3  UNL     1      -6.790   0.724  -0.577  1.00  0.00    -0.271 OA
BRANCH  18  21
HETATM   21  C3  UNL     1      -4.654   0.968  -2.217  1.00  0.00     0.152 C 
BRANCH  21  22
HETATM   22  C2  UNL     1      -4.936  -0.169  -3.126  1.00  0.00    -0.017 C 
HETATM   23  C1  UNL     1      -6.079  -0.234  -3.819  1.00  0.00     0.008 C 
ENDBRANCH  21  22
ENDBRANCH  18  21
BRANCH  19  24
HETATM   24  C20 UNL     1      -5.650   0.144   1.370  1.00  0.00     0.276 C 
BRANCH  24  25
HETATM   25  N7  UNL     1      -5.654   1.352   2.197  1.00  0.00    -0.182 N 
HETATM   26  N8  UNL     1      -4.771   2.162   2.727  1.00  0.00    -0.162 N 
HETATM   27  O4  UNL     1      -5.723   2.861   3.229  1.00  0.00    -0.123 OA
ATOM     28  H8  UNL     1      -3.752   2.215   2.737  1.00  0.00     0.220 HD
HETATM   29  N9  UNL     1      -6.608   2.079   2.718  1.00  0.00    -0.162 N 
ATOM     30  H9  UNL     1      -7.627   2.042   2.719  1.00  0.00     0.220 HD
ENDBRANCH  24  25
ENDBRANCH  19  24
ENDBRANCH  17  18
ENDBRANCH  16  17
ENDBRANCH  15  16
ENDBRANCH  13  15
ENDBRANCH   1  13
BRANCH  10  31
HETATM   31  C14 UNL     1       5.809   1.565  -1.363  1.00  0.00     0.088 A 
HETATM   32  N5  UNL     1       6.001   2.917  -1.492  1.00  0.00    -0.305 N 
HETATM   33  C15 UNL     1       7.265   3.172  -1.850  1.00  0.00     0.326 A 
ATOM     34  H5  UNL     1       5.284   3.626  -1.337  1.00  0.00     0.171 HD
HETATM   35  O1  UNL     1       7.834   4.267  -2.067  1.00  0.00    -0.247 OA
HETATM   36  N6  UNL     1       7.921   1.993  -1.962  1.00  0.00    -0.287 N 
HETATM   37  C16 UNL     1       7.034   1.023  -1.667  1.00  0.00     0.171 A 
ATOM     38  H6  UNL     1       8.899   1.864  -2.220  1.00  0.00     0.172 HD
BRANCH  37  39
HETATM   39  O2  UNL     1       7.355  -0.334  -1.681  1.00  0.00    -0.344 OA
ATOM     40  H2  UNL     1       8.202  -0.709  -1.891  1.00  0.00     0.219 HD
ENDBRANCH  37  39
ENDBRANCH  10  31
TORSDOF 11
