REMARK  9 active torsions:
REMARK  status: ('A' for Active; 'I' for Inactive)
REMARK    1  A    between atoms: N1_2  and  C2_3 
REMARK    2  A    between atoms: C2_3  and  C3_4 
REMARK    3  A    between atoms: C3_4  and  N2_5 
REMARK       I    between atoms: N2_5  and  C4_7 
REMARK    4  A    between atoms: C4_7  and  C5_9 
REMARK    5  A    between atoms: C14_23  and  C15_24 
REMARK    6  A    between atoms: C15_24  and  C16_25 
REMARK    7  A    between atoms: C16_25  and  C17_26 
REMARK    8  A    between atoms: C17_26  and  C18_27 
REMARK    9  A    between atoms: C18_27  and  N5_28 
ROOT
HETATM    1  C5  UNL     1       0.810  -1.359  -1.278  1.00  0.00     0.181 C 
HETATM    2  C6  UNL     1       0.423  -2.454  -0.278  1.00  0.00     0.062 C 
HETATM    3  C7  UNL     1       0.027  -1.235   0.538  1.00  0.00     0.108 C 
HETATM    4  C8  UNL     1      -0.967  -1.407   1.600  1.00  0.00     0.152 C 
HETATM    5  N3  UNL     1      -1.874  -2.521   1.490  1.00  0.00    -0.337 N 
HETATM    6  C9  UNL     1      -1.639  -3.922   1.549  1.00  0.00     0.220 C 
HETATM    7  O2  UNL     1      -0.570  -4.536   1.787  1.00  0.00    -0.273 OA
HETATM    8  C10 UNL     1      -2.935  -4.641   1.271  1.00  0.00     0.105 C 
HETATM    9  C11 UNL     1      -3.901  -3.585   1.783  1.00  0.00     0.044 C 
HETATM   10  C12 UNL     1      -3.294  -2.258   1.302  1.00  0.00     0.179 C 
HETATM   11  C13 UNL     1      -3.660  -2.015  -0.112  1.00  0.00     0.241 C 
HETATM   12  O3  UNL     1      -4.727  -2.637  -0.497  1.00  0.00    -0.271 OA
HETATM   13  N4  UNL     1      -3.034  -1.235  -1.057  1.00  0.00    -0.346 N 
ATOM     14  H4  UNL     1      -2.733  -1.726  -1.899  1.00  0.00     0.163 HD
HETATM   15  C14 UNL     1      -2.736   0.208  -1.027  1.00  0.00     0.176 C 
HETATM   16  C19 UNL     1      -1.259   0.390  -0.999  1.00  0.00     0.243 C 
HETATM   17  O4  UNL     1      -0.890   1.586  -1.316  1.00  0.00    -0.271 OA
HETATM   18  N6  UNL     1      -0.287  -0.587  -0.676  1.00  0.00    -0.330 N 
ENDROOT
BRANCH   1  19
HETATM   19  C4  UNL     1       2.150  -0.791  -1.137  1.00  0.00     0.240 C 
HETATM   20  N2  UNL     1       2.394   0.452  -0.550  1.00  0.00    -0.358 N 
ATOM     21  H2  UNL     1       1.611   1.003  -0.200  1.00  0.00     0.162 HD
HETATM   22  O1  UNL     1       3.109  -1.465  -1.572  1.00  0.00    -0.271 OA
BRANCH  20  23
HETATM   23  C3  UNL     1       3.740   0.972  -0.430  1.00  0.00     0.150 C 
BRANCH  23  24
HETATM   24  C2  UNL     1       4.631   0.132   0.415  1.00  0.00     0.256 C 
BRANCH  24  25
HETATM   25  N1  UNL     1       5.971   0.689   0.525  1.00  0.00    -0.066 N 
HETATM   26  C1  UNL     1       7.067  -0.256   0.744  1.00  0.00     0.272 C 
HETATM   27  C20 UNL     1       6.309   1.893  -0.173  1.00  0.00     0.265 A 
HETATM   28  C21 UNL     1       6.040   1.942   1.280  1.00  0.00     0.265 A 
ENDBRANCH  24  25
ENDBRANCH  23  24
ENDBRANCH  20  23
ENDBRANCH   1  19
BRANCH  15  29
HETATM   29  C15 UNL     1      -3.522   0.937  -0.015  1.00  0.00     0.035 C 
BRANCH  29  30
HETATM   30  C16 UNL     1      -3.264   2.416  -0.023  1.00  0.00     0.004 C 
BRANCH  30  31
HETATM   31  C17 UNL     1      -3.665   3.104  -1.306  1.00  0.00     0.027 C 
BRANCH  31  32
HETATM   32  C18 UNL     1      -3.352   4.583  -1.249  1.00  0.00     0.229 C 
BRANCH  32  33
HETATM   33  N5  UNL     1      -3.732   5.246  -2.470  1.00  0.00    -0.079 N 
ATOM     34  H53 UNL     1      -3.305   4.804  -3.284  1.00  0.00     0.274 HD
ATOM     35  H52 UNL     1      -4.712   5.079  -2.697  1.00  0.00     0.274 HD
ATOM     36  H51 UNL     1      -3.521   6.243  -2.432  1.00  0.00     0.274 HD
ENDBRANCH  32  33
ENDBRANCH  31  32
ENDBRANCH  30  31
ENDBRANCH  29  30
ENDBRANCH  15  29
TORSDOF 9
