REMARK  2 active torsions:
REMARK  status: ('A' for Active; 'I' for Inactive)
REMARK    1  A    between atoms: O1_1  and  C1_3 
REMARK    2  A    between atoms: C1_3  and  N1_4 
ROOT
HETATM    1  N1  UNL     1       0.340   0.248   0.076  1.00  0.00    -0.046 N 
HETATM    2  C2  UNL     1      -0.593   1.051  -0.651  1.00  0.00     0.240 C 
HETATM    3  C3  UNL     1      -1.861   0.188  -0.473  1.00  0.00     0.036 C 
HETATM    4  C4  UNL     1      -1.224  -0.982   0.210  1.00  0.00     0.039 C 
HETATM    5  C5  UNL     1       0.103  -1.098  -0.473  1.00  0.00     0.246 C 
HETATM    6  C6  UNL     1      -0.376  -0.261   1.258  1.00  0.00     0.246 C 
ENDROOT
BRANCH   1   7
HETATM    7  C1  UNL     1       1.660   0.656   0.243  1.00  0.00     0.401 C 
BRANCH   7   8
HETATM    8  O1  UNL     1       2.497  -0.481   0.168  1.00  0.00    -0.374 OA
ATOM      9  H1  UNL     1       3.398  -0.202   0.282  1.00  0.00     0.211 HD
ENDBRANCH   7   8
ENDBRANCH   1   7
TORSDOF 2
