REMARK  0 active torsions:
REMARK  status: ('A' for Active; 'I' for Inactive)
ROOT
HETATM    1  C1  UNL     1       3.668  -0.492  -0.507  1.00  0.00     0.012 C 
HETATM    2  C2  UNL     1       2.472  -0.344  -0.389  1.00  0.00    -0.113 C 
HETATM    3  C3  UNL     1       1.042  -0.171  -0.272  1.00  0.00     0.066 C 
HETATM    4  C4  UNL     1       0.692   1.035   0.563  1.00  0.00     0.019 C 
HETATM    5  C5  UNL     1      -0.511   1.722   0.021  1.00  0.00     0.029 C 
HETATM    6  C6  UNL     1      -1.617   0.839  -0.411  1.00  0.00     0.232 C 
HETATM    7  N1  UNL     1      -1.792  -0.358   0.346  1.00  0.00    -0.075 N 
ATOM      8  H11 UNL     1      -2.779  -0.605   0.419  1.00  0.00     0.277 HD
ATOM      9  H12 UNL     1      -1.588  -0.201   1.333  1.00  0.00     0.277 HD
HETATM   10  C7  UNL     1      -1.011  -1.472  -0.179  1.00  0.00     0.233 C 
HETATM   11  C8  UNL     1       0.377  -1.372   0.400  1.00  0.00     0.044 C 
ENDROOT
TORSDOF 0
