REMARK  13 active torsions:
REMARK  status: ('A' for Active; 'I' for Inactive)
REMARK    1  A    between atoms: C2_2  and  N1_3 
REMARK    2  A    between atoms: N1_3  and  C3_5 
REMARK    3  A    between atoms: C4_8  and  N3_9 
REMARK    4  A    between atoms: C6_14  and  N5_15 
REMARK    5  A    between atoms: N5_15  and  C7_17 
REMARK    6  A    between atoms: N6_21  and  C11_22 
REMARK    7  A    between atoms: C11_22  and  C12_23 
REMARK    8  A    between atoms: C12_23  and  O1_24 
REMARK    9  A    between atoms: O1_24  and  C13_25 
REMARK   10  A    between atoms: C13_25  and  C14_26 
REMARK   11  A    between atoms: C14_26  and  O2_27 
REMARK   12  A    between atoms: C14_26  and  C15_29 
REMARK   13  A    between atoms: C15_29  and  N7_30 
ROOT
HETATM    1  C7  UNL     1      -2.570   2.114   0.065  1.00  0.00     0.138 C 
HETATM    2  C8  UNL     1      -2.246   3.333  -0.811  1.00  0.00     0.036 C 
HETATM    3  C9  UNL     1      -0.771   3.547  -0.795  1.00  0.00     0.047 C 
HETATM    4  C10 UNL     1      -0.075   2.358  -1.415  1.00  0.00     0.063 C 
HETATM    5  N6  UNL     1      -0.598   1.117  -1.095  1.00  0.00    -0.370 N 
HETATM    6  C21 UNL     1      -1.838   0.941  -0.472  1.00  0.00     0.088 C 
ENDROOT
BRANCH   1   7
HETATM    7  N5  UNL     1      -3.935   1.943   0.167  1.00  0.00    -0.216 N 
ATOM      8  H5  UNL     1      -4.353   2.870   0.090  1.00  0.00     0.178 HD
BRANCH   7   9
HETATM    9  C6  UNL     1      -4.858   1.151   0.311  1.00  0.00     0.707 A 
HETATM   10  N4  UNL     1      -6.155   1.626   0.336  1.00  0.00    -0.022 N 
HETATM   11  C4  UNL     1      -7.218   0.867   0.488  1.00  0.00     0.706 A 
ATOM     12  H4  UNL     1      -6.297   2.630   0.230  1.00  0.00     0.203 HD
HETATM   13  N2  UNL     1      -7.061  -0.460   0.632  1.00  0.00    -0.022 N 
HETATM   14  C3  UNL     1      -5.834  -1.001   0.620  1.00  0.00     0.707 A 
ATOM     15  H2  UNL     1      -7.879  -1.058   0.751  1.00  0.00     0.203 HD
HETATM   16  N8  UNL     1      -4.762  -0.176   0.459  1.00  0.00    -0.022 N 
ATOM     17  H8  UNL     1      -3.832  -0.594   0.451  1.00  0.00     0.203 HD
BRANCH  11  18
HETATM   18  N3  UNL     1      -8.427   1.360   0.505  1.00  0.00    -0.229 N 
HETATM   19  C5  UNL     1      -8.568   2.806   0.346  1.00  0.00     0.165 C 
ATOM     20  H3  UNL     1      -9.242   0.759   0.625  1.00  0.00     0.177 HD
ENDBRANCH  11  18
BRANCH  14  21
HETATM   21  N1  UNL     1      -5.701  -2.283   0.759  1.00  0.00    -0.225 N 
ATOM     22  H1  UNL     1      -6.548  -2.840   0.874  1.00  0.00     0.177 HD
BRANCH  21  23
HETATM   23  C2  UNL     1      -4.442  -2.969   0.762  1.00  0.00     0.133 C 
HETATM   24  C1  UNL     1      -4.682  -4.457   0.481  1.00  0.00     0.027 C 
ENDBRANCH  21  23
ENDBRANCH  14  21
ENDBRANCH   7   9
ENDBRANCH   1   7
BRANCH   5  25
HETATM   25  C11 UNL     1       0.287  -0.003  -1.064  1.00  0.00     0.153 C 
BRANCH  25  26
HETATM   26  C12 UNL     1       1.294   0.056   0.057  1.00  0.00     0.187 C 
BRANCH  26  27
HETATM   27  O1  UNL     1       2.140  -1.019   0.096  1.00  0.00    -0.387 OA
BRANCH  27  28
HETATM   28  C13 UNL     1       2.925  -1.242  -1.001  1.00  0.00     0.201 C 
BRANCH  28  29
HETATM   29  C14 UNL     1       3.866  -0.096  -1.205  1.00  0.00     0.168 C 
BRANCH  29  30
HETATM   30  O2  UNL     1       4.636  -0.178  -2.367  1.00  0.00    -0.392 OA
ATOM     31  H2  UNL     1       5.233   0.549  -2.496  1.00  0.00     0.210 HD
ENDBRANCH  29  30
BRANCH  29  32
HETATM   32  C15 UNL     1       4.678   0.234  -0.004  1.00  0.00     0.270 C 
BRANCH  32  33
HETATM   33  N7  UNL     1       5.762  -0.573   0.363  1.00  0.00    -0.068 N 
HETATM   34  C16 UNL     1       6.874   0.275   0.878  1.00  0.00     0.272 C 
HETATM   35  C17 UNL     1       6.380  -1.425  -0.591  1.00  0.00     0.237 C 
HETATM   36  C18 UNL     1       7.172  -2.391   0.280  1.00  0.00     0.029 C 
HETATM   37  C19 UNL     1       6.571  -2.381   1.645  1.00  0.00     0.029 C 
HETATM   38  C20 UNL     1       5.418  -1.406   1.501  1.00  0.00     0.237 C 
ENDBRANCH  32  33
ENDBRANCH  29  32
ENDBRANCH  28  29
ENDBRANCH  27  28
ENDBRANCH  26  27
ENDBRANCH  25  26
ENDBRANCH   5  25
TORSDOF 13
