REMARK  12 active torsions:
REMARK  status: ('A' for Active; 'I' for Inactive)
REMARK    1  A    between atoms: C1_2  and  C2_4 
REMARK    2  A    between atoms: C2_4  and  C3_5 
REMARK    3  A    between atoms: C5_7  and  C6_8 
REMARK    4  A    between atoms: N1_11  and  C7_12 
REMARK    5  A    between atoms: C7_12  and  O5_13 
REMARK    6  A    between atoms: C7_12  and  C8_15 
REMARK    7  A    between atoms: C7_12  and  C18_29 
REMARK    8  A    between atoms: C8_15  and  N2_16 
REMARK    9  A    between atoms: N3_19  and  C11_20 
REMARK   10  A    between atoms: C11_20  and  C12_21 
REMARK   11  A    between atoms: C12_21  and  C13_22 
REMARK   12  A    between atoms: C13_22  and  O6_23 
ROOT
HETATM    1  C7  UNL     1       1.503   1.378   0.792  1.00  0.00     0.158 C 
ENDROOT
BRANCH   1   2
HETATM    2  N1  UNL     1       2.351   0.472   0.179  1.00  0.00    -0.366 N 
HETATM    3  C5  UNL     1       2.951   0.502  -1.032  1.00  0.00     0.183 C 
HETATM    4  C4  UNL     1       3.215  -0.943  -1.421  1.00  0.00     0.042 C 
HETATM    5  C3  UNL     1       2.764  -1.748  -0.248  1.00  0.00     0.015 C 
HETATM    6  C21 UNL     1       2.681  -0.746   0.877  1.00  0.00     0.126 C 
BRANCH   3   7
HETATM    7  C6  UNL     1       4.150   1.285  -1.326  1.00  0.00     0.196 C 
HETATM    8  O3  UNL     1       4.772   1.925  -0.468  1.00  0.00    -0.646 OA
HETATM    9  O4  UNL     1       4.639   1.331  -2.623  1.00  0.00    -0.646 OA
ENDBRANCH   3   7
BRANCH   5  10
HETATM   10  C2  UNL     1       3.622  -2.943   0.066  1.00  0.00     0.119 C 
BRANCH  10  11
HETATM   11  C1  UNL     1       5.011  -2.680   0.380  1.00  0.00     0.172 C 
HETATM   12  O1  UNL     1       5.572  -1.577   0.417  1.00  0.00    -0.648 OA
HETATM   13  O2  UNL     1       5.832  -3.787   0.680  1.00  0.00    -0.648 OA
ENDBRANCH  10  11
ENDBRANCH   5  10
ENDBRANCH   1   2
BRANCH   1  14
HETATM   14  O5  UNL     1       1.262   0.841   2.097  1.00  0.00    -0.369 OA
ATOM     15  H5  UNL     1       0.680   1.463   2.518  1.00  0.00     0.212 HD
ENDBRANCH   1  14
BRANCH   1  16
HETATM   16  C8  UNL     1       0.201   1.705   0.190  1.00  0.00     0.298 C 
BRANCH  16  17
HETATM   17  N2  UNL     1      -0.808   0.732   0.011  1.00  0.00    -0.058 N 
HETATM   18  C9  UNL     1      -1.153  -0.020   1.205  1.00  0.00     0.265 C 
HETATM   19  C10 UNL     1      -2.594  -0.528   1.163  1.00  0.00     0.265 C 
HETATM   20  N3  UNL     1      -2.949  -0.625  -0.235  1.00  0.00    -0.062 N 
HETATM   21  C14 UNL     1      -3.186   0.746  -0.676  1.00  0.00     0.265 C 
HETATM   22  C16 UNL     1      -1.875  -1.143  -1.032  1.00  0.00     0.265 C 
HETATM   23  C15 UNL     1      -2.037   1.564  -0.200  1.00  0.00     0.265 C 
HETATM   24  C17 UNL     1      -0.792  -0.068  -1.159  1.00  0.00     0.265 C 
BRANCH  20  25
HETATM   25  C11 UNL     1      -4.099  -1.466  -0.357  1.00  0.00     0.239 C 
BRANCH  25  26
HETATM   26  C12 UNL     1      -5.411  -0.716  -0.310  1.00  0.00     0.054 C 
BRANCH  26  27
HETATM   27  C13 UNL     1      -6.509  -1.778  -0.455  1.00  0.00     0.165 C 
BRANCH  27  28
HETATM   28  O6  UNL     1      -6.406  -2.688   0.598  1.00  0.00    -0.401 OA
ATOM     29  H6  UNL     1      -7.086  -3.346   0.508  1.00  0.00     0.209 HD
ENDBRANCH  27  28
ENDBRANCH  26  27
ENDBRANCH  25  26
ENDBRANCH  20  25
ENDBRANCH  16  17
ENDBRANCH   1  16
BRANCH   1  30
HETATM   30  C18 UNL     1       2.197   2.695   1.185  1.00  0.00     0.043 A 
HETATM   31  C19 UNL     1       1.415   3.769   1.871  1.00  0.00     0.010 A 
HETATM   32  C20 UNL     1       1.912   3.945   0.509  1.00  0.00     0.010 A 
ENDBRANCH   1  30
TORSDOF 12
