REMARK  11 active torsions:
REMARK  status: ('A' for Active; 'I' for Inactive)
REMARK    1  A    between atoms: N3_4  and  C2_6 
REMARK    2  A    between atoms: C2_6  and  C3_7 
REMARK    3  A    between atoms: C3_7  and  C4_8 
REMARK    4  A    between atoms: C4_8  and  C5_9 
REMARK    5  A    between atoms: C5_9  and  N4_10 
REMARK       I    between atoms: N4_10  and  C6_12 
REMARK    6  A    between atoms: C6_12  and  C7_14 
REMARK    7  A    between atoms: N6_20  and  C10_21 
REMARK    8  A    between atoms: C10_21  and  O2_22 
REMARK    9  A    between atoms: C10_21  and  C11_24 
REMARK   10  A    between atoms: C11_24  and  N7_25 
REMARK   11  A    between atoms: C14_28  and  N8_29 
ROOT
HETATM    1  C7  UNL     1       0.518   1.313   0.321  1.00  0.00     0.381 C 
HETATM    2  N5  UNL     1       0.690   2.740   0.648  1.00  0.00    -0.044 N 
ATOM      3  H51 UNL     1      -0.172   3.278   0.561  1.00  0.00     0.280 HD
ATOM      4  H52 UNL     1       1.232   3.249  -0.050  1.00  0.00     0.280 HD
HETATM    5  C8  UNL     1       1.262   2.802   1.959  1.00  0.00     0.255 C 
HETATM    6  C9  UNL     1       1.637   1.382   2.289  1.00  0.00     0.155 C 
HETATM    7  N6  UNL     1       0.478   0.680   1.616  1.00  0.00    -0.324 N 
ENDROOT
BRANCH   7   8
HETATM    8  C10 UNL     1      -0.338  -0.252   2.184  1.00  0.00     0.156 C 
BRANCH   8   9
HETATM    9  O2  UNL     1       0.033  -0.604   3.412  1.00  0.00    -0.345 OA
ATOM     10  H2  UNL     1      -0.536  -1.254   3.808  1.00  0.00     0.219 HD
ENDBRANCH   8   9
BRANCH   8  11
HETATM   11  C11 UNL     1      -1.528  -0.961   1.768  1.00  0.00     0.149 C 
BRANCH  11  12
HETATM   12  N7  UNL     1      -2.140  -0.741   0.520  1.00  0.00    -0.322 N 
HETATM   13  C12 UNL     1      -1.940  -1.422  -0.770  1.00  0.00     0.134 C 
HETATM   14  C13 UNL     1      -3.197  -1.239  -1.548  1.00  0.00     0.066 C 
HETATM   15  C14 UNL     1      -4.003  -0.153  -0.883  1.00  0.00     0.316 C 
HETATM   16  C20 UNL     1      -3.178   0.241   0.271  1.00  0.00     0.257 C 
HETATM   17  O3  UNL     1      -3.291   1.273   0.996  1.00  0.00    -0.271 OA
BRANCH  15  18
HETATM   18  N8  UNL     1      -5.304  -0.632  -0.494  1.00  0.00     0.102 N 
HETATM   19  C15 UNL     1      -6.065  -1.034  -1.639  1.00  0.00     0.273 C 
HETATM   20  C16 UNL     1      -7.119  -0.005  -2.009  1.00  0.00     0.030 C 
HETATM   21  C17 UNL     1      -8.117   0.108  -0.874  1.00  0.00     0.003 C 
HETATM   22  C18 UNL     1      -7.467  -0.168   0.466  1.00  0.00     0.030 C 
HETATM   23  C19 UNL     1      -6.013   0.303   0.327  1.00  0.00     0.273 C 
ENDBRANCH  15  18
ENDBRANCH  11  12
ENDBRANCH   8  11
ENDBRANCH   7   8
BRANCH   1  24
HETATM   24  C6  UNL     1       1.785   0.869  -0.347  1.00  0.00     0.268 C 
HETATM   25  N4  UNL     1       1.935  -0.469  -0.742  1.00  0.00    -0.358 N 
ATOM     26  H4  UNL     1       1.161  -1.109  -0.562  1.00  0.00     0.162 HD
HETATM   27  O1  UNL     1       2.688   1.696  -0.542  1.00  0.00    -0.269 OA
BRANCH  25  28
HETATM   28  C5  UNL     1       3.109  -0.998  -1.384  1.00  0.00     0.122 C 
BRANCH  28  29
HETATM   29  C4  UNL     1       4.297  -0.853  -0.470  1.00  0.00     0.021 C 
BRANCH  29  30
HETATM   30  C3  UNL     1       5.556  -1.415  -1.119  1.00  0.00     0.021 C 
BRANCH  30  31
HETATM   31  C2  UNL     1       6.726  -1.241  -0.147  1.00  0.00     0.122 C 
BRANCH  31  32
HETATM   32  N3  UNL     1       6.867   0.173   0.110  1.00  0.00    -0.367 N 
HETATM   33  C1  UNL     1       8.028   0.707   0.140  1.00  0.00     0.196 C 
HETATM   34  N1  UNL     1       8.172   2.115   0.396  1.00  0.00    -0.067 NA
HETATM   35  N2  UNL     1       9.181  -0.078  -0.080  1.00  0.00    -0.067 NA
ATOM     36  H3  UNL     1       6.039   0.747   0.268  1.00  0.00     0.161 HD
ENDBRANCH  31  32
ENDBRANCH  30  31
ENDBRANCH  29  30
ENDBRANCH  28  29
ENDBRANCH  25  28
ENDBRANCH   1  24
TORSDOF 11
