REMARK  8 active torsions:
REMARK  status: ('A' for Active; 'I' for Inactive)
REMARK    1  A    between atoms: C3_3  and  C4_4 
REMARK    2  A    between atoms: C5_5  and  C6_6 
REMARK    3  A    between atoms: C8_11  and  C9_12 
REMARK    4  A    between atoms: C9_12  and  C10_13 
REMARK    5  A    between atoms: C10_13  and  C11_14 
REMARK    6  A    between atoms: C11_14  and  N2_15 
REMARK    7  A    between atoms: N6_26  and  C17_27 
REMARK    8  A    between atoms: C17_27  and  C18_28 
ROOT
HETATM    1  C1  UNL     1       0.390   4.150  -3.985  1.00  0.00     0.012 C 
HETATM    2  C2  UNL     1      -0.162   3.092  -3.821  1.00  0.00    -0.114 C 
HETATM    3  C3  UNL     1      -0.831   1.796  -3.592  1.00  0.00     0.120 C 
ENDROOT
BRANCH   3   4
HETATM    4  C4  UNL     1      -1.832   1.809  -2.508  1.00  0.00    -0.014 C 
HETATM    5  C5  UNL     1      -1.565   2.121  -1.130  1.00  0.00     0.016 C 
BRANCH   5   6
HETATM    6  C6  UNL     1      -0.650   1.313  -0.250  1.00  0.00     0.064 C 
HETATM    7  C7  UNL     1       0.699   1.367  -0.745  1.00  0.00     0.254 C 
HETATM    8  O1  UNL     1       1.248   2.520  -0.618  1.00  0.00    -0.268 OA
HETATM    9  N1  UNL     1       1.579   0.454  -1.341  1.00  0.00    -0.344 N 
HETATM   10  C8  UNL     1       1.632  -0.939  -1.210  1.00  0.00     0.177 C 
ATOM     11  H1  UNL     1       2.281   0.862  -1.958  1.00  0.00     0.163 HD
HETATM   12  C13 UNL     1       0.301  -1.599  -1.180  1.00  0.00     0.247 C 
HETATM   13  O2  UNL     1       0.173  -2.569  -1.930  1.00  0.00    -0.271 OA
HETATM   14  N5  UNL     1      -0.758  -1.187  -0.379  1.00  0.00    -0.310 N 
HETATM   15  C14 UNL     1      -1.532  -2.441  -0.276  1.00  0.00     0.134 C 
HETATM   16  C20 UNL     1      -1.157   0.035   0.270  1.00  0.00     0.121 C 
HETATM   17  C15 UNL     1      -1.535  -2.942   1.155  1.00  0.00     0.040 C 
HETATM   18  C16 UNL     1      -2.645  -2.358   1.992  1.00  0.00     0.128 C 
HETATM   19  N6  UNL     1      -3.156  -1.097   1.490  1.00  0.00    -0.337 N 
HETATM   20  C19 UNL     1      -2.577  -0.122   0.585  1.00  0.00     0.272 C 
HETATM   21  O5  UNL     1      -3.494   0.565   0.111  1.00  0.00    -0.266 OA
BRANCH  10  22
HETATM   22  C9  UNL     1       2.491  -1.376  -0.068  1.00  0.00     0.036 C 
BRANCH  22  23
HETATM   23  C10 UNL     1       3.916  -1.034  -0.050  1.00  0.00     0.022 C 
BRANCH  23  24
HETATM   24  C11 UNL     1       4.345   0.382   0.017  1.00  0.00     0.122 C 
BRANCH  24  25
HETATM   25  N2  UNL     1       3.857   1.033   1.232  1.00  0.00    -0.367 N 
HETATM   26  C12 UNL     1       4.568   1.162   2.301  1.00  0.00     0.196 C 
HETATM   27  N3  UNL     1       5.905   0.676   2.389  1.00  0.00    -0.067 NA
HETATM   28  N4  UNL     1       4.055   1.801   3.459  1.00  0.00    -0.067 NA
ATOM     29  H2  UNL     1       2.907   1.404   1.235  1.00  0.00     0.161 HD
ENDBRANCH  24  25
ENDBRANCH  23  24
ENDBRANCH  22  23
ENDBRANCH  10  22
BRANCH  19  30
HETATM   30  C17 UNL     1      -4.471  -0.739   1.957  1.00  0.00     0.239 C 
BRANCH  30  31
HETATM   31  C18 UNL     1      -5.566  -1.220   1.133  1.00  0.00     0.191 C 
HETATM   32  O3  UNL     1      -5.373  -1.891   0.100  1.00  0.00    -0.647 OA
HETATM   33  O4  UNL     1      -6.868  -0.939   1.481  1.00  0.00    -0.647 OA
ENDBRANCH  30  31
ENDBRANCH  19  30
ENDBRANCH   5   6
ENDBRANCH   3   4
TORSDOF 8
