REMARK  2 active torsions:
REMARK  status: ('A' for Active; 'I' for Inactive)
REMARK    1  A    between atoms: C5_5  and  C6_6 
REMARK    2  A    between atoms: N1_7  and  N2_9 
ROOT
HETATM    1  C1  UNL     1      -1.877   1.479  -0.447  1.00  0.00     0.046 C 
HETATM    2  C2  UNL     1      -1.206   0.164  -0.128  1.00  0.00     0.121 C 
HETATM    3  C3  UNL     1      -2.232  -0.863   0.295  1.00  0.00     0.046 C 
HETATM    4  C4  UNL     1      -0.023   0.302   0.807  1.00  0.00     0.076 C 
HETATM    5  C5  UNL     1       0.597  -0.731  -0.074  1.00  0.00     0.228 C 
HETATM    6  N3  UNL     1      -0.275  -0.289  -1.146  1.00  0.00    -0.058 N 
ATOM      7  H31 UNL     1       0.063   0.347  -1.868  1.00  0.00     0.278 HD
ATOM      8  H32 UNL     1      -0.572  -0.933  -1.879  1.00  0.00     0.278 HD
ENDROOT
BRANCH   5   9
HETATM    9  C6  UNL     1       2.042  -0.547  -0.356  1.00  0.00     0.112 C 
HETATM   10  N1  UNL     1       2.898  -0.187   0.509  1.00  0.00    -0.320 N 
ATOM     11  H1  UNL     1       2.599  -0.006   1.467  1.00  0.00     0.185 HD
BRANCH  10  12
HETATM   12  N2  UNL     1       4.240  -0.036   0.167  1.00  0.00    -0.346 N 
ATOM     13  H22 UNL     1       4.522  -0.221  -0.796  1.00  0.00     0.176 HD
ATOM     14  H21 UNL     1       4.928   0.253   0.862  1.00  0.00     0.176 HD
ENDBRANCH  10  12
ENDBRANCH   5   9
TORSDOF 2
