REMARK  2 active torsions:
REMARK  status: ('A' for Active; 'I' for Inactive)
REMARK    1  A    between atoms: C2_2  and  N1_3 
REMARK    2  A    between atoms: N1_3  and  C5_6 
ROOT
HETATM    1  C5  UNL     1       0.492  -0.745  -0.032  1.00  0.00     0.240 A 
HETATM    2  C6  UNL     1       1.462  -0.884   1.108  1.00  0.00     0.267 A 
HETATM    3  N2  UNL     1       2.607  -0.903   0.222  1.00  0.00    -0.071 N 
ATOM      4  H21 UNL     1       3.318  -1.630   0.304  1.00  0.00     0.277 HD
ATOM      5  H22 UNL     1       3.340  -0.198   0.303  1.00  0.00     0.277 HD
HETATM    6  C7  UNL     1       1.692  -0.890  -0.892  1.00  0.00     0.267 A 
ENDROOT
BRANCH   1   7
HETATM    7  N1  UNL     1      -0.256   0.462  -0.107  1.00  0.00    -0.068 N 
HETATM    8  C3  UNL     1      -0.599   0.891  -1.425  1.00  0.00     0.272 C 
HETATM    9  C4  UNL     1       0.402   1.585   0.571  1.00  0.00     0.272 C 
BRANCH   7  10
HETATM   10  C2  UNL     1      -1.517   0.263   0.619  1.00  0.00     0.232 C 
HETATM   11  C1  UNL     1      -2.311  -0.879   0.101  1.00  0.00     0.035 C 
ENDBRANCH   7  10
ENDBRANCH   1   7
TORSDOF 2
