REMARK  9 active torsions:
REMARK  status: ('A' for Active; 'I' for Inactive)
REMARK    1  A    between atoms: N1_2  and  O1_3 
REMARK    2  A    between atoms: N1_2  and  C2_5 
REMARK    3  A    between atoms: C2_5  and  C3_6 
REMARK    4  A    between atoms: C2_5  and  C12_26 
REMARK    5  A    between atoms: C4_7  and  C5_8 
REMARK    6  A    between atoms: C5_8  and  N2_9 
REMARK       I    between atoms: C6_11  and  N3_12 
REMARK       I    between atoms: C6_11  and  N6_17 
REMARK    7  A    between atoms: C11_21  and  N7_22 
REMARK       I    between atoms: C12_26  and  N8_28 
REMARK    8  A    between atoms: N8_28  and  C13_30 
REMARK    9  A    between atoms: C13_30  and  C14_31 
REMARK       I    between atoms: C14_31  and  N9_33 
ROOT
HETATM    1  C3  UNL     1      -0.168   0.871   1.755  1.00  0.00     0.035 C 
HETATM    2  C4  UNL     1      -1.160   0.363   0.848  1.00  0.00    -0.004 C 
ENDROOT
BRANCH   1   3
HETATM    3  C2  UNL     1       0.953   0.185   2.399  1.00  0.00     0.128 C 
BRANCH   3   4
HETATM    4  N1  UNL     1       0.807  -0.853   3.273  1.00  0.00    -0.241 N 
HETATM    5  C1  UNL     1       0.366  -2.131   3.109  1.00  0.00     0.156 C 
BRANCH   4   6
HETATM    6  O1  UNL     1       1.277  -0.659   4.536  1.00  0.00    -0.284 OA
ATOM      7  H1  UNL     1       1.585   0.233   4.650  1.00  0.00     0.245 HD
ENDBRANCH   4   6
ENDBRANCH   3   4
BRANCH   3   8
HETATM    8  C12 UNL     1       2.053  -0.104   1.374  1.00  0.00     0.271 C 
HETATM    9  O2  UNL     1       2.593  -1.220   1.279  1.00  0.00    -0.266 OA
HETATM   10  N8  UNL     1       2.451   0.935   0.526  1.00  0.00    -0.347 N 
ATOM     11  H8  UNL     1       1.983   1.835   0.630  1.00  0.00     0.163 HD
BRANCH  10  12
HETATM   12  C13 UNL     1       3.471   0.828  -0.482  1.00  0.00     0.225 C 
BRANCH  12  13
HETATM   13  C14 UNL     1       4.765   0.523   0.145  1.00  0.00     0.237 C 
HETATM   14  O3  UNL     1       4.850   0.418   1.386  1.00  0.00    -0.272 OA
HETATM   15  N9  UNL     1       5.955   0.339  -0.653  1.00  0.00    -0.351 N 
HETATM   16  C15 UNL     1       7.170   0.040   0.030  1.00  0.00     0.126 C 
HETATM   17  C19 UNL     1       5.812   0.475  -2.075  1.00  0.00     0.126 C 
HETATM   18  C16 UNL     1       8.420   0.311  -0.751  1.00  0.00     0.020 C 
HETATM   19  C17 UNL     1       8.290   0.168  -2.226  1.00  0.00     0.003 C 
HETATM   20  C18 UNL     1       6.954  -0.281  -2.717  1.00  0.00     0.020 C 
ENDBRANCH  12  13
ENDBRANCH  10  12
ENDBRANCH   3   8
ENDBRANCH   1   3
BRANCH   2  21
HETATM   21  C5  UNL     1      -2.155  -0.683   1.184  1.00  0.00     0.165 C 
BRANCH  21  22
HETATM   22  N2  UNL     1      -3.063  -0.862   0.014  1.00  0.00    -0.223 N 
HETATM   23  C6  UNL     1      -4.087  -0.115  -0.164  1.00  0.00     0.680 C 
HETATM   24  N3  UNL     1      -4.361   0.906   0.775  1.00  0.00    -0.166 N 
HETATM   25  N6  UNL     1      -4.942  -0.293  -1.275  1.00  0.00    -0.188 N 
HETATM   26  C7  UNL     1      -5.159   0.813   1.766  1.00  0.00     0.215 C 
ATOM     27  H3  UNL     1      -3.878   1.795   0.649  1.00  0.00     0.186 HD
HETATM   28  N4  UNL     1      -5.918  -0.337   2.104  1.00  0.00    -0.066 NA
HETATM   29  N5  UNL     1      -5.285   1.984   2.594  1.00  0.00    -0.066 NA
HETATM   30  C8  UNL     1      -4.770  -1.333  -2.300  1.00  0.00     0.143 C 
HETATM   31  C11 UNL     1      -6.128   0.468  -1.644  1.00  0.00     0.299 C 
HETATM   32  C9  UNL     1      -6.079  -1.446  -3.012  1.00  0.00     0.024 C 
HETATM   33  C10 UNL     1      -7.031  -0.670  -2.136  1.00  0.00     0.056 C 
ATOM     34  H2  UNL     1      -2.863  -1.599  -0.662  1.00  0.00     0.178 HD
BRANCH  31  35
HETATM   35  N7  UNL     1      -5.861   1.291  -2.815  1.00  0.00    -0.058 N 
ATOM     36  H73 UNL     1      -5.050   1.895  -2.678  1.00  0.00     0.276 HD
ATOM     37  H72 UNL     1      -5.507   0.737  -3.595  1.00  0.00     0.276 HD
ATOM     38  H71 UNL     1      -6.691   1.824  -3.073  1.00  0.00     0.276 HD
ENDBRANCH  31  35
ENDBRANCH  21  22
ENDBRANCH   2  21
TORSDOF 9
