REMARK  9 active torsions:
REMARK  status: ('A' for Active; 'I' for Inactive)
REMARK       I    between atoms: C2_4  and  N2_5 
REMARK       I    between atoms: C2_4  and  N7_35 
REMARK    1  A    between atoms: N2_5  and  C3_7 
REMARK    2  A    between atoms: C3_7  and  C4_8 
REMARK    3  A    between atoms: C4_8  and  C5_9 
REMARK    4  A    between atoms: C5_9  and  C6_10 
REMARK    5  A    between atoms: C6_10  and  C7_11 
REMARK    6  A    between atoms: C7_11  and  C8_12 
REMARK    7  A    between atoms: C8_12  and  C9_13 
REMARK    8  A    between atoms: C9_13  and  C10_14 
REMARK    9  A    between atoms: C10_14  and  C11_16 
ROOT
HETATM    1  C11 UNL     1       3.669   0.390   0.263  1.00  0.00     0.346 C 
HETATM    2  N3  UNL     1       4.417   0.924   1.390  1.00  0.00    -0.047 N 
ATOM      3  H31 UNL     1       4.907   0.186   1.895  1.00  0.00     0.279 HD
ATOM      4  H32 UNL     1       3.795   1.239   2.134  1.00  0.00     0.279 HD
HETATM    5  C12 UNL     1       5.323   1.974   0.979  1.00  0.00     0.336 C 
HETATM    6  C13 UNL     1       6.612   1.940   1.668  1.00  0.00     0.243 C 
HETATM    7  O2  UNL     1       6.770   2.730   2.663  1.00  0.00    -0.272 OA
HETATM    8  N4  UNL     1       7.703   1.105   1.324  1.00  0.00    -0.351 N 
ATOM      9  H4  UNL     1       8.619   1.543   1.232  1.00  0.00     0.163 HD
HETATM   10  C14 UNL     1       7.620  -0.324   1.092  1.00  0.00     0.225 C 
HETATM   11  C15 UNL     1       7.998  -0.617  -0.313  1.00  0.00     0.242 C 
HETATM   12  O3  UNL     1       9.148  -0.162  -0.655  1.00  0.00    -0.271 OA
HETATM   13  N5  UNL     1       7.207  -1.329  -1.245  1.00  0.00    -0.317 N 
HETATM   14  C16 UNL     1       7.891  -2.314  -2.073  1.00  0.00     0.160 C 
HETATM   15  C17 UNL     1       5.789  -1.125  -1.415  1.00  0.00     0.188 C 
HETATM   16  N6  UNL     1       4.966  -1.725  -0.411  1.00  0.00    -0.321 N 
ATOM     17  H6  UNL     1       5.199  -2.667  -0.097  1.00  0.00     0.169 HD
HETATM   18  C18 UNL     1       3.840  -1.081   0.175  1.00  0.00     0.261 C 
HETATM   19  O4  UNL     1       2.933  -1.806   0.648  1.00  0.00    -0.270 OA
ENDROOT
BRANCH   1  20
HETATM   20  C10 UNL     1       2.220   0.710   0.373  1.00  0.00     0.166 C 
HETATM   21  O1  UNL     1       1.831   1.324   1.336  1.00  0.00    -0.295 OA
BRANCH  20  22
HETATM   22  C9  UNL     1       1.268   0.282  -0.684  1.00  0.00     0.081 C 
BRANCH  22  23
HETATM   23  C8  UNL     1      -0.150   0.721  -0.366  1.00  0.00     0.007 C 
BRANCH  23  24
HETATM   24  C7  UNL     1      -1.076   0.264  -1.465  1.00  0.00     0.000 C 
BRANCH  24  25
HETATM   25  C6  UNL     1      -2.511   0.669  -1.220  1.00  0.00     0.000 C 
BRANCH  25  26
HETATM   26  C5  UNL     1      -3.080   0.116   0.041  1.00  0.00     0.002 C 
BRANCH  26  27
HETATM   27  C4  UNL     1      -4.507   0.580   0.199  1.00  0.00     0.020 C 
BRANCH  27  28
HETATM   28  C3  UNL     1      -5.408   0.148  -0.917  1.00  0.00     0.138 C 
BRANCH  28  29
HETATM   29  N2  UNL     1      -6.748   0.675  -0.613  1.00  0.00    -0.227 N 
HETATM   30  C2  UNL     1      -7.530   0.213   0.463  1.00  0.00     0.670 C 
HETATM   31  N1  UNL     1      -8.033   0.953   1.388  1.00  0.00    -0.231 N 
HETATM   32  N7  UNL     1      -7.798  -1.193   0.551  1.00  0.00    -0.227 N 
HETATM   33  C1  UNL     1      -7.868   2.383   1.461  1.00  0.00     0.165 C 
ATOM     34  H1  UNL     1      -8.584   0.498   2.116  1.00  0.00     0.177 HD
HETATM   35  C19 UNL     1      -7.747  -1.802   1.851  1.00  0.00     0.168 C 
HETATM   36  C20 UNL     1      -8.109  -1.945  -0.669  1.00  0.00     0.168 C 
ATOM     37  H2  UNL     1      -7.128   1.410  -1.210  1.00  0.00     0.177 HD
ENDBRANCH  28  29
ENDBRANCH  27  28
ENDBRANCH  26  27
ENDBRANCH  25  26
ENDBRANCH  24  25
ENDBRANCH  23  24
ENDBRANCH  22  23
ENDBRANCH  20  22
ENDBRANCH   1  20
TORSDOF 9
