REMARK  9 active torsions:
REMARK  status: ('A' for Active; 'I' for Inactive)
REMARK    1  A    between atoms: C2_2  and  C3_3 
REMARK    2  A    between atoms: C3_3  and  C4_4 
REMARK    3  A    between atoms: C4_4  and  C5_5 
REMARK    4  A    between atoms: C5_5  and  C6_6 
REMARK    5  A    between atoms: C6_6  and  C7_7 
REMARK    6  A    between atoms: N2_14  and  S1_15 
REMARK    7  A    between atoms: S1_15  and  N3_18 
REMARK    8  A    between atoms: C13_24  and  C14_25 
REMARK       I    between atoms: C14_25  and  N5_27 
REMARK    9  A    between atoms: N5_27  and  C15_29 
ROOT
HETATM    1  N3  UNL     1       1.695  -0.915  -0.828  1.00  0.00    -0.194 N 
HETATM    2  C11 UNL     1       2.785  -1.800  -1.201  1.00  0.00     0.334 C 
HETATM    3  O4  UNL     1       3.581  -1.580  -2.154  1.00  0.00    -0.246 OA
HETATM    4  N4  UNL     1       2.752  -2.899  -0.304  1.00  0.00    -0.340 N 
ATOM      5  H4  UNL     1       3.332  -3.736  -0.359  1.00  0.00     0.164 HD
HETATM    6  C12 UNL     1       1.750  -2.622   0.703  1.00  0.00     0.160 C 
HETATM    7  C13 UNL     1       1.608  -1.123   0.604  1.00  0.00     0.217 C 
ENDROOT
BRANCH   1   8
HETATM    8  S1  UNL     1       0.803   0.106  -1.893  1.00  0.00     0.332 S 
HETATM    9  O2  UNL     1       1.617   0.107  -3.200  1.00  0.00    -0.182 OA
HETATM   10  O3  UNL     1       0.917   1.504  -1.282  1.00  0.00    -0.182 OA
BRANCH   8  11
HETATM   11  N2  UNL     1      -0.745  -0.366  -2.179  1.00  0.00    -0.256 N 
HETATM   12  C7  UNL     1      -1.748  -0.466  -1.196  1.00  0.00     0.091 C 
HETATM   13  C8  UNL     1      -1.848  -1.831  -0.634  1.00  0.00     0.264 C 
HETATM   14  O1  UNL     1      -1.991  -2.120   0.572  1.00  0.00    -0.266 OA
HETATM   15  N1  UNL     1      -1.765  -2.958  -1.552  1.00  0.00    -0.354 N 
HETATM   16  C9  UNL     1      -0.896  -2.793  -2.697  1.00  0.00     0.144 C 
ATOM     17  H1  UNL     1      -2.291  -3.818  -1.396  1.00  0.00     0.162 HD
HETATM   18  C10 UNL     1      -0.994  -1.369  -3.178  1.00  0.00     0.163 C 
BRANCH  12  19
HETATM   19  C6  UNL     1      -2.134   0.658  -0.367  1.00  0.00     0.064 C 
BRANCH  19  20
HETATM   20  C5  UNL     1      -3.545   0.862   0.058  1.00  0.00     0.006 C 
BRANCH  20  21
HETATM   21  C4  UNL     1      -4.284  -0.143   0.816  1.00  0.00     0.000 C 
BRANCH  21  22
HETATM   22  C3  UNL     1      -5.705   0.396   1.105  1.00  0.00    -0.000 C 
BRANCH  22  23
HETATM   23  C2  UNL     1      -5.676   1.674   1.894  1.00  0.00    -0.005 C 
HETATM   24  C1  UNL     1      -7.090   2.162   2.202  1.00  0.00     0.005 C 
ENDBRANCH  22  23
ENDBRANCH  21  22
ENDBRANCH  20  21
ENDBRANCH  19  20
ENDBRANCH  12  19
ENDBRANCH   8  11
ENDBRANCH   1   8
BRANCH   7  25
HETATM   25  C14 UNL     1       2.785  -0.527   1.332  1.00  0.00     0.243 C 
HETATM   26  O5  UNL     1       2.976  -0.858   2.526  1.00  0.00    -0.271 OA
HETATM   27  N5  UNL     1       3.665   0.378   0.717  1.00  0.00    -0.353 N 
ATOM     28  H5  UNL     1       3.471   0.628  -0.253  1.00  0.00     0.163 HD
BRANCH  27  29
HETATM   29  C15 UNL     1       4.807   0.979   1.328  1.00  0.00     0.111 C 
HETATM   30  C16 UNL     1       5.994   0.923   0.417  1.00  0.00     0.054 C 
HETATM   31  C17 UNL     1       6.607   2.293   0.449  1.00  0.00     0.234 C 
HETATM   32  N6  UNL     1       5.859   3.101   1.362  1.00  0.00    -0.073 N 
HETATM   33  C18 UNL     1       4.593   2.454   1.595  1.00  0.00     0.257 C 
ATOM     34  H62 UNL     1       6.367   3.295   2.225  1.00  0.00     0.277 HD
ATOM     35  H61 UNL     1       5.757   4.065   1.044  1.00  0.00     0.277 HD
ENDBRANCH  27  29
ENDBRANCH   7  25
TORSDOF 9
