REMARK  10 active torsions:
REMARK  status: ('A' for Active; 'I' for Inactive)
REMARK    1  A    between atoms: C2_2  and  C3_3 
REMARK    2  A    between atoms: C3_3  and  C4_4 
REMARK    3  A    between atoms: C4_4  and  N1_5 
REMARK    4  A    between atoms: N1_5  and  C7_8 
REMARK    5  A    between atoms: C7_8  and  C8_9 
REMARK    6  A    between atoms: C8_9  and  C9_10 
REMARK    7  A    between atoms: C9_10  and  S1_11 
REMARK    8  A    between atoms: C14_17  and  C15_18 
REMARK       I    between atoms: C15_18  and  N2_20 
REMARK       I    between atoms: N2_20  and  C16_22 
REMARK    9  A    between atoms: C18_27  and  O4_28 
REMARK   10  A    between atoms: C19_30  and  O5_31 
ROOT
HETATM    1  S1  UNL     1       0.261  -0.448  -1.360  1.00  0.00    -0.187 SA
HETATM    2  C10 UNL     1       1.402   0.515  -0.410  1.00  0.00     0.104 C 
HETATM    3  C11 UNL     1       2.639  -0.269  -0.055  1.00  0.00     0.263 C 
HETATM    4  C12 UNL     1       2.839  -1.332  -1.116  1.00  0.00     0.187 C 
HETATM    5  O1  UNL     1       4.125  -1.801  -1.151  1.00  0.00    -0.378 OA
HETATM    6  C13 UNL     1       5.051  -0.853  -1.522  1.00  0.00     0.214 C 
HETATM    7  C14 UNL     1       4.617   0.579  -1.155  1.00  0.00     0.338 C 
HETATM    8  N4  UNL     1       3.849   0.496   0.035  1.00  0.00     0.108 N 
HETATM    9  C17 UNL     1       3.642   1.771   0.689  1.00  0.00     0.311 C 
HETATM   10  C18 UNL     1       1.919  -2.472  -0.741  1.00  0.00     0.187 C 
HETATM   11  C19 UNL     1       0.569  -2.163  -1.346  1.00  0.00     0.201 C 
ENDROOT
BRANCH   1  12
HETATM   12  C9  UNL     1      -1.433  -0.103  -0.934  1.00  0.00     0.067 C 
BRANCH  12  13
HETATM   13  C8  UNL     1      -1.712  -0.398   0.511  1.00  0.00     0.037 C 
BRANCH  13  14
HETATM   14  C7  UNL     1      -3.085  -0.125   0.958  1.00  0.00     0.237 C 
BRANCH  14  15
HETATM   15  N1  UNL     1      -4.180  -0.825   0.361  1.00  0.00    -0.075 N 
HETATM   16  C5  UNL     1      -4.541  -0.311  -0.913  1.00  0.00     0.272 C 
HETATM   17  C6  UNL     1      -3.763  -2.226   0.180  1.00  0.00     0.272 C 
BRANCH  15  18
HETATM   18  C4  UNL     1      -5.245  -0.822   1.330  1.00  0.00     0.236 C 
BRANCH  18  19
HETATM   19  C3  UNL     1      -6.390   0.076   1.131  1.00  0.00     0.027 C 
BRANCH  19  20
HETATM   20  C2  UNL     1      -6.092   1.552   1.082  1.00  0.00    -0.003 C 
HETATM   21  C1  UNL     1      -7.388   2.324   0.884  1.00  0.00     0.005 C 
ENDBRANCH  19  20
ENDBRANCH  18  19
ENDBRANCH  15  18
ENDBRANCH  14  15
ENDBRANCH  13  14
ENDBRANCH  12  13
ENDBRANCH   1  12
BRANCH  11  22
HETATM   22  O5  UNL     1       0.634  -2.601  -2.689  1.00  0.00    -0.383 OA
ATOM     23  H5  UNL     1       0.802  -3.536  -2.681  1.00  0.00     0.211 HD
ENDBRANCH  11  22
BRANCH  10  24
HETATM   24  O4  UNL     1       2.400  -3.696  -1.202  1.00  0.00    -0.390 OA
ATOM     25  H4  UNL     1       1.822  -4.412  -0.966  1.00  0.00     0.210 HD
ENDBRANCH  10  24
BRANCH   7  26
HETATM   26  C15 UNL     1       5.862   1.342  -0.995  1.00  0.00     0.261 C 
HETATM   27  O2  UNL     1       6.388   1.839  -2.049  1.00  0.00    -0.271 OA
HETATM   28  N2  UNL     1       6.526   1.568   0.230  1.00  0.00    -0.280 N 
HETATM   29  C16 UNL     1       7.730   2.340   0.304  1.00  0.00     0.335 C 
ATOM     30  H2  UNL     1       6.138   1.171   1.086  1.00  0.00     0.173 HD
HETATM   31  N3  UNL     1       8.413   2.579   1.506  1.00  0.00    -0.040 NA
HETATM   32  O3  UNL     1       8.176   2.813  -0.765  1.00  0.00    -0.251 OA
ENDBRANCH   7  26
TORSDOF 10
