REMARK  9 active torsions:
REMARK  status: ('A' for Active; 'I' for Inactive)
REMARK    1  A    between atoms: C6_6  and  C7_7 
REMARK    2  A    between atoms: C7_7  and  C8_8 
REMARK    3  A    between atoms: C8_8  and  N1_9 
REMARK       I    between atoms: N1_9  and  C9_10 
REMARK    4  A    between atoms: C9_10  and  C10_12 
REMARK    5  A    between atoms: C10_12  and  N2_13 
REMARK    6  A    between atoms: C17_21  and  O3_22 
REMARK    7  A    between atoms: C18_24  and  C19_25 
REMARK    8  A    between atoms: C19_25  and  N3_26 
REMARK    9  A    between atoms: N3_26  and  C20_28 
ROOT
HETATM    1  C1  UNL     1      -2.892  -2.194   1.533  1.00  0.00     0.020 C 
HETATM    2  C2  UNL     1      -1.997  -1.337   0.653  1.00  0.00     0.011 C 
HETATM    3  C3  UNL     1      -2.051  -1.891  -0.735  1.00  0.00     0.095 C 
HETATM    4  C4  UNL     1      -1.171  -3.149  -0.853  1.00  0.00     0.026 C 
HETATM    5  C5  UNL     1       0.249  -2.641  -0.745  1.00  0.00     0.009 C 
HETATM    6  C6  UNL     1       0.438  -2.096   0.618  1.00  0.00     0.021 C 
HETATM    7  C14 UNL     1      -0.630  -1.334   1.259  1.00  0.00     0.136 C 
HETATM    8  O2  UNL     1      -0.252  -0.006   1.451  1.00  0.00    -0.384 OA
HETATM    9  C15 UNL     1      -1.442   0.654   1.731  1.00  0.00     0.176 C 
HETATM   10  C16 UNL     1      -2.343   0.103   0.623  1.00  0.00     0.051 C 
HETATM   11  C17 UNL     1      -3.777   0.432   0.857  1.00  0.00     0.131 C 
HETATM   12  C18 UNL     1      -4.447   0.640  -0.467  1.00  0.00     0.041 C 
HETATM   13  C21 UNL     1      -5.397  -0.492  -0.684  1.00  0.00     0.111 C 
HETATM   14  C22 UNL     1      -4.664  -1.639  -1.249  1.00  0.00     0.218 C 
HETATM   15  O5  UNL     1      -5.432  -2.346  -1.947  1.00  0.00    -0.274 OA
HETATM   16  N4  UNL     1      -3.353  -2.169  -1.233  1.00  0.00    -0.356 N 
ATOM     17  H4  UNL     1      -3.336  -3.046  -1.754  1.00  0.00     0.162 HD
ENDROOT
BRANCH   6  18
HETATM   18  C7  UNL     1       1.774  -1.424   0.761  1.00  0.00     0.067 C 
BRANCH  18  19
HETATM   19  C8  UNL     1       2.052  -0.295  -0.185  1.00  0.00     0.159 C 
BRANCH  19  20
HETATM   20  N1  UNL     1       3.274   0.286   0.043  1.00  0.00    -0.386 NA
HETATM   21  C9  UNL     1       4.497   0.867   0.271  1.00  0.00     0.317 C 
HETATM   22  O1  UNL     1       4.967   1.435   1.274  1.00  0.00    -0.255 OA
BRANCH  21  23
HETATM   23  C10 UNL     1       5.460   0.815  -0.909  1.00  0.00     0.354 C 
BRANCH  23  24
HETATM   24  N2  UNL     1       6.710   1.439  -0.613  1.00  0.00    -0.069 N 
HETATM   25  C11 UNL     1       7.481   1.432  -1.869  1.00  0.00     0.272 C 
HETATM   26  C12 UNL     1       7.486   0.728   0.368  1.00  0.00     0.272 C 
HETATM   27  C13 UNL     1       6.539   2.841  -0.247  1.00  0.00     0.272 C 
ENDBRANCH  23  24
ENDBRANCH  21  23
ENDBRANCH  19  20
ENDBRANCH  18  19
ENDBRANCH   6  18
BRANCH  11  28
HETATM   28  O3  UNL     1      -3.826   1.631   1.568  1.00  0.00    -0.395 OA
ATOM     29  H3  UNL     1      -4.740   1.841   1.717  1.00  0.00     0.210 HD
ENDBRANCH  11  28
BRANCH  12  30
HETATM   30  C19 UNL     1      -5.195   1.935  -0.559  1.00  0.00     0.129 C 
BRANCH  30  31
HETATM   31  N3  UNL     1      -6.241   2.056   0.425  1.00  0.00    -0.368 N 
ATOM     32  H3  UNL     1      -6.414   1.306   1.095  1.00  0.00     0.161 HD
BRANCH  31  33
HETATM   33  C20 UNL     1      -7.025   3.236   0.445  1.00  0.00     0.348 C 
HETATM   34  O4  UNL     1      -6.808   4.157  -0.383  1.00  0.00    -0.284 OA
ENDBRANCH  31  33
ENDBRANCH  30  31
ENDBRANCH  12  30
TORSDOF 9
