REMARK  7 active torsions:
REMARK  status: ('A' for Active; 'I' for Inactive)
REMARK       I    between atoms: C1_4  and  N3_6 
REMARK    1  A    between atoms: N3_6  and  N4_8 
REMARK    2  A    between atoms: N4_8  and  C2_10 
REMARK    3  A    between atoms: C5_16  and  C6_17 
REMARK    4  A    between atoms: C6_17  and  O2_18 
REMARK    5  A    between atoms: O2_18  and  C7_19 
REMARK    6  A    between atoms: C9_23  and  N6_24 
REMARK    7  A    between atoms: C10_28  and  N7_29 
ROOT
HETATM    1  C2  UNL     1       1.194  -0.217   1.074  1.00  0.00     0.193 A 
HETATM    2  O1  UNL     1       1.111  -0.228   2.393  1.00  0.00    -0.218 OA
HETATM    3  N5  UNL     1      -0.114  -0.268   2.761  1.00  0.00    -0.260 N 
ATOM      4  H5  UNL     1      -0.431  -0.283   3.730  1.00  0.00     0.194 HD
HETATM    5  C3  UNL     1      -0.931  -0.287   1.676  1.00  0.00     0.068 A 
HETATM    6  C4  UNL     1      -0.074  -0.253   0.600  1.00  0.00     0.032 A 
HETATM    7  C5  UNL     1      -0.711  -0.259  -0.741  1.00  0.00     0.086 C 
HETATM    8  C8  UNL     1      -1.841   0.675  -0.732  1.00  0.00     0.213 C 
HETATM    9  F1  UNL     1      -2.522   0.724  -1.955  1.00  0.00    -0.246 F 
HETATM   10  C9  UNL     1      -2.880   0.344   0.335  1.00  0.00     0.246 C 
HETATM   11  C10 UNL     1      -2.396  -0.346   1.529  1.00  0.00     0.167 C 
ENDROOT
BRANCH   1  12
HETATM   12  N4  UNL     1       2.410  -0.175   0.314  1.00  0.00    -0.275 N 
ATOM     13  H4  UNL     1       2.846   0.728   0.126  1.00  0.00     0.189 HD
BRANCH  12  14
HETATM   14  N3  UNL     1       3.017  -1.342  -0.179  1.00  0.00    -0.272 N 
HETATM   15  C1  UNL     1       4.228  -1.342  -0.881  1.00  0.00     0.200 C 
HETATM   16  N1  UNL     1       4.313  -0.819  -2.062  1.00  0.00    -0.372 N 
HETATM   17  N2  UNL     1       5.419  -1.906  -0.354  1.00  0.00    -0.062 NA
ATOM     18  H12 UNL     1       5.195  -0.819  -2.574  1.00  0.00     0.158 HD
ATOM     19  H11 UNL     1       3.457  -0.414  -2.441  1.00  0.00     0.158 HD
ATOM     20  H3  UNL     1       2.551  -2.235  -0.017  1.00  0.00     0.189 HD
ENDBRANCH  12  14
ENDBRANCH   1  12
BRANCH   7  21
HETATM   21  C6  UNL     1       0.194  -0.130  -1.898  1.00  0.00     0.190 C 
BRANCH  21  22
HETATM   22  O2  UNL     1       1.004   0.925  -2.045  1.00  0.00    -0.328 OA
BRANCH  22  23
HETATM   23  C7  UNL     1       0.973   2.236  -2.281  1.00  0.00     0.398 C 
HETATM   24  O3  UNL     1      -0.062   2.870  -2.462  1.00  0.00    -0.276 OA
ENDBRANCH  22  23
ENDBRANCH  21  22
ENDBRANCH   7  21
BRANCH  11  25
HETATM   25  N7  UNL     1      -2.917   0.348   2.711  1.00  0.00    -0.378 N 
HETATM   26  C11 UNL     1      -4.069   0.175   3.178  1.00  0.00     0.169 C 
HETATM   27 CL1  UNL     1      -4.552   1.075   4.593  1.00  0.00    -0.079 Cl
ATOM     28  H7  UNL     1      -2.305   1.013   3.183  1.00  0.00     0.160 HD
ENDBRANCH  11  25
BRANCH  10  29
HETATM   29  N6  UNL     1      -3.604   1.543   0.677  1.00  0.00    -0.070 N 
ATOM     30  H63 UNL     1      -2.985   2.302   0.961  1.00  0.00     0.274 HD
ATOM     31  H62 UNL     1      -4.017   1.993  -0.140  1.00  0.00     0.274 HD
ATOM     32  H61 UNL     1      -4.299   1.322   1.390  1.00  0.00     0.274 HD
ENDBRANCH  10  29
TORSDOF 7
