REMARK  11 active torsions:
REMARK  status: ('A' for Active; 'I' for Inactive)
REMARK    1  A    between atoms: O1_1  and  C1_3 
REMARK    2  A    between atoms: C2_4  and  O2_5 
REMARK    3  A    between atoms: C3_7  and  O3_8 
REMARK    4  A    between atoms: C4_10  and  S1_11 
REMARK    5  A    between atoms: S1_11  and  S2_12 
REMARK    6  A    between atoms: S2_12  and  S3_13 
REMARK    7  A    between atoms: S3_13  and  C5_14 
REMARK    8  A    between atoms: C5_14  and  C6_16 
REMARK    9  A    between atoms: C6_16  and  C7_17 
REMARK   10  A    between atoms: C8_19  and  O4_20 
REMARK   11  A    between atoms: C9_22  and  O5_23 
ROOT
HETATM    1  C1  UNL     1      -3.475   0.846  -0.471  1.00  0.00     0.180 C 
HETATM    2  C2  UNL     1      -3.167  -0.375  -1.281  1.00  0.00     0.179 C 
HETATM    3  C3  UNL     1      -2.103  -1.247  -0.743  1.00  0.00     0.166 C 
HETATM    4  C4  UNL     1      -1.073  -0.598   0.103  1.00  0.00     0.122 C 
HETATM    5  C8  UNL     1      -1.544   0.529   0.951  1.00  0.00     0.166 C 
HETATM    6  C9  UNL     1      -3.058   0.597   0.948  1.00  0.00     0.179 C 
ENDROOT
BRANCH   4   7
HETATM    7  S1  UNL     1       0.376  -0.094  -0.902  1.00  0.00    -0.076 SA
BRANCH   7   8
HETATM    8  S2  UNL     1       1.768   0.801   0.420  1.00  0.00    -0.021 SA
BRANCH   8   9
HETATM    9  S3  UNL     1       3.057  -0.745   1.148  1.00  0.00    -0.049 SA
BRANCH   9  10
HETATM   10  C5  UNL     1       4.496  -0.911   0.047  1.00  0.00     0.245 C 
HETATM   11  F1  UNL     1       4.160  -1.361  -1.199  1.00  0.00    -0.237 F 
BRANCH  10  12
HETATM   12  C6  UNL     1       5.226   0.391  -0.026  1.00  0.00     0.080 C 
BRANCH  12  13
HETATM   13  C7  UNL     1       6.425   0.276  -0.937  1.00  0.00     0.226 C 
HETATM   14  F2  UNL     1       7.033   1.521  -0.940  1.00  0.00    -0.255 F 
ENDBRANCH  12  13
ENDBRANCH  10  12
ENDBRANCH   9  10
ENDBRANCH   8   9
ENDBRANCH   7   8
ENDBRANCH   4   7
BRANCH   3  15
HETATM   15  O3  UNL     1      -2.654  -2.357  -0.064  1.00  0.00    -0.392 OA
ATOM     16  H3  UNL     1      -1.970  -2.918   0.282  1.00  0.00     0.210 HD
ENDBRANCH   3  15
BRANCH   5  17
HETATM   17  O4  UNL     1      -1.093   1.747   0.429  1.00  0.00    -0.392 OA
ATOM     18  H4  UNL     1      -1.394   2.467   0.971  1.00  0.00     0.210 HD
ENDBRANCH   5  17
BRANCH   2  19
HETATM   19  O2  UNL     1      -4.361  -1.135  -1.315  1.00  0.00    -0.390 OA
ATOM     20  H2  UNL     1      -4.166  -1.910  -1.829  1.00  0.00     0.210 HD
ENDBRANCH   2  19
BRANCH   6  21
HETATM   21  O5  UNL     1      -3.507   1.685   1.709  1.00  0.00    -0.390 OA
ATOM     22  H5  UNL     1      -3.243   1.527   2.608  1.00  0.00     0.210 HD
ENDBRANCH   6  21
BRANCH   1  23
HETATM   23  O1  UNL     1      -4.829   1.197  -0.566  1.00  0.00    -0.390 OA
ATOM     24  H1  UNL     1      -5.024   1.972  -0.052  1.00  0.00     0.210 HD
ENDBRANCH   1  23
TORSDOF 11
