REMARK  10 active torsions:
REMARK  status: ('A' for Active; 'I' for Inactive)
REMARK    1  A    between atoms: N2_3  and  C2_5 
REMARK    2  A    between atoms: C2_5  and  S1_10 
REMARK    3  A    between atoms: N3_6  and  O1_8 
REMARK    4  A    between atoms: S1_10  and  C3_11 
REMARK    5  A    between atoms: C3_11  and  C4_12 
REMARK    6  A    between atoms: C4_12  and  C5_13 
REMARK    7  A    between atoms: C5_13  and  N5_17 
REMARK       I    between atoms: N5_17  and  C6_19 
REMARK       I    between atoms: C6_19  and  N8_25 
REMARK    8  A    between atoms: N6_20  and  O2_22 
REMARK    9  A    between atoms: N8_25  and  C8_27 
REMARK   10  A    between atoms: C8_27  and  C9_28 
ROOT
HETATM    1  N1  UNL     1       3.604   1.771  -2.582  1.00  0.00    -0.172 NA
HETATM    2  C1  UNL     1       3.543   1.416  -1.489  1.00  0.00     0.183 C 
HETATM    3  N2  UNL     1       3.476   1.007  -0.170  1.00  0.00    -0.272 N 
ATOM      4  H2  UNL     1       2.779   1.461   0.420  1.00  0.00     0.180 HD
ENDROOT
BRANCH   3   5
HETATM    5  C2  UNL     1       4.276   0.027   0.432  1.00  0.00     0.173 C 
HETATM    6  N3  UNL     1       5.404   0.363   0.957  1.00  0.00    -0.247 N 
ATOM      7  H3  UNL     1       5.990  -0.347   1.396  1.00  0.00     0.196 HD
BRANCH   6   8
HETATM    8  O1  UNL     1       5.815   1.649   0.929  1.00  0.00    -0.288 OA
ATOM      9  H1  UNL     1       6.646   1.897   1.316  1.00  0.00     0.244 HD
ENDBRANCH   6   8
BRANCH   5  10
HETATM   10  S1  UNL     1       3.844  -1.694   0.530  1.00  0.00    -0.091 SA
BRANCH  10  11
HETATM   11  C3  UNL     1       2.258  -2.056  -0.233  1.00  0.00     0.090 C 
BRANCH  11  12
HETATM   12  C4  UNL     1       1.094  -1.447   0.466  1.00  0.00     0.087 C 
BRANCH  12  13
HETATM   13  C5  UNL     1      -0.151  -1.808  -0.244  1.00  0.00     0.091 C 
HETATM   14  N4  UNL     1      -0.145  -2.518  -1.305  1.00  0.00    -0.388 N 
ATOM     15  H42 UNL     1       0.773  -2.822  -1.629  1.00  0.00     0.157 HD
ATOM     16  H41 UNL     1      -1.004  -2.767  -1.795  1.00  0.00     0.157 HD
BRANCH  13  17
HETATM   17  N5  UNL     1      -1.436  -1.382   0.209  1.00  0.00    -0.179 N 
HETATM   18  C6  UNL     1      -1.935  -0.062   0.096  1.00  0.00     0.700 C 
HETATM   19  N6  UNL     1      -2.008   0.611  -0.987  1.00  0.00    -0.080 N 
HETATM   20  N8  UNL     1      -2.392   0.561   1.291  1.00  0.00    -0.219 N 
ATOM     21  H6  UNL     1      -2.390   1.554  -0.921  1.00  0.00     0.214 HD
ATOM     22  H8  UNL     1      -1.702   1.001   1.900  1.00  0.00     0.178 HD
ATOM     23  H5  UNL     1      -2.039  -2.079   0.646  1.00  0.00     0.185 HD
BRANCH  19  24
HETATM   24  O2  UNL     1      -1.623   0.186  -2.221  1.00  0.00    -0.144 OA
HETATM   25  C7  UNL     1      -2.157   0.859  -3.301  1.00  0.00     0.253 C 
HETATM   26  N7  UNL     1      -2.618   1.430  -4.199  1.00  0.00    -0.162 NA
ENDBRANCH  19  24
BRANCH  20  27
HETATM   27  C8  UNL     1      -3.773   0.604   1.686  1.00  0.00     0.209 C 
BRANCH  27  28
HETATM   28  C9  UNL     1      -4.579   1.496   0.742  1.00  0.00     0.371 C 
HETATM   29  F1  UNL     1      -4.011   2.758   0.824  1.00  0.00    -0.213 F 
HETATM   30  F2  UNL     1      -5.882   1.602   1.153  1.00  0.00    -0.213 F 
ENDBRANCH  27  28
ENDBRANCH  20  27
ENDBRANCH  13  17
ENDBRANCH  12  13
ENDBRANCH  11  12
ENDBRANCH  10  11
ENDBRANCH   5  10
ENDBRANCH   3   5
TORSDOF 10
