REMARK  11 active torsions:
REMARK  status: ('A' for Active; 'I' for Inactive)
REMARK    1  A    between atoms: C2_2  and  C3_3 
REMARK    2  A    between atoms: C3_3  and  N1_4 
REMARK    3  A    between atoms: N1_4  and  C4_5 
REMARK    4  A    between atoms: N1_4  and  C6_7 
REMARK    5  A    between atoms: C6_7  and  C7_8 
REMARK    6  A    between atoms: C8_11  and  N3_12 
REMARK    7  A    between atoms: N3_12  and  C9_14 
REMARK    8  A    between atoms: C9_14  and  O1_15 
REMARK    9  A    between atoms: C9_14  and  C10_17 
REMARK   10  A    between atoms: C10_17  and  C11_18 
REMARK   11  A    between atoms: C11_18  and  C13_20 
ROOT
HETATM    1  C7  UNL     1      -2.339   2.510  -0.841  1.00  0.00     0.218 C 
HETATM    2  N2  UNL     1      -0.944   2.388  -0.364  1.00  0.00    -0.209 N 
ATOM      3  H2  UNL     1      -0.672   2.661   0.580  1.00  0.00     0.178 HD
HETATM    4  C8  UNL     1      -0.021   1.878  -1.278  1.00  0.00     0.701 C 
HETATM    5  N4  UNL     1      -0.215   2.083  -2.570  1.00  0.00    -0.088 N 
ATOM      6  H4  UNL     1       0.462   1.710  -3.235  1.00  0.00     0.214 HD
HETATM    7  O2  UNL     1      -1.295   2.780  -3.046  1.00  0.00    -0.183 OA
HETATM    8  C17 UNL     1      -2.211   3.282  -2.138  1.00  0.00     0.306 C 
HETATM    9  O3  UNL     1      -2.892   4.311  -2.372  1.00  0.00    -0.261 OA
ENDROOT
BRANCH   4  10
HETATM   10  N3  UNL     1       1.135   1.154  -0.923  1.00  0.00    -0.169 N 
ATOM     11  H3  UNL     1       1.758   0.850  -1.671  1.00  0.00     0.186 HD
BRANCH  10  12
HETATM   12  C9  UNL     1       1.475   0.832   0.371  1.00  0.00     0.155 C 
BRANCH  12  13
HETATM   13  O1  UNL     1       0.680   1.208   1.354  1.00  0.00    -0.346 OA
ATOM     14  H1  UNL     1       0.915   0.986   2.247  1.00  0.00     0.219 HD
ENDBRANCH  12  13
BRANCH  12  15
HETATM   15  C10 UNL     1       2.610   0.119   0.851  1.00  0.00     0.059 C 
BRANCH  15  16
HETATM   16  C11 UNL     1       3.606  -0.409   0.246  1.00  0.00    -0.072 C 
HETATM   17  C12 UNL     1       3.860  -0.419  -1.216  1.00  0.00     0.044 C 
BRANCH  16  18
HETATM   18  C13 UNL     1       4.675  -1.115   1.062  1.00  0.00    -0.028 C 
HETATM   19  C14 UNL     1       4.686  -2.549   0.581  1.00  0.00     0.019 C 
HETATM   20  C15 UNL     1       4.405  -1.110   2.517  1.00  0.00     0.019 C 
HETATM   21  C16 UNL     1       5.965  -0.407   0.694  1.00  0.00     0.019 C 
ENDBRANCH  16  18
ENDBRANCH  15  16
ENDBRANCH  12  15
ENDBRANCH  10  12
ENDBRANCH   4  10
BRANCH   1  22
HETATM   22  C6  UNL     1      -2.926   1.180  -1.107  1.00  0.00     0.153 C 
BRANCH  22  23
HETATM   23  N1  UNL     1      -3.010   0.265  -0.030  1.00  0.00    -0.410 N 
BRANCH  23  24
HETATM   24  C3  UNL     1      -3.578  -1.000  -0.342  1.00  0.00     0.116 C 
BRANCH  24  25
HETATM   25  C2  UNL     1      -5.069  -0.888  -0.423  1.00  0.00     0.015 C 
HETATM   26  C1  UNL     1      -5.726  -2.213  -0.760  1.00  0.00     0.006 C 
ENDBRANCH  24  25
ENDBRANCH  23  24
BRANCH  23  27
HETATM   27  C4  UNL     1      -3.258   0.776   1.259  1.00  0.00     0.112 C 
HETATM   28  C5  UNL     1      -2.581  -0.037   2.367  1.00  0.00     0.026 C 
ENDBRANCH  23  27
ENDBRANCH  22  23
ENDBRANCH   1  22
TORSDOF 11
