REMARK  8 active torsions:
REMARK  status: ('A' for Active; 'I' for Inactive)
REMARK    1  A    between atoms: C2_2  and  O1_3 
REMARK    2  A    between atoms: O1_3  and  C3_4 
REMARK       I    between atoms: C3_4  and  N1_6 
REMARK    3  A    between atoms: N1_6  and  C4_8 
REMARK    4  A    between atoms: C4_8  and  C5_9 
REMARK    5  A    between atoms: C4_8  and  C8_13 
REMARK    6  A    between atoms: C5_9  and  C6_10 
REMARK    7  A    between atoms: C6_10  and  S1_11 
REMARK       I    between atoms: C8_13  and  N2_15 
REMARK    8  A    between atoms: N2_15  and  C9_17 
ROOT
HETATM    1  C9  UNL     1       2.205   0.562   0.034  1.00  0.00     0.122 C 
HETATM    2  C10 UNL     1       3.070   1.558  -0.604  1.00  0.00     0.091 C 
HETATM    3  N3  UNL     1       3.752   2.359  -1.132  1.00  0.00    -0.195 NA
HETATM    4  C11 UNL     1       2.897  -0.790  -0.102  1.00  0.00     0.046 C 
HETATM    5  C12 UNL     1       4.306  -0.617   0.419  1.00  0.00     0.004 C 
HETATM    6  C13 UNL     1       4.270  -0.733   1.926  1.00  0.00     0.000 C 
HETATM    7  C14 UNL     1       4.288   0.614   2.563  1.00  0.00     0.000 C 
HETATM    8  C15 UNL     1       3.238   1.558   2.101  1.00  0.00     0.004 C 
HETATM    9  C16 UNL     1       2.034   0.903   1.476  1.00  0.00     0.046 C 
ENDROOT
BRANCH   1  10
HETATM   10  N2  UNL     1       0.892   0.555  -0.590  1.00  0.00    -0.337 N 
HETATM   11  C8  UNL     1      -0.160  -0.283  -0.203  1.00  0.00     0.241 C 
HETATM   12  O3  UNL     1       0.008  -1.082   0.731  1.00  0.00    -0.271 OA
ATOM     13  H2  UNL     1       0.727   1.203  -1.360  1.00  0.00     0.164 HD
BRANCH  11  14
HETATM   14  C4  UNL     1      -1.452  -0.221  -0.891  1.00  0.00     0.179 C 
BRANCH  14  15
HETATM   15  N1  UNL     1      -2.425  -1.151  -0.375  1.00  0.00    -0.324 N 
HETATM   16  C3  UNL     1      -3.030  -2.175  -1.126  1.00  0.00     0.361 C 
HETATM   17  O2  UNL     1      -2.777  -2.387  -2.345  1.00  0.00    -0.238 OA
ATOM     18  H1  UNL     1      -2.694  -1.060   0.605  1.00  0.00     0.165 HD
BRANCH  16  19
HETATM   19  O1  UNL     1      -3.961  -3.032  -0.555  1.00  0.00    -0.304 OA
BRANCH  19  20
HETATM   20  C2  UNL     1      -4.571  -4.056  -1.291  1.00  0.00     0.176 C 
HETATM   21  C1  UNL     1      -5.350  -3.570  -2.470  1.00  0.00     0.034 C 
ENDBRANCH  19  20
ENDBRANCH  16  19
ENDBRANCH  14  15
BRANCH  14  22
HETATM   22  C5  UNL     1      -1.943   1.191  -0.916  1.00  0.00     0.045 C 
BRANCH  22  23
HETATM   23  C6  UNL     1      -2.314   1.714   0.448  1.00  0.00     0.076 C 
BRANCH  23  24
HETATM   24  S1  UNL     1      -2.899   3.443   0.288  1.00  0.00    -0.173 SA
HETATM   25  C7  UNL     1      -1.495   4.432  -0.242  1.00  0.00     0.089 C 
ENDBRANCH  23  24
ENDBRANCH  22  23
ENDBRANCH  14  22
ENDBRANCH  11  14
ENDBRANCH   1  10
TORSDOF 8
