REMARK  9 active torsions:
REMARK  status: ('A' for Active; 'I' for Inactive)
REMARK    1  A    between atoms: C4_4  and  N1_5 
REMARK    2  A    between atoms: N1_5  and  N2_7 
REMARK    3  A    between atoms: C5_9  and  C6_10 
REMARK    4  A    between atoms: C9_16  and  N5_17 
REMARK    5  A    between atoms: N5_17  and  C10_19 
REMARK    6  A    between atoms: C10_19  and  C11_20 
REMARK    7  A    between atoms: C11_20  and  C12_21 
REMARK    8  A    between atoms: C12_21  and  C13_22 
REMARK    9  A    between atoms: C13_22  and  C14_23 
ROOT
HETATM    1  C6  UNL     1       4.790  -2.785  -0.259  1.00  0.00     0.029 C 
HETATM    2  C7  UNL     1       5.329  -3.633  -1.112  1.00  0.00     0.095 C 
HETATM    3  C8  UNL     1       6.689  -3.475  -1.521  1.00  0.00     0.087 C 
HETATM    4  N3  UNL     1       7.800  -3.354  -1.838  1.00  0.00    -0.192 NA
ENDROOT
BRANCH   1   5
HETATM    5  C5  UNL     1       3.401  -2.957   0.151  1.00  0.00     0.108 C 
HETATM    6  N2  UNL     1       2.880  -2.140   0.974  1.00  0.00    -0.310 N 
ATOM      7  H2  UNL     1       1.907  -2.275   1.249  1.00  0.00     0.186 HD
BRANCH   6   8
HETATM    8  N1  UNL     1       3.587  -1.065   1.516  1.00  0.00    -0.285 N 
ATOM      9  H1  UNL     1       4.415  -1.216   2.092  1.00  0.00     0.188 HD
BRANCH   8  10
HETATM   10  C4  UNL     1       3.157   0.131   1.263  1.00  0.00     0.137 A 
HETATM   11  C3  UNL     1       3.810   1.245   1.769  1.00  0.00     0.075 A 
HETATM   12  C2  UNL     1       3.354   2.530   1.501  1.00  0.00     0.026 A 
HETATM   13  C1  UNL     1       4.085   3.683   2.063  1.00  0.00     0.069 C 
HETATM   14  N6  UNL     1       2.266   2.681   0.740  1.00  0.00    -0.196 N 
HETATM   15  C9  UNL     1       1.615   1.592   0.237  1.00  0.00     0.679 A 
ATOM     16  H6  UNL     1       1.919   3.618   0.533  1.00  0.00     0.184 HD
HETATM   17  N4  UNL     1       2.064   0.360   0.502  1.00  0.00    -0.175 N 
ATOM     18  H4  UNL     1       1.561  -0.438   0.114  1.00  0.00     0.186 HD
BRANCH  15  19
HETATM   19  N5  UNL     1       0.580   1.850  -0.483  1.00  0.00    -0.226 N 
ATOM     20  H5  UNL     1       0.301   2.818  -0.642  1.00  0.00     0.177 HD
BRANCH  19  21
HETATM   21  C10 UNL     1      -0.194   0.766  -1.072  1.00  0.00     0.138 C 
BRANCH  21  22
HETATM   22  C11 UNL     1      -1.433   1.369  -1.729  1.00  0.00     0.020 C 
BRANCH  22  23
HETATM   23  C12 UNL     1      -2.260   2.073  -0.740  1.00  0.00     0.004 C 
BRANCH  23  24
HETATM   24  C13 UNL     1      -2.811   1.374   0.437  1.00  0.00     0.032 C 
BRANCH  24  25
HETATM   25  C14 UNL     1      -3.763   0.266   0.285  1.00  0.00     0.121 C 
HETATM   26  C15 UNL     1      -3.359  -0.975  -0.421  1.00  0.00     0.032 C 
HETATM   27  C16 UNL     1      -4.582  -1.873  -0.682  1.00  0.00     0.004 C 
HETATM   28  C17 UNL     1      -5.218  -2.131   0.647  1.00  0.00     0.026 C 
HETATM   29  C18 UNL     1      -5.526  -0.807   1.318  1.00  0.00     0.168 C 
HETATM   30  O1  UNL     1      -4.408  -0.039   1.508  1.00  0.00    -0.386 OA
ENDBRANCH  24  25
ENDBRANCH  23  24
ENDBRANCH  22  23
ENDBRANCH  21  22
ENDBRANCH  19  21
ENDBRANCH  15  19
ENDBRANCH   8  10
ENDBRANCH   6   8
ENDBRANCH   1   5
TORSDOF 9
