REMARK  15 active torsions:
REMARK  status: ('A' for Active; 'I' for Inactive)
REMARK    1  A    between atoms: O1_2  and  C2_3 
REMARK    2  A    between atoms: C5_6  and  C6_7 
REMARK    3  A    between atoms: C7_12  and  S1_13 
REMARK    4  A    between atoms: S1_13  and  C8_14 
REMARK    5  A    between atoms: C8_14  and  C9_15 
REMARK    6  A    between atoms: C9_15  and  N5_21 
REMARK    7  A    between atoms: N3_16  and  N4_18 
REMARK    8  A    between atoms: N5_21  and  N6_23 
REMARK    9  A    between atoms: C10_25  and  C11_26 
REMARK   10  A    between atoms: C14_29  and  O2_30 
REMARK   11  A    between atoms: C15_32  and  C16_33 
REMARK   12  A    between atoms: C16_33  and  N8_37 
REMARK   13  A    between atoms: N8_37  and  N9_39 
REMARK   14  A    between atoms: N11_44  and  N12_45 
REMARK   15  A    between atoms: C18_49  and  O3_50 
ROOT
HETATM    1  C9  UNL     1      -1.344   1.133   0.371  1.00  0.00     0.119 C 
HETATM    2  N3  UNL     1      -0.852   2.157   0.935  1.00  0.00    -0.294 N 
ATOM      3  H3  UNL     1      -1.178   3.063   0.598  1.00  0.00     0.187 HD
ENDROOT
BRANCH   1   4
HETATM    4  C8  UNL     1      -1.021  -0.280   0.692  1.00  0.00     0.161 C 
BRANCH   4   5
HETATM    5  S1  UNL     1      -0.280  -1.016  -0.792  1.00  0.00    -0.083 SA
BRANCH   5   6
HETATM    6  C7  UNL     1       1.292  -0.235  -1.096  1.00  0.00     0.182 A 
HETATM    7  N2  UNL     1       1.544   0.838  -1.817  1.00  0.00    -0.277 N 
HETATM    8  N1  UNL     1       2.829   1.077  -1.781  1.00  0.00    -0.281 N 
ATOM      9  H2  UNL     1       0.851   1.391  -2.321  1.00  0.00     0.189 HD
HETATM   10  C6  UNL     1       3.470   0.147  -1.017  1.00  0.00     0.154 A 
ATOM     11  H1  UNL     1       3.289   1.852  -2.259  1.00  0.00     0.188 HD
HETATM   12  N11 UNL     1       2.492  -0.666  -0.597  1.00  0.00    -0.221 N 
BRANCH  10  13
HETATM   13  C5  UNL     1       4.890   0.103  -0.758  1.00  0.00     0.014 A 
HETATM   14  C4  UNL     1       5.705   1.076  -1.327  1.00  0.00     0.018 A 
HETATM   15  C3  UNL     1       7.081   1.064  -1.096  1.00  0.00     0.040 A 
HETATM   16  C2  UNL     1       7.668   0.101  -0.310  1.00  0.00     0.101 A 
HETATM   17  C18 UNL     1       6.837  -0.849   0.239  1.00  0.00     0.102 A 
HETATM   18  C17 UNL     1       5.464  -0.849   0.018  1.00  0.00     0.055 A 
BRANCH  16  19
HETATM   19  O1  UNL     1       9.019   0.119  -0.106  1.00  0.00    -0.353 OA
HETATM   20  C1  UNL     1       9.923   1.036  -0.621  1.00  0.00     0.210 C 
ENDBRANCH  16  19
BRANCH  17  21
HETATM   21  O3  UNL     1       7.377  -1.831   1.031  1.00  0.00    -0.353 OA
HETATM   22  C19 UNL     1       6.593  -2.845   1.633  1.00  0.00     0.210 C 
ENDBRANCH  17  21
ENDBRANCH  10  13
BRANCH  12  23
HETATM   23  N12 UNL     1       2.566  -1.795   0.217  1.00  0.00    -0.335 N 
ATOM     24 2H12 UNL     1       3.460  -2.116   0.589  1.00  0.00     0.177 HD
ATOM     25 1H12 UNL     1       1.821  -2.414   0.537  1.00  0.00     0.177 HD
ENDBRANCH  12  23
ENDBRANCH   5   6
ENDBRANCH   4   5
ENDBRANCH   1   4
BRANCH   1  26
HETATM   26  N5  UNL     1      -2.298   1.337  -0.674  1.00  0.00    -0.288 N 
ATOM     27  H5  UNL     1      -2.035   1.750  -1.569  1.00  0.00     0.188 HD
BRANCH  26  28
HETATM   28  N6  UNL     1      -3.613   0.940  -0.404  1.00  0.00    -0.308 N 
HETATM   29  C10 UNL     1      -4.177   1.433   0.649  1.00  0.00     0.136 C 
ATOM     30  H6  UNL     1      -4.106   0.288  -1.014  1.00  0.00     0.186 HD
BRANCH  29  31
HETATM   31  C11 UNL     1      -5.551   1.018   0.932  1.00  0.00     0.049 A 
HETATM   32  C12 UNL     1      -6.181   1.532   2.056  1.00  0.00     0.034 A 
HETATM   33  C13 UNL     1      -7.473   1.144   2.326  1.00  0.00     0.041 A 
HETATM   34  C14 UNL     1      -8.108   0.249   1.465  1.00  0.00     0.096 A 
HETATM   35  C15 UNL     1      -7.458  -0.238   0.366  1.00  0.00     0.111 A 
HETATM   36  N10 UNL     1      -6.201   0.153   0.123  1.00  0.00    -0.350 N 
ATOM     37  H10 UNL     1      -5.719  -0.213  -0.698  1.00  0.00     0.166 HD
BRANCH  34  38
HETATM   38  O2  UNL     1      -9.417  -0.179   1.689  1.00  0.00    -0.358 OA
ATOM     39  H2  UNL     1      -9.849  -0.789   1.103  1.00  0.00     0.217 HD
ENDBRANCH  34  38
BRANCH  35  40
HETATM   40  C16 UNL     1      -8.090  -1.168  -0.543  1.00  0.00     0.143 C 
HETATM   41  N7  UNL     1      -9.313  -1.542  -0.299  1.00  0.00    -0.383 N 
ATOM     42  H72 UNL     1      -9.801  -1.179   0.520  1.00  0.00     0.157 HD
ATOM     43  H71 UNL     1      -9.759  -2.198  -0.940  1.00  0.00     0.157 HD
BRANCH  40  44
HETATM   44  N8  UNL     1      -7.414  -1.671  -1.678  1.00  0.00    -0.291 N 
ATOM     45  H8  UNL     1      -6.967  -2.586  -1.629  1.00  0.00     0.188 HD
BRANCH  44  46
HETATM   46  N9  UNL     1      -7.347  -0.945  -2.855  1.00  0.00    -0.344 N 
ATOM     47  H92 UNL     1      -7.799  -0.031  -2.887  1.00  0.00     0.176 HD
ATOM     48  H91 UNL     1      -6.859  -1.308  -3.674  1.00  0.00     0.176 HD
ENDBRANCH  44  46
ENDBRANCH  40  44
ENDBRANCH  35  40
ENDBRANCH  29  31
ENDBRANCH  26  28
ENDBRANCH   1  26
BRANCH   2  49
HETATM   49  N4  UNL     1       0.075   2.178   1.953  1.00  0.00    -0.344 N 
ATOM     50  H42 UNL     1       0.389   1.263   2.276  1.00  0.00     0.176 HD
ATOM     51  H41 UNL     1       0.471   3.001   2.407  1.00  0.00     0.176 HD
ENDBRANCH   2  49
TORSDOF 15
