REMARK  12 active torsions:
REMARK  status: ('A' for Active; 'I' for Inactive)
REMARK    1  A    between atoms: C2_2  and  C3_4 
REMARK    2  A    between atoms: N1_6  and  N2_7 
REMARK    3  A    between atoms: N2_7  and  C5_9 
REMARK    4  A    between atoms: C9_13  and  C10_14 
REMARK    5  A    between atoms: C10_14  and  S1_15 
REMARK    6  A    between atoms: S1_15  and  C11_16 
REMARK    7  A    between atoms: C11_16  and  C12_17 
REMARK    8  A    between atoms: C12_17  and  N3_18 
REMARK    9  A    between atoms: C12_17  and  C14_22 
REMARK   10  A    between atoms: C17_30  and  N7_31 
REMARK   11  A    between atoms: N9_37  and  N10_38 
REMARK   12  A    between atoms: C20_45  and  N12_46 
ROOT
HETATM    1  N3  UNL     1       1.360  -2.057   0.628  1.00  0.00    -0.317 N 
ATOM      2  H3  UNL     1       1.834  -2.097  -0.274  1.00  0.00     0.172 HD
HETATM    3  C13 UNL     1       0.450  -3.061   0.870  1.00  0.00     0.178 C 
HETATM    4  N4  UNL     1      -0.269  -3.911   1.082  1.00  0.00    -0.172 NA
ENDROOT
BRANCH   1   5
HETATM    5  C12 UNL     1       1.725  -0.974   1.469  1.00  0.00     0.157 C 
BRANCH   5   6
HETATM    6  C11 UNL     1       0.872   0.223   1.276  1.00  0.00     0.106 C 
BRANCH   6   7
HETATM    7  S1  UNL     1       0.922   0.848  -0.381  1.00  0.00    -0.159 SA
BRANCH   7   8
HETATM    8  C10 UNL     1      -0.271   0.151  -1.528  1.00  0.00     0.152 C 
BRANCH   8   9
HETATM    9  C9  UNL     1      -1.565   0.852  -1.351  1.00  0.00     0.113 A 
HETATM   10  N1  UNL     1      -2.673   0.380  -0.829  1.00  0.00    -0.257 N 
HETATM   11  C4  UNL     1      -3.774   1.198  -0.693  1.00  0.00     0.136 A 
HETATM   12  C3  UNL     1      -3.695   2.522  -1.115  1.00  0.00     0.070 A 
HETATM   13  C20 UNL     1      -2.530   2.993  -1.658  1.00  0.00     0.115 A 
HETATM   14  N11 UNL     1      -1.494   2.166  -1.768  1.00  0.00    -0.330 N 
ATOM     15  H11 UNL     1      -0.623   2.512  -2.171  1.00  0.00     0.168 HD
BRANCH  10  16
HETATM   16  N2  UNL     1      -2.786  -0.959  -0.483  1.00  0.00    -0.320 N 
ATOM     17  H2  UNL     1      -1.937  -1.520  -0.555  1.00  0.00     0.181 HD
BRANCH  16  18
HETATM   18  C5  UNL     1      -3.972  -1.644  -0.033  1.00  0.00     0.035 C 
HETATM   19  C6  UNL     1      -4.449  -1.130   1.282  1.00  0.00     0.039 C 
HETATM   20  C7  UNL     1      -5.066  -1.538  -1.081  1.00  0.00     0.039 C 
HETATM   21  C8  UNL     1      -3.722  -3.144   0.152  1.00  0.00     0.039 C 
ENDBRANCH  16  18
ENDBRANCH  10  16
BRANCH  12  22
HETATM   22  C2  UNL     1      -4.872   3.366  -0.966  1.00  0.00     0.160 C 
HETATM   23  C1  UNL     1      -6.140   2.806  -0.462  1.00  0.00     0.097 C 
HETATM   24  O1  UNL     1      -4.858   4.604  -1.261  1.00  0.00    -0.293 OA
ENDBRANCH  12  22
BRANCH  13  25
HETATM   25  N12 UNL     1      -2.476   4.239  -2.050  1.00  0.00    -0.385 N 
ATOM     26 2H12 UNL     1      -3.270   4.873  -1.966  1.00  0.00     0.157 HD
ATOM     27 1H12 UNL     1      -1.608   4.590  -2.455  1.00  0.00     0.157 HD
ENDBRANCH  13  25
ENDBRANCH   8   9
ENDBRANCH   7   8
ENDBRANCH   6   7
ENDBRANCH   5   6
BRANCH   5  28
HETATM   28  C14 UNL     1       3.175  -0.694   1.254  1.00  0.00     0.105 A 
HETATM   29  N5  UNL     1       3.523   0.451   0.639  1.00  0.00    -0.346 N 
HETATM   30  C15 UNL     1       4.819   0.764   0.417  1.00  0.00     0.149 A 
ATOM     31  H5  UNL     1       2.794   1.096   0.334  1.00  0.00     0.166 HD
HETATM   32  C16 UNL     1       5.109   1.948  -0.210  1.00  0.00     0.290 A 
HETATM   33  C18 UNL     1       5.800  -0.116   0.834  1.00  0.00     0.177 A 
HETATM   34  O2  UNL     1       4.231   2.751  -0.594  1.00  0.00    -0.265 OA
HETATM   35  N6  UNL     1       6.420   2.209  -0.397  1.00  0.00    -0.154 N 
HETATM   36  C17 UNL     1       7.368   1.371   0.003  1.00  0.00     0.680 A 
ATOM     37  H6  UNL     1       6.690   3.077  -0.860  1.00  0.00     0.187 HD
HETATM   38  N8  UNL     1       7.104   0.202   0.619  1.00  0.00    -0.172 N 
ATOM     39  H8  UNL     1       7.855  -0.422   0.913  1.00  0.00     0.186 HD
HETATM   40  N9  UNL     1       5.480  -1.276   1.456  1.00  0.00    -0.206 N 
HETATM   41  C19 UNL     1       4.178  -1.540   1.652  1.00  0.00     0.292 A 
HETATM   42  O3  UNL     1       3.880  -2.638   2.239  1.00  0.00    -0.264 OA
BRANCH  36  43
HETATM   43  N7  UNL     1       8.601   1.680  -0.197  1.00  0.00    -0.234 N 
ATOM     44  H72 UNL     1       8.801   2.565  -0.663  1.00  0.00     0.174 HD
ATOM     45  H71 UNL     1       9.330   1.036   0.110  1.00  0.00     0.174 HD
ENDBRANCH  36  43
BRANCH  40  46
HETATM   46  N10 UNL     1       6.436  -2.177   1.898  1.00  0.00    -0.334 N 
ATOM     47 2H10 UNL     1       7.425  -1.976   1.749  1.00  0.00     0.177 HD
ATOM     48 1H10 UNL     1       6.195  -3.050   2.366  1.00  0.00     0.177 HD
ENDBRANCH  40  46
ENDBRANCH   5  28
ENDBRANCH   1   5
TORSDOF 12
