REMARK  8 active torsions:
REMARK  status: ('A' for Active; 'I' for Inactive)
REMARK       I    between atoms: C1_4  and  N3_6 
REMARK       I    between atoms: N3_6  and  C2_8 
REMARK    1  A    between atoms: C2_8  and  C3_10 
REMARK    2  A    between atoms: C3_10  and  N4_11 
REMARK    3  A    between atoms: C5_13  and  C6_14 
REMARK    4  A    between atoms: C9_17  and  N5_18 
REMARK    5  A    between atoms: C11_20  and  S1_21 
REMARK    6  A    between atoms: S1_21  and  C12_22 
REMARK    7  A    between atoms: C13_25  and  N7_26 
REMARK    8  A    between atoms: C15_35  and  N10_36 
ROOT
HETATM    1  N5  UNL     1      -2.337  -2.277   1.292  1.00  0.00    -0.248 N 
HETATM    2  C10 UNL     1      -3.317  -1.422   0.920  1.00  0.00     0.152 A 
HETATM    3  C11 UNL     1      -4.547  -2.006   1.109  1.00  0.00     0.106 A 
HETATM    4  N14 UNL     1      -4.280  -3.231   1.603  1.00  0.00    -0.276 N 
ATOM      5  H14 UNL     1      -4.976  -3.932   1.857  1.00  0.00     0.185 HD
HETATM    6  N15 UNL     1      -2.961  -3.377   1.706  1.00  0.00    -0.015 NA
ENDROOT
BRANCH   1   7
HETATM    7  C9  UNL     1      -0.921  -2.058   1.255  1.00  0.00     0.054 A 
HETATM    8  C8  UNL     1      -0.114  -2.615   0.312  1.00  0.00     0.032 A 
HETATM    9  C7  UNL     1       1.243  -2.348   0.354  1.00  0.00     0.014 A 
HETATM   10  C6  UNL     1       1.820  -1.537   1.316  1.00  0.00    -0.023 A 
HETATM   11  C18 UNL     1       0.973  -0.984   2.265  1.00  0.00     0.014 A 
HETATM   12  C17 UNL     1      -0.361  -1.246   2.223  1.00  0.00     0.032 A 
BRANCH  10  13
HETATM   13  C5  UNL     1       3.251  -1.258   1.359  1.00  0.00     0.008 A 
HETATM   14  C4  UNL     1       4.152  -1.162   0.322  1.00  0.00     0.124 A 
HETATM   15  N4  UNL     1       5.378  -0.890   0.804  1.00  0.00    -0.294 N 
HETATM   16  N16 UNL     1       5.270  -0.811   2.138  1.00  0.00    -0.309 N 
HETATM   17  C19 UNL     1       3.991  -1.030   2.502  1.00  0.00     0.121 A 
ATOM     18  H16 UNL     1       6.038  -0.615   2.779  1.00  0.00     0.186 HD
BRANCH  15  19
HETATM   19  C3  UNL     1       6.604  -0.710   0.057  1.00  0.00     0.251 C 
BRANCH  19  20
HETATM   20  C2  UNL     1       6.741   0.717  -0.288  1.00  0.00     0.243 C 
HETATM   21  N3  UNL     1       7.857   1.222  -1.029  1.00  0.00    -0.300 N 
HETATM   22  C1  UNL     1       7.979   2.596  -1.355  1.00  0.00     0.188 C 
ATOM     23  H3  UNL     1       8.585   0.575  -1.331  1.00  0.00     0.171 HD
HETATM   24  N1  UNL     1       9.010   2.986  -2.025  1.00  0.00    -0.373 N 
HETATM   25  N2  UNL     1       7.004   3.554  -0.969  1.00  0.00    -0.064 NA
ATOM     26  H12 UNL     1       9.098   3.975  -2.260  1.00  0.00     0.158 HD
ATOM     27  H11 UNL     1       9.710   2.298  -2.302  1.00  0.00     0.158 HD
HETATM   28  O1  UNL     1       5.866   1.534   0.066  1.00  0.00    -0.271 OA
ENDBRANCH  19  20
ENDBRANCH  15  19
ENDBRANCH  10  13
ENDBRANCH   1   7
BRANCH   3  29
HETATM   29  S1  UNL     1      -6.129  -1.264   0.761  1.00  0.00    -0.049 SA
BRANCH  29  30
HETATM   30  C12 UNL     1      -5.850   0.376   0.121  1.00  0.00     0.125 A 
HETATM   31  N6  UNL     1      -5.770   1.463   0.908  1.00  0.00    -0.183 N 
HETATM   32  C13 UNL     1      -5.560   2.689   0.407  1.00  0.00     0.678 A 
ATOM     33  H6  UNL     1      -5.872   1.352   1.917  1.00  0.00     0.185 HD
HETATM   34  N8  UNL     1      -5.424   2.833  -0.927  1.00  0.00    -0.175 N 
HETATM   35  C14 UNL     1      -5.497   1.770  -1.743  1.00  0.00     0.146 A 
ATOM     36  H8  UNL     1      -5.264   3.760  -1.320  1.00  0.00     0.186 HD
HETATM   37  N9  UNL     1      -5.369   1.876  -3.038  1.00  0.00    -0.383 N 
HETATM   38  C15 UNL     1      -5.713   0.498  -1.248  1.00  0.00     0.137 A 
ATOM     39  H92 UNL     1      -5.210   2.815  -3.403  1.00  0.00     0.157 HD
ATOM     40  H91 UNL     1      -5.424   1.068  -3.658  1.00  0.00     0.157 HD
BRANCH  32  41
HETATM   41  N7  UNL     1      -5.482   3.745   1.160  1.00  0.00    -0.234 N 
ATOM     42  H72 UNL     1      -5.585   3.636   2.169  1.00  0.00     0.174 HD
ATOM     43  H71 UNL     1      -5.322   4.678   0.779  1.00  0.00     0.174 HD
ENDBRANCH  32  41
BRANCH  38  44
HETATM   44  N10 UNL     1      -5.790  -0.625  -2.127  1.00  0.00    -0.232 N 
HETATM   45  C16 UNL     1      -6.729  -1.600  -2.149  1.00  0.00     0.223 A 
HETATM   46  N11 UNL     1      -6.439  -2.477  -3.132  1.00  0.00    -0.277 N 
HETATM   47  N12 UNL     1      -5.332  -2.023  -3.690  1.00  0.00    -0.005 NA
ATOM     48  H11 UNL     1      -6.963  -3.313  -3.389  1.00  0.00     0.185 HD
HETATM   49  N13 UNL     1      -4.943  -0.908  -3.083  1.00  0.00    -0.218 N 
ATOM     50  H13 UNL     1      -4.117  -0.360  -3.323  1.00  0.00     0.206 HD
ENDBRANCH  38  44
ENDBRANCH  29  30
ENDBRANCH   3  29
TORSDOF 8
