REMARK  2 active torsions:
REMARK  status: ('A' for Active; 'I' for Inactive)
REMARK    1  A    between atoms: C5_5  and  O1_6 
REMARK    2  A    between atoms: C6_8  and  O2_9 
ROOT
HETATM    1  C1  UNL     1      -1.779   0.611  -0.840  1.00  0.00     0.045 C 
HETATM    2  C2  UNL     1      -0.819  -0.115   0.064  1.00  0.00     0.059 C 
HETATM    3  C3  UNL     1      -1.537  -1.218   0.810  1.00  0.00     0.045 C 
HETATM    4  C4  UNL     1       0.328  -0.747  -0.674  1.00  0.00     0.074 C 
HETATM    5  C5  UNL     1       1.519  -0.213   0.134  1.00  0.00     0.176 C 
HETATM    6  C6  UNL     1       0.955   1.143   0.539  1.00  0.00     0.286 C 
HETATM    7  O3  UNL     1      -0.313   0.768   0.981  1.00  0.00    -0.349 OA
ENDROOT
BRANCH   5   8
HETATM    8  O1  UNL     1       2.642  -0.068  -0.669  1.00  0.00    -0.391 OA
ATOM      9  H1  UNL     1       3.379   0.262  -0.169  1.00  0.00     0.210 HD
ENDBRANCH   5   8
BRANCH   6  10
HETATM   10  O2  UNL     1       1.693   1.770   1.502  1.00  0.00    -0.369 OA
ATOM     11  H2  UNL     1       1.341   2.616   1.755  1.00  0.00     0.212 HD
ENDBRANCH   6  10
TORSDOF 2
