REMARK  2 active torsions:
REMARK  status: ('A' for Active; 'I' for Inactive)
REMARK    1  A    between atoms: N1_4  and  O1_5 
REMARK    2  A    between atoms: C6_9  and  O2_10 
ROOT
HETATM    1  C1  UNL     1       2.359  -0.018   0.143  1.00  0.00     0.014 C 
HETATM    2  C2  UNL     1       0.911   0.139  -0.259  1.00  0.00     0.025 C 
HETATM    3  C3  UNL     1       0.221   1.083   0.679  1.00  0.00     0.127 C 
HETATM    4  N1  UNL     1      -1.179   1.192   0.464  1.00  0.00    -0.199 NA
HETATM    5  C4  UNL     1      -1.866  -0.009   0.174  1.00  0.00     0.123 C 
HETATM    6  C5  UNL     1      -1.085  -1.264   0.334  1.00  0.00     0.049 C 
HETATM    7  C6  UNL     1       0.285  -1.221  -0.272  1.00  0.00     0.124 C 
ENDROOT
BRANCH   4   8
HETATM    8  O1  UNL     1      -1.420   2.153  -0.478  1.00  0.00    -0.313 OA
ATOM      9  H1  UNL     1      -2.356   2.226  -0.622  1.00  0.00     0.237 HD
ENDBRANCH   4   8
BRANCH   7  10
HETATM   10  O2  UNL     1       0.274  -1.662  -1.603  1.00  0.00    -0.395 OA
ATOM     11  H2  UNL     1      -0.123  -2.525  -1.611  1.00  0.00     0.210 HD
ENDBRANCH   7  10
TORSDOF 2
