REMARK  11 active torsions:
REMARK  status: ('A' for Active; 'I' for Inactive)
REMARK    1  A    between atoms: C1_2  and  C2_4 
REMARK    2  A    between atoms: C2_4  and  O3_5 
REMARK    3  A    between atoms: O3_5  and  C3_6 
REMARK    4  A    between atoms: C6_9  and  O4_10 
REMARK    5  A    between atoms: C10_15  and  O5_16 
REMARK    6  A    between atoms: C10_15  and  C11_18 
REMARK    7  A    between atoms: C12_21  and  O8_22 
REMARK    8  A    between atoms: C13_24  and  C14_25 
REMARK    9  A    between atoms: C15_26  and  N1_27 
REMARK   10  A    between atoms: N1_27  and  O9_28 
REMARK   11  A    between atoms: N1_27  and  C16_30 
ROOT
HETATM    1  C2  UNL     1       1.380   0.335  -0.218  1.00  0.00     0.264 C 
HETATM    2  C9  UNL     1       2.156  -0.551  -1.136  1.00  0.00     0.133 C 
HETATM    3  C10 UNL     1       1.547  -0.758  -2.474  1.00  0.00     0.179 C 
HETATM    4  C12 UNL     1       0.048  -0.733  -2.449  1.00  0.00     0.196 C 
HETATM    5  C13 UNL     1      -0.490  -0.838  -1.042  1.00  0.00     0.182 C 
HETATM    6  O12 UNL     1      -0.003   0.082  -0.193  1.00  0.00    -0.334 OA
ENDROOT
BRANCH   1   7
HETATM    7  C1  UNL     1       1.602   1.729  -0.632  1.00  0.00     0.239 C 
HETATM    8  O1  UNL     1       1.190   2.181  -1.757  1.00  0.00    -0.644 OA
HETATM    9  O2  UNL     1       2.260   2.637   0.143  1.00  0.00    -0.644 OA
ENDBRANCH   1   7
BRANCH   1  10
HETATM   10  O3  UNL     1       1.772   0.128   1.117  1.00  0.00    -0.304 OA
BRANCH  10  11
HETATM   11  C3  UNL     1       2.846   0.235   1.869  1.00  0.00     0.073 A 
HETATM   12  C4  UNL     1       3.216   1.289   2.676  1.00  0.00     0.039 A 
HETATM   13  C5  UNL     1       4.360   1.337   3.434  1.00  0.00     0.039 A 
HETATM   14  C6  UNL     1       5.221   0.269   3.409  1.00  0.00     0.065 A 
HETATM   15  C7  UNL     1       4.911  -0.817   2.624  1.00  0.00     0.039 A 
HETATM   16  C8  UNL     1       3.759  -0.839   1.874  1.00  0.00     0.039 A 
BRANCH  14  17
HETATM   17  O4  UNL     1       6.404   0.260   4.160  1.00  0.00    -0.361 OA
ATOM     18  H4  UNL     1       7.000  -0.479   4.143  1.00  0.00     0.217 HD
ENDBRANCH  14  17
ENDBRANCH  10  11
ENDBRANCH   1  10
BRANCH   3  19
HETATM   19  O5  UNL     1       1.964   0.150  -3.454  1.00  0.00    -0.376 OA
ATOM     20  H5  UNL     1       1.574   0.018  -4.310  1.00  0.00     0.211 HD
ENDBRANCH   3  19
BRANCH   3  21
HETATM   21  C11 UNL     1       2.009  -2.107  -3.028  1.00  0.00     0.212 C 
HETATM   22  O6  UNL     1       1.778  -3.144  -2.362  1.00  0.00    -0.646 OA
HETATM   23  O7  UNL     1       2.665  -2.206  -4.225  1.00  0.00    -0.646 OA
ENDBRANCH   3  21
BRANCH   5  24
HETATM   24  C14 UNL     1      -1.962  -0.674  -1.128  1.00  0.00     0.027 C 
HETATM   25  C15 UNL     1      -2.695  -0.787  -0.038  1.00  0.00     0.118 C 
BRANCH  25  26
HETATM   26  N1  UNL     1      -4.120  -0.639  -0.062  1.00  0.00    -0.241 N 
BRANCH  26  27
HETATM   27  O9  UNL     1      -4.904  -1.710   0.015  1.00  0.00    -0.285 OA
ATOM     28  H9  UNL     1      -5.849  -1.612  -0.001  1.00  0.00     0.245 HD
ENDBRANCH  26  27
BRANCH  26  29
HETATM   29  C16 UNL     1      -4.631   0.710  -0.173  1.00  0.00     0.268 C 
HETATM   30  C17 UNL     1      -4.155   1.522   0.998  1.00  0.00     0.198 C 
HETATM   31  N2  UNL     1      -4.985   1.207   2.145  1.00  0.00    -0.094 NA
HETATM   32  O10 UNL     1      -6.260   1.531   1.796  1.00  0.00    -0.261 OA
HETATM   33  C18 UNL     1      -6.736   0.695   0.793  1.00  0.00     0.367 C 
HETATM   34  O11 UNL     1      -5.993   0.758  -0.365  1.00  0.00    -0.337 OA
ENDBRANCH  26  29
ENDBRANCH  25  26
ENDBRANCH   5  24
BRANCH   4  35
HETATM   35  O8  UNL     1      -0.417  -1.868  -3.126  1.00  0.00    -0.389 OA
ATOM     36  H8  UNL     1      -1.367  -1.852  -3.110  1.00  0.00     0.210 HD
ENDBRANCH   4  35
TORSDOF 11
