REMARK  10 active torsions:
REMARK  status: ('A' for Active; 'I' for Inactive)
REMARK    1  A    between atoms: C2_2  and  C7_17 
REMARK    2  A    between atoms: N1_3  and  N2_5 
REMARK       I    between atoms: N2_5  and  C3_7 
REMARK    3  A    between atoms: C3_7  and  C4_9 
REMARK    4  A    between atoms: C7_17  and  C8_19 
REMARK    5  A    between atoms: C10_22  and  N5_23 
REMARK    6  A    between atoms: N5_23  and  C11_25 
REMARK    7  A    between atoms: C11_25  and  C12_29 
REMARK    8  A    between atoms: C12_29  and  C13_31 
REMARK    9  A    between atoms: C14_37  and  N9_38 
REMARK   10  A    between atoms: N10_41  and  O6_42 
ROOT
HETATM    1  C8  UNL     1       0.131  -0.818  -0.133  1.00  0.00     0.123 A 
HETATM    2  C9  UNL     1      -0.361  -1.438   0.980  1.00  0.00     0.089 A 
HETATM    3  S1  UNL     1       0.603  -2.851   1.104  1.00  0.00    -0.061 SA
HETATM    4  C10 UNL     1       1.582  -2.585  -0.258  1.00  0.00     0.177 A 
HETATM    5  N10 UNL     1       1.141  -1.443  -0.750  1.00  0.00    -0.197 N 
ENDROOT
BRANCH   1   6
HETATM    6  C7  UNL     1      -0.430   0.449  -0.656  1.00  0.00     0.225 C 
HETATM    7  O3  UNL     1       0.050   0.950  -1.710  1.00  0.00    -0.284 OA
BRANCH   6   8
HETATM    8  C2  UNL     1      -1.511   1.172  -0.040  1.00  0.00     0.074 C 
HETATM    9  C1  UNL     1      -2.014   2.436  -0.736  1.00  0.00     0.074 C 
HETATM   10  N1  UNL     1      -2.043   0.803   1.011  1.00  0.00    -0.298 N 
ATOM     11  H1  UNL     1      -1.591  -0.050   1.340  1.00  0.00     0.186 HD
BRANCH  10  12
HETATM   12  N2  UNL     1      -3.019   1.151   1.865  1.00  0.00    -0.264 N 
HETATM   13  C3  UNL     1      -4.358   1.494   1.702  1.00  0.00     0.288 C 
HETATM   14  O1  UNL     1      -4.912   1.544   0.596  1.00  0.00    -0.264 OA
ATOM     15  H2  UNL     1      -2.715   1.167   2.839  1.00  0.00     0.190 HD
BRANCH  13  16
HETATM   16  C4  UNL     1      -5.195   1.820   2.890  1.00  0.00     0.121 A 
HETATM   17  C5  UNL     1      -6.517   2.204   2.898  1.00  0.00     0.128 A 
HETATM   18  N3  UNL     1      -6.854   2.370   4.194  1.00  0.00    -0.316 N 
HETATM   19  C6  UNL     1      -5.825   2.114   4.999  1.00  0.00     0.324 A 
ATOM     20  H3  UNL     1      -7.779   2.655   4.516  1.00  0.00     0.170 HD
HETATM   21  O2  UNL     1      -5.749   2.159   6.271  1.00  0.00    -0.247 OA
HETATM   22  N4  UNL     1      -4.796   1.770   4.164  1.00  0.00    -0.303 N 
ATOM     23  H4  UNL     1      -3.858   1.512   4.471  1.00  0.00     0.171 HD
ENDBRANCH  13  16
ENDBRANCH  10  12
ENDBRANCH   6   8
ENDBRANCH   1   6
BRANCH   5  24
HETATM   24  O6  UNL     1       1.750  -0.902  -1.920  1.00  0.00    -0.280 OA
ATOM     25  H6  UNL     1       2.467  -1.346  -2.358  1.00  0.00     0.245 HD
ENDBRANCH   5  24
BRANCH   4  26
HETATM   26  N5  UNL     1       2.559  -3.342  -0.715  1.00  0.00    -0.318 N 
ATOM     27  H5  UNL     1       2.747  -4.193  -0.184  1.00  0.00     0.169 HD
BRANCH  26  28
HETATM   28  C11 UNL     1       3.360  -3.133  -1.818  1.00  0.00     0.154 C 
HETATM   29  N6  UNL     1       3.089  -3.597  -3.000  1.00  0.00    -0.382 N 
ATOM     30  H62 UNL     1       2.227  -4.131  -3.109  1.00  0.00     0.157 HD
ATOM     31  H61 UNL     1       3.681  -3.442  -3.816  1.00  0.00     0.157 HD
BRANCH  28  32
HETATM   32  C12 UNL     1       4.589  -2.372  -1.662  1.00  0.00     0.247 C 
HETATM   33  O4  UNL     1       4.876  -1.908  -0.523  1.00  0.00    -0.282 OA
BRANCH  32  34
HETATM   34  C13 UNL     1       5.460  -2.160  -2.811  1.00  0.00     0.155 A 
HETATM   35  N7  UNL     1       5.283  -2.585  -4.066  1.00  0.00    -0.234 N 
HETATM   36  O5  UNL     1       6.295  -2.200  -4.800  1.00  0.00    -0.155 OA
ATOM     37  H7  UNL     1       4.484  -3.125  -4.399  1.00  0.00     0.197 HD
HETATM   38  N8  UNL     1       7.140  -1.530  -4.073  1.00  0.00    -0.224 N 
HETATM   39  C14 UNL     1       6.681  -1.465  -2.813  1.00  0.00     0.154 A 
ATOM     40  H8  UNL     1       8.012  -1.120  -4.407  1.00  0.00     0.198 HD
BRANCH  39  41
HETATM   41  N9  UNL     1       7.191  -0.907  -1.784  1.00  0.00    -0.382 N 
ATOM     42  H92 UNL     1       6.842  -0.858  -0.827  1.00  0.00     0.157 HD
ATOM     43  H91 UNL     1       8.077  -0.402  -1.785  1.00  0.00     0.157 HD
ENDBRANCH  39  41
ENDBRANCH  32  34
ENDBRANCH  28  32
ENDBRANCH  26  28
ENDBRANCH   4  26
TORSDOF 10
