REMARK  9 active torsions:
REMARK  status: ('A' for Active; 'I' for Inactive)
REMARK       I    between atoms: C1_2  and  N1_3 
REMARK       I    between atoms: C1_2  and  N4_20 
REMARK    1  A    between atoms: N1_3  and  N2_5 
REMARK       I    between atoms: N2_5  and  C2_7 
REMARK    2  A    between atoms: C2_7  and  C3_9 
REMARK       I    between atoms: C3_9  and  N3_11 
REMARK    3  A    between atoms: C4_12  and  O4_13 
REMARK    4  A    between atoms: C7_17  and  O5_18 
REMARK    5  A    between atoms: N4_20  and  S1_22 
REMARK    6  A    between atoms: S1_22  and  N5_25 
REMARK    7  A    between atoms: C9_27  and  C10_28 
REMARK    8  A    between atoms: C10_28  and  N6_29 
REMARK    9  A    between atoms: N6_29  and  C11_31 
ROOT
HETATM    1  O1  UNL     1      -1.927   1.315  -0.273  1.00  0.00    -0.245 OA
HETATM    2  C1  UNL     1      -1.587   0.244   0.194  1.00  0.00     0.349 C 
HETATM    3  N1  UNL     1      -2.399  -0.842   0.496  1.00  0.00    -0.248 N 
ATOM      4  H1  UNL     1      -1.903  -1.649   0.874  1.00  0.00     0.192 HD
HETATM    5  N4  UNL     1      -0.156   0.137   0.452  1.00  0.00    -0.216 N 
ATOM      6  H4  UNL     1       0.206  -0.732   0.845  1.00  0.00     0.185 HD
ENDROOT
BRANCH   5   7
HETATM    7  S1  UNL     1       0.945   1.414   0.121  1.00  0.00     0.347 S 
HETATM    8  O6  UNL     1       0.797   2.408   1.281  1.00  0.00    -0.180 OA
HETATM    9  O7  UNL     1       0.674   2.136  -1.147  1.00  0.00    -0.180 OA
BRANCH   7  10
HETATM   10  N5  UNL     1       2.582   0.801   0.206  1.00  0.00    -0.159 N 
HETATM   11  C8  UNL     1       3.132  -0.112  -0.611  1.00  0.00     0.160 A 
HETATM   12  C9  UNL     1       4.444  -0.387  -0.216  1.00  0.00     0.063 A 
HETATM   13  N8  UNL     1       4.630   0.400   0.854  1.00  0.00    -0.286 N 
HETATM   14  N9  UNL     1       3.508   1.104   1.092  1.00  0.00    -0.225 N 
ATOM     15  H8  UNL     1       5.488   0.456   1.402  1.00  0.00     0.188 HD
ATOM     16  H9  UNL     1       3.391   1.776   1.850  1.00  0.00     0.209 HD
BRANCH  12  17
HETATM   17  C10 UNL     1       5.353  -1.365  -0.857  1.00  0.00     0.179 C 
BRANCH  17  18
HETATM   18  N6  UNL     1       6.437  -1.624   0.065  1.00  0.00    -0.383 N 
ATOM     19  H6  UNL     1       6.388  -2.412   0.711  1.00  0.00     0.160 HD
BRANCH  18  20
HETATM   20  C11 UNL     1       7.563  -0.773   0.059  1.00  0.00     0.045 A 
HETATM   21  C12 UNL     1       7.927   0.096  -0.940  1.00  0.00     0.047 A 
HETATM   22  C13 UNL     1       9.106   0.724  -0.572  1.00  0.00     0.090 A 
HETATM   23  N7  UNL     1       9.438   0.239   0.624  1.00  0.00    -0.373 N 
HETATM   24  C14 UNL     1       8.531  -0.670   1.041  1.00  0.00     0.116 A 
ATOM     25  H7  UNL     1      10.265   0.517   1.153  1.00  0.00     0.164 HD
ENDBRANCH  18  20
ENDBRANCH  17  18
ENDBRANCH  12  17
ENDBRANCH   7  10
ENDBRANCH   5   7
BRANCH   3  26
HETATM   26  N2  UNL     1      -3.726  -1.009   0.374  1.00  0.00    -0.258 N 
HETATM   27  C2  UNL     1      -4.780  -0.103   0.079  1.00  0.00     0.328 C 
HETATM   28  O2  UNL     1      -4.532   1.092  -0.133  1.00  0.00    -0.261 OA
ATOM     29  H2  UNL     1      -4.036  -1.969   0.521  1.00  0.00     0.190 HD
BRANCH  27  30
HETATM   30  C3  UNL     1      -6.150  -0.584   0.032  1.00  0.00     0.325 C 
HETATM   31  O3  UNL     1      -6.236  -1.853   0.278  1.00  0.00    -0.261 OA
HETATM   32  N3  UNL     1      -7.341   0.104  -0.221  1.00  0.00    -0.233 N 
HETATM   33  C4  UNL     1      -7.611   1.363  -0.576  1.00  0.00     0.151 A 
HETATM   34  C7  UNL     1      -8.551  -0.525  -0.041  1.00  0.00     0.151 A 
HETATM   35  C5  UNL     1      -8.991   1.544  -0.625  1.00  0.00     0.061 A 
HETATM   36  C6  UNL     1      -9.566   0.363  -0.290  1.00  0.00     0.061 A 
BRANCH  33  37
HETATM   37  O4  UNL     1      -6.702   2.361  -0.858  1.00  0.00    -0.346 OA
ATOM     38  H4  UNL     1      -6.894   3.256  -1.110  1.00  0.00     0.219 HD
ENDBRANCH  33  37
BRANCH  34  39
HETATM   39  O5  UNL     1      -8.759  -1.846   0.336  1.00  0.00    -0.346 OA
ATOM     40  H5  UNL     1      -9.595  -2.280   0.460  1.00  0.00     0.219 HD
ENDBRANCH  34  39
ENDBRANCH  27  30
ENDBRANCH   3  26
TORSDOF 9
