REMARK  13 active torsions:
REMARK  status: ('A' for Active; 'I' for Inactive)
REMARK    1  A    between atoms: C4_4  and  C5_5 
REMARK    2  A    between atoms: C7_8  and  O2_9 
REMARK    3  A    between atoms: C7_8  and  C8_11 
REMARK    4  A    between atoms: C8_11  and  O3_12 
REMARK    5  A    between atoms: C13_20  and  O6_21 
REMARK    6  A    between atoms: C13_20  and  C14_23 
REMARK    7  A    between atoms: C14_23  and  O8_25 
REMARK    8  A    between atoms: O8_25  and  C15_26 
REMARK    9  A    between atoms: C15_26  and  C16_27 
REMARK   10  A    between atoms: C16_27  and  C17_28 
REMARK   11  A    between atoms: C19_30  and  O9_31 
REMARK   12  A    between atoms: C20_33  and  O10_34 
REMARK   13  A    between atoms: C20_33  and  O11_36 
ROOT
HETATM    1  C1  UNL     1      -4.104   2.842   1.105  1.00  0.00     0.036 C 
HETATM    2  C2  UNL     1      -3.048   1.865   0.817  1.00  0.00    -0.024 C 
HETATM    3  C3  UNL     1      -3.063   0.680   0.299  1.00  0.00    -0.035 C 
HETATM    4  C4  UNL     1      -3.948  -0.335  -0.257  1.00  0.00     0.123 C 
HETATM    5  C7  UNL     1      -3.538  -1.547   0.592  1.00  0.00     0.096 C 
HETATM    6  C9  UNL     1      -2.048  -1.312   0.910  1.00  0.00     0.084 C 
HETATM    7  C10 UNL     1      -1.706  -0.094   0.129  1.00  0.00     0.097 C 
HETATM    8  C11 UNL     1      -1.337  -0.270  -1.303  1.00  0.00     0.117 C 
HETATM    9  C12 UNL     1      -0.014   0.215  -0.752  1.00  0.00     0.232 C 
HETATM   10  O4  UNL     1      -0.616   0.643   0.454  1.00  0.00    -0.334 OA
HETATM   11  O5  UNL     1       0.933  -0.782  -0.594  1.00  0.00    -0.302 OA
HETATM   12  C13 UNL     1       2.102  -0.061  -0.374  1.00  0.00     0.288 C 
HETATM   13  C19 UNL     1       2.085   0.913  -1.529  1.00  0.00     0.259 C 
HETATM   14  C20 UNL     1       0.616   1.317  -1.556  1.00  0.00     0.250 C 
ENDROOT
BRANCH  14  15
HETATM   15  O10 UNL     1       0.119   1.381  -2.850  1.00  0.00    -0.359 OA
ATOM     16  H10 UNL     1       0.517   2.078  -3.358  1.00  0.00     0.213 HD
ENDBRANCH  14  15
BRANCH  14  17
HETATM   17  O11 UNL     1       0.514   2.528  -0.882  1.00  0.00    -0.359 OA
ATOM     18  H11 UNL     1       0.912   3.225  -1.390  1.00  0.00     0.213 HD
ENDBRANCH  14  17
BRANCH  12  19
HETATM   19  O6  UNL     1       1.968   0.663   0.789  1.00  0.00    -0.355 OA
ATOM     20  H6  UNL     1       2.766   1.155   0.939  1.00  0.00     0.213 HD
ENDBRANCH  12  19
BRANCH  12  21
HETATM   21  C14 UNL     1       3.299  -0.885  -0.321  1.00  0.00     0.325 C 
HETATM   22  O7  UNL     1       3.606  -1.624  -1.281  1.00  0.00    -0.259 OA
BRANCH  21  23
HETATM   23  O8  UNL     1       4.112  -0.864   0.787  1.00  0.00    -0.317 OA
BRANCH  23  24
HETATM   24  C15 UNL     1       5.282  -1.581   0.997  1.00  0.00     0.179 C 
BRANCH  24  25
HETATM   25  C16 UNL     1       6.310  -1.216  -0.026  1.00  0.00     0.026 C 
BRANCH  25  26
HETATM   26  C17 UNL     1       6.614   0.276   0.066  1.00  0.00    -0.002 C 
HETATM   27  C18 UNL     1       7.135   0.596   1.430  1.00  0.00     0.005 C 
ENDBRANCH  25  26
ENDBRANCH  24  25
ENDBRANCH  23  24
ENDBRANCH  21  23
ENDBRANCH  12  21
BRANCH  13  28
HETATM   28  O9  UNL     1       2.422   0.310  -2.730  1.00  0.00    -0.384 OA
ATOM     29  H9  UNL     1       2.411   0.922  -3.456  1.00  0.00     0.210 HD
ENDBRANCH  13  28
BRANCH   4  30
HETATM   30  C5  UNL     1      -5.353  -0.170  -0.389  1.00  0.00     0.134 C 
HETATM   31  C6  UNL     1      -6.156  -1.216  -1.134  1.00  0.00     0.091 C 
HETATM   32  O1  UNL     1      -6.010   0.735   0.035  1.00  0.00    -0.298 OA
ENDBRANCH   4  30
BRANCH   5  33
HETATM   33  O2  UNL     1      -3.640  -2.697  -0.133  1.00  0.00    -0.386 OA
ATOM     34  H2  UNL     1      -3.386  -3.447   0.392  1.00  0.00     0.210 HD
ENDBRANCH   5  33
BRANCH   5  35
HETATM   35  C8  UNL     1      -4.246  -1.627   1.897  1.00  0.00     0.203 C 
BRANCH  35  36
HETATM   36  O3  UNL     1      -5.595  -1.873   1.843  1.00  0.00    -0.398 OA
ATOM     37  H3  UNL     1      -6.047  -1.924   2.677  1.00  0.00     0.209 HD
ENDBRANCH  35  36
ENDBRANCH   5  35
TORSDOF 13
