REMARK  3 active torsions:
REMARK  status: ('A' for Active; 'I' for Inactive)
REMARK    1  A    between atoms: C1_2  and  C2_4 
REMARK    2  A    between atoms: C3_5  and  C4_6 
REMARK    3  A    between atoms: C6_8  and  O3_9 
ROOT
HETATM    1  C4  UNL     1       2.971  -0.735  -0.275  1.00  0.00    -0.030 A 
HETATM    2  C5  UNL     1       2.343  -1.787  -0.978  1.00  0.00     0.051 A 
HETATM    3  C6  UNL     1       0.988  -2.011  -0.925  1.00  0.00     0.102 A 
HETATM    4  C7  UNL     1       0.203  -1.176  -0.155  1.00  0.00     0.139 A 
HETATM    5  C8  UNL     1       0.751  -0.140   0.551  1.00  0.00     0.106 A 
HETATM    6  C9  UNL     1       2.142   0.048   0.466  1.00  0.00     0.051 A 
HETATM    7  O4  UNL     1      -0.074   0.668   1.308  1.00  0.00    -0.343 OA
HETATM    8  C10 UNL     1      -1.355   0.199   1.690  1.00  0.00     0.244 C 
HETATM    9  C11 UNL     1      -2.059  -0.396   0.462  1.00  0.00     0.192 C 
HETATM   10  C12 UNL     1      -2.158   0.701  -0.547  1.00  0.00     0.071 C 
HETATM   11  C13 UNL     1      -3.405   1.537  -0.414  1.00  0.00     0.007 C 
HETATM   12  C14 UNL     1      -4.549   0.513  -0.494  1.00  0.00     0.026 C 
HETATM   13  C15 UNL     1      -4.376  -0.371   0.711  1.00  0.00     0.171 C 
HETATM   14  O5  UNL     1      -3.204  -1.022   0.798  1.00  0.00    -0.353 OA
HETATM   15  O6  UNL     1      -1.174  -1.368  -0.075  1.00  0.00    -0.306 OA
ENDROOT
BRANCH   1  16
HETATM   16  C3  UNL     1       4.388  -0.630  -0.347  1.00  0.00     0.018 C 
HETATM   17  C2  UNL     1       5.308   0.212  -0.098  1.00  0.00     0.085 C 
BRANCH  17  18
HETATM   18  C1  UNL     1       5.355   1.533   0.395  1.00  0.00     0.198 C 
HETATM   19  O1  UNL     1       6.549   2.047   0.533  1.00  0.00    -0.645 OA
HETATM   20  O2  UNL     1       4.353   2.372   0.750  1.00  0.00    -0.645 OA
ENDBRANCH  17  18
ENDBRANCH   1  16
BRANCH   3  21
HETATM   21  O3  UNL     1       0.409  -3.072  -1.643  1.00  0.00    -0.358 OA
ATOM     22  H3  UNL     1      -0.528  -3.227  -1.606  1.00  0.00     0.217 HD
ENDBRANCH   3  21
TORSDOF 3
