REMARK  6 active torsions:
REMARK  status: ('A' for Active; 'I' for Inactive)
REMARK    1  A    between atoms: C1_2  and  C2_3 
REMARK    2  A    between atoms: C1_2  and  O2_10 
REMARK    3  A    between atoms: C3_4  and  C4_5 
REMARK    4  A    between atoms: O2_10  and  C8_11 
REMARK    5  A    between atoms: C10_13  and  O3_14 
REMARK    6  A    between atoms: C15_20  and  O4_21 
ROOT
HETATM    1  C8  UNL     1      -0.844   0.151  -0.317  1.00  0.00     0.164 C 
HETATM    2  C9  UNL     1      -1.623  -1.108  -0.111  1.00  0.00     0.073 C 
HETATM    3  C10 UNL     1      -2.880  -0.690   0.655  1.00  0.00     0.066 C 
HETATM    4  C11 UNL     1      -4.121  -1.240   0.032  1.00  0.00     0.038 C 
HETATM    5  C12 UNL     1      -4.810  -0.103  -0.693  1.00  0.00     0.004 C 
HETATM    6  C13 UNL     1      -3.675   0.885  -0.891  1.00  0.00     0.010 C 
HETATM    7  C14 UNL     1      -2.970   0.807   0.444  1.00  0.00     0.051 C 
HETATM    8  C15 UNL     1      -1.547   1.266   0.386  1.00  0.00     0.154 C 
ENDROOT
BRANCH   1   9
HETATM    9  O2  UNL     1       0.513   0.038   0.021  1.00  0.00    -0.310 OA
BRANCH   9  10
HETATM   10  C1  UNL     1       1.545   0.209  -0.921  1.00  0.00     0.283 C 
HETATM   11  O1  UNL     1       1.157   0.471  -2.092  1.00  0.00    -0.260 OA
BRANCH  10  12
HETATM   12  C2  UNL     1       2.941   0.089  -0.557  1.00  0.00     0.083 C 
HETATM   13  C3  UNL     1       3.290  -0.184   0.670  1.00  0.00     0.025 C 
BRANCH  13  14
HETATM   14  C4  UNL     1       4.710  -0.312   1.071  1.00  0.00     0.005 A 
HETATM   15  C5  UNL     1       5.802  -0.171   0.259  1.00  0.00     0.019 A 
HETATM   16  C6  UNL     1       7.014  -0.330   0.833  1.00  0.00     0.008 A 
HETATM   17  C7  UNL     1       7.045  -0.617   2.168  1.00  0.00     0.050 A 
HETATM   18  S1  UNL     1       5.393  -0.657   2.587  1.00  0.00    -0.102 SA
ENDBRANCH  13  14
ENDBRANCH  10  12
ENDBRANCH   9  10
ENDBRANCH   1   9
BRANCH   8  19
HETATM   19  O4  UNL     1      -1.462   2.432  -0.380  1.00  0.00    -0.392 OA
ATOM     20  H4  UNL     1      -1.909   3.141   0.067  1.00  0.00     0.210 HD
ENDBRANCH   8  19
BRANCH   3  21
HETATM   21  O3  UNL     1      -2.752  -0.989   1.994  1.00  0.00    -0.389 OA
ATOM     22  H3  UNL     1      -3.532  -0.729   2.470  1.00  0.00     0.210 HD
ENDBRANCH   3  21
TORSDOF 6
