REMARK  0 active torsions:
REMARK  status: ('A' for Active; 'I' for Inactive)
ROOT
HETATM    1  O1  UNL     1       2.748   2.241  -1.205  1.00  0.00    -0.285 OA
HETATM    2  C1  UNL     1       2.070   1.519  -0.497  1.00  0.00     0.210 C 
HETATM    3  C2  UNL     1       0.847   2.003  -0.035  1.00  0.00     0.028 A 
HETATM    4  C3  UNL     1       0.906   3.345   0.258  1.00  0.00     0.016 A 
HETATM    5  C4  UNL     1      -0.154   3.966   0.871  1.00  0.00     0.001 A 
HETATM    6  C5  UNL     1      -1.293   3.213   1.197  1.00  0.00     0.001 A 
HETATM    7  C6  UNL     1      -1.381   1.861   0.914  1.00  0.00     0.013 A 
HETATM    8  C7  UNL     1      -0.304   1.297   0.297  1.00  0.00    -0.009 A 
HETATM    9  C8  UNL     1      -0.509  -0.033  -0.024  1.00  0.00     0.015 A 
HETATM   10  C9  UNL     1      -1.728  -0.565  -0.320  1.00  0.00     0.004 A 
HETATM   11  C10 UNL     1      -2.965  -0.033  -0.503  1.00  0.00     0.014 A 
HETATM   12  C11 UNL     1      -4.014  -0.879  -0.858  1.00  0.00     0.001 A 
HETATM   13  C12 UNL     1      -3.787  -2.226  -1.019  1.00  0.00     0.002 A 
HETATM   14  C13 UNL     1      -2.521  -2.747  -0.833  1.00  0.00     0.030 A 
HETATM   15  C14 UNL     1      -1.478  -1.926  -0.483  1.00  0.00     0.043 A 
HETATM   16  N1  UNL     1      -0.159  -2.203  -0.307  1.00  0.00    -0.354 N 
ATOM     17  H1  UNL     1       0.279  -3.122  -0.376  1.00  0.00     0.166 HD
HETATM   18  C15 UNL     1       0.456  -1.057  -0.029  1.00  0.00     0.057 A 
HETATM   19  C16 UNL     1       1.805  -0.894   0.082  1.00  0.00     0.022 A 
HETATM   20  C17 UNL     1       2.443  -2.057   0.431  1.00  0.00     0.017 A 
HETATM   21  C18 UNL     1       3.839  -2.077   0.514  1.00  0.00     0.018 A 
HETATM   22  C19 UNL     1       4.529  -0.923   0.241  1.00  0.00     0.088 A 
HETATM   23  N2  UNL     1       3.897   0.213  -0.099  1.00  0.00    -0.362 N 
ATOM     24  H2  UNL     1       4.444   1.052  -0.294  1.00  0.00     0.165 HD
HETATM   25  C20 UNL     1       2.552   0.264  -0.187  1.00  0.00     0.096 A 
ENDROOT
TORSDOF 0
