REMARK  2 active torsions:
REMARK  status: ('A' for Active; 'I' for Inactive)
REMARK       I    between atoms: C1_2  and  N1_3 
REMARK    1  A    between atoms: C1_2  and  C12_18 
REMARK    2  A    between atoms: N1_3  and  C2_5 
ROOT
HETATM    1  C2  UNL     1      -0.295   0.508   0.409  1.00  0.00     0.152 A 
HETATM    2  N2  UNL     1       0.878   0.102   0.871  1.00  0.00    -0.335 N 
ATOM      3  H2  UNL     1       0.978  -0.220   1.834  1.00  0.00     0.168 HD
HETATM    4  C3  UNL     1       1.915   0.125   0.054  1.00  0.00     0.058 A 
HETATM    5  C4  UNL     1       1.717   0.565  -1.218  1.00  0.00     0.018 A 
HETATM    6  S1  UNL     1       0.034   0.934  -1.200  1.00  0.00    -0.056 SA
HETATM    7  C5  UNL     1       2.981   0.534  -2.033  1.00  0.00     0.088 A 
HETATM    8  C6  UNL     1       3.962   0.021  -1.081  1.00  0.00    -0.041 A 
HETATM    9  C7  UNL     1       5.325  -0.219  -1.282  1.00  0.00     0.008 A 
HETATM   10  C8  UNL     1       6.106  -0.708  -0.266  1.00  0.00     0.001 A 
HETATM   11  C9  UNL     1       5.515  -0.955   0.954  1.00  0.00     0.001 A 
HETATM   12  C10 UNL     1       4.174  -0.717   1.146  1.00  0.00     0.014 A 
HETATM   13  C11 UNL     1       3.363  -0.220   0.125  1.00  0.00    -0.002 A 
ENDROOT
BRANCH   1  14
HETATM   14  N1  UNL     1      -1.446   0.569   1.037  1.00  0.00    -0.303 N 
HETATM   15  C1  UNL     1      -2.566   1.053   0.285  1.00  0.00     0.257 C 
HETATM   16  O1  UNL     1      -2.343   2.021  -0.483  1.00  0.00    -0.267 OA
ATOM     17  H1  UNL     1      -1.539   0.286   2.012  1.00  0.00     0.171 HD
BRANCH  15  18
HETATM   18  C12 UNL     1      -3.886   0.471   0.390  1.00  0.00     0.032 A 
HETATM   19  C13 UNL     1      -4.908   0.998  -0.371  1.00  0.00     0.017 A 
HETATM   20  C14 UNL     1      -6.162   0.476  -0.296  1.00  0.00     0.001 A 
HETATM   21  C15 UNL     1      -6.438  -0.591   0.540  1.00  0.00     0.000 A 
HETATM   22  C16 UNL     1      -5.446  -1.132   1.304  1.00  0.00     0.001 A 
HETATM   23  C17 UNL     1      -4.174  -0.596   1.223  1.00  0.00     0.017 A 
ENDBRANCH  15  18
ENDBRANCH   1  14
TORSDOF 2
