REMARK  0 active torsions:
REMARK  status: ('A' for Active; 'I' for Inactive)
REMARK       I    between atoms: C1_2  and  N2_4 
ROOT
HETATM    1  N1  UNL     1       3.411   0.888   1.063  1.00  0.00    -0.039 NA
HETATM    2  C1  UNL     1       2.796  -0.293   0.504  1.00  0.00     0.340 C 
HETATM    3  O1  UNL     1       3.505  -1.354   0.622  1.00  0.00    -0.250 OA
HETATM    4  N2  UNL     1       1.550  -0.209  -0.076  1.00  0.00    -0.265 N 
HETATM    5  C2  UNL     1       0.880   1.066  -0.219  1.00  0.00     0.055 A 
HETATM    6  C3  UNL     1       1.758   2.024  -0.623  1.00  0.00     0.031 A 
HETATM    7  C4  UNL     1       1.295   3.303  -0.842  1.00  0.00     0.002 A 
HETATM    8  C5  UNL     1      -0.042   3.576  -0.651  1.00  0.00     0.001 A 
HETATM    9  C6  UNL     1      -0.971   2.610  -0.238  1.00  0.00     0.014 A 
HETATM   10  C7  UNL     1      -0.469   1.361  -0.029  1.00  0.00     0.002 A 
HETATM   11  C8  UNL     1      -1.490   0.440   0.413  1.00  0.00    -0.013 A 
HETATM   12  C9  UNL     1      -2.506   1.052   1.079  1.00  0.00     0.013 A 
HETATM   13  C10 UNL     1      -3.526   0.240   1.566  1.00  0.00     0.001 A 
HETATM   14  C11 UNL     1      -3.523  -1.114   1.396  1.00  0.00     0.001 A 
HETATM   15  C12 UNL     1      -2.478  -1.733   0.716  1.00  0.00     0.013 A 
HETATM   16  C13 UNL     1      -1.463  -0.970   0.222  1.00  0.00    -0.011 A 
HETATM   17  C14 UNL     1      -0.445  -1.776  -0.424  1.00  0.00     0.018 A 
HETATM   18  C15 UNL     1      -0.942  -2.944  -0.915  1.00  0.00     0.102 A 
HETATM   19  N3  UNL     1      -0.053  -3.769  -1.501  1.00  0.00    -0.374 N 
ATOM     20  H3  UNL     1      -0.380  -4.657  -1.882  1.00  0.00     0.164 HD
HETATM   21  C16 UNL     1       1.276  -3.454  -1.602  1.00  0.00     0.090 A 
HETATM   22  C17 UNL     1       1.775  -2.272  -1.109  1.00  0.00     0.048 A 
HETATM   23  C18 UNL     1       0.894  -1.427  -0.512  1.00  0.00     0.057 A 
ENDROOT
TORSDOF 0
