REMARK  3 active torsions:
REMARK  status: ('A' for Active; 'I' for Inactive)
REMARK    1  A    between atoms: C7_7  and  O1_8 
REMARK    2  A    between atoms: C11_13  and  C12_14 
REMARK    3  A    between atoms: C13_15  and  C14_16 
ROOT
HETATM    1  C14 UNL     1       3.297   0.005   0.113  1.00  0.00     0.018 A 
HETATM    2  C15 UNL     1       4.098  -0.091  -1.016  1.00  0.00     0.022 A 
HETATM    3  C16 UNL     1       5.473  -0.142  -0.957  1.00  0.00     0.024 A 
HETATM    4  C17 UNL     1       6.082  -0.095   0.278  1.00  0.00     0.044 A 
HETATM    5  C18 UNL     1       7.526  -0.144   0.405  1.00  0.00     0.099 C 
HETATM    6  N1  UNL     1       8.676  -0.202   0.508  1.00  0.00    -0.191 NA
HETATM    7  C19 UNL     1       5.294   0.001   1.408  1.00  0.00     0.024 A 
HETATM    8  C20 UNL     1       3.918   0.052   1.344  1.00  0.00     0.022 A 
ENDROOT
BRANCH   1   9
HETATM    9  C13 UNL     1       1.860   0.056   0.017  1.00  0.00    -0.061 C 
HETATM   10  C12 UNL     1       0.646   0.095  -0.084  1.00  0.00    -0.061 C 
BRANCH  10  11
HETATM   11  C11 UNL     1      -0.782   0.133  -0.228  1.00  0.00     0.024 A 
HETATM   12  C2  UNL     1      -1.395   0.794  -1.290  1.00  0.00    -0.042 A 
HETATM   13  C1  UNL     1      -0.501   1.459  -2.266  1.00  0.00     0.049 C 
HETATM   14  C3  UNL     1      -2.778   0.816  -1.405  1.00  0.00     0.020 A 
HETATM   15  C4  UNL     1      -3.517   0.167  -0.443  1.00  0.00    -0.025 A 
HETATM   16  C5  UNL     1      -4.890   0.176  -0.538  1.00  0.00     0.015 A 
HETATM   17  C9  UNL     1      -2.947  -0.496   0.619  1.00  0.00    -0.022 A 
HETATM   18  C6  UNL     1      -5.684  -0.467   0.412  1.00  0.00     0.037 A 
HETATM   19  C7  UNL     1      -5.115  -1.132   1.477  1.00  0.00     0.066 A 
HETATM   20  C8  UNL     1      -3.741  -1.142   1.573  1.00  0.00     0.048 A 
HETATM   21  C10 UNL     1      -1.565  -0.500   0.706  1.00  0.00     0.033 A 
BRANCH  19  22
HETATM   22  O1  UNL     1      -5.889  -1.783   2.439  1.00  0.00    -0.361 OA
ATOM     23  H1  UNL     1      -5.497  -2.241   3.173  1.00  0.00     0.217 HD
ENDBRANCH  19  22
ENDBRANCH  10  11
ENDBRANCH   1   9
TORSDOF 3
