REMARK  7 active torsions:
REMARK  status: ('A' for Active; 'I' for Inactive)
REMARK    1  A    between atoms: N1_1  and  C1_4 
REMARK    2  A    between atoms: C2_7  and  S1_8 
REMARK    3  A    between atoms: S1_8  and  S2_9 
REMARK    4  A    between atoms: S2_9  and  N3_12 
REMARK    5  A    between atoms: N3_12  and  C3_14 
REMARK    6  A    between atoms: C3_14  and  C4_15 
REMARK    7  A    between atoms: C8_19  and  O3_20 
ROOT
HETATM    1  S1  UNL     1       1.871  -0.427  -1.112  1.00  0.00     0.062 SA
ENDROOT
BRANCH   1   2
HETATM    2  C2  UNL     1       3.309   0.104  -0.429  1.00  0.00     0.180 A 
HETATM    3  N2  UNL     1       4.497  -0.526  -0.652  1.00  0.00    -0.169 N 
HETATM    4  C1  UNL     1       5.659  -0.155  -0.142  1.00  0.00     0.681 A 
ATOM      5  H2  UNL     1       4.489  -1.346  -1.258  1.00  0.00     0.186 HD
HETATM    6  N5  UNL     1       5.685   0.926   0.660  1.00  0.00    -0.141 N 
HETATM    7  C10 UNL     1       4.549   1.583   0.914  1.00  0.00     0.340 A 
ATOM      8  H5  UNL     1       6.564   1.241   1.070  1.00  0.00     0.189 HD
HETATM    9  N4  UNL     1       3.379   1.191   0.386  1.00  0.00    -0.287 N 
HETATM   10  O4  UNL     1       4.608   2.605   1.679  1.00  0.00    -0.246 OA
ATOM     11  H4  UNL     1       2.530   1.715   0.599  1.00  0.00     0.172 HD
BRANCH   4  12
HETATM   12  N1  UNL     1       6.732  -0.828  -0.421  1.00  0.00    -0.234 N 
ATOM     13  H12 UNL     1       6.712  -1.647  -1.029  1.00  0.00     0.174 HD
ATOM     14  H11 UNL     1       7.628  -0.542  -0.028  1.00  0.00     0.174 HD
ENDBRANCH   4  12
ENDBRANCH   1   2
BRANCH   1  15
HETATM   15  S2  UNL     1       0.759  -1.777  -0.085  1.00  0.00     0.291 S 
HETATM   16  O1  UNL     1       1.241  -2.421   1.158  1.00  0.00    -0.194 OA
HETATM   17  O2  UNL     1       0.608  -2.877  -1.082  1.00  0.00    -0.194 OA
BRANCH  15  18
HETATM   18  N3  UNL     1      -0.664  -0.938   0.297  1.00  0.00    -0.306 N 
ATOM     19  H3  UNL     1      -0.813  -0.402   1.152  1.00  0.00     0.173 HD
BRANCH  18  20
HETATM   20  C3  UNL     1      -1.624  -1.090  -0.751  1.00  0.00     0.171 C 
BRANCH  20  21
HETATM   21  C4  UNL     1      -2.897  -0.377  -0.480  1.00  0.00    -0.037 A 
HETATM   22  C5  UNL     1      -3.880  -0.479  -1.456  1.00  0.00     0.009 A 
HETATM   23  C6  UNL     1      -5.090   0.134  -1.316  1.00  0.00     0.003 A 
HETATM   24  C7  UNL     1      -5.311   0.864  -0.165  1.00  0.00     0.036 A 
HETATM   25  C8  UNL     1      -4.365   0.988   0.822  1.00  0.00     0.066 A 
HETATM   26  C9  UNL     1      -3.146   0.354   0.649  1.00  0.00     0.045 A 
BRANCH  25  27
HETATM   27  O3  UNL     1      -4.574   1.720   1.984  1.00  0.00    -0.361 OA
ATOM     28  H3  UNL     1      -3.919   1.806   2.667  1.00  0.00     0.217 HD
ENDBRANCH  25  27
ENDBRANCH  20  21
ENDBRANCH  18  20
ENDBRANCH  15  18
ENDBRANCH   1  15
TORSDOF 7
