REMARK  8 active torsions:
REMARK  status: ('A' for Active; 'I' for Inactive)
REMARK    1  A    between atoms: C3_3  and  C4_4 
REMARK    2  A    between atoms: C4_4  and  C5_5 
REMARK    3  A    between atoms: C5_5  and  N1_6 
REMARK    4  A    between atoms: C6_7  and  N2_8 
REMARK    5  A    between atoms: N2_8  and  C7_10 
REMARK    6  A    between atoms: C7_10  and  C8_11 
REMARK    7  A    between atoms: C8_11  and  C9_12 
REMARK    8  A    between atoms: C9_12  and  N3_13 
ROOT
HETATM    1  C1  UNL     1       0.441   5.790  -1.169  1.00  0.00     0.012 C 
HETATM    2  C2  UNL     1       0.415   4.871  -0.380  1.00  0.00    -0.117 C 
HETATM    3  C3  UNL     1       0.402   3.784   0.576  1.00  0.00     0.094 C 
ENDROOT
BRANCH   3   4
HETATM    4  C4  UNL     1       0.039   2.510  -0.178  1.00  0.00     0.033 C 
BRANCH   4   5
HETATM    5  C5  UNL     1       0.027   1.392   0.814  1.00  0.00     0.150 C 
BRANCH   5   6
HETATM    6  N1  UNL     1      -0.301   0.115   0.251  1.00  0.00    -0.164 N 
HETATM    7  C6  UNL     1       0.592  -0.748  -0.244  1.00  0.00     0.683 A 
HETATM    8  N4  UNL     1      -0.077  -1.835  -0.683  1.00  0.00    -0.173 N 
HETATM    9  C10 UNL     1      -1.390  -1.628  -0.451  1.00  0.00     0.168 A 
ATOM     10  H4  UNL     1       0.335  -2.663  -1.112  1.00  0.00     0.186 HD
HETATM   11  N5  UNL     1      -2.456  -2.400  -0.701  1.00  0.00    -0.323 N 
HETATM   12  C15 UNL     1      -1.556  -0.395   0.143  1.00  0.00     0.169 A 
HETATM   13  C11 UNL     1      -3.662  -1.915  -0.349  1.00  0.00     0.139 A 
ATOM     14  H5  UNL     1      -2.358  -3.316  -1.139  1.00  0.00     0.169 HD
HETATM   15  N6  UNL     1      -4.724  -2.717  -0.614  1.00  0.00    -0.337 N 
HETATM   16  C14 UNL     1      -3.841  -0.690   0.241  1.00  0.00     0.122 A 
HETATM   17  C12 UNL     1      -5.976  -2.342  -0.310  1.00  0.00     0.183 A 
ATOM     18  H6  UNL     1      -4.567  -3.624  -1.054  1.00  0.00     0.168 HD
HETATM   19  N7  UNL     1      -6.144  -1.142   0.269  1.00  0.00    -0.337 N 
HETATM   20  C13 UNL     1      -5.112  -0.303   0.554  1.00  0.00     0.131 A 
ATOM     21  H7  UNL     1      -7.091  -0.846   0.506  1.00  0.00     0.168 HD
HETATM   22  N8  UNL     1      -5.323   0.835   1.107  1.00  0.00    -0.383 N 
ATOM     23  H82 UNL     1      -6.273   1.124   1.341  1.00  0.00     0.157 HD
ATOM     24  H81 UNL     1      -4.549   1.464   1.321  1.00  0.00     0.157 HD
HETATM   25  N9  UNL     1      -2.757   0.097   0.497  1.00  0.00    -0.333 N 
ATOM     26  H9  UNL     1      -2.852   1.013   0.935  1.00  0.00     0.168 HD
BRANCH   7  27
HETATM   27  N2  UNL     1       1.867  -0.556  -0.286  1.00  0.00    -0.226 N 
ATOM     28  H2  UNL     1       2.228   0.322   0.088  1.00  0.00     0.177 HD
BRANCH  27  29
HETATM   29  C7  UNL     1       2.807  -1.489  -0.820  1.00  0.00     0.139 C 
BRANCH  29  30
HETATM   30  C8  UNL     1       4.168  -1.160  -0.191  1.00  0.00     0.047 C 
BRANCH  30  31
HETATM   31  C9  UNL     1       5.202  -2.114  -0.716  1.00  0.00     0.231 C 
BRANCH  31  32
HETATM   32  N3  UNL     1       6.475  -1.753  -0.083  1.00  0.00    -0.079 N 
ATOM     33  H33 UNL     1       6.727  -0.774  -0.218  1.00  0.00     0.274 HD
ATOM     34  H32 UNL     1       6.426  -1.735   0.936  1.00  0.00     0.274 HD
ATOM     35  H31 UNL     1       7.177  -2.401  -0.440  1.00  0.00     0.274 HD
ENDBRANCH  31  32
ENDBRANCH  30  31
ENDBRANCH  29  30
ENDBRANCH  27  29
ENDBRANCH   7  27
ENDBRANCH   5   6
ENDBRANCH   4   5
ENDBRANCH   3   4
TORSDOF 8
