REMARK  9 active torsions:
REMARK  status: ('A' for Active; 'I' for Inactive)
REMARK    1  A    between atoms: N1_1  and  N2_4 
REMARK    2  A    between atoms: N2_4  and  C1_6 
REMARK    3  A    between atoms: C3_12  and  N5_13 
REMARK    4  A    between atoms: C4_15  and  C5_16 
REMARK    5  A    between atoms: C5_16  and  C6_17 
REMARK    6  A    between atoms: N6_19  and  C8_20 
REMARK    7  A    between atoms: C8_20  and  C9_21 
REMARK    8  A    between atoms: C9_21  and  N7_22 
REMARK    9  A    between atoms: N7_22  and  O1_23 
ROOT
HETATM    1  N5  UNL     1       2.802   0.478  -0.189  1.00  0.00    -0.204 N 
ATOM      2  H5  UNL     1       3.125   1.112  -0.920  1.00  0.00     0.183 HD
HETATM    3  C4  UNL     1       1.450   0.578  -0.217  1.00  0.00     0.083 C 
ENDROOT
BRANCH   1   4
HETATM    4  C3  UNL     1       3.832  -0.003   0.286  1.00  0.00     0.697 A 
HETATM    5  N4  UNL     1       3.846  -0.907   1.293  1.00  0.00    -0.187 N 
HETATM    6  C2  UNL     1       4.998  -1.398   1.760  1.00  0.00     0.215 A 
ATOM      7  H4  UNL     1       2.965  -1.218   1.701  1.00  0.00     0.185 HD
HETATM    8  N3  UNL     1       6.166  -0.987   1.219  1.00  0.00    -0.185 N 
HETATM    9  C1  UNL     1       6.179  -0.094   0.222  1.00  0.00     0.711 A 
ATOM     10  H3  UNL     1       7.046  -1.361   1.574  1.00  0.00     0.185 HD
HETATM   11  N8  UNL     1       5.033   0.386  -0.233  1.00  0.00    -0.021 N 
ATOM     12  H8  UNL     1       5.047   1.066  -0.993  1.00  0.00     0.203 HD
BRANCH   9  13
HETATM   13  N2  UNL     1       7.313   0.296  -0.292  1.00  0.00    -0.138 N 
ATOM     14  H2  UNL     1       8.191  -0.080   0.066  1.00  0.00     0.205 HD
BRANCH  13  15
HETATM   15  N1  UNL     1       7.327   1.224  -1.328  1.00  0.00    -0.331 N 
ATOM     16  H12 UNL     1       6.441   1.590  -1.675  1.00  0.00     0.177 HD
ATOM     17  H11 UNL     1       8.214   1.529  -1.730  1.00  0.00     0.177 HD
ENDBRANCH  13  15
ENDBRANCH   9  13
ENDBRANCH   1   4
BRANCH   3  18
HETATM   18  C5  UNL     1       0.728  -0.748  -0.096  1.00  0.00     0.086 C 
BRANCH  18  19
HETATM   19  C6  UNL     1      -0.761  -0.533  -0.197  1.00  0.00    -0.025 A 
HETATM   20  C7  UNL     1      -1.456   0.575  -0.567  1.00  0.00     0.099 A 
HETATM   21  N6  UNL     1      -2.791   0.348  -0.545  1.00  0.00    -0.354 N 
HETATM   22  C10 UNL     1      -2.927  -0.932  -0.150  1.00  0.00     0.045 A 
HETATM   23  C11 UNL     1      -4.050  -1.699   0.049  1.00  0.00     0.030 A 
HETATM   24  C15 UNL     1      -1.676  -1.506   0.074  1.00  0.00    -0.001 A 
HETATM   25  C12 UNL     1      -3.912  -3.004   0.462  1.00  0.00     0.002 A 
HETATM   26  C13 UNL     1      -2.681  -3.577   0.685  1.00  0.00     0.001 A 
HETATM   27  C14 UNL     1      -1.537  -2.817   0.489  1.00  0.00     0.014 A 
BRANCH  21  28
HETATM   28  C8  UNL     1      -3.820   1.305  -0.889  1.00  0.00     0.147 C 
BRANCH  28  29
HETATM   29  C9  UNL     1      -4.289   2.098   0.298  1.00  0.00     0.162 C 
BRANCH  29  30
HETATM   30  N7  UNL     1      -5.316   3.054  -0.062  1.00  0.00    -0.102 NA
BRANCH  30  31
HETATM   31  O1  UNL     1      -5.752   3.770   0.970  1.00  0.00    -0.296 OA
ATOM     32  H1  UNL     1      -6.426   4.397   0.734  1.00  0.00     0.238 HD
ENDBRANCH  30  31
ENDBRANCH  29  30
ENDBRANCH  28  29
ENDBRANCH  21  28
ENDBRANCH  18  19
ENDBRANCH   3  18
TORSDOF 9
