REMARK  14 active torsions:
REMARK  status: ('A' for Active; 'I' for Inactive)
REMARK    1  A    between atoms: C3_3  and  C4_4 
REMARK    2  A    between atoms: C4_4  and  C5_5 
REMARK    3  A    between atoms: C5_5  and  C6_6 
REMARK    4  A    between atoms: C6_6  and  C7_7 
REMARK    5  A    between atoms: C7_7  and  C8_8 
REMARK    6  A    between atoms: C8_8  and  C9_9 
REMARK    7  A    between atoms: C9_9  and  C10_10 
REMARK    8  A    between atoms: C10_10  and  C11_11 
REMARK    9  A    between atoms: C11_11  and  C12_12 
REMARK   10  A    between atoms: C12_12  and  C13_13 
REMARK   11  A    between atoms: C13_13  and  C14_14 
REMARK   12  A    between atoms: C14_14  and  C15_15 
REMARK   13  A    between atoms: C15_15  and  N1_16 
REMARK   14  A    between atoms: N1_16  and  C16_18 
ROOT
HETATM    1  C1  UNL     1      -7.239   3.195  -1.662  1.00  0.00     0.012 C 
HETATM    2  C2  UNL     1      -7.733   2.126  -1.383  1.00  0.00    -0.117 C 
HETATM    3  C3  UNL     1      -8.323   0.819  -1.026  1.00  0.00     0.093 C 
ENDROOT
BRANCH   3   4
HETATM    4  C4  UNL     1      -7.133  -0.139  -0.817  1.00  0.00     0.012 C 
BRANCH   4   5
HETATM    5  C5  UNL     1      -6.323   0.462   0.294  1.00  0.00     0.001 C 
BRANCH   5   6
HETATM    6  C6  UNL     1      -5.136  -0.421   0.588  1.00  0.00     0.000 C 
BRANCH   6   7
HETATM    7  C7  UNL     1      -4.289  -0.532  -0.637  1.00  0.00     0.000 C 
BRANCH   7   8
HETATM    8  C8  UNL     1      -3.103  -1.395  -0.382  1.00  0.00     0.000 C 
BRANCH   8   9
HETATM    9  C9  UNL     1      -2.232  -0.835   0.715  1.00  0.00     0.000 C 
BRANCH   9  10
HETATM   10  C10 UNL     1      -1.067  -1.806   0.845  1.00  0.00     0.000 C 
BRANCH  10  11
HETATM   11  C11 UNL     1      -0.094  -1.399   1.901  1.00  0.00     0.000 C 
BRANCH  11  12
HETATM   12  C12 UNL     1       0.529  -0.060   1.669  1.00  0.00     0.000 C 
BRANCH  12  13
HETATM   13  C13 UNL     1       1.298   0.059   0.405  1.00  0.00     0.005 C 
BRANCH  13  14
HETATM   14  C14 UNL     1       2.453  -0.906   0.295  1.00  0.00     0.044 C 
BRANCH  14  15
HETATM   15  C15 UNL     1       3.479  -0.768   1.362  1.00  0.00     0.056 C 
BRANCH  15  16
HETATM   16  N1  UNL     1       4.184   0.402   1.537  1.00  0.00    -0.398 N 
ATOM     17  H1  UNL     1       3.958   0.947   2.369  1.00  0.00     0.159 HD
BRANCH  16  18
HETATM   18  C16 UNL     1       5.163   0.919   0.711  1.00  0.00     0.080 C 
HETATM   19  C17 UNL     1       4.856   1.343  -0.681  1.00  0.00     0.025 C 
HETATM   20  C18 UNL     1       5.500   0.470  -1.746  1.00  0.00     0.002 C 
HETATM   21  C19 UNL     1       7.017   0.565  -1.664  1.00  0.00     0.000 C 
HETATM   22  C20 UNL     1       7.416   0.847  -0.208  1.00  0.00     0.002 C 
HETATM   23  C21 UNL     1       6.430   0.060   0.630  1.00  0.00     0.025 C 
ENDBRANCH  16  18
ENDBRANCH  15  16
ENDBRANCH  14  15
ENDBRANCH  13  14
ENDBRANCH  12  13
ENDBRANCH  11  12
ENDBRANCH  10  11
ENDBRANCH   9  10
ENDBRANCH   8   9
ENDBRANCH   7   8
ENDBRANCH   6   7
ENDBRANCH   5   6
ENDBRANCH   4   5
ENDBRANCH   3   4
TORSDOF 14
