REMARK  14 active torsions:
REMARK  status: ('A' for Active; 'I' for Inactive)
REMARK    1  A    between atoms: C3_5  and  C4_6 
REMARK    2  A    between atoms: C4_6  and  C5_7 
REMARK    3  A    between atoms: C5_7  and  C6_8 
REMARK    4  A    between atoms: C6_8  and  C7_9 
REMARK    5  A    between atoms: C7_9  and  C8_10 
REMARK    6  A    between atoms: C8_10  and  C9_11 
REMARK    7  A    between atoms: C9_11  and  C10_12 
REMARK    8  A    between atoms: C10_12  and  C11_13 
REMARK    9  A    between atoms: C11_13  and  C12_14 
REMARK   10  A    between atoms: C12_14  and  C13_15 
REMARK   11  A    between atoms: C13_15  and  C14_16 
REMARK   12  A    between atoms: C14_16  and  C15_17 
REMARK   13  A    between atoms: C15_17  and  C16_18 
REMARK   14  A    between atoms: C16_18  and  C17_19 
ROOT
HETATM    1  C9  UNL     1      -0.949  -2.194   0.248  1.00  0.00     0.000 C 
ENDROOT
BRANCH   1   2
HETATM    2  C8  UNL     1      -2.151  -1.309   0.616  1.00  0.00     0.000 C 
BRANCH   2   3
HETATM    3  C7  UNL     1      -3.174  -2.135   1.359  1.00  0.00     0.000 C 
BRANCH   3   4
HETATM    4  C6  UNL     1      -4.332  -1.282   1.746  1.00  0.00     0.000 C 
BRANCH   4   5
HETATM    5  C5  UNL     1      -4.992  -0.700   0.529  1.00  0.00     0.006 C 
BRANCH   5   6
HETATM    6  C4  UNL     1      -6.177   0.126   1.023  1.00  0.00     0.057 C 
BRANCH   6   7
HETATM    7  C3  UNL     1      -6.890   0.740  -0.123  1.00  0.00     0.009 A 
HETATM    8  N1  UNL     1      -6.629   1.942  -0.659  1.00  0.00    -0.369 N 
HETATM    9  C2  UNL     1      -7.498   2.125  -1.677  1.00  0.00     0.088 A 
ATOM     10  H1  UNL     1      -5.908   2.596  -0.354  1.00  0.00     0.165 HD
HETATM   11  C1  UNL     1      -8.319   1.033  -1.789  1.00  0.00     0.019 A 
HETATM   12  C21 UNL     1      -7.927   0.154  -0.796  1.00  0.00     0.026 A 
ENDBRANCH   6   7
ENDBRANCH   5   6
ENDBRANCH   4   5
ENDBRANCH   3   4
ENDBRANCH   2   3
ENDBRANCH   1   2
BRANCH   1  13
HETATM   13  C10 UNL     1       0.034  -1.350  -0.500  1.00  0.00     0.000 C 
BRANCH  13  14
HETATM   14  C11 UNL     1       0.557  -0.189   0.268  1.00  0.00     0.000 C 
BRANCH  14  15
HETATM   15  C12 UNL     1       1.530   0.603  -0.557  1.00  0.00     0.000 C 
BRANCH  15  16
HETATM   16  C13 UNL     1       2.698  -0.226  -0.943  1.00  0.00     0.000 C 
BRANCH  16  17
HETATM   17  C14 UNL     1       3.724   0.540  -1.758  1.00  0.00     0.000 C 
BRANCH  17  18
HETATM   18  C15 UNL     1       4.303   1.722  -1.067  1.00  0.00     0.000 C 
BRANCH  18  19
HETATM   19  C16 UNL     1       4.987   1.311   0.190  1.00  0.00     0.004 C 
BRANCH  19  20
HETATM   20  C17 UNL     1       6.115   0.353   0.032  1.00  0.00    -0.014 C 
HETATM   21  C18 UNL     1       6.732   0.012   1.397  1.00  0.00     0.004 C 
HETATM   22  C19 UNL     1       8.080   0.012   0.675  1.00  0.00     0.001 C 
HETATM   23  C20 UNL     1       7.457   0.968  -0.324  1.00  0.00     0.004 C 
ENDBRANCH  19  20
ENDBRANCH  18  19
ENDBRANCH  17  18
ENDBRANCH  16  17
ENDBRANCH  15  16
ENDBRANCH  14  15
ENDBRANCH  13  14
ENDBRANCH   1  13
TORSDOF 14
