REMARK  13 active torsions:
REMARK  status: ('A' for Active; 'I' for Inactive)
REMARK    1  A    between atoms: C2_2  and  C3_3 
REMARK    2  A    between atoms: C3_3  and  C4_4 
REMARK    3  A    between atoms: C8_8  and  O1_9 
REMARK    4  A    between atoms: O1_9  and  C9_10 
REMARK    5  A    between atoms: C10_12  and  O3_13 
REMARK    6  A    between atoms: C11_15  and  O4_16 
REMARK    7  A    between atoms: C12_18  and  O5_19 
REMARK    8  A    between atoms: O5_19  and  C13_20 
REMARK    9  A    between atoms: C14_22  and  C15_23 
REMARK   10  A    between atoms: C15_23  and  N1_24 
REMARK   11  A    between atoms: C16_28  and  O7_29 
REMARK   12  A    between atoms: C17_31  and  O8_32 
REMARK   13  A    between atoms: C18_34  and  O9_35 
ROOT
HETATM    1  C9  UNL     1      -0.166  -1.471  -1.616  1.00  0.00     0.295 C 
HETATM    2  O2  UNL     1       0.034  -2.796  -2.007  1.00  0.00    -0.326 OA
HETATM    3  C10 UNL     1       1.291  -2.919  -2.506  1.00  0.00     0.291 C 
HETATM    4  C11 UNL     1       1.596  -1.562  -3.109  1.00  0.00     0.207 C 
HETATM    5  C12 UNL     1       1.052  -0.691  -1.912  1.00  0.00     0.213 C 
ENDROOT
BRANCH   5   6
HETATM    6  O5  UNL     1       2.001  -0.836  -0.932  1.00  0.00    -0.346 OA
BRANCH   6   7
HETATM    7  C13 UNL     1       2.707   0.328  -0.623  1.00  0.00     0.292 C 
HETATM    8  O6  UNL     1       4.037   0.071  -0.989  1.00  0.00    -0.349 OA
HETATM    9  C14 UNL     1       4.916   1.070  -0.636  1.00  0.00     0.181 C 
HETATM   10  C16 UNL     1       4.909   1.327   0.859  1.00  0.00     0.180 C 
HETATM   11  C17 UNL     1       3.521   1.648   1.356  1.00  0.00     0.183 C 
HETATM   12  C18 UNL     1       2.585   0.578   0.852  1.00  0.00     0.204 C 
BRANCH   9  13
HETATM   13  C15 UNL     1       6.299   0.572  -0.999  1.00  0.00     0.264 C 
BRANCH  13  14
HETATM   14  N1  UNL     1       7.350   1.493  -0.703  1.00  0.00    -0.077 N 
ATOM     15  H13 UNL     1       7.169   2.395  -1.144  1.00  0.00     0.274 HD
ATOM     16  H12 UNL     1       7.316   1.769   0.278  1.00  0.00     0.274 HD
ATOM     17  H11 UNL     1       8.282   1.158  -0.948  1.00  0.00     0.274 HD
ENDBRANCH  13  14
ENDBRANCH   9  13
BRANCH  10  18
HETATM   18  O7  UNL     1       5.700   2.423   1.151  1.00  0.00    -0.390 OA
ATOM     19  H7  UNL     1       5.696   2.584   2.087  1.00  0.00     0.210 HD
ENDBRANCH  10  18
BRANCH  11  20
HETATM   20  O8  UNL     1       3.140   2.925   1.000  1.00  0.00    -0.390 OA
ATOM     21  H8  UNL     1       2.266   3.127   1.313  1.00  0.00     0.210 HD
ENDBRANCH  11  20
BRANCH  12  22
HETATM   22  O9  UNL     1       1.259   0.886   1.154  1.00  0.00    -0.388 OA
ATOM     23  H9  UNL     1       1.182   1.044   2.088  1.00  0.00     0.210 HD
ENDBRANCH  12  22
ENDBRANCH   6   7
ENDBRANCH   5   6
BRANCH   1  24
HETATM   24  O1  UNL     1      -0.635  -1.479  -0.332  1.00  0.00    -0.353 OA
BRANCH  24  25
HETATM   25  C8  UNL     1      -1.947  -1.082  -0.308  1.00  0.00     0.126 C 
HETATM   26  C7  UNL     1      -2.873  -2.220   0.143  1.00  0.00     0.041 C 
HETATM   27  C6  UNL     1      -4.303  -1.729  -0.082  1.00  0.00     0.017 C 
HETATM   28  C5  UNL     1      -4.930  -1.563   1.310  1.00  0.00     0.014 C 
HETATM   29  C21 UNL     1      -4.318  -0.306  -0.528  1.00  0.00    -0.080 C 
HETATM   30  C4  UNL     1      -4.359  -0.260   1.800  1.00  0.00    -0.002 C 
HETATM   31  C20 UNL     1      -3.686   0.418   0.620  1.00  0.00     0.021 C 
HETATM   32  C19 UNL     1      -2.212   0.060   0.640  1.00  0.00     0.041 C 
HETATM   33  C22 UNL     1      -4.779   0.200  -1.664  1.00  0.00     0.015 C 
BRANCH  30  34
HETATM   34  C3  UNL     1      -5.439   0.635   2.391  1.00  0.00     0.031 C 
BRANCH  34  35
HETATM   35  C2  UNL     1      -4.765   1.897   2.845  1.00  0.00    -0.037 C 
HETATM   36  C1  UNL     1      -5.132   3.046   2.335  1.00  0.00     0.007 C 
ENDBRANCH  34  35
ENDBRANCH  30  34
ENDBRANCH  24  25
ENDBRANCH   1  24
BRANCH   4  37
HETATM   37  O4  UNL     1       2.961  -1.430  -3.210  1.00  0.00    -0.388 OA
ATOM     38  H4  UNL     1       3.152  -0.580  -3.588  1.00  0.00     0.210 HD
ENDBRANCH   4  37
BRANCH   3  39
HETATM   39  O3  UNL     1       1.417  -3.931  -3.453  1.00  0.00    -0.368 OA
ATOM     40  H3  UNL     1       2.296  -4.017  -3.802  1.00  0.00     0.212 HD
ENDBRANCH   3  39
TORSDOF 13
