REMARK  7 active torsions:
REMARK  status: ('A' for Active; 'I' for Inactive)
REMARK    1  A    between atoms: N1_1  and  C1_4 
REMARK    2  A    between atoms: C2_7  and  C3_8 
REMARK    3  A    between atoms: C3_8  and  C4_9 
REMARK    4  A    between atoms: C4_9  and  N3_10 
REMARK    5  A    between atoms: N3_10  and  C5_12 
REMARK    6  A    between atoms: N6_19  and  C7_20 
REMARK    7  A    between atoms: C7_20  and  C8_21 
ROOT
HETATM    1  C4  UNL     1       0.159   1.228  -0.277  1.00  0.00     0.085 C 
ENDROOT
BRANCH   1   2
HETATM    2  C3  UNL     1       0.786   0.584   0.950  1.00  0.00     0.102 C 
BRANCH   2   3
HETATM    3  C2  UNL     1       1.919  -0.250   0.474  1.00  0.00     0.034 A 
HETATM    4  N2  UNL     1       1.800  -1.541   0.129  1.00  0.00    -0.195 N 
HETATM    5  C1  UNL     1       2.849  -2.274  -0.301  1.00  0.00     0.677 A 
ATOM      6  H2  UNL     1       0.884  -1.985   0.194  1.00  0.00     0.184 HD
HETATM    7  N9  UNL     1       4.066  -1.711  -0.393  1.00  0.00    -0.179 N 
HETATM    8  C10 UNL     1       4.264  -0.417  -0.063  1.00  0.00     0.133 A 
ATOM      9  H9  UNL     1       4.854  -2.271  -0.718  1.00  0.00     0.185 HD
HETATM   10  C9  UNL     1       3.165   0.326   0.380  1.00  0.00     0.071 A 
HETATM   11  N8  UNL     1       5.534   0.205  -0.149  1.00  0.00    -0.082 NA
BRANCH   5  12
HETATM   12  N1  UNL     1       2.726  -3.521  -0.633  1.00  0.00    -0.234 N 
ATOM     13  H12 UNL     1       1.802  -3.948  -0.563  1.00  0.00     0.174 HD
ATOM     14  H11 UNL     1       3.519  -4.075  -0.958  1.00  0.00     0.174 HD
ENDBRANCH   5  12
ENDBRANCH   2   3
ENDBRANCH   1   2
BRANCH   1  15
HETATM   15  N3  UNL     1      -0.923   2.047  -0.024  1.00  0.00    -0.203 N 
ATOM     16  H3  UNL     1      -0.608   2.986   0.222  1.00  0.00     0.183 HD
BRANCH  15  17
HETATM   17  C5  UNL     1      -2.171   1.987  -0.005  1.00  0.00     0.703 A 
HETATM   18  N4  UNL     1      -2.954   3.075   0.313  1.00  0.00    -0.128 N 
HETATM   19  N5  UNL     1      -4.222   2.750   0.264  1.00  0.00    -0.236 N 
ATOM     20  H4  UNL     1      -2.598   4.000   0.552  1.00  0.00     0.205 HD
HETATM   21  C6  UNL     1      -4.328   1.473  -0.077  1.00  0.00     0.356 A 
ATOM     22  H5  UNL     1      -5.002   3.378   0.457  1.00  0.00     0.192 HD
HETATM   23  O1  UNL     1      -5.403   0.830  -0.218  1.00  0.00    -0.244 OA
HETATM   24  N6  UNL     1      -3.050   1.003  -0.244  1.00  0.00    -0.122 N 
BRANCH  24  25
HETATM   25  C7  UNL     1      -2.809  -0.355  -0.621  1.00  0.00     0.252 C 
BRANCH  25  26
HETATM   26  C8  UNL     1      -2.658  -1.270   0.547  1.00  0.00     0.250 C 
HETATM   27  N7  UNL     1      -2.414  -2.644   0.282  1.00  0.00    -0.061 NA
HETATM   28  O2  UNL     1      -2.731  -0.905   1.733  1.00  0.00    -0.275 OA
ENDBRANCH  25  26
ENDBRANCH  24  25
ENDBRANCH  15  17
ENDBRANCH   1  15
TORSDOF 7
