REMARK  7 active torsions:
REMARK  status: ('A' for Active; 'I' for Inactive)
REMARK    1  A    between atoms: C1_4  and  C2_6 
REMARK    2  A    between atoms: C2_6  and  N3_7 
REMARK    3  A    between atoms: C4_9  and  N4_10 
REMARK    4  A    between atoms: N4_10  and  C5_13 
REMARK    5  A    between atoms: C5_13  and  C6_14 
REMARK    6  A    between atoms: C6_14  and  N5_15 
REMARK    7  A    between atoms: N5_15  and  C7_17 
ROOT
HETATM    1  N4  UNL     1       0.443  -0.873  -1.155  1.00  0.00    -0.051 N 
ATOM      2  H41 UNL     1       0.933  -1.746  -0.961  1.00  0.00     0.279 HD
ATOM      3  H42 UNL     1       0.008  -1.137  -2.039  1.00  0.00     0.279 HD
ENDROOT
BRANCH   1   4
HETATM    4  C4  UNL     1       1.347   0.221  -1.312  1.00  0.00     0.306 C 
HETATM    5  C3  UNL     1       2.202   0.465  -0.097  1.00  0.00     0.182 C 
HETATM    6  N3  UNL     1       3.532  -0.007  -0.519  1.00  0.00    -0.324 N 
HETATM    7  C11 UNL     1       3.607   0.189  -1.940  1.00  0.00     0.320 C 
HETATM    8  N9  UNL     1       2.275   0.043  -2.412  1.00  0.00    -0.313 N 
HETATM    9  O1  UNL     1       4.627   0.433  -2.604  1.00  0.00    -0.247 OA
ATOM     10  H9  UNL     1       2.012  -0.157  -3.377  1.00  0.00     0.166 HD
BRANCH   6  11
HETATM   11  C2  UNL     1       4.504  -0.539   0.393  1.00  0.00     0.200 C 
BRANCH  11  12
HETATM   12  C1  UNL     1       5.318   0.578   0.923  1.00  0.00     0.104 C 
HETATM   13  N1  UNL     1       5.409   0.761   2.183  1.00  0.00    -0.390 N 
ATOM     14  H12 UNL     1       5.970   1.531   2.548  1.00  0.00     0.157 HD
ATOM     15  H11 UNL     1       4.921   0.139   2.828  1.00  0.00     0.157 HD
HETATM   16  N2  UNL     1       5.995   1.441   0.027  1.00  0.00    -0.086 NA
ENDBRANCH  11  12
ENDBRANCH   6  11
ENDBRANCH   1   4
BRANCH   1  17
HETATM   17  C5  UNL     1      -0.533  -0.572  -0.147  1.00  0.00     0.254 C 
BRANCH  17  18
HETATM   18  C6  UNL     1      -1.376  -1.778   0.209  1.00  0.00     0.148 C 
BRANCH  18  19
HETATM   19  N5  UNL     1      -2.314  -1.414   1.226  1.00  0.00    -0.378 N 
ATOM     20  H5  UNL     1      -2.197  -1.777   2.172  1.00  0.00     0.160 HD
BRANCH  19  21
HETATM   21  C7  UNL     1      -3.405  -0.555   0.936  1.00  0.00     0.080 A 
HETATM   22  N6  UNL     1      -4.447  -1.032   0.299  1.00  0.00    -0.321 N 
HETATM   23  C8  UNL     1      -5.573  -0.289  -0.040  1.00  0.00     0.189 A 
ATOM     24  H6  UNL     1      -4.431  -2.017   0.033  1.00  0.00     0.169 HD
HETATM   25  N7  UNL     1      -6.705  -0.811  -0.727  1.00  0.00    -0.064 NA
HETATM   26  N8  UNL     1      -5.623   0.951   0.284  1.00  0.00    -0.364 N 
HETATM   27  C9  UNL     1      -4.598   1.648   0.978  1.00  0.00     0.130 A 
ATOM     28  H8  UNL     1      -6.459   1.474   0.025  1.00  0.00     0.162 HD
HETATM   29  C10 UNL     1      -3.386   0.864   1.342  1.00  0.00     0.096 A 
ENDBRANCH  19  21
ENDBRANCH  18  19
ENDBRANCH  17  18
ENDBRANCH   1  17
TORSDOF 7
