REMARK  8 active torsions:
REMARK  status: ('A' for Active; 'I' for Inactive)
REMARK    1  A    between atoms: N1_1  and  C1_4 
REMARK    2  A    between atoms: C3_10  and  N4_11 
REMARK    3  A    between atoms: N4_11  and  C4_13 
REMARK    4  A    between atoms: C4_13  and  C5_14 
REMARK    5  A    between atoms: C5_14  and  C6_15 
REMARK    6  A    between atoms: C6_15  and  O1_16 
REMARK    7  A    between atoms: N6_21  and  C8_23 
REMARK    8  A    between atoms: C8_23  and  C9_24 
ROOT
HETATM    1  C1  UNL     1      -2.576  -2.794   0.134  1.00  0.00     0.692 A 
HETATM    2  N2  UNL     1      -1.242  -2.652   0.131  1.00  0.00    -0.173 N 
ATOM      3  H2  UNL     1      -0.635  -3.461   0.001  1.00  0.00     0.186 HD
HETATM    4  C2  UNL     1      -0.716  -1.422   0.303  1.00  0.00     0.168 A 
HETATM    5  N3  UNL     1       0.616  -1.224   0.308  1.00  0.00    -0.174 N 
ATOM      6  H3  UNL     1       1.230  -2.028   0.178  1.00  0.00     0.186 HD
HETATM    7  C3  UNL     1       1.171  -0.013   0.477  1.00  0.00     0.681 A 
HETATM    8  N5  UNL     1       0.376   1.030   0.644  1.00  0.00    -0.174 N 
ATOM      9  H5  UNL     1       0.813   1.943   0.771  1.00  0.00     0.186 HD
HETATM   10  C7  UNL     1      -0.991   0.972   0.659  1.00  0.00     0.153 A 
HETATM   11  N6  UNL     1      -1.672   2.022   0.826  1.00  0.00    -0.345 N 
ATOM     12  H6  UNL     1      -1.086   2.849   0.938  1.00  0.00     0.167 HD
HETATM   13  C10 UNL     1      -1.518  -0.284   0.484  1.00  0.00     0.138 A 
HETATM   14  N8  UNL     1      -2.827  -0.494   0.476  1.00  0.00    -0.280 N 
ATOM     15  H8  UNL     1      -3.458   0.298   0.603  1.00  0.00     0.188 HD
HETATM   16  N9  UNL     1      -3.335  -1.698   0.308  1.00  0.00    -0.132 N 
ATOM     17  H9  UNL     1      -4.350  -1.803   0.310  1.00  0.00     0.205 HD
ENDROOT
BRANCH   7  18
HETATM   18  N4  UNL     1       2.479   0.101   0.471  1.00  0.00    -0.226 N 
ATOM     19  H4  UNL     1       2.928   1.008   0.597  1.00  0.00     0.177 HD
BRANCH  18  20
HETATM   20  C4  UNL     1       3.265  -1.099   0.280  1.00  0.00     0.140 C 
BRANCH  20  21
HETATM   21  C5  UNL     1       4.731  -0.699   0.137  1.00  0.00     0.046 C 
BRANCH  21  22
HETATM   22  C6  UNL     1       4.835   0.221  -1.076  1.00  0.00     0.165 C 
BRANCH  22  23
HETATM   23  O1  UNL     1       6.149   0.625  -1.267  1.00  0.00    -0.401 OA
ATOM     24  H1  UNL     1       6.214   1.198  -2.022  1.00  0.00     0.209 HD
ENDBRANCH  22  23
ENDBRANCH  21  22
ENDBRANCH  20  21
ENDBRANCH  18  20
ENDBRANCH   7  18
BRANCH  11  25
HETATM   25  C8  UNL     1      -3.028   2.323   0.894  1.00  0.00     0.160 C 
BRANCH  25  26
HETATM   26  C9  UNL     1      -3.591   2.505  -0.493  1.00  0.00     0.270 C 
HETATM   27  N7  UNL     1      -4.973   2.814  -0.663  1.00  0.00    -0.057 NA
HETATM   28  O2  UNL     1      -2.897   2.398  -1.533  1.00  0.00    -0.270 OA
ENDBRANCH  25  26
ENDBRANCH  11  25
BRANCH   1  29
HETATM   29  N1  UNL     1      -3.134  -3.973  -0.030  1.00  0.00    -0.233 N 
ATOM     30  H12 UNL     1      -2.558  -4.805  -0.162  1.00  0.00     0.174 HD
ATOM     31  H11 UNL     1      -4.148  -4.081  -0.028  1.00  0.00     0.174 HD
ENDBRANCH   1  29
TORSDOF 8
