REMARK  5 active torsions:
REMARK  status: ('A' for Active; 'I' for Inactive)
REMARK    1  A    between atoms: N1_1  and  C1_4 
REMARK    2  A    between atoms: C4_12  and  S1_13 
REMARK    3  A    between atoms: S1_13  and  C5_14 
REMARK    4  A    between atoms: C5_14  and  C6_15 
REMARK    5  A    between atoms: C6_15  and  C7_16 
ROOT
HETATM    1  C1  UNL     1      -4.501  -1.632   0.017  1.00  0.00     0.680 A 
HETATM    2  N2  UNL     1      -4.713  -1.063   1.207  1.00  0.00    -0.154 N 
ATOM      3  H2  UNL     1      -5.666  -1.001   1.566  1.00  0.00     0.187 HD
HETATM    4  C2  UNL     1      -3.706  -0.572   1.941  1.00  0.00     0.290 A 
HETATM    5  O1  UNL     1      -3.916  -0.038   3.054  1.00  0.00    -0.265 OA
HETATM    6  C3  UNL     1      -2.398  -0.660   1.444  1.00  0.00     0.148 A 
HETATM    7  N3  UNL     1      -1.244  -0.245   1.940  1.00  0.00    -0.329 N 
ATOM      8  H3  UNL     1      -1.117   0.228   2.835  1.00  0.00     0.168 HD
HETATM    9  C4  UNL     1      -0.237  -0.558   1.044  1.00  0.00     0.146 A 
HETATM   10  N6  UNL     1      -0.837  -1.158   0.029  1.00  0.00    -0.320 N 
ATOM     11  H6  UNL     1      -0.353  -1.510  -0.797  1.00  0.00     0.169 HD
HETATM   12  C9  UNL     1      -2.182  -1.247   0.226  1.00  0.00     0.155 A 
HETATM   13  N7  UNL     1      -3.216  -1.723  -0.469  1.00  0.00    -0.174 N 
ATOM     14  H7  UNL     1      -3.052  -2.162  -1.375  1.00  0.00     0.186 HD
ENDROOT
BRANCH   9  15
HETATM   15  S1  UNL     1       1.436  -0.109   1.401  1.00  0.00    -0.091 SA
BRANCH  15  16
HETATM   16  C5  UNL     1       2.041   1.330   0.516  1.00  0.00     0.133 C 
BRANCH  16  17
HETATM   17  C6  UNL     1       2.753   0.936  -0.804  1.00  0.00     0.235 A 
HETATM   18  C8  UNL     1       3.781  -0.196  -0.560  1.00  0.00     0.283 A 
HETATM   19  N5  UNL     1       2.571  -0.374  -1.284  1.00  0.00    -0.052 N 
ATOM     20  H52 UNL     1       1.804  -1.036  -1.165  1.00  0.00     0.278 HD
ATOM     21  H51 UNL     1       2.393  -0.730  -2.223  1.00  0.00     0.278 HD
BRANCH  17  22
HETATM   22  C7  UNL     1       3.337   2.003  -1.621  1.00  0.00     0.270 C 
HETATM   23  N4  UNL     1       4.730   2.215  -1.735  1.00  0.00    -0.060 NA
HETATM   24  O2  UNL     1       2.574   2.769  -2.263  1.00  0.00    -0.274 OA
ENDBRANCH  17  22
ENDBRANCH  16  17
ENDBRANCH  15  16
ENDBRANCH   9  15
BRANCH   1  25
HETATM   25  N1  UNL     1      -5.482  -2.067  -0.691  1.00  0.00    -0.234 N 
ATOM     26  H12 UNL     1      -6.434  -2.000  -0.331  1.00  0.00     0.174 HD
ATOM     27  H11 UNL     1      -5.320  -2.501  -1.600  1.00  0.00     0.174 HD
ENDBRANCH   1  25
TORSDOF 5
