REMARK  13 active torsions:
REMARK  status: ('A' for Active; 'I' for Inactive)
REMARK       I    between atoms: C1_4  and  N3_6 
REMARK    1  A    between atoms: N3_6  and  C2_8 
REMARK    2  A    between atoms: C2_8  and  C3_9 
REMARK    3  A    between atoms: C3_9  and  C4_10 
REMARK    4  A    between atoms: C4_10  and  C5_11 
REMARK    5  A    between atoms: C5_11  and  N4_12 
REMARK    6  A    between atoms: C8_15  and  O1_16 
REMARK    7  A    between atoms: O1_16  and  C9_17 
REMARK    8  A    between atoms: C9_17  and  C10_19 
REMARK    9  A    between atoms: C10_19  and  C11_20 
REMARK   10  A    between atoms: C11_20  and  C12_21 
REMARK   11  A    between atoms: C15_26  and  C16_27 
REMARK       I    between atoms: C16_27  and  N6_29 
REMARK   12  A    between atoms: N6_29  and  C17_31 
REMARK   13  A    between atoms: C17_31  and  C18_32 
ROOT
HETATM    1  N4  UNL     1      -0.914   0.417  -0.329  1.00  0.00    -0.047 N 
HETATM    2  C6  UNL     1      -0.402  -0.008  -1.572  1.00  0.00     0.241 C 
HETATM    3  C7  UNL     1       1.071  -0.300  -1.423  1.00  0.00     0.062 C 
HETATM    4  C8  UNL     1       1.360  -0.207   0.052  1.00  0.00     0.164 C 
HETATM    5  C13 UNL     1       0.023   0.026   0.706  1.00  0.00     0.223 A 
HETATM    6  C14 UNL     1      -0.078   1.409   1.284  1.00  0.00     0.079 A 
HETATM    7  C15 UNL     1      -0.984   1.747   0.088  1.00  0.00     0.284 A 
ENDROOT
BRANCH   1   8
HETATM    8  C5  UNL     1      -2.207  -0.259   0.009  1.00  0.00     0.239 C 
BRANCH   8   9
HETATM    9  C4  UNL     1      -3.282   0.178  -0.900  1.00  0.00     0.030 C 
BRANCH   9  10
HETATM   10  C3  UNL     1      -4.635  -0.362  -0.656  1.00  0.00     0.021 C 
BRANCH  10  11
HETATM   11  C2  UNL     1      -4.854  -1.819  -0.680  1.00  0.00     0.122 C 
BRANCH  11  12
HETATM   12  N3  UNL     1      -4.200  -2.591   0.348  1.00  0.00    -0.365 N 
HETATM   13  C1  UNL     1      -4.239  -4.021   0.354  1.00  0.00     0.181 C 
HETATM   14  N1  UNL     1      -4.153  -4.714   1.434  1.00  0.00    -0.374 N 
HETATM   15  N2  UNL     1      -4.380  -4.676  -0.894  1.00  0.00    -0.064 NA
ATOM     16  H12 UNL     1      -4.181  -5.734   1.438  1.00  0.00     0.158 HD
ATOM     17  H11 UNL     1      -4.051  -4.242   2.333  1.00  0.00     0.158 HD
ATOM     18  H3  UNL     1      -3.697  -2.105   1.090  1.00  0.00     0.162 HD
ENDBRANCH  11  12
ENDBRANCH  10  11
ENDBRANCH   9  10
ENDBRANCH   8   9
ENDBRANCH   1   8
BRANCH   7  19
HETATM   19  C16 UNL     1      -0.441   2.855  -0.684  1.00  0.00     0.249 C 
HETATM   20  O4  UNL     1       0.142   2.688  -1.772  1.00  0.00    -0.271 OA
HETATM   21  N6  UNL     1      -0.561   4.190  -0.208  1.00  0.00    -0.351 N 
ATOM     22  H6  UNL     1      -1.039   4.338   0.681  1.00  0.00     0.163 HD
BRANCH  21  23
HETATM   23  C17 UNL     1      -0.053   5.341  -0.897  1.00  0.00     0.222 C 
BRANCH  23  24
HETATM   24  C18 UNL     1       1.410   5.300  -1.063  1.00  0.00     0.248 C 
HETATM   25  N7  UNL     1       2.070   6.363  -1.741  1.00  0.00    -0.061 NA
HETATM   26  O5  UNL     1       2.111   4.363  -0.630  1.00  0.00    -0.275 OA
ENDBRANCH  23  24
ENDBRANCH  21  23
ENDBRANCH   7  19
BRANCH   4  27
HETATM   27  O1  UNL     1       1.997  -1.364   0.550  1.00  0.00    -0.314 OA
BRANCH  27  28
HETATM   28  C9  UNL     1       3.263  -1.338   1.123  1.00  0.00     0.259 C 
HETATM   29  O2  UNL     1       3.852  -0.257   1.198  1.00  0.00    -0.265 OA
BRANCH  28  30
HETATM   30  C10 UNL     1       3.803  -2.625   1.601  1.00  0.00     0.120 C 
BRANCH  30  31
HETATM   31  C11 UNL     1       5.194  -2.488   2.157  1.00  0.00     0.109 C 
BRANCH  31  32
HETATM   32  C12 UNL     1       6.163  -2.012   1.159  1.00  0.00     0.231 C 
HETATM   33  N5  UNL     1       7.510  -1.704   1.570  1.00  0.00    -0.062 NA
HETATM   34  O3  UNL     1       5.840  -1.873  -0.032  1.00  0.00    -0.277 OA
ENDBRANCH  31  32
ENDBRANCH  30  31
ENDBRANCH  28  30
ENDBRANCH  27  28
ENDBRANCH   4  27
TORSDOF 13
