REMARK  12 active torsions:
REMARK  status: ('A' for Active; 'I' for Inactive)
REMARK    1  A    between atoms: C1_2  and  C2_4 
REMARK    2  A    between atoms: C2_4  and  C3_5 
REMARK       I    between atoms: C3_5  and  N2_7 
REMARK    3  A    between atoms: N2_7  and  C4_9 
REMARK    4  A    between atoms: C4_9  and  C5_10 
REMARK    5  A    between atoms: C4_9  and  C9_18 
REMARK    6  A    between atoms: C5_10  and  C6_11 
REMARK    7  A    between atoms: C6_11  and  C7_12 
REMARK    8  A    between atoms: C7_12  and  N3_13 
REMARK       I    between atoms: C9_18  and  N6_20 
REMARK    9  A    between atoms: C12_23  and  C13_24 
REMARK   10  A    between atoms: C13_24  and  C14_25 
REMARK   11  A    between atoms: C14_25  and  C15_26 
REMARK   12  A    between atoms: C15_26  and  N7_27 
ROOT
HETATM    1  C4  UNL     1      -2.016  -1.723  -0.277  1.00  0.00     0.176 C 
ENDROOT
BRANCH   1   2
HETATM    2  N2  UNL     1      -1.276  -2.989  -0.552  1.00  0.00    -0.347 N 
HETATM    3  C3  UNL     1      -0.067  -3.306   0.108  1.00  0.00     0.226 C 
HETATM    4  O2  UNL     1       0.390  -2.504   0.926  1.00  0.00    -0.273 OA
ATOM      5  H2  UNL     1      -1.653  -3.645  -1.236  1.00  0.00     0.163 HD
BRANCH   3   6
HETATM    6  C2  UNL     1       0.659  -4.578  -0.163  1.00  0.00     0.202 C 
BRANCH   6   7
HETATM    7  C1  UNL     1       2.066  -4.513   0.311  1.00  0.00     0.239 C 
HETATM    8  N1  UNL     1       2.909  -5.641   0.113  1.00  0.00    -0.062 NA
HETATM    9  O1  UNL     1       2.547  -3.505   0.879  1.00  0.00    -0.276 OA
ENDBRANCH   6   7
ENDBRANCH   3   6
ENDBRANCH   1   2
BRANCH   1  10
HETATM   10  C5  UNL     1      -3.384  -1.972  -0.781  1.00  0.00     0.036 C 
BRANCH  10  11
HETATM   11  C6  UNL     1      -4.411  -0.921  -0.651  1.00  0.00     0.022 C 
BRANCH  11  12
HETATM   12  C7  UNL     1      -4.799  -0.533   0.736  1.00  0.00     0.122 C 
BRANCH  12  13
HETATM   13  N3  UNL     1      -5.810   0.481   0.722  1.00  0.00    -0.367 N 
HETATM   14  C8  UNL     1      -6.066   1.340   1.617  1.00  0.00     0.196 C 
HETATM   15  N4  UNL     1      -7.119   2.260   1.405  1.00  0.00    -0.067 NA
HETATM   16  N5  UNL     1      -5.295   1.412   2.798  1.00  0.00    -0.067 NA
ATOM     17  H3  UNL     1      -6.397   0.516  -0.112  1.00  0.00     0.161 HD
ENDBRANCH  12  13
ENDBRANCH  11  12
ENDBRANCH  10  11
ENDBRANCH   1  10
BRANCH   1  18
HETATM   18  C9  UNL     1      -1.329  -0.759  -1.229  1.00  0.00     0.242 C 
HETATM   19  O3  UNL     1      -1.058  -1.180  -2.364  1.00  0.00    -0.271 OA
HETATM   20  N6  UNL     1      -0.984   0.556  -0.902  1.00  0.00    -0.350 N 
HETATM   21  C10 UNL     1      -0.293   1.407  -1.859  1.00  0.00     0.126 C 
HETATM   22  C18 UNL     1      -1.231   1.207   0.380  1.00  0.00     0.126 C 
HETATM   23  C11 UNL     1       1.063   1.833  -1.284  1.00  0.00     0.024 C 
HETATM   24  C12 UNL     1       1.034   2.242   0.129  1.00  0.00    -0.012 C 
HETATM   25  C17 UNL     1       0.104   1.384   1.018  1.00  0.00     0.024 C 
BRANCH  24  26
HETATM   26  C13 UNL     1       2.354   2.189   0.838  1.00  0.00     0.006 C 
BRANCH  26  27
HETATM   27  C14 UNL     1       3.489   2.979   0.372  1.00  0.00     0.020 C 
BRANCH  27  28
HETATM   28  C15 UNL     1       4.126   2.697  -0.935  1.00  0.00     0.122 C 
BRANCH  28  29
HETATM   29  N7  UNL     1       4.676   1.356  -1.015  1.00  0.00    -0.367 N 
HETATM   30  C16 UNL     1       5.889   1.051  -1.228  1.00  0.00     0.196 C 
HETATM   31  N8  UNL     1       6.263  -0.308  -1.278  1.00  0.00    -0.067 NA
HETATM   32  N9  UNL     1       6.859   2.048  -1.416  1.00  0.00    -0.067 NA
ATOM     33  H7  UNL     1       4.023   0.583  -0.887  1.00  0.00     0.161 HD
ENDBRANCH  28  29
ENDBRANCH  27  28
ENDBRANCH  26  27
ENDBRANCH  24  26
ENDBRANCH   1  18
TORSDOF 12
