REMARK  11 active torsions:
REMARK  status: ('A' for Active; 'I' for Inactive)
REMARK       I    between atoms: N1_2  and  C3_4 
REMARK    1  A    between atoms: N3_6  and  C4_8 
REMARK    2  A    between atoms: C4_8  and  C5_9 
REMARK    3  A    between atoms: C5_9  and  C6_10 
REMARK    4  A    between atoms: C6_10  and  C7_11 
REMARK    5  A    between atoms: C9_16  and  C10_17 
REMARK    6  A    between atoms: C10_17  and  C11_18 
REMARK    7  A    between atoms: C11_18  and  C12_19 
REMARK    8  A    between atoms: C12_19  and  N5_20 
REMARK    9  A    between atoms: N9_33  and  C19_34 
REMARK   10  A    between atoms: C19_34  and  C20_35 
REMARK   11  A    between atoms: C20_35  and  N10_36 
ROOT
HETATM    1  C7  UNL     1      -0.695   0.624   0.519  1.00  0.00     0.177 C 
HETATM    2  N4  UNL     1      -0.163  -0.438   1.379  1.00  0.00    -0.346 N 
ATOM      3  H4  UNL     1      -0.837  -1.060   1.825  1.00  0.00     0.163 HD
HETATM    4  C8  UNL     1       1.188  -0.669   1.638  1.00  0.00     0.241 C 
HETATM    5  O1  UNL     1       1.503  -0.937   2.855  1.00  0.00    -0.271 OA
HETATM    6  C9  UNL     1       2.276  -0.630   0.629  1.00  0.00     0.176 C 
HETATM    7  N8  UNL     1       3.311   0.312   0.990  1.00  0.00    -0.348 N 
ATOM      8  H8  UNL     1       3.886   0.042   1.788  1.00  0.00     0.163 HD
HETATM    9  C14 UNL     1       3.637   1.533   0.408  1.00  0.00     0.218 C 
HETATM   10  O2  UNL     1       4.846   1.651  -0.021  1.00  0.00    -0.274 OA
HETATM   11  C15 UNL     1       2.754   2.720   0.222  1.00  0.00     0.106 C 
HETATM   12  C16 UNL     1       2.047   2.696  -1.095  1.00  0.00     0.038 C 
HETATM   13  C17 UNL     1       0.813   3.453  -1.230  1.00  0.00    -0.009 C 
HETATM   14  C18 UNL     1      -0.211   3.636  -0.457  1.00  0.00     0.090 C 
HETATM   15  N9  UNL     1      -0.579   3.198   0.815  1.00  0.00    -0.325 N 
HETATM   16  C21 UNL     1      -0.714   1.854   1.293  1.00  0.00     0.246 C 
HETATM   17  O3  UNL     1      -0.873   1.684   2.561  1.00  0.00    -0.271 OA
ENDROOT
BRANCH   1  18
HETATM   18  C6  UNL     1      -2.129   0.225   0.190  1.00  0.00     0.036 C 
BRANCH  18  19
HETATM   19  C5  UNL     1      -2.834   1.203  -0.688  1.00  0.00     0.022 C 
BRANCH  19  20
HETATM   20  C4  UNL     1      -4.243   0.630  -0.929  1.00  0.00     0.122 C 
BRANCH  20  21
HETATM   21  N3  UNL     1      -4.148  -0.654  -1.568  1.00  0.00    -0.365 N 
HETATM   22  C3  UNL     1      -5.162  -1.420  -1.715  1.00  0.00     0.185 C 
HETATM   23  N1  UNL     1      -4.955  -2.686  -2.370  1.00  0.00    -0.364 N 
HETATM   24  N2  UNL     1      -6.430  -1.017  -1.249  1.00  0.00    -0.064 NA
HETATM   25  C1  UNL     1      -6.100  -3.355  -2.909  1.00  0.00     0.151 C 
HETATM   26  C2  UNL     1      -3.654  -3.278  -2.490  1.00  0.00     0.151 C 
ATOM     27  H3  UNL     1      -3.241  -0.965  -1.916  1.00  0.00     0.162 HD
ENDBRANCH  20  21
ENDBRANCH  19  20
ENDBRANCH  18  19
ENDBRANCH   1  18
BRANCH  15  28
HETATM   28  C19 UNL     1      -0.899   4.206   1.836  1.00  0.00     0.158 C 
BRANCH  28  29
HETATM   29  C20 UNL     1      -2.353   4.581   1.854  1.00  0.00     0.249 C 
BRANCH  29  30
HETATM   30  N10 UNL     1      -2.831   5.155   0.644  1.00  0.00    -0.078 N 
ATOM     31 3H10 UNL     1      -2.261   5.959   0.384  1.00  0.00     0.274 HD
ATOM     32 2H10 UNL     1      -2.634   4.537  -0.144  1.00  0.00     0.274 HD
ATOM     33 1H10 UNL     1      -3.819   5.410   0.656  1.00  0.00     0.274 HD
ENDBRANCH  29  30
ENDBRANCH  28  29
ENDBRANCH  15  28
BRANCH   6  34
HETATM   34  C10 UNL     1       2.844  -2.054   0.588  1.00  0.00     0.036 C 
BRANCH  34  35
HETATM   35  C11 UNL     1       3.972  -2.164  -0.410  1.00  0.00     0.022 C 
BRANCH  35  36
HETATM   36  C12 UNL     1       4.439  -3.623  -0.346  1.00  0.00     0.122 C 
BRANCH  36  37
HETATM   37  N5  UNL     1       4.870  -3.865   1.001  1.00  0.00    -0.367 N 
HETATM   38  C13 UNL     1       6.077  -3.662   1.409  1.00  0.00     0.196 C 
HETATM   39  N6  UNL     1       7.037  -3.174   0.489  1.00  0.00    -0.067 NA
HETATM   40  N7  UNL     1       6.488  -3.904   2.744  1.00  0.00    -0.067 NA
ATOM     41  H5  UNL     1       4.186  -4.216   1.671  1.00  0.00     0.161 HD
ENDBRANCH  36  37
ENDBRANCH  35  36
ENDBRANCH  34  35
ENDBRANCH   6  34
TORSDOF 11
