REMARK  12 active torsions:
REMARK  status: ('A' for Active; 'I' for Inactive)
REMARK    1  A    between atoms: N3_4  and  C2_6 
REMARK    2  A    between atoms: C2_6  and  C3_7 
REMARK    3  A    between atoms: C3_7  and  C4_8 
REMARK    4  A    between atoms: C4_8  and  C5_9 
REMARK    5  A    between atoms: C7_14  and  C8_15 
REMARK    6  A    between atoms: C8_15  and  O2_16 
REMARK    7  A    between atoms: N5_18  and  C9_19 
REMARK    8  A    between atoms: C9_19  and  C10_20 
REMARK    9  A    between atoms: C15_26  and  C16_27 
REMARK   10  A    between atoms: C16_27  and  C17_28 
REMARK   11  A    between atoms: C17_28  and  C18_29 
REMARK   12  A    between atoms: C18_29  and  N6_30 
ROOT
HETATM    1  C5  UNL     1       1.325   0.574  -0.434  1.00  0.00     0.176 C 
HETATM    2  N4  UNL     1       1.449   0.050   0.900  1.00  0.00    -0.346 N 
ATOM      3  H4  UNL     1       1.853   0.693   1.581  1.00  0.00     0.163 HD
HETATM    4  C6  UNL     1       1.104  -1.192   1.399  1.00  0.00     0.243 C 
HETATM    5  O1  UNL     1       1.911  -1.656   2.297  1.00  0.00    -0.271 OA
HETATM    6  C7  UNL     1      -0.000  -2.101   1.115  1.00  0.00     0.202 C 
HETATM    7  N5  UNL     1      -1.007  -1.716   0.200  1.00  0.00    -0.334 N 
HETATM    8  C14 UNL     1      -1.944  -0.646   0.385  1.00  0.00     0.243 C 
HETATM    9  O3  UNL     1      -3.162  -0.869   0.104  1.00  0.00    -0.271 OA
HETATM   10  C15 UNL     1      -1.604   0.704   0.881  1.00  0.00     0.176 C 
HETATM   11  N9  UNL     1      -1.068   1.468  -0.239  1.00  0.00    -0.346 N 
ATOM     12  H9  UNL     1      -1.740   1.921  -0.858  1.00  0.00     0.163 HD
HETATM   13  C20 UNL     1       0.300   1.635  -0.540  1.00  0.00     0.241 C 
HETATM   14  O4  UNL     1       0.659   2.775  -0.925  1.00  0.00    -0.271 OA
ENDROOT
BRANCH   1  15
HETATM   15  C4  UNL     1       2.649   1.187  -0.836  1.00  0.00     0.036 C 
BRANCH  15  16
HETATM   16  C3  UNL     1       3.772   0.182  -0.818  1.00  0.00     0.022 C 
BRANCH  16  17
HETATM   17  C2  UNL     1       5.034   0.922  -1.237  1.00  0.00     0.122 C 
BRANCH  17  18
HETATM   18  N3  UNL     1       6.189   0.083  -1.265  1.00  0.00    -0.367 N 
HETATM   19  C1  UNL     1       7.332   0.426  -0.745  1.00  0.00     0.196 C 
HETATM   20  N1  UNL     1       7.546   1.667  -0.099  1.00  0.00    -0.067 NA
HETATM   21  N2  UNL     1       8.393  -0.514  -0.850  1.00  0.00    -0.067 NA
ATOM     22  H3  UNL     1       6.115  -0.830  -1.714  1.00  0.00     0.161 HD
ENDBRANCH  17  18
ENDBRANCH  16  17
ENDBRANCH  15  16
ENDBRANCH   1  15
BRANCH   6  23
HETATM   23  C8  UNL     1      -0.520  -2.626   2.460  1.00  0.00     0.199 C 
BRANCH  23  24
HETATM   24  O2  UNL     1      -1.283  -1.729   3.152  1.00  0.00    -0.398 OA
ATOM     25  H2  UNL     1      -1.605  -2.054   3.985  1.00  0.00     0.209 HD
ENDBRANCH  23  24
ENDBRANCH   6  23
BRANCH  10  26
HETATM   26  C16 UNL     1      -2.742   1.497   1.437  1.00  0.00     0.036 C 
BRANCH  26  27
HETATM   27  C17 UNL     1      -3.874   1.829   0.534  1.00  0.00     0.022 C 
BRANCH  27  28
HETATM   28  C18 UNL     1      -4.877   2.646   1.370  1.00  0.00     0.122 C 
BRANCH  28  29
HETATM   29  N6  UNL     1      -4.230   3.848   1.853  1.00  0.00    -0.367 N 
HETATM   30  C19 UNL     1      -4.085   4.890   1.115  1.00  0.00     0.196 C 
HETATM   31  N7  UNL     1      -3.436   6.019   1.685  1.00  0.00    -0.067 NA
HETATM   32  N8  UNL     1      -4.528   4.991  -0.226  1.00  0.00    -0.067 NA
ATOM     33  H6  UNL     1      -3.878   3.868   2.810  1.00  0.00     0.161 HD
ENDBRANCH  28  29
ENDBRANCH  27  28
ENDBRANCH  26  27
ENDBRANCH  10  26
BRANCH   7  34
HETATM   34  C9  UNL     1      -1.126  -2.460  -1.048  1.00  0.00     0.131 C 
BRANCH  34  35
HETATM   35  C10 UNL     1      -2.070  -3.633  -0.958  1.00  0.00     0.004 C 
HETATM   36  C11 UNL     1      -2.209  -4.399  -2.274  1.00  0.00     0.006 C 
HETATM   37  C12 UNL     1      -2.135  -5.702  -1.503  1.00  0.00     0.001 C 
HETATM   38  C13 UNL     1      -1.436  -4.919  -0.406  1.00  0.00     0.006 C 
ENDBRANCH  34  35
ENDBRANCH   7  34
TORSDOF 12
