REMARK  12 active torsions:
REMARK  status: ('A' for Active; 'I' for Inactive)
REMARK    1  A    between atoms: C2_2  and  N1_3 
REMARK    2  A    between atoms: C3_4  and  O1_5 
REMARK    3  A    between atoms: C4_7  and  C5_8 
REMARK    4  A    between atoms: C5_8  and  C6_9 
REMARK    5  A    between atoms: C6_9  and  C7_10 
REMARK    6  A    between atoms: C7_10  and  N2_11 
REMARK    7  A    between atoms: C10_20  and  C11_21 
REMARK    8  A    between atoms: C11_21  and  C12_22 
REMARK    9  A    between atoms: C16_29  and  C17_30 
REMARK   10  A    between atoms: C17_30  and  C18_31 
REMARK   11  A    between atoms: C18_31  and  C19_32 
REMARK   12  A    between atoms: C19_32  and  N7_33 
ROOT
HETATM    1  N1  UNL     1      -0.233  -1.587   0.676  1.00  0.00    -0.340 N 
HETATM    2  C3  UNL     1      -1.338  -0.749   0.914  1.00  0.00     0.163 C 
HETATM    3  C4  UNL     1      -2.331  -0.137   0.065  1.00  0.00     0.063 C 
HETATM    4  N5  UNL     1      -2.024   0.968  -0.768  1.00  0.00    -0.325 N 
ATOM      5  H5  UNL     1      -2.827   1.252  -1.330  1.00  0.00     0.169 HD
HETATM    6  C9  UNL     1      -0.930   1.754  -1.015  1.00  0.00     0.244 C 
HETATM    7  O2  UNL     1      -0.669   2.042  -2.232  1.00  0.00    -0.271 OA
HETATM    8  C10 UNL     1       0.046   2.353  -0.024  1.00  0.00     0.177 C 
HETATM    9  N6  UNL     1       1.255   2.653  -0.730  1.00  0.00    -0.346 N 
ATOM     10  H6  UNL     1       1.303   3.586  -1.139  1.00  0.00     0.163 HD
HETATM   11  C15 UNL     1       2.380   1.849  -0.939  1.00  0.00     0.240 C 
HETATM   12  O3  UNL     1       3.496   2.472  -1.029  1.00  0.00    -0.271 OA
HETATM   13  C16 UNL     1       2.377   0.350  -1.065  1.00  0.00     0.171 C 
HETATM   14  N10 UNL     1       1.493  -0.136  -0.118  1.00  0.00    -0.389 N 
ATOM     15  H10 UNL     1       1.299   0.418   0.716  1.00  0.00     0.156 HD
HETATM   16  C21 UNL     1       0.849  -1.393  -0.285  1.00  0.00     0.177 C 
HETATM   17  C22 UNL     1       0.515  -1.753  -1.689  1.00  0.00     0.055 C 
ENDROOT
BRANCH   3  18
HETATM   18  C5  UNL     1      -3.236  -1.078  -0.714  1.00  0.00     0.063 C 
BRANCH  18  19
HETATM   19  C6  UNL     1      -4.074  -1.986   0.102  1.00  0.00     0.026 C 
BRANCH  19  20
HETATM   20  C7  UNL     1      -5.024  -1.278   1.042  1.00  0.00     0.122 C 
BRANCH  20  21
HETATM   21  N2  UNL     1      -5.928  -0.434   0.323  1.00  0.00    -0.367 N 
HETATM   22  C8  UNL     1      -6.971  -0.936  -0.231  1.00  0.00     0.196 C 
HETATM   23  N3  UNL     1      -7.835  -0.066  -0.931  1.00  0.00    -0.067 NA
HETATM   24  N4  UNL     1      -7.293  -2.312  -0.175  1.00  0.00    -0.067 NA
ATOM     25  H2  UNL     1      -5.744   0.567   0.251  1.00  0.00     0.161 HD
ENDBRANCH  20  21
ENDBRANCH  19  20
ENDBRANCH  18  19
ENDBRANCH   3  18
BRANCH   2  26
HETATM   26  O1  UNL     1      -1.483  -0.475   2.191  1.00  0.00    -0.345 OA
ATOM     27  H1  UNL     1      -2.229   0.091   2.352  1.00  0.00     0.219 HD
ENDBRANCH   2  26
BRANCH   1  28
HETATM   28  C2  UNL     1      -0.094  -2.811   1.483  1.00  0.00     0.122 C 
HETATM   29  C1  UNL     1      -0.749  -4.004   0.864  1.00  0.00     0.026 C 
ENDBRANCH   1  28
BRANCH   8  30
HETATM   30  C11 UNL     1      -0.598   3.637   0.446  1.00  0.00     0.038 C 
BRANCH  30  31
HETATM   31  C12 UNL     1       0.128   4.424   1.457  1.00  0.00    -0.020 C 
HETATM   32  C13 UNL     1      -0.769   5.652   1.754  1.00  0.00     0.009 C 
HETATM   33  C14 UNL     1       1.436   5.036   1.024  1.00  0.00     0.009 C 
ENDBRANCH  30  31
ENDBRANCH   8  30
BRANCH  13  34
HETATM   34  C17 UNL     1       3.762  -0.182  -0.790  1.00  0.00     0.036 C 
BRANCH  34  35
HETATM   35  C18 UNL     1       4.291   0.109   0.578  1.00  0.00     0.022 C 
BRANCH  35  36
HETATM   36  C19 UNL     1       5.698  -0.497   0.643  1.00  0.00     0.122 C 
BRANCH  36  37
HETATM   37  N7  UNL     1       5.617  -1.903   0.420  1.00  0.00    -0.367 N 
HETATM   38  C20 UNL     1       6.175  -2.500  -0.595  1.00  0.00     0.196 C 
HETATM   39  N8  UNL     1       6.894  -1.695  -1.512  1.00  0.00    -0.067 NA
HETATM   40  N9  UNL     1       6.083  -3.893  -0.799  1.00  0.00    -0.067 NA
ATOM     41  H7  UNL     1       5.096  -2.470   1.089  1.00  0.00     0.161 HD
ENDBRANCH  36  37
ENDBRANCH  35  36
ENDBRANCH  34  35
ENDBRANCH  13  34
TORSDOF 12
