REMARK  4 active torsions:
REMARK  status: ('A' for Active; 'I' for Inactive)
REMARK    1  A    between atoms: N1_2  and  N2_3 
REMARK    2  A    between atoms: N1_2  and  C2_6 
REMARK    3  A    between atoms: C2_6  and  C3_7 
REMARK    4  A    between atoms: C5_11  and  N4_12 
ROOT
HETATM    1  C3  UNL     1      -1.793  -0.499  -0.300  1.00  0.00     0.158 C 
HETATM    2  C4  UNL     1      -1.156  -1.797  -0.665  1.00  0.00     0.166 C 
HETATM    3  N3  UNL     1       0.276  -1.641  -0.724  1.00  0.00    -0.223 N 
ATOM      4  H3  UNL     1       0.828  -2.486  -0.875  1.00  0.00     0.177 HD
HETATM    5  C5  UNL     1       0.989  -0.422  -0.592  1.00  0.00     0.691 C 
HETATM    6  N6  UNL     1       0.354   0.497   0.106  1.00  0.00    -0.136 N 
ATOM      7  H6  UNL     1       0.773   1.413   0.266  1.00  0.00     0.201 HD
HETATM    8  N7  UNL     1      -0.927   0.184   0.631  1.00  0.00    -0.114 NA
ENDROOT
BRANCH   5   9
HETATM    9  N4  UNL     1       2.259  -0.183  -1.147  1.00  0.00    -0.170 N 
HETATM   10  C6  UNL     1       3.311   0.209  -0.603  1.00  0.00     0.155 C 
HETATM   11  N5  UNL     1       4.571   0.441  -1.182  1.00  0.00    -0.370 N 
HETATM   12  S1  UNL     1       3.497   0.601   1.123  1.00  0.00    -0.092 SA
HETATM   13  C7  UNL     1       5.643   0.335  -0.251  1.00  0.00     0.132 C 
ATOM     14  H5  UNL     1       4.704   0.663  -2.169  1.00  0.00     0.161 HD
HETATM   15  C8  UNL     1       5.267   1.121   1.014  1.00  0.00     0.102 C 
ATOM     16  H4  UNL     1       2.331  -0.357  -2.149  1.00  0.00     0.186 HD
ENDBRANCH   5   9
BRANCH   1  17
HETATM   17  C2  UNL     1      -3.189  -0.697   0.213  1.00  0.00     0.106 C 
BRANCH  17  18
HETATM   18  N1  UNL     1      -3.898   0.447   0.590  1.00  0.00    -0.316 N 
HETATM   19  C1  UNL     1      -4.297   1.367  -0.389  1.00  0.00     0.176 C 
BRANCH  18  20
HETATM   20  N2  UNL     1      -4.565   0.439   1.778  1.00  0.00    -0.344 N 
ATOM     21  H22 UNL     1      -5.082   1.274   2.053  1.00  0.00     0.177 HD
ATOM     22  H21 UNL     1      -4.275  -0.231   2.491  1.00  0.00     0.177 HD
ENDBRANCH  18  20
ENDBRANCH  17  18
ENDBRANCH   1  17
TORSDOF 4
