REMARK  2 active torsions:
REMARK  status: ('A' for Active; 'I' for Inactive)
REMARK    1  A    between atoms: O1_2  and  C2_3 
REMARK    2  A    between atoms: C2_3  and  C3_4 
ROOT
HETATM    1  C3  UNL     1       1.325   0.212   0.160  1.00  0.00     0.237 C 
HETATM    2  C4  UNL     1       0.986  -1.204   0.485  1.00  0.00     0.307 C 
HETATM    3  N1  UNL     1      -0.002  -1.779  -0.387  1.00  0.00     0.087 N 
HETATM    4  C5  UNL     1       0.668  -2.836  -1.155  1.00  0.00     0.310 C 
HETATM    5  C6  UNL     1      -1.090  -2.417   0.322  1.00  0.00     0.299 C 
HETATM    6  C7  UNL     1      -2.343  -1.576   0.341  1.00  0.00     0.262 C 
HETATM    7  N2  UNL     1      -2.242  -0.428   1.199  1.00  0.00    -0.072 N 
ATOM      8  H21 UNL     1      -1.353   0.063   1.107  1.00  0.00     0.277 HD
ATOM      9  H22 UNL     1      -2.155  -0.672   2.185  1.00  0.00     0.277 HD
HETATM   10  C8  UNL     1      -3.400   0.424   0.918  1.00  0.00     0.250 C 
HETATM   11  C9  UNL     1      -3.242   1.167  -0.384  1.00  0.00     0.170 C 
HETATM   12  N3  UNL     1      -2.637   2.472  -0.153  1.00  0.00    -0.100 NA
HETATM   13  O2  UNL     1      -1.308   2.246   0.027  1.00  0.00    -0.285 OA
HETATM   14  C10 UNL     1      -0.662   2.769  -1.106  1.00  0.00     0.223 C 
HETATM   15  C11 UNL     1       0.738   2.142  -1.100  1.00  0.00     0.261 C 
HETATM   16  N4  UNL     1       0.623   0.724  -0.993  1.00  0.00    -0.065 N 
ATOM     17  H41 UNL     1      -0.354   0.430  -0.993  1.00  0.00     0.277 HD
ATOM     18  H42 UNL     1       0.929   0.262  -1.849  1.00  0.00     0.277 HD
ENDROOT
BRANCH   1  19
HETATM   19  C2  UNL     1       2.811   0.458   0.040  1.00  0.00     0.201 C 
BRANCH  19  20
HETATM   20  O1  UNL     1       3.441  -0.051   1.172  1.00  0.00    -0.394 OA
HETATM   21  C1  UNL     1       4.807   0.130   1.148  1.00  0.00     0.201 C 
ENDBRANCH  19  20
ENDBRANCH   1  19
TORSDOF 2
