REMARK  5 active torsions:
REMARK  status: ('A' for Active; 'I' for Inactive)
REMARK    1  A    between atoms: O1_1  and  C1_3 
REMARK    2  A    between atoms: N2_9  and  O3_10 
REMARK    3  A    between atoms: C6_14  and  C7_15 
REMARK    4  A    between atoms: C7_15  and  N3_16 
REMARK    5  A    between atoms: N3_16  and  C8_18 
ROOT
HETATM    1  C1  UNL     1      -1.457  -1.875   0.378  1.00  0.00     0.075 A 
HETATM    2  C2  UNL     1      -2.785  -1.516   0.564  1.00  0.00     0.071 A 
HETATM    3  C3  UNL     1      -3.190  -0.242   0.220  1.00  0.00     0.090 A 
HETATM    4  N1  UNL     1      -4.379   0.425   0.268  1.00  0.00    -0.237 N 
ATOM      5  H1  UNL     1      -5.265   0.048   0.604  1.00  0.00     0.197 HD
HETATM    6  O2  UNL     1      -4.185   1.617  -0.187  1.00  0.00    -0.128 OA
HETATM    7  N2  UNL     1      -2.969   1.820  -0.540  1.00  0.00    -0.100 N 
HETATM    8  C4  UNL     1      -2.298   0.675  -0.303  1.00  0.00     0.119 A 
HETATM    9  C5  UNL     1      -0.981   0.277  -0.473  1.00  0.00     0.048 A 
HETATM   10  C6  UNL     1      -0.544  -0.985  -0.141  1.00  0.00    -0.004 A 
ENDROOT
BRANCH  10  11
HETATM   11  C7  UNL     1       0.861  -1.439  -0.313  1.00  0.00     0.179 C 
BRANCH  11  12
HETATM   12  N3  UNL     1       1.696  -0.406  -0.863  1.00  0.00    -0.219 N 
ATOM     13  H3  UNL     1       1.592  -0.125  -1.838  1.00  0.00     0.178 HD
BRANCH  12  14
HETATM   14  C8  UNL     1       2.591   0.170  -0.101  1.00  0.00     0.709 A 
HETATM   15  N4  UNL     1       2.842  -0.091   1.193  1.00  0.00    -0.115 N 
HETATM   16  N5  UNL     1       3.820   0.721   1.560  1.00  0.00    -0.213 N 
ATOM     17  H4  UNL     1       2.370  -0.781   1.778  1.00  0.00     0.207 HD
HETATM   18  N6  UNL     1       4.197   1.481   0.561  1.00  0.00    -0.213 N 
ATOM     19  H5  UNL     1       4.226   0.751   2.495  1.00  0.00     0.210 HD
HETATM   20  N7  UNL     1       3.441   1.145  -0.468  1.00  0.00    -0.115 N 
ATOM     21  H6  UNL     1       4.929   2.191   0.576  1.00  0.00     0.210 HD
ATOM     22  H7  UNL     1       3.494   1.561  -1.398  1.00  0.00     0.207 HD
ENDBRANCH  12  14
ENDBRANCH  11  12
ENDBRANCH  10  11
BRANCH   1  23
HETATM   23  O1  UNL     1      -1.114  -3.174   0.744  1.00  0.00    -0.360 OA
ATOM     24  H1  UNL     1      -0.205  -3.420   0.617  1.00  0.00     0.217 HD
ENDBRANCH   1  23
BRANCH   7  25
HETATM   25  O3  UNL     1      -2.354   2.934  -1.067  1.00  0.00    -0.261 OA
ATOM     26  H3  UNL     1      -1.453   3.084  -1.329  1.00  0.00     0.247 HD
ENDBRANCH   7  25
TORSDOF 5
