REMARK  2 active torsions:
REMARK  status: ('A' for Active; 'I' for Inactive)
REMARK    1  A    between atoms: N1_1  and  N2_4 
REMARK       I    between atoms: N2_4  and  C1_6 
REMARK       I    between atoms: C1_6  and  N3_8 
REMARK    2  A    between atoms: N3_8  and  C2_10 
ROOT
HETATM    1  C2  UNL     1      -0.858   0.302  -0.605  1.00  0.00     0.705 A 
HETATM    2  N4  UNL     1      -1.997   0.925  -0.928  1.00  0.00    -0.128 N 
ATOM      3  H4  UNL     1      -2.177   1.449  -1.784  1.00  0.00     0.205 HD
HETATM    4  N5  UNL     1      -2.843   0.737   0.064  1.00  0.00    -0.237 N 
ATOM      5  H5  UNL     1      -3.796   1.099   0.095  1.00  0.00     0.192 HD
HETATM    6  C3  UNL     1      -2.270   0.002   1.026  1.00  0.00     0.353 A 
HETATM    7  O2  UNL     1      -2.764  -0.388   2.137  1.00  0.00    -0.245 OA
HETATM    8  N6  UNL     1      -1.027  -0.266   0.598  1.00  0.00    -0.138 N 
ATOM      9  H6  UNL     1      -0.328  -0.810   1.103  1.00  0.00     0.189 HD
ENDROOT
BRANCH   1  10
HETATM   10  N3  UNL     1       0.194   0.275  -1.347  1.00  0.00    -0.138 N 
HETATM   11  C1  UNL     1       1.391  -0.375  -1.016  1.00  0.00     0.352 C 
HETATM   12  N2  UNL     1       2.063  -0.161   0.236  1.00  0.00    -0.258 N 
HETATM   13  O1  UNL     1       1.897  -1.176  -1.843  1.00  0.00    -0.245 OA
ATOM     14  H2  UNL     1       1.666   0.485   0.918  1.00  0.00     0.191 HD
ATOM     15  H3  UNL     1       0.153   0.763  -2.242  1.00  0.00     0.189 HD
BRANCH  12  16
HETATM   16  N1  UNL     1       3.255  -0.829   0.530  1.00  0.00    -0.341 N 
ATOM     17  H12 UNL     1       3.639  -1.472  -0.163  1.00  0.00     0.177 HD
ATOM     18  H11 UNL     1       3.732  -0.677   1.419  1.00  0.00     0.177 HD
ENDBRANCH  12  16
ENDBRANCH   1  10
TORSDOF 2
