REMARK  7 active torsions:
REMARK  status: ('A' for Active; 'I' for Inactive)
REMARK    1  A    between atoms: N1_1  and  N2_4 
REMARK       I    between atoms: N2_4  and  C1_6 
REMARK    2  A    between atoms: C1_6  and  C2_8 
REMARK    3  A    between atoms: C2_8  and  N3_9 
REMARK    4  A    between atoms: C2_8  and  C3_13 
REMARK    5  A    between atoms: C3_13  and  O2_14 
REMARK    6  A    between atoms: C3_13  and  C4_16 
REMARK    7  A    between atoms: C4_16  and  C5_17 
ROOT
HETATM    1  C5  UNL     1      -0.932  -1.747   0.636  1.00  0.00     0.178 A 
HETATM    2  N4  UNL     1      -1.614  -1.317  -0.519  1.00  0.00    -0.361 N 
ATOM      3  H4  UNL     1      -1.325  -1.684  -1.426  1.00  0.00     0.162 HD
HETATM    4  C6  UNL     1      -2.583  -0.483  -0.471  1.00  0.00     0.138 A 
HETATM    5  N5  UNL     1      -3.202  -0.109  -1.633  1.00  0.00    -0.293 N 
ATOM      6  H5  UNL     1      -2.870  -0.510  -2.510  1.00  0.00     0.172 HD
HETATM    7  C7  UNL     1      -4.224   0.758  -1.675  1.00  0.00     0.328 A 
HETATM    8  O3  UNL     1      -4.746   1.055  -2.799  1.00  0.00    -0.247 OA
HETATM    9  N6  UNL     1      -4.682   1.299  -0.532  1.00  0.00    -0.273 N 
ATOM     10  H6  UNL     1      -5.460   1.957  -0.573  1.00  0.00     0.173 HD
HETATM   11  C8  UNL     1      -4.152   1.002   0.647  1.00  0.00     0.280 A 
HETATM   12  O4  UNL     1      -4.539   1.477   1.748  1.00  0.00    -0.265 OA
HETATM   13  C9  UNL     1      -3.084   0.094   0.673  1.00  0.00     0.148 A 
HETATM   14  N7  UNL     1      -2.538  -0.225   1.787  1.00  0.00    -0.318 N 
ATOM     15  H7  UNL     1      -2.889   0.189   2.651  1.00  0.00     0.169 HD
HETATM   16  C10 UNL     1      -1.468  -1.130   1.847  1.00  0.00     0.245 A 
HETATM   17  O5  UNL     1      -1.006  -1.371   3.012  1.00  0.00    -0.271 OA
ENDROOT
BRANCH   1  18
HETATM   18  C4  UNL     1       0.572  -1.651   0.538  1.00  0.00     0.069 C 
BRANCH  18  19
HETATM   19  C3  UNL     1       1.053  -0.251   0.299  1.00  0.00     0.160 C 
BRANCH  19  20
HETATM   20  C2  UNL     1       2.578  -0.307   0.224  1.00  0.00     0.304 C 
BRANCH  20  21
HETATM   21  C1  UNL     1       3.153   1.045   0.056  1.00  0.00     0.268 C 
HETATM   22  N2  UNL     1       3.962   1.345  -1.058  1.00  0.00    -0.275 N 
ATOM     23  H2  UNL     1       4.145   0.616  -1.747  1.00  0.00     0.189 HD
HETATM   24  O1  UNL     1       2.926   1.943   0.908  1.00  0.00    -0.269 OA
BRANCH  22  25
HETATM   25  N1  UNL     1       4.519   2.608  -1.246  1.00  0.00    -0.343 N 
ATOM     26  H12 UNL     1       4.326   3.325  -0.547  1.00  0.00     0.176 HD
ATOM     27  H11 UNL     1       5.105   2.825  -2.052  1.00  0.00     0.176 HD
ENDBRANCH  22  25
ENDBRANCH  20  21
BRANCH  20  28
HETATM   28  N3  UNL     1       2.995  -1.136  -0.890  1.00  0.00    -0.064 N 
ATOM     29  H33 UNL     1       2.760  -0.722  -1.792  1.00  0.00     0.275 HD
ATOM     30  H32 UNL     1       4.009  -1.155  -1.003  1.00  0.00     0.275 HD
ATOM     31  H31 UNL     1       2.598  -2.069  -0.774  1.00  0.00     0.275 HD
ENDBRANCH  20  28
ENDBRANCH  19  20
BRANCH  19  32
HETATM   32  O2  UNL     1       0.573   0.283  -0.876  1.00  0.00    -0.393 OA
ATOM     33  H2  UNL     1      -0.375   0.318  -0.829  1.00  0.00     0.210 HD
ENDBRANCH  19  32
ENDBRANCH  18  19
ENDBRANCH   1  18
TORSDOF 7
