REMARK  7 active torsions:
REMARK  status: ('A' for Active; 'I' for Inactive)
REMARK    1  A    between atoms: C3_3  and  N1_4 
REMARK    2  A    between atoms: C8_16  and  C10_19 
REMARK    3  A    between atoms: C10_19  and  N5_20 
REMARK    4  A    between atoms: C10_19  and  N8_25 
REMARK    5  A    between atoms: N8_25  and  C12_28 
REMARK    6  A    between atoms: C12_28  and  N9_29 
REMARK    7  A    between atoms: C12_28  and  O3_33 
ROOT
HETATM    1  C1  UNL     1      -3.269   1.961   2.583  1.00  0.00     0.018 C 
HETATM    2  C2  UNL     1      -2.929   0.918   2.137  1.00  0.00    -0.071 C 
HETATM    3  C3  UNL     1      -2.491  -0.348   1.598  1.00  0.00     0.179 C 
ENDROOT
BRANCH   3   4
HETATM    4  N1  UNL     1      -2.370  -0.342   0.200  1.00  0.00    -0.145 N 
HETATM    5  C4  UNL     1      -3.573  -0.355  -0.613  1.00  0.00     0.686 A 
HETATM    6  N2  UNL     1      -4.673  -0.343   0.025  1.00  0.00    -0.234 N 
HETATM    7  N3  UNL     1      -3.596  -0.379  -2.016  1.00  0.00    -0.152 N 
ATOM      8  H22 UNL     1      -4.656  -0.326   1.045  1.00  0.00     0.174 HD
ATOM      9  H21 UNL     1      -5.518  -0.352  -0.546  1.00  0.00     0.174 HD
HETATM   10  C5  UNL     1      -2.395  -0.394  -2.720  1.00  0.00     0.312 A 
ATOM     11  H3  UNL     1      -4.485  -0.385  -2.516  1.00  0.00     0.187 HD
HETATM   12  O1  UNL     1      -2.429  -0.419  -3.974  1.00  0.00    -0.263 OA
HETATM   13  C6  UNL     1      -1.126  -0.381  -1.968  1.00  0.00     0.268 A 
HETATM   14  O2  UNL     1      -0.131  -0.403  -2.711  1.00  0.00    -0.280 OA
HETATM   15  C7  UNL     1      -1.119  -0.351  -0.477  1.00  0.00     0.133 A 
HETATM   16  C8  UNL     1       0.064  -0.255   0.061  1.00  0.00     0.104 C 
HETATM   17  C9  UNL     1       0.339  -0.116   1.500  1.00  0.00     0.101 C 
HETATM   18  N4  UNL     1       0.616   0.013   2.640  1.00  0.00    -0.191 NA
BRANCH  16  19
HETATM   19  C10 UNL     1       1.390  -0.283  -0.663  1.00  0.00     0.338 C 
BRANCH  19  20
HETATM   20  N5  UNL     1       2.029  -1.521  -0.590  1.00  0.00    -0.335 N 
HETATM   21  C11 UNL     1       2.941  -2.075   0.014  1.00  0.00     0.198 C 
HETATM   22  N6  UNL     1       3.755  -1.484   1.002  1.00  0.00    -0.067 NA
HETATM   23  N7  UNL     1       3.216  -3.453  -0.304  1.00  0.00    -0.067 NA
ATOM     24  H5  UNL     1       1.602  -2.172  -1.248  1.00  0.00     0.164 HD
ENDBRANCH  19  20
BRANCH  19  25
HETATM   25  N8  UNL     1       2.283   0.764  -0.093  1.00  0.00     0.003 N 
ATOM     26  H82 UNL     1       2.414   0.640   0.911  1.00  0.00     0.285 HD
ATOM     27  H81 UNL     1       3.250   0.637  -0.393  1.00  0.00     0.285 HD
BRANCH  25  28
HETATM   28  C12 UNL     1       1.798   2.088  -0.406  1.00  0.00     0.522 C 
BRANCH  28  29
HETATM   29  N9  UNL     1       2.697   3.059   0.210  1.00  0.00    -0.027 N 
ATOM     30  H93 UNL     1       2.812   2.909   1.212  1.00  0.00     0.279 HD
ATOM     31  H92 UNL     1       3.670   2.922  -0.062  1.00  0.00     0.279 HD
ATOM     32  H91 UNL     1       2.354   3.994  -0.011  1.00  0.00     0.279 HD
ENDBRANCH  28  29
BRANCH  28  33
HETATM   33  O3  UNL     1       0.499   2.356  -0.099  1.00  0.00    -0.349 OA
ATOM     34  H3  UNL     1       0.180   3.227  -0.305  1.00  0.00     0.213 HD
ENDBRANCH  28  33
ENDBRANCH  25  28
ENDBRANCH  19  25
ENDBRANCH  16  19
ENDBRANCH   3   4
TORSDOF 7
