REMARK  7 active torsions:
REMARK  status: ('A' for Active; 'I' for Inactive)
REMARK    1  A    between atoms: N1_1  and  N2_4 
REMARK    2  A    between atoms: N2_4  and  C1_5 
REMARK    3  A    between atoms: C2_8  and  N4_9 
REMARK       I    between atoms: N4_9  and  C3_11 
REMARK    4  A    between atoms: C3_11  and  C4_13 
REMARK    5  A    between atoms: C4_13  and  N5_14 
REMARK    6  A    between atoms: C4_13  and  C5_18 
REMARK       I    between atoms: C5_18  and  N6_20 
REMARK    7  A    between atoms: N6_20  and  C6_22 
ROOT
HETATM    1  C4  UNL     1      -0.061   0.584   1.422  1.00  0.00     0.366 C 
ENDROOT
BRANCH   1   2
HETATM    2  C3  UNL     1       1.314   0.084   1.264  1.00  0.00     0.264 C 
HETATM    3  N4  UNL     1       2.259   0.658   0.379  1.00  0.00    -0.290 N 
ATOM      4  H4  UNL     1       1.993   1.462  -0.189  1.00  0.00     0.172 HD
HETATM    5  O1  UNL     1       1.651  -0.910   1.963  1.00  0.00    -0.270 OA
BRANCH   3   6
HETATM    6  C2  UNL     1       3.601   0.116   0.271  1.00  0.00     0.228 A 
HETATM    7  N3  UNL     1       4.647   0.395  -0.407  1.00  0.00    -0.314 N 
HETATM    8  C1  UNL     1       5.429  -0.648   0.144  1.00  0.00     0.351 A 
ATOM      9  H3  UNL     1       4.848   1.115  -1.101  1.00  0.00     0.167 HD
HETATM   10  O4  UNL     1       4.277  -0.927   0.867  1.00  0.00    -0.279 OA
BRANCH   8  11
HETATM   11  N2  UNL     1       5.831  -1.642  -0.830  1.00  0.00    -0.094 NA
BRANCH  11  12
HETATM   12  N1  UNL     1       6.584  -0.978  -1.806  1.00  0.00    -0.344 N 
ATOM     13  H12 UNL     1       6.800   0.019  -1.816  1.00  0.00     0.172 HD
ATOM     14  H11 UNL     1       6.867  -1.678  -2.492  1.00  0.00     0.172 HD
ENDBRANCH  11  12
ENDBRANCH   8  11
ENDBRANCH   3   6
ENDBRANCH   1   2
BRANCH   1  15
HETATM   15  N5  UNL     1      -0.819  -0.169   2.382  1.00  0.00    -0.058 N 
ATOM     16  H53 UNL     1      -0.815  -1.163   2.152  1.00  0.00     0.275 HD
ATOM     17  H52 UNL     1      -0.338  -0.205   3.281  1.00  0.00     0.275 HD
ATOM     18  H51 UNL     1      -1.772   0.178   2.492  1.00  0.00     0.275 HD
ENDBRANCH   1  15
BRANCH   1  19
HETATM   19  C5  UNL     1      -0.741   0.444   0.086  1.00  0.00     0.263 C 
HETATM   20  O2  UNL     1      -0.282   1.011  -0.950  1.00  0.00    -0.270 OA
HETATM   21  N6  UNL     1      -1.918  -0.322  -0.084  1.00  0.00    -0.309 N 
ATOM     22  H6  UNL     1      -1.855  -1.339  -0.028  1.00  0.00     0.170 HD
BRANCH  21  23
HETATM   23  C6  UNL     1      -3.064   0.215  -0.306  1.00  0.00     0.137 A 
HETATM   24  N7  UNL     1      -3.187   1.548  -0.387  1.00  0.00    -0.293 N 
HETATM   25  C7  UNL     1      -4.392   2.078  -0.620  1.00  0.00     0.325 A 
ATOM     26  H7  UNL     1      -2.371   2.150  -0.272  1.00  0.00     0.172 HD
HETATM   27  O3  UNL     1      -4.518   3.322  -0.698  1.00  0.00    -0.247 OA
HETATM   28  N8  UNL     1      -5.500   1.329  -0.778  1.00  0.00    -0.317 N 
HETATM   29  C8  UNL     1      -5.411  -0.007  -0.702  1.00  0.00     0.123 A 
ATOM     30  H8  UNL     1      -6.400   1.775  -0.954  1.00  0.00     0.170 HD
HETATM   31  C9  UNL     1      -4.180  -0.562  -0.464  1.00  0.00     0.106 A 
HETATM   32  N9  UNL     1      -4.109  -1.993  -0.388  1.00  0.00    -0.097 NA
ENDBRANCH  21  23
ENDBRANCH   1  19
TORSDOF 7
