REMARK  8 active torsions:
REMARK  status: ('A' for Active; 'I' for Inactive)
REMARK    1  A    between atoms: N1_1  and  N2_4 
REMARK       I    between atoms: N2_4  and  C1_6 
REMARK    2  A    between atoms: C1_6  and  C2_8 
REMARK    3  A    between atoms: N4_11  and  C3_12 
REMARK    4  A    between atoms: C3_12  and  C4_13 
REMARK       I    between atoms: C4_13  and  N5_15 
REMARK    5  A    between atoms: N5_15  and  N6_17 
REMARK       I    between atoms: N6_17  and  C5_19 
REMARK    6  A    between atoms: C5_19  and  C6_21 
REMARK    7  A    between atoms: C6_21  and  N7_22 
REMARK    8  A    between atoms: C6_21  and  O4_26 
ROOT
HETATM    1  C2  UNL     1       2.892   0.211  -0.598  1.00  0.00     0.186 A 
HETATM    2  N3  UNL     1       2.001  -0.733  -0.350  1.00  0.00    -0.284 N 
ATOM      3  H3  UNL     1       1.906  -1.059   0.612  1.00  0.00     0.187 HD
HETATM    4  N4  UNL     1       1.223  -1.283  -1.270  1.00  0.00    -0.233 N 
HETATM    5  C7  UNL     1       1.323  -0.873  -2.549  1.00  0.00     0.344 A 
HETATM    6  O5  UNL     1       0.623  -1.341  -3.483  1.00  0.00    -0.245 OA
HETATM    7  N8  UNL     1       2.224   0.092  -2.843  1.00  0.00    -0.272 N 
ATOM      8  H8  UNL     1       2.308   0.408  -3.809  1.00  0.00     0.174 HD
HETATM    9  C8  UNL     1       3.022   0.656  -1.897  1.00  0.00     0.283 A 
HETATM   10  O6  UNL     1       3.863   1.556  -2.172  1.00  0.00    -0.265 OA
ENDROOT
BRANCH   4  11
HETATM   11  C3  UNL     1       0.254  -2.315  -0.976  1.00  0.00     0.258 C 
BRANCH  11  12
HETATM   12  C4  UNL     1      -1.076  -1.818  -0.624  1.00  0.00     0.256 C 
HETATM   13  O2  UNL     1      -1.996  -2.623  -0.347  1.00  0.00    -0.270 OA
HETATM   14  N5  UNL     1      -1.395  -0.438  -0.578  1.00  0.00    -0.266 N 
ATOM     15  H5  UNL     1      -0.661   0.235  -0.800  1.00  0.00     0.190 HD
BRANCH  14  16
HETATM   16  N6  UNL     1      -2.653   0.048  -0.247  1.00  0.00    -0.264 N 
HETATM   17  C5  UNL     1      -3.155   0.117   1.066  1.00  0.00     0.292 C 
HETATM   18  O3  UNL     1      -2.443  -0.279   2.015  1.00  0.00    -0.267 OA
ATOM     19  H6  UNL     1      -3.252   0.376  -1.005  1.00  0.00     0.190 HD
BRANCH  17  20
HETATM   20  C6  UNL     1      -4.501   0.645   1.339  1.00  0.00     0.411 C 
BRANCH  20  21
HETATM   21  N7  UNL     1      -4.517   1.718   2.289  1.00  0.00    -0.044 N 
ATOM     22  H73 UNL     1      -4.057   1.438   3.156  1.00  0.00     0.278 HD
ATOM     23  H72 UNL     1      -3.889   2.467   1.997  1.00  0.00     0.278 HD
ATOM     24  H71 UNL     1      -5.450   2.084   2.478  1.00  0.00     0.278 HD
ENDBRANCH  20  21
BRANCH  20  25
HETATM   25  O4  UNL     1      -5.125   1.014   0.144  1.00  0.00    -0.363 OA
ATOM     26  H4  UNL     1      -5.994   1.355   0.320  1.00  0.00     0.212 HD
ENDBRANCH  20  25
ENDBRANCH  17  20
ENDBRANCH  14  16
ENDBRANCH  11  12
ENDBRANCH   4  11
BRANCH   1  27
HETATM   27  C1  UNL     1       3.760   0.818   0.431  1.00  0.00     0.293 C 
HETATM   28  N2  UNL     1       3.655   0.388   1.774  1.00  0.00    -0.271 N 
ATOM     29  H2  UNL     1       2.986  -0.335   2.039  1.00  0.00     0.189 HD
HETATM   30  O1  UNL     1       4.586   1.705   0.134  1.00  0.00    -0.264 OA
BRANCH  28  31
HETATM   31  N1  UNL     1       4.488   0.975   2.732  1.00  0.00    -0.342 N 
ATOM     32  H12 UNL     1       5.152   1.697   2.451  1.00  0.00     0.176 HD
ATOM     33  H11 UNL     1       4.412   0.665   3.701  1.00  0.00     0.176 HD
ENDBRANCH  28  31
ENDBRANCH   1  27
TORSDOF 8
