REMARK  16 active torsions:
REMARK  status: ('A' for Active; 'I' for Inactive)
REMARK    1  A    between atoms: O1_2  and  C2_3 
REMARK    2  A    between atoms: C2_3  and  C3_5 
REMARK    3  A    between atoms: C3_5  and  O3_6 
REMARK    4  A    between atoms: C3_5  and  C4_8 
REMARK       I    between atoms: C4_8  and  N1_10 
REMARK    5  A    between atoms: N1_10  and  C5_12 
REMARK    6  A    between atoms: C5_12  and  O5_13 
REMARK    7  A    between atoms: C5_12  and  C6_15 
REMARK    8  A    between atoms: C5_12  and  C7_22 
REMARK    9  A    between atoms: C6_15  and  N2_16 
REMARK   10  A    between atoms: C6_15  and  O6_20 
REMARK   11  A    between atoms: C8_23  and  O7_24 
REMARK   12  A    between atoms: C9_26  and  N3_27 
REMARK   13  A    between atoms: C10_31  and  C11_32 
REMARK   14  A    between atoms: C11_32  and  N4_33 
REMARK   15  A    between atoms: C11_32  and  O8_37 
REMARK   16  A    between atoms: N6_41  and  C12_42 
ROOT
HETATM    1  C7  UNL     1      -0.547  -0.554   1.589  1.00  0.00     0.200 C 
HETATM    2  C8  UNL     1      -0.732  -2.064   1.494  1.00  0.00     0.180 C 
HETATM    3  C9  UNL     1      -0.848  -2.587   0.107  1.00  0.00     0.242 C 
HETATM    4  C10 UNL     1      -1.976  -1.830  -0.557  1.00  0.00     0.188 C 
HETATM    5  N5  UNL     1      -1.726  -0.435  -0.520  1.00  0.00    -0.321 N 
ATOM      6  H5  UNL     1      -1.764   0.136  -1.364  1.00  0.00     0.181 HD
HETATM    7  N6  UNL     1      -1.427   0.118   0.715  1.00  0.00    -0.263 N 
ENDROOT
BRANCH   1   8
HETATM    8  C5  UNL     1       0.896  -0.262   1.604  1.00  0.00     0.211 C 
BRANCH   8   9
HETATM    9  N1  UNL     1       1.621  -0.638   0.441  1.00  0.00    -0.321 N 
HETATM   10  C4  UNL     1       1.809   0.053  -0.764  1.00  0.00     0.258 C 
HETATM   11  O4  UNL     1       1.314   1.179  -0.953  1.00  0.00    -0.270 OA
ATOM     12  H1  UNL     1       2.074  -1.551   0.491  1.00  0.00     0.165 HD
BRANCH  10  13
HETATM   13  C3  UNL     1       2.607  -0.507  -1.889  1.00  0.00     0.309 C 
BRANCH  13  14
HETATM   14  C2  UNL     1       3.683   0.429  -2.313  1.00  0.00     0.296 C 
HETATM   15  O2  UNL     1       3.481   1.609  -2.636  1.00  0.00    -0.262 OA
BRANCH  14  16
HETATM   16  O1  UNL     1       4.978  -0.047  -2.348  1.00  0.00    -0.324 OA
HETATM   17  C1  UNL     1       6.060   0.790  -2.744  1.00  0.00     0.213 C 
ENDBRANCH  14  16
ENDBRANCH  13  14
BRANCH  13  18
HETATM   18  O3  UNL     1       3.118  -1.764  -1.586  1.00  0.00    -0.377 OA
ATOM     19  H3  UNL     1       2.431  -2.362  -1.315  1.00  0.00     0.211 HD
ENDBRANCH  13  18
ENDBRANCH  10  13
ENDBRANCH   8   9
BRANCH   8  20
HETATM   20  O5  UNL     1       1.376  -1.207   2.620  1.00  0.00    -0.365 OA
ATOM     21  H5  UNL     1       0.891  -0.956   3.397  1.00  0.00     0.212 HD
ENDBRANCH   8  20
BRANCH   8  22
HETATM   22  C6  UNL     1       1.313   1.040   2.245  1.00  0.00     0.374 C 
BRANCH  22  23
HETATM   23  N2  UNL     1       2.752   1.105   2.437  1.00  0.00    -0.048 N 
ATOM     24  H23 UNL     1       3.094   0.303   2.966  1.00  0.00     0.277 HD
ATOM     25  H22 UNL     1       3.252   0.943   1.563  1.00  0.00     0.277 HD
ATOM     26  H21 UNL     1       3.034   1.985   2.870  1.00  0.00     0.277 HD
ENDBRANCH  22  23
BRANCH  22  27
HETATM   27  O6  UNL     1       0.910   2.182   1.619  1.00  0.00    -0.366 OA
ATOM     28  H6  UNL     1       1.172   3.001   2.022  1.00  0.00     0.212 HD
ENDBRANCH  22  27
ENDBRANCH   8  22
ENDBRANCH   1   8
BRANCH   2  29
HETATM   29  O7  UNL     1      -1.968  -2.326   2.133  1.00  0.00    -0.391 OA
ATOM     30  H7  UNL     1      -2.083  -3.267   2.074  1.00  0.00     0.210 HD
ENDBRANCH   2  29
BRANCH   7  31
HETATM   31  C12 UNL     1      -2.083   1.363   0.992  1.00  0.00     0.196 A 
HETATM   32  N7  UNL     1      -2.558   1.763   2.119  1.00  0.00    -0.288 N 
HETATM   33  C13 UNL     1      -3.142   3.031   2.063  1.00  0.00     0.330 A 
ATOM     34  H7  UNL     1      -2.512   1.207   2.973  1.00  0.00     0.172 HD
HETATM   35  O9  UNL     1      -3.678   3.653   3.024  1.00  0.00    -0.246 OA
HETATM   36  N8  UNL     1      -3.011   3.472   0.728  1.00  0.00    -0.268 N 
HETATM   37  C14 UNL     1      -3.472   4.739   0.191  1.00  0.00     0.165 C 
HETATM   38  C15 UNL     1      -2.342   2.427   0.035  1.00  0.00     0.297 A 
HETATM   39  O10 UNL     1      -2.059   2.487  -1.190  1.00  0.00    -0.264 OA
ENDBRANCH   7  31
BRANCH   3  40
HETATM   40  N3  UNL     1      -1.243  -3.983   0.197  1.00  0.00    -0.070 N 
ATOM     41  H33 UNL     1      -0.615  -4.537   0.779  1.00  0.00     0.274 HD
ATOM     42  H32 UNL     1      -2.091  -4.121   0.746  1.00  0.00     0.274 HD
ATOM     43  H31 UNL     1      -1.323  -4.342  -0.754  1.00  0.00     0.274 HD
ENDBRANCH   3  40
BRANCH   4  44
HETATM   44  C11 UNL     1      -2.186  -2.242  -1.992  1.00  0.00     0.342 C 
BRANCH  44  45
HETATM   45  N4  UNL     1      -3.305  -1.468  -2.502  1.00  0.00    -0.051 N 
ATOM     46  H43 UNL     1      -4.146  -1.560  -1.933  1.00  0.00     0.277 HD
ATOM     47  H42 UNL     1      -3.179  -0.462  -2.390  1.00  0.00     0.277 HD
ATOM     48  H41 UNL     1      -3.447  -1.747  -3.473  1.00  0.00     0.277 HD
ENDBRANCH  44  45
BRANCH  44  49
HETATM   49  O8  UNL     1      -1.093  -1.980  -2.800  1.00  0.00    -0.368 OA
ATOM     50  H8  UNL     1      -1.225  -2.240  -3.704  1.00  0.00     0.212 HD
ENDBRANCH  44  49
ENDBRANCH   4  44
TORSDOF 16
