REMARK  6 active torsions:
REMARK  status: ('A' for Active; 'I' for Inactive)
REMARK    1  A    between atoms: N1_2  and  C3_4 
REMARK    2  A    between atoms: C4_7  and  N3_8 
REMARK    3  A    between atoms: N3_8  and  N4_9 
REMARK    4  A    between atoms: C6_15  and  C7_16 
REMARK       I    between atoms: C7_16  and  N7_18 
REMARK       I    between atoms: N7_18  and  C8_20 
REMARK    5  A    between atoms: C9_25  and  N10_26 
REMARK    6  A    between atoms: N10_26  and  O2_28 
ROOT
HETATM    1  N3  UNL     1       0.278  -1.345  -0.753  1.00  0.00    -0.294 NA
ENDROOT
BRANCH   1   2
HETATM    2  C4  UNL     1      -0.642  -0.622  -0.771  1.00  0.00     0.250 A 
HETATM    3  N2  UNL     1      -1.346  -0.227   0.342  1.00  0.00    -0.160 N 
HETATM    4  C3  UNL     1      -2.390   0.597   0.302  1.00  0.00     0.683 A 
ATOM      5  H2  UNL     1      -1.051  -0.586   1.250  1.00  0.00     0.187 HD
HETATM    6  N12 UNL     1      -2.788   1.075  -0.882  1.00  0.00    -0.176 N 
HETATM    7  C10 UNL     1      -2.185   0.768  -2.055  1.00  0.00     0.165 A 
ATOM      8  H12 UNL     1      -3.590   1.705  -0.903  1.00  0.00     0.185 HD
HETATM    9  C9  UNL     1      -1.115  -0.081  -1.981  1.00  0.00     0.156 A 
HETATM   10  N11 UNL     1      -2.647   1.302  -3.279  1.00  0.00    -0.079 NA
BRANCH   4  11
HETATM   11  N1  UNL     1      -3.100   0.985   1.492  1.00  0.00    -0.226 N 
HETATM   12  C1  UNL     1      -2.712   0.503   2.787  1.00  0.00     0.168 C 
HETATM   13  C2  UNL     1      -4.229   1.878   1.396  1.00  0.00     0.168 C 
ENDBRANCH   4  11
BRANCH   9  14
HETATM   14  N10 UNL     1      -0.426  -0.455  -3.156  1.00  0.00    -0.261 N 
ATOM     15  H10 UNL     1       0.583  -0.599  -3.114  1.00  0.00     0.194 HD
BRANCH  14  16
HETATM   16  O2  UNL     1      -1.016  -0.615  -4.246  1.00  0.00    -0.289 OA
ATOM     17  H2  UNL     1      -0.553  -0.867  -5.036  1.00  0.00     0.244 HD
ENDBRANCH  14  16
ENDBRANCH   9  14
ENDBRANCH   1   2
BRANCH   1  18
HETATM   18  N4  UNL     1       1.311  -2.155  -0.743  1.00  0.00    -0.160 N 
HETATM   19  C5  UNL     1       1.354  -3.440  -1.161  1.00  0.00     0.239 A 
HETATM   20  N5  UNL     1       2.571  -3.912  -0.988  1.00  0.00    -0.291 N 
HETATM   21  N6  UNL     1       3.303  -2.956  -0.468  1.00  0.00    -0.278 N 
ATOM     22  H5  UNL     1       2.888  -4.854  -1.218  1.00  0.00     0.188 HD
HETATM   23  C6  UNL     1       2.575  -1.859  -0.299  1.00  0.00     0.224 A 
ATOM     24  H6  UNL     1       4.290  -3.043  -0.228  1.00  0.00     0.189 HD
BRANCH  23  25
HETATM   25  C7  UNL     1       3.000  -0.559   0.252  1.00  0.00     0.296 C 
HETATM   26  O1  UNL     1       2.154   0.372   0.333  1.00  0.00    -0.264 OA
HETATM   27  N7  UNL     1       4.347  -0.416   0.666  1.00  0.00    -0.295 N 
HETATM   28  C8  UNL     1       4.842   0.810   1.212  1.00  0.00     0.188 C 
ATOM     29  H7  UNL     1       4.982  -1.209   0.572  1.00  0.00     0.171 HD
HETATM   30  N8  UNL     1       6.076   0.856   1.563  1.00  0.00    -0.373 N 
HETATM   31  N9  UNL     1       4.049   1.970   1.384  1.00  0.00    -0.064 NA
ATOM     32  H82 UNL     1       6.647   0.020   1.439  1.00  0.00     0.158 HD
ATOM     33  H81 UNL     1       6.429   1.730   1.952  1.00  0.00     0.158 HD
ENDBRANCH  23  25
ENDBRANCH   1  18
TORSDOF 6
