REMARK  5 active torsions:
REMARK  status: ('A' for Active; 'I' for Inactive)
REMARK    1  A    between atoms: N1_1  and  N2_4 
REMARK       I    between atoms: N2_4  and  C1_5 
REMARK       I    between atoms: C1_5  and  N3_7 
REMARK    2  A    between atoms: N7_17  and  C5_19 
REMARK    3  A    between atoms: C5_19  and  C6_20 
REMARK    4  A    between atoms: N8_21  and  N9_23 
REMARK    5  A    between atoms: N9_23  and  C7_25 
ROOT
HETATM    1  N2  UNL     1      -4.713  -2.712   0.409  1.00  0.00    -0.271 NA
HETATM    2  C1  UNL     1      -3.757  -1.809   0.233  1.00  0.00     0.439 C 
HETATM    3  O1  UNL     1      -2.593  -2.039  -0.233  1.00  0.00    -0.226 OA
HETATM    4  N3  UNL     1      -3.997  -0.410   0.583  1.00  0.00    -0.170 N 
HETATM    5  N4  UNL     1      -5.323   0.004   0.868  1.00  0.00    -0.283 N 
ATOM      6  H4  UNL     1      -6.097  -0.661   0.876  1.00  0.00     0.188 HD
HETATM    7  C2  UNL     1      -5.529   1.377   1.141  1.00  0.00     0.199 A 
HETATM    8  N5  UNL     1      -4.551   2.225   1.132  1.00  0.00    -0.334 N 
ATOM      9  H5  UNL     1      -4.755   3.204   1.334  1.00  0.00     0.168 HD
HETATM   10  C3  UNL     1      -3.213   1.859   0.855  1.00  0.00     0.169 A 
HETATM   11  N6  UNL     1      -2.067   2.520   0.793  1.00  0.00    -0.173 N 
ATOM     12  H6  UNL     1      -1.952   3.522   0.948  1.00  0.00     0.186 HD
HETATM   13  C4  UNL     1      -1.064   1.643   0.488  1.00  0.00     0.681 A 
HETATM   14  N7  UNL     1       0.163   1.936   0.303  1.00  0.00    -0.221 N 
ATOM     15  H7  UNL     1       0.412   2.921   0.388  1.00  0.00     0.178 HD
HETATM   16  N13 UNL     1      -1.627   0.430   0.366  1.00  0.00    -0.171 N 
ATOM     17  H13 UNL     1      -1.125  -0.430   0.144  1.00  0.00     0.186 HD
HETATM   18  C9  UNL     1      -2.942   0.517   0.578  1.00  0.00     0.193 A 
ENDROOT
BRANCH  14  19
HETATM   19  C5  UNL     1       1.220   1.043  -0.008  1.00  0.00     0.184 C 
BRANCH  19  20
HETATM   20  C6  UNL     1       2.440   1.874  -0.258  1.00  0.00     0.100 C 
HETATM   21  N8  UNL     1       3.562   1.366  -0.512  1.00  0.00    -0.300 N 
ATOM     22  H8  UNL     1       4.334   2.014  -0.668  1.00  0.00     0.186 HD
BRANCH  21  23
HETATM   23  N9  UNL     1       3.853   0.030  -0.601  1.00  0.00    -0.131 N 
ATOM     24  H9  UNL     1       3.140  -0.693  -0.503  1.00  0.00     0.205 HD
BRANCH  23  25
HETATM   25  C7  UNL     1       5.120  -0.252  -0.822  1.00  0.00     0.719 A 
HETATM   26  N10 UNL     1       6.144   0.641  -0.969  1.00  0.00    -0.153 N 
HETATM   27  C8  UNL     1       7.266  -0.026  -1.183  1.00  0.00     0.271 A 
ATOM     28  H10 UNL     1       6.057   1.656  -0.921  1.00  0.00     0.187 HD
HETATM   29  N11 UNL     1       8.525   0.635  -1.383  1.00  0.00    -0.054 NA
HETATM   30  O2  UNL     1       6.976  -1.289  -1.174  1.00  0.00    -0.189 OA
HETATM   31  N12 UNL     1       5.695  -1.453  -0.960  1.00  0.00    -0.087 N 
ATOM     32  H12 UNL     1       5.213  -2.350  -0.907  1.00  0.00     0.214 HD
ENDBRANCH  23  25
ENDBRANCH  21  23
ENDBRANCH  19  20
ENDBRANCH  14  19
BRANCH   1  33
HETATM   33  N1  UNL     1      -5.683  -3.630   0.588  1.00  0.00    -0.275 N 
ATOM     34  H12 UNL     1      -4.914  -2.971   0.462  1.00  0.00     0.191 HD
ATOM     35  H11 UNL     1      -6.418  -4.324   0.723  1.00  0.00     0.191 HD
ENDBRANCH   1  33
TORSDOF 5
