REMARK  6 active torsions:
REMARK  status: ('A' for Active; 'I' for Inactive)
REMARK    1  A    between atoms: N1_1  and  C1_4 
REMARK    2  A    between atoms: C4_14  and  S1_15 
REMARK    3  A    between atoms: S1_15  and  C5_16 
REMARK    4  A    between atoms: C5_16  and  C6_17 
REMARK    5  A    between atoms: C7_22  and  C8_23 
REMARK       I    between atoms: C8_23  and  N7_25 
REMARK    6  A    between atoms: N7_25  and  N8_26 
ROOT
HETATM    1  C1  UNL     1      -5.022  -0.012   0.412  1.00  0.00     0.694 A 
HETATM    2  N2  UNL     1      -5.364   1.093  -0.273  1.00  0.00    -0.152 N 
ATOM      3  H2  UNL     1      -6.272   1.539  -0.144  1.00  0.00     0.188 HD
HETATM    4  C2  UNL     1      -4.453   1.588  -1.140  1.00  0.00     0.307 A 
HETATM    5  O1  UNL     1      -4.724   2.611  -1.801  1.00  0.00    -0.263 OA
HETATM    6  C3  UNL     1      -3.226   0.957  -1.292  1.00  0.00     0.214 A 
HETATM    7  N3  UNL     1      -2.140   1.216  -2.067  1.00  0.00    -0.277 N 
ATOM      8  H3  UNL     1      -2.047   1.991  -2.723  1.00  0.00     0.189 HD
HETATM    9  N4  UNL     1      -1.225   0.292  -1.826  1.00  0.00    -0.277 N 
ATOM     10  H4  UNL     1      -0.308   0.243  -2.270  1.00  0.00     0.189 HD
HETATM   11  C4  UNL     1      -1.680  -0.559  -0.922  1.00  0.00     0.183 A 
HETATM   12  N10 UNL     1      -2.915  -0.144  -0.595  1.00  0.00    -0.195 N 
HETATM   13  N11 UNL     1      -3.829  -0.616   0.256  1.00  0.00    -0.122 N 
ATOM     14  H11 UNL     1      -3.619  -1.453   0.800  1.00  0.00     0.206 HD
ENDROOT
BRANCH  11  15
HETATM   15  S1  UNL     1      -0.865  -1.972  -0.249  1.00  0.00    -0.083 SA
BRANCH  15  16
HETATM   16  C5  UNL     1       0.097  -1.642   1.209  1.00  0.00     0.160 C 
BRANCH  16  17
HETATM   17  C6  UNL     1       1.311  -0.859   0.847  1.00  0.00     0.107 A 
HETATM   18  N5  UNL     1       1.489   0.450   0.706  1.00  0.00    -0.286 N 
HETATM   19  N6  UNL     1       2.773   0.711   0.412  1.00  0.00    -0.279 N 
ATOM     20  H5  UNL     1       0.757   1.154   0.806  1.00  0.00     0.188 HD
HETATM   21  C7  UNL     1       3.391  -0.464   0.373  1.00  0.00     0.207 A 
ATOM     22  H6  UNL     1       3.190   1.628   0.251  1.00  0.00     0.189 HD
HETATM   23  N9  UNL     1       2.531  -1.426   0.631  1.00  0.00    -0.324 N 
ATOM     24  H9  UNL     1       2.741  -2.424   0.664  1.00  0.00     0.169 HD
BRANCH  21  25
HETATM   25  C8  UNL     1       4.836  -0.656   0.115  1.00  0.00     0.380 C 
HETATM   26  O2  UNL     1       5.167  -1.891   0.066  1.00  0.00    -0.246 OA
HETATM   27  N7  UNL     1       5.651   0.403  -0.035  1.00  0.00    -0.285 NA
BRANCH  27  28
HETATM   28  N8  UNL     1       6.434   1.419  -0.180  1.00  0.00    -0.276 N 
ATOM     29  H82 UNL     1       5.841   0.592  -0.106  1.00  0.00     0.191 HD
ATOM     30  H81 UNL     1       7.052   2.222  -0.294  1.00  0.00     0.191 HD
ENDBRANCH  27  28
ENDBRANCH  21  25
ENDBRANCH  16  17
ENDBRANCH  15  16
ENDBRANCH  11  15
BRANCH   1  31
HETATM   31  N1  UNL     1      -5.874  -0.498   1.247  1.00  0.00    -0.233 N 
ATOM     32  H12 UNL     1      -6.778  -0.040   1.365  1.00  0.00     0.174 HD
ATOM     33  H11 UNL     1      -5.615  -1.336   1.767  1.00  0.00     0.174 HD
ENDBRANCH   1  31
TORSDOF 6
