REMARK  6 active torsions:
REMARK  status: ('A' for Active; 'I' for Inactive)
REMARK       I    between atoms: N1_2  and  C2_4 
REMARK    1  A    between atoms: C2_4  and  C3_6 
REMARK    2  A    between atoms: C4_7  and  C5_8 
REMARK    3  A    between atoms: C5_8  and  C7_16 
REMARK    4  A    between atoms: N2_9  and  N3_11 
REMARK       I    between atoms: N3_11  and  C6_13 
REMARK    5  A    between atoms: N8_23  and  C8_24 
REMARK    6  A    between atoms: C9_30  and  N11_31 
ROOT
HETATM    1  C3  UNL     1      -0.684   0.533   0.266  1.00  0.00     0.158 A 
HETATM    2  C4  UNL     1       0.533   1.155   0.195  1.00  0.00     0.117 A 
HETATM    3  N6  UNL     1       0.523   2.146   1.158  1.00  0.00    -0.281 N 
ATOM      4  H6  UNL     1       1.285   2.793   1.360  1.00  0.00     0.188 HD
HETATM    5  N7  UNL     1      -0.608   2.110   1.751  1.00  0.00    -0.233 N 
ATOM      6  H7  UNL     1      -0.876   2.738   2.509  1.00  0.00     0.209 HD
HETATM    7  N8  UNL     1      -1.400   1.147   1.257  1.00  0.00    -0.212 N 
ENDROOT
BRANCH   2   8
HETATM    8  C5  UNL     1       1.688   0.868  -0.646  1.00  0.00     0.144 C 
HETATM    9  N2  UNL     1       1.710  -0.084  -1.455  1.00  0.00    -0.290 N 
ATOM     10  H2  UNL     1       0.888  -0.684  -1.529  1.00  0.00     0.187 HD
BRANCH   9  11
HETATM   11  N3  UNL     1       2.808  -0.357  -2.256  1.00  0.00    -0.253 N 
HETATM   12  C6  UNL     1       3.694  -1.444  -1.972  1.00  0.00     0.347 C 
HETATM   13  N4  UNL     1       4.818  -1.722  -2.793  1.00  0.00    -0.038 NA
HETATM   14  O2  UNL     1       3.419  -2.141  -0.949  1.00  0.00    -0.249 OA
ATOM     15  H3  UNL     1       2.989   0.232  -3.069  1.00  0.00     0.191 HD
ENDBRANCH   9  11
BRANCH   8  16
HETATM   16  C7  UNL     1       2.875   1.729  -0.545  1.00  0.00     0.285 C 
HETATM   17  N5  UNL     1       2.880   2.831   0.375  1.00  0.00    -0.056 NA
HETATM   18  O3  UNL     1       3.913   1.557  -1.233  1.00  0.00    -0.269 OA
ENDBRANCH   8  16
ENDBRANCH   2   8
BRANCH   1  19
HETATM   19  C2  UNL     1      -1.221  -0.514  -0.575  1.00  0.00     0.272 C 
HETATM   20  N1  UNL     1      -2.063  -1.576  -0.127  1.00  0.00    -0.360 N 
HETATM   21  C1  UNL     1      -2.580  -2.600  -1.032  1.00  0.00     0.149 C 
ATOM     22  H1  UNL     1      -2.313  -1.622   0.861  1.00  0.00     0.162 HD
HETATM   23  O1  UNL     1      -0.963  -0.554  -1.805  1.00  0.00    -0.266 OA
ENDBRANCH   1  19
BRANCH   7  24
HETATM   24  C8  UNL     1      -2.721   0.862   1.673  1.00  0.00     0.196 A 
HETATM   25  N9  UNL     1      -3.800   0.937   0.877  1.00  0.00    -0.220 N 
HETATM   26  O4  UNL     1      -4.876   0.630   1.573  1.00  0.00    -0.153 OA
ATOM     27  H9  UNL     1      -3.788   1.191  -0.111  1.00  0.00     0.198 HD
HETATM   28  N10 UNL     1      -4.550   0.353   2.798  1.00  0.00    -0.222 N 
HETATM   29  C9  UNL     1      -3.201   0.487   2.908  1.00  0.00     0.169 A 
ATOM     30  H10 UNL     1      -5.191   0.083   3.545  1.00  0.00     0.198 HD
BRANCH  29  31
HETATM   31  N11 UNL     1      -2.469   0.307   3.945  1.00  0.00    -0.381 N 
ATOM     32 2H11 UNL     1      -1.457   0.407   4.027  1.00  0.00     0.157 HD
ATOM     33 1H11 UNL     1      -2.825   0.029   4.860  1.00  0.00     0.157 HD
ENDBRANCH  29  31
ENDBRANCH   7  24
TORSDOF 6
