REMARK  7 active torsions:
REMARK  status: ('A' for Active; 'I' for Inactive)
REMARK    1  A    between atoms: O1_2  and  C2_3 
REMARK       I    between atoms: C2_3  and  N1_5 
REMARK    2  A    between atoms: C3_7  and  C4_9 
REMARK    3  A    between atoms: C4_9  and  N3_10 
REMARK    4  A    between atoms: C4_9  and  C8_28 
REMARK    5  A    between atoms: N3_10  and  N4_12 
REMARK    6  A    between atoms: C7_22  and  N8_23 
REMARK    7  A    between atoms: N8_23  and  N9_25 
ROOT
HETATM    1  N4  UNL     1      -2.068   0.220   0.118  1.00  0.00    -0.073 N 
HETATM    2  C5  UNL     1      -2.665   1.201  -0.698  1.00  0.00     0.134 C 
HETATM    3  N5  UNL     1      -2.303   2.417  -0.692  1.00  0.00    -0.386 N 
ATOM      4  H51 UNL     1      -2.735   3.127  -1.283  1.00  0.00     0.157 HD
ATOM      5  H52 UNL     1      -1.526   2.705  -0.097  1.00  0.00     0.157 HD
HETATM    6  C6  UNL     1      -3.803   0.779  -1.570  1.00  0.00     0.218 C 
HETATM    7  N6  UNL     1      -4.738   0.117  -0.638  1.00  0.00    -0.315 N 
ATOM      8  H6  UNL     1      -5.727   0.365  -0.594  1.00  0.00     0.181 HD
HETATM    9  N7  UNL     1      -4.183  -0.869   0.179  1.00  0.00    -0.133 N 
ATOM     10  H7  UNL     1      -4.777  -1.634   0.498  1.00  0.00     0.205 HD
HETATM   11  C7  UNL     1      -2.925  -0.847   0.551  1.00  0.00     0.738 C 
ENDROOT
BRANCH   1  12
HETATM   12  N3  UNL     1      -0.751   0.265   0.473  1.00  0.00    -0.292 N 
ATOM     13  H3  UNL     1      -0.470   0.132   1.444  1.00  0.00     0.183 HD
BRANCH  12  14
HETATM   14  C4  UNL     1       0.221   0.501  -0.536  1.00  0.00     0.265 C 
BRANCH  14  15
HETATM   15  C3  UNL     1       1.616   0.461   0.028  1.00  0.00     0.132 C 
HETATM   16  N1  UNL     1       2.456  -0.391  -0.412  1.00  0.00    -0.292 N 
HETATM   17  C2  UNL     1       3.778  -0.534   0.024  1.00  0.00     0.365 C 
ATOM     18  H1  UNL     1       2.137  -1.024  -1.146  1.00  0.00     0.172 HD
HETATM   19  O2  UNL     1       4.166  -1.619   0.546  1.00  0.00    -0.238 OA
HETATM   20  N2  UNL     1       2.010   1.361   1.046  1.00  0.00    -0.085 NA
BRANCH  17  21
HETATM   21  O1  UNL     1       4.739   0.476  -0.078  1.00  0.00    -0.309 OA
HETATM   22  C1  UNL     1       6.058   0.255   0.387  1.00  0.00     0.215 C 
ENDBRANCH  17  21
ENDBRANCH  14  15
BRANCH  14  23
HETATM   23  C8  UNL     1       0.147  -0.544  -1.579  1.00  0.00     0.205 C 
HETATM   24  O5  UNL     1      -0.650  -1.490  -1.590  1.00  0.00    -0.646 OA
HETATM   25  O6  UNL     1       1.090  -0.396  -2.621  1.00  0.00    -0.646 OA
ENDBRANCH  14  23
ENDBRANCH  12  14
ENDBRANCH   1  12
BRANCH  11  26
HETATM   26  N8  UNL     1      -2.371  -1.833   1.393  1.00  0.00    -0.069 N 
ATOM     27  H8  UNL     1      -1.768  -2.545   0.982  1.00  0.00     0.212 HD
BRANCH  26  28
HETATM   28  N9  UNL     1      -2.613  -1.874   2.756  1.00  0.00    -0.024 N 
HETATM   29  O3  UNL     1      -3.654  -1.373   3.199  1.00  0.00    -0.516 OA
HETATM   30  O4  UNL     1      -1.712  -2.461   3.596  1.00  0.00    -0.516 OA
ENDBRANCH  26  28
ENDBRANCH  11  26
TORSDOF 7
