REMARK  6 active torsions:
REMARK  status: ('A' for Active; 'I' for Inactive)
REMARK    1  A    between atoms: C2_2  and  C3_4 
REMARK    2  A    between atoms: C3_4  and  N1_5 
REMARK    3  A    between atoms: N1_5  and  N2_6 
REMARK    4  A    between atoms: N1_5  and  C5_10 
REMARK    5  A    between atoms: C7_15  and  C8_16 
REMARK    6  A    between atoms: C8_16  and  N7_18 
REMARK       I    between atoms: N7_18  and  C9_19 
ROOT
HETATM    1  N2  UNL     1      -2.718   0.384   1.416  1.00  0.00    -0.219 N 
ATOM      2  H2  UNL     1      -3.045   1.246   1.853  1.00  0.00     0.200 HD
HETATM    3  C4  UNL     1      -2.701  -0.809   2.131  1.00  0.00     0.198 C 
HETATM    4  N3  UNL     1      -2.660  -1.830   2.718  1.00  0.00    -0.170 NA
ENDROOT
BRANCH   1   5
HETATM    5  N1  UNL     1      -2.282   0.381   0.097  1.00  0.00    -0.108 N 
BRANCH   5   6
HETATM    6  C3  UNL     1      -3.153   0.772  -0.954  1.00  0.00     0.246 C 
BRANCH   6   7
HETATM    7  C2  UNL     1      -4.581   0.434  -0.788  1.00  0.00     0.143 C 
HETATM    8  C1  UNL     1      -5.481   1.133   0.218  1.00  0.00     0.093 C 
HETATM    9  O1  UNL     1      -5.183  -0.431  -1.445  1.00  0.00    -0.297 OA
ENDBRANCH   6   7
ENDBRANCH   5   6
BRANCH   5  10
HETATM   10  C5  UNL     1      -0.896   0.020  -0.131  1.00  0.00     0.703 A 
HETATM   11  N4  UNL     1      -0.091  -0.083   0.946  1.00  0.00    -0.176 N 
HETATM   12  C6  UNL     1       1.227  -0.333   0.816  1.00  0.00     0.150 A 
ATOM     13  H4  UNL     1      -0.488   0.031   1.879  1.00  0.00     0.185 HD
HETATM   14  N5  UNL     1       1.982  -0.607   2.034  1.00  0.00    -0.081 NA
HETATM   15  C7  UNL     1       1.815  -0.499  -0.397  1.00  0.00     0.105 A 
HETATM   16  C11 UNL     1       1.000  -0.413  -1.550  1.00  0.00     0.133 A 
HETATM   17  N9  UNL     1       1.404  -0.598  -2.670  1.00  0.00    -0.384 N 
HETATM   18  N10 UNL     1      -0.352  -0.145  -1.327  1.00  0.00    -0.174 N 
ATOM     19  H92 UNL     1       2.392  -0.794  -2.833  1.00  0.00     0.157 HD
ATOM     20  H91 UNL     1       0.816  -0.536  -3.501  1.00  0.00     0.157 HD
ATOM     21  H10 UNL     1      -0.962  -0.071  -2.141  1.00  0.00     0.186 HD
BRANCH  15  22
HETATM   22  C8  UNL     1       3.279  -0.356  -0.553  1.00  0.00     0.210 C 
HETATM   23  N6  UNL     1       3.956  -0.769  -1.766  1.00  0.00    -0.066 NA
BRANCH  22  24
HETATM   24  N7  UNL     1       4.061  -0.009   0.336  1.00  0.00    -0.342 NA
HETATM   25  C9  UNL     1       4.809   0.352   1.290  1.00  0.00     0.399 C 
HETATM   26  O2  UNL     1       4.728   1.005   2.398  1.00  0.00    -0.239 OA
HETATM   27  C10 UNL     1       6.307  -0.084   1.211  1.00  0.00     0.177 C 
HETATM   28  N8  UNL     1       7.441  -0.385   1.146  1.00  0.00    -0.185 NA
ENDBRANCH  22  24
ENDBRANCH  15  22
ENDBRANCH   5  10
ENDBRANCH   1   5
TORSDOF 6
