REMARK  4 active torsions:
REMARK  status: ('A' for Active; 'I' for Inactive)
REMARK       I    between atoms: C1_4  and  N3_6 
REMARK    1  A    between atoms: N3_6  and  C2_8 
REMARK    2  A    between atoms: C2_8  and  C3_9 
REMARK    3  A    between atoms: C3_9  and  N4_10 
REMARK    4  A    between atoms: C7_22  and  C8_23 
ROOT
HETATM    1  N4  UNL     1       1.538  -0.241  -1.375  1.00  0.00    -0.223 N 
ATOM      2  H4  UNL     1       2.374  -0.775  -1.613  1.00  0.00     0.177 HD
HETATM    3  C4  UNL     1       0.685  -0.763  -0.575  1.00  0.00     0.695 A 
HETATM    4  N5  UNL     1       0.693  -1.953   0.041  1.00  0.00    -0.170 N 
ATOM      5  H5  UNL     1       1.428  -2.655  -0.046  1.00  0.00     0.186 HD
HETATM    6  C5  UNL     1      -0.406  -2.078   0.784  1.00  0.00     0.187 A 
HETATM    7  C6  UNL     1      -0.860  -3.088   1.591  1.00  0.00     0.177 A 
HETATM    8  N6  UNL     1      -0.156  -4.295   1.788  1.00  0.00    -0.077 NA
HETATM    9  N7  UNL     1      -2.026  -2.931   2.229  1.00  0.00    -0.283 N 
ATOM     10  H7  UNL     1      -2.389  -3.665   2.837  1.00  0.00     0.188 HD
HETATM   11  N8  UNL     1      -2.684  -1.827   2.058  1.00  0.00    -0.281 N 
ATOM     12  H8  UNL     1      -3.571  -1.726   2.551  1.00  0.00     0.188 HD
HETATM   13  C7  UNL     1      -2.279  -0.785   1.265  1.00  0.00     0.172 A 
HETATM   14  N11 UNL     1      -1.123  -0.927   0.626  1.00  0.00    -0.202 N 
HETATM   15  N12 UNL     1      -0.471  -0.142  -0.187  1.00  0.00    -0.122 N 
ATOM     16  H12 UNL     1      -0.774   0.785  -0.485  1.00  0.00     0.206 HD
ENDROOT
BRANCH   1  17
HETATM   17  C3  UNL     1       1.368   1.066  -1.952  1.00  0.00     0.157 C 
BRANCH  17  18
HETATM   18  C2  UNL     1       2.714   1.552  -2.472  1.00  0.00     0.142 C 
BRANCH  18  19
HETATM   19  N3  UNL     1       3.676   1.633  -1.412  1.00  0.00    -0.363 N 
HETATM   20  C1  UNL     1       4.193   0.490  -0.746  1.00  0.00     0.181 C 
HETATM   21  N1  UNL     1       4.268   0.432   0.544  1.00  0.00    -0.374 N 
HETATM   22  N2  UNL     1       4.651  -0.639  -1.493  1.00  0.00    -0.064 NA
ATOM     23  H12 UNL     1       4.639  -0.389   1.022  1.00  0.00     0.158 HD
ATOM     24  H11 UNL     1       3.941   1.238   1.077  1.00  0.00     0.158 HD
ATOM     25  H3  UNL     1       4.004   2.554  -1.123  1.00  0.00     0.162 HD
ENDBRANCH  18  19
ENDBRANCH  17  18
ENDBRANCH   1  17
BRANCH  13  26
HETATM   26  C8  UNL     1      -3.158   0.375   1.202  1.00  0.00     0.095 A 
HETATM   27  C9  UNL     1      -4.353   0.398   1.929  1.00  0.00     0.124 A 
HETATM   28  N9  UNL     1      -5.175   1.455   1.886  1.00  0.00    -0.340 N 
HETATM   29  C10 UNL     1      -4.896   2.548   1.143  1.00  0.00     0.203 A 
ATOM     30  H9  UNL     1      -6.037   1.434   2.431  1.00  0.00     0.167 HD
HETATM   31  F1  UNL     1      -5.745   3.618   1.110  1.00  0.00    -0.185 F 
HETATM   32  C11 UNL     1      -3.722   2.532   0.426  1.00  0.00     0.150 A 
HETATM   33  N10 UNL     1      -2.911   1.465   0.481  1.00  0.00    -0.357 N 
ATOM     34  H10 UNL     1      -2.050   1.491  -0.065  1.00  0.00     0.165 HD
ENDBRANCH  13  26
TORSDOF 4
