REMARK  7 active torsions:
REMARK  status: ('A' for Active; 'I' for Inactive)
REMARK    1  A    between atoms: C2_2  and  C3_6 
REMARK    2  A    between atoms: C3_6  and  N2_7 
REMARK    3  A    between atoms: C3_6  and  C4_11 
REMARK       I    between atoms: C4_11  and  N3_13 
REMARK    4  A    between atoms: N3_13  and  N4_15 
REMARK    5  A    between atoms: C5_16  and  N5_17 
REMARK    6  A    between atoms: N5_17  and  N6_19 
REMARK    7  A    between atoms: C6_24  and  N8_25 
ROOT
HETATM    1  N4  UNL     1      -0.892  -0.237  -0.075  1.00  0.00    -0.080 N 
HETATM    2  C5  UNL     1      -1.873   0.705   0.360  1.00  0.00     0.718 C 
HETATM    3  N7  UNL     1      -3.078   0.419   0.685  1.00  0.00    -0.194 N 
ATOM      4  H7  UNL     1      -3.708   1.164   0.983  1.00  0.00     0.180 HD
HETATM    5  C6  UNL     1      -3.549  -0.917   0.637  1.00  0.00     0.301 C 
HETATM    6  C7  UNL     1      -2.799  -1.752  -0.337  1.00  0.00     0.121 C 
HETATM    7  C8  UNL     1      -1.303  -1.605  -0.241  1.00  0.00     0.238 C 
HETATM    8 CL1  UNL     1      -0.725  -2.669   1.058  1.00  0.00    -0.076 Cl
HETATM    9  C9  UNL     1      -0.758  -2.099  -1.504  1.00  0.00     0.110 C 
HETATM   10  N9  UNL     1      -0.321  -2.474  -2.514  1.00  0.00    -0.193 NA
ENDROOT
BRANCH   1  11
HETATM   11  N3  UNL     1       0.408   0.206  -0.322  1.00  0.00    -0.248 N 
HETATM   12  C4  UNL     1       1.371   0.439   0.690  1.00  0.00     0.273 C 
HETATM   13  O1  UNL     1       1.073   0.243   1.891  1.00  0.00    -0.269 OA
ATOM     14  H3  UNL     1       0.681   0.372  -1.291  1.00  0.00     0.191 HD
BRANCH  12  15
HETATM   15  C3  UNL     1       2.732   0.911   0.381  1.00  0.00     0.320 C 
BRANCH  15  16
HETATM   16  C2  UNL     1       3.453  -0.011  -0.542  1.00  0.00     0.016 C 
HETATM   17  C1  UNL     1       4.823   0.234  -1.023  1.00  0.00     0.065 C 
HETATM   18  N1  UNL     1       2.830  -1.052  -0.916  1.00  0.00    -0.404 N 
ATOM     19  H12 UNL     1       3.323  -1.683  -1.548  1.00  0.00     0.155 HD
ATOM     20  H11 UNL     1       1.881  -1.222  -0.583  1.00  0.00     0.155 HD
ENDBRANCH  15  16
BRANCH  15  21
HETATM   21  N2  UNL     1       3.491   1.007   1.609  1.00  0.00    -0.061 N 
ATOM     22  H23 UNL     1       3.676   0.096   2.029  1.00  0.00     0.275 HD
ATOM     23  H22 UNL     1       4.459   1.286   1.452  1.00  0.00     0.275 HD
ATOM     24  H21 UNL     1       2.998   1.638   2.241  1.00  0.00     0.275 HD
ENDBRANCH  15  21
ENDBRANCH  12  15
ENDBRANCH   1  11
BRANCH   2  25
HETATM   25  N5  UNL     1      -1.481   2.094   0.445  1.00  0.00    -0.070 N 
ATOM     26  H5  UNL     1      -0.509   2.342   0.259  1.00  0.00     0.212 HD
BRANCH  25  27
HETATM   27  N6  UNL     1      -2.370   3.094   0.767  1.00  0.00    -0.024 N 
HETATM   28  O2  UNL     1      -3.091   2.913   1.785  1.00  0.00    -0.516 OA
HETATM   29  O3  UNL     1      -2.549   4.263   0.094  1.00  0.00    -0.516 OA
ENDBRANCH  25  27
ENDBRANCH   2  25
BRANCH   5  30
HETATM   30  N8  UNL     1      -4.939  -0.863   0.137  1.00  0.00    -0.058 N 
ATOM     31  H83 UNL     1      -5.539  -0.245   0.683  1.00  0.00     0.276 HD
ATOM     32  H82 UNL     1      -5.027  -0.374  -0.754  1.00  0.00     0.276 HD
ATOM     33  H81 UNL     1      -5.278  -1.824   0.102  1.00  0.00     0.276 HD
ENDBRANCH   5  30
TORSDOF 7
