REMARK  4 active torsions:
REMARK  status: ('A' for Active; 'I' for Inactive)
REMARK       I    between atoms: C2_2  and  N1_4 
REMARK    1  A    between atoms: N1_4  and  N2_6 
REMARK    2  A    between atoms: C3_7  and  C4_8 
REMARK    3  A    between atoms: C4_8  and  N3_9 
REMARK    4  A    between atoms: C6_11  and  C7_12 
REMARK       I    between atoms: N9_24  and  C9_26 
ROOT
HETATM    1  N2  UNL     1      -1.185  -0.465  -0.479  1.00  0.00    -0.067 N 
HETATM    2  C3  UNL     1      -0.057  -0.775  -1.210  1.00  0.00     0.156 A 
HETATM    3  N7  UNL     1       0.057   0.049  -2.257  1.00  0.00    -0.271 N 
ATOM      4  H7  UNL     1       0.798   0.040  -2.958  1.00  0.00     0.189 HD
HETATM    5  N8  UNL     1      -0.961   0.868  -2.212  1.00  0.00    -0.129 N 
ATOM      6  H8  UNL     1      -1.149   1.614  -2.881  1.00  0.00     0.205 HD
HETATM    7  C8  UNL     1      -1.737   0.563  -1.119  1.00  0.00     0.722 A 
HETATM    8  N9  UNL     1      -2.808   1.228  -0.848  1.00  0.00    -0.161 N 
ATOM      9  H9  UNL     1      -3.350   0.963  -0.026  1.00  0.00     0.187 HD
HETATM   10  C9  UNL     1      -3.264   2.305  -1.636  1.00  0.00     0.200 C 
HETATM   11  N10 UNL     1      -3.769   2.143  -2.806  1.00  0.00    -0.373 N 
ATOM     12 1H10 UNL     1      -4.099   2.922  -3.376  1.00  0.00     0.158 HD
ATOM     13 2H10 UNL     1      -3.845   1.198  -3.182  1.00  0.00     0.158 HD
HETATM   14  N11 UNL     1      -3.158   3.619  -1.113  1.00  0.00    -0.063 NA
ENDROOT
BRANCH   2  15
HETATM   15  C4  UNL     1       0.865  -1.884  -0.822  1.00  0.00     0.230 C 
BRANCH  15  16
HETATM   16  N3  UNL     1       1.938  -1.348   0.006  1.00  0.00    -0.280 N 
HETATM   17  C5  UNL     1       3.130  -0.867  -0.450  1.00  0.00     0.148 A 
HETATM   18  C6  UNL     1       3.860  -0.461   0.639  1.00  0.00     0.131 A 
HETATM   19  N5  UNL     1       3.102  -0.703   1.712  1.00  0.00    -0.280 N 
HETATM   20  N6  UNL     1       1.949  -1.237   1.308  1.00  0.00    -0.240 N 
ATOM     21  H5  UNL     1       3.362  -0.511   2.679  1.00  0.00     0.188 HD
ATOM     22  H6  UNL     1       1.187  -1.518   1.925  1.00  0.00     0.208 HD
BRANCH  18  23
HETATM   23  C7  UNL     1       5.191   0.119   0.659  1.00  0.00     0.284 C 
HETATM   24  N4  UNL     1       5.809   0.487   1.876  1.00  0.00    -0.056 NA
HETATM   25  O2  UNL     1       5.856   0.322  -0.399  1.00  0.00    -0.269 OA
ENDBRANCH  18  23
ENDBRANCH  15  16
ENDBRANCH   2  15
BRANCH   1  26
HETATM   26  N1  UNL     1      -1.605  -1.118   0.654  1.00  0.00    -0.248 N 
HETATM   27  C2  UNL     1      -2.687  -0.934   1.502  1.00  0.00     0.233 C 
HETATM   28  C1  UNL     1      -2.877  -1.853   2.708  1.00  0.00     0.119 C 
HETATM   29  O1  UNL     1      -3.545  -0.071   1.375  1.00  0.00    -0.272 OA
ATOM     30  H1  UNL     1      -1.000  -1.893   0.926  1.00  0.00     0.191 HD
ENDBRANCH   1  26
TORSDOF 4
