REMARK  1 active torsions:
REMARK  status: ('A' for Active; 'I' for Inactive)
REMARK    1  A    between atoms: O1_2  and  N1_3 
ROOT
HETATM    1  N1  UNL     1      -0.905  -0.113   0.029  1.00  0.00    -0.168 NA
HETATM    2  C2  UNL     1      -0.266  -1.399  -0.227  1.00  0.00     0.153 C 
HETATM    3  C3  UNL     1       1.232  -1.089  -0.239  1.00  0.00     0.290 C 
HETATM    4  N2  UNL     1       1.217   0.316  -0.580  1.00  0.00     0.100 N 
HETATM    5  C4  UNL     1       2.424   0.999  -0.154  1.00  0.00     0.311 C 
HETATM    6  C5  UNL     1       0.166   0.799   0.333  1.00  0.00     0.392 C 
ENDROOT
BRANCH   1   7
HETATM    7  O1  UNL     1      -1.708  -0.169   1.125  1.00  0.00    -0.307 OA
HETATM    8  C1  UNL     1      -2.972   0.280   0.719  1.00  0.00     0.229 C 
ENDBRANCH   1   7
TORSDOF 1
