REMARK  2 active torsions:
REMARK  status: ('A' for Active; 'I' for Inactive)
REMARK    1  A    between atoms: C2_2  and  O1_3 
REMARK    2  A    between atoms: C2_2  and  C3_5 
ROOT
HETATM    1  C3  UNL     1       0.079  -0.122  -0.292  1.00  0.00     0.077 C 
HETATM    2  C4  UNL     1       0.910  -1.282   0.205  1.00  0.00     0.282 C 
HETATM    3  N1  UNL     1       1.939  -0.416   0.719  1.00  0.00     0.098 N 
HETATM    4  C5  UNL     1       2.490   0.608  -0.152  1.00  0.00     0.309 A 
HETATM    5  C6  UNL     1       1.097   0.712   0.405  1.00  0.00     0.259 A 
ENDROOT
BRANCH   1   6
HETATM    6  C2  UNL     1      -1.297  -0.159   0.283  1.00  0.00     0.122 C 
HETATM    7  C1  UNL     1      -2.123   1.004  -0.217  1.00  0.00     0.040 C 
BRANCH   6   8
HETATM    8  O1  UNL     1      -1.922  -1.325  -0.220  1.00  0.00    -0.395 OA
ATOM      9  H1  UNL     1      -1.403  -2.056   0.094  1.00  0.00     0.210 HD
ENDBRANCH   6   8
ENDBRANCH   1   6
TORSDOF 2
