REMARK  2 active torsions:
REMARK  status: ('A' for Active; 'I' for Inactive)
REMARK    1  A    between atoms: N1_1  and  C1_5 
REMARK    2  A    between atoms: C1_5  and  C2_6 
ROOT
HETATM    1  C2  UNL     1      -0.475   0.479  -0.080  1.00  0.00     0.041 C 
HETATM    2  C3  UNL     1       0.573   0.967   0.911  1.00  0.00     0.045 C 
HETATM    3  C4  UNL     1       1.567  -0.158   0.936  1.00  0.00     0.251 A 
HETATM    4  C5  UNL     1       2.577  -0.119  -0.182  1.00  0.00     0.308 A 
HETATM    5  N2  UNL     1       1.412  -0.927  -0.251  1.00  0.00     0.097 N 
HETATM    6  C6  UNL     1       0.224  -0.538  -0.920  1.00  0.00     0.279 C 
ENDROOT
BRANCH   1   7
HETATM    7  C1  UNL     1      -1.609  -0.085   0.736  1.00  0.00     0.236 C 
BRANCH   7   8
HETATM    8  N1  UNL     1      -2.690  -0.592  -0.086  1.00  0.00    -0.079 N 
ATOM      9  H13 UNL     1      -3.024   0.122  -0.733  1.00  0.00     0.274 HD
ATOM     10  H12 UNL     1      -2.348  -1.277  -0.760  1.00  0.00     0.274 HD
ATOM     11  H11 UNL     1      -3.458  -0.974   0.466  1.00  0.00     0.274 HD
ENDBRANCH   7   8
ENDBRANCH   1   7
TORSDOF 2
