REMARK  9 active torsions:
REMARK  status: ('A' for Active; 'I' for Inactive)
REMARK    1  A    between atoms: C2_2  and  N1_3 
REMARK    2  A    between atoms: C2_2  and  C3_7 
REMARK    3  A    between atoms: C3_7  and  N3_11 
REMARK    4  A    between atoms: N3_11  and  C4_13 
REMARK    5  A    between atoms: C4_13  and  O1_14 
REMARK    6  A    between atoms: O1_14  and  C5_15 
REMARK    7  A    between atoms: C7_24  and  N7_25 
REMARK    8  A    between atoms: N7_25  and  N8_27 
REMARK    9  A    between atoms: C10_36  and  O4_37 
ROOT
HETATM    1  C4  UNL     1      -0.389   0.429  -0.270  1.00  0.00     0.292 C 
HETATM    2  O2  UNL     1       0.438  -0.695  -0.189  1.00  0.00    -0.261 OA
HETATM    3  C6  UNL     1       1.818  -0.659   0.045  1.00  0.00     0.248 A 
HETATM    4  N6  UNL     1       2.524  -1.797   0.241  1.00  0.00    -0.153 N 
ATOM      5  H6  UNL     1       2.053  -2.701   0.220  1.00  0.00     0.188 HD
HETATM    6  C7  UNL     1       3.847  -1.732   0.463  1.00  0.00     0.703 A 
HETATM    7  N9  UNL     1       4.415  -0.513   0.479  1.00  0.00    -0.139 N 
ATOM      8  H9  UNL     1       5.419  -0.447   0.646  1.00  0.00     0.189 HD
HETATM    9  C8  UNL     1       3.721   0.622   0.285  1.00  0.00     0.344 A 
HETATM   10  O3  UNL     1       4.288   1.742   0.307  1.00  0.00    -0.246 OA
HETATM   11  N10 UNL     1       2.388   0.558   0.061  1.00  0.00    -0.261 N 
HETATM   12  C9  UNL     1       1.610   1.786  -0.154  1.00  0.00     0.176 C 
HETATM   13  C10 UNL     1       0.243   1.558   0.506  1.00  0.00     0.223 C 
ENDROOT
BRANCH   1  14
HETATM   14  N3  UNL     1      -1.678   0.050   0.318  1.00  0.00    -0.321 N 
ATOM     15  H3  UNL     1      -2.017   0.547   1.142  1.00  0.00     0.166 HD
BRANCH  14  16
HETATM   16  C3  UNL     1      -2.464  -0.994  -0.236  1.00  0.00     0.105 C 
HETATM   17  N2  UNL     1      -2.008  -1.599  -1.295  1.00  0.00    -0.387 N 
ATOM     18  H22 UNL     1      -2.573  -2.349  -1.693  1.00  0.00     0.157 HD
ATOM     19  H21 UNL     1      -1.116  -1.328  -1.708  1.00  0.00     0.157 HD
BRANCH  16  20
HETATM   20  C2  UNL     1      -3.749  -1.385   0.359  1.00  0.00     0.245 C 
HETATM   21  C1  UNL     1      -3.586  -1.850   1.796  1.00  0.00     0.048 C 
BRANCH  20  22
HETATM   22  N1  UNL     1      -4.755  -0.345   0.239  1.00  0.00    -0.069 N 
ATOM     23  H13 UNL     1      -5.646  -0.643   0.636  1.00  0.00     0.275 HD
ATOM     24  H12 UNL     1      -4.556   0.438   0.862  1.00  0.00     0.275 HD
ATOM     25  H11 UNL     1      -4.864  -0.033  -0.726  1.00  0.00     0.275 HD
ENDBRANCH  20  22
ENDBRANCH  16  20
ENDBRANCH  14  16
ENDBRANCH   1  14
BRANCH   1  26
HETATM   26  O1  UNL     1      -0.578   0.859  -1.612  1.00  0.00    -0.264 OA
BRANCH  26  27
HETATM   27  C5  UNL     1      -1.402   1.945  -1.839  1.00  0.00     0.229 C 
HETATM   28  N4  UNL     1      -2.378   2.188  -1.038  1.00  0.00    -0.368 N 
ATOM     29  H42 UNL     1      -2.531   1.571  -0.240  1.00  0.00     0.159 HD
ATOM     30  H41 UNL     1      -2.986   2.990  -1.206  1.00  0.00     0.159 HD
HETATM   31  N5  UNL     1      -1.185   2.817  -2.967  1.00  0.00    -0.056 NA
ENDBRANCH  26  27
ENDBRANCH   1  26
BRANCH  13  32
HETATM   32  O4  UNL     1       0.508   1.112   1.806  1.00  0.00    -0.386 OA
ATOM     33  H4  UNL     1       0.906   1.823   2.295  1.00  0.00     0.210 HD
ENDBRANCH  13  32
BRANCH   6  34
HETATM   34  N7  UNL     1       4.559  -2.814   0.657  1.00  0.00    -0.138 N 
ATOM     35  H7  UNL     1       4.120  -3.735   0.643  1.00  0.00     0.205 HD
BRANCH  34  36
HETATM   36  N8  UNL     1       5.919  -2.683   0.881  1.00  0.00    -0.331 N 
ATOM     37  H82 UNL     1       6.342  -1.755   0.892  1.00  0.00     0.177 HD
ATOM     38  H81 UNL     1       6.474  -3.526   1.032  1.00  0.00     0.177 HD
ENDBRANCH  34  36
ENDBRANCH   6  34
TORSDOF 9
