REMARK  7 active torsions:
REMARK  status: ('A' for Active; 'I' for Inactive)
REMARK    1  A    between atoms: C4_6  and  S1_7 
REMARK    2  A    between atoms: S1_7  and  C5_10 
REMARK    3  A    between atoms: C5_10  and  C6_11 
REMARK    4  A    between atoms: C5_10  and  C7_14 
REMARK    5  A    between atoms: C6_11  and  O4_12 
REMARK    6  A    between atoms: C8_19  and  N5_20 
REMARK    7  A    between atoms: C9_28  and  N8_29 
ROOT
HETATM    1  C5  UNL     1      -0.930  -0.574   1.468  1.00  0.00     0.178 C 
ENDROOT
BRANCH   1   2
HETATM    2  S1  UNL     1       0.233  -1.830   0.979  1.00  0.00     0.201 S 
HETATM    3  O2  UNL     1      -0.497  -2.794   0.097  1.00  0.00    -0.221 OA
HETATM    4  O3  UNL     1       0.664  -2.543   2.235  1.00  0.00    -0.221 OA
BRANCH   2   5
HETATM    5  C4  UNL     1       1.621  -1.136   0.204  1.00  0.00     0.149 A 
HETATM    6  C3  UNL     1       2.708  -0.777   0.980  1.00  0.00     0.117 A 
HETATM    7  C2  UNL     1       3.838  -0.223   0.428  1.00  0.00     0.264 A 
HETATM    8  N1  UNL     1       3.887  -0.027  -0.888  1.00  0.00    -0.152 N 
HETATM    9  O1  UNL     1       4.841   0.111   1.131  1.00  0.00    -0.267 OA
HETATM   10  C1  UNL     1       5.079   0.565  -1.526  1.00  0.00     0.179 C 
HETATM   11  C9  UNL     1       2.830  -0.378  -1.634  1.00  0.00     0.681 A 
HETATM   12  N7  UNL     1       1.719  -0.920  -1.114  1.00  0.00    -0.181 N 
ATOM     13  H7  UNL     1       0.943  -1.170  -1.727  1.00  0.00     0.185 HD
BRANCH  11  14
HETATM   14  N8  UNL     1       2.868  -0.189  -2.931  1.00  0.00    -0.234 N 
ATOM     15  H82 UNL     1       3.713   0.223  -3.327  1.00  0.00     0.174 HD
ATOM     16  H81 UNL     1       2.064  -0.456  -3.499  1.00  0.00     0.174 HD
ENDBRANCH  11  14
ENDBRANCH   2   5
ENDBRANCH   1   2
BRANCH   1  17
HETATM   17  C6  UNL     1      -2.142  -1.237   2.079  1.00  0.00     0.188 C 
BRANCH  17  18
HETATM   18  O4  UNL     1      -1.753  -1.988   3.210  1.00  0.00    -0.399 OA
ATOM     19  H4  UNL     1      -2.515  -2.405   3.594  1.00  0.00     0.209 HD
ENDBRANCH  17  18
ENDBRANCH   1  17
BRANCH   1  20
HETATM   20  C7  UNL     1      -1.388   0.256   0.289  1.00  0.00     0.213 C 
HETATM   21  N2  UNL     1      -2.044  -0.553  -0.733  1.00  0.00    -0.100 NA
HETATM   22  N3  UNL     1      -2.315   0.352  -1.793  1.00  0.00    -0.031 NA
HETATM   23  N4  UNL     1      -3.362   1.143  -1.402  1.00  0.00    -0.277 N 
HETATM   24  C8  UNL     1      -3.375   1.578  -0.058  1.00  0.00     0.396 C 
ATOM     25  H4  UNL     1      -4.101   1.407  -2.053  1.00  0.00     0.181 HD
HETATM   26  N6  UNL     1      -2.250   1.290   0.738  1.00  0.00    -0.359 N 
ATOM     27  H6  UNL     1      -2.063   1.802   1.600  1.00  0.00     0.158 HD
BRANCH  24  28
HETATM   28  N5  UNL     1      -3.578   3.037  -0.063  1.00  0.00    -0.040 N 
ATOM     29  H53 UNL     1      -2.892   3.531  -0.633  1.00  0.00     0.279 HD
ATOM     30  H52 UNL     1      -4.411   3.320  -0.580  1.00  0.00     0.279 HD
ATOM     31  H51 UNL     1      -3.587   3.351   0.907  1.00  0.00     0.279 HD
ENDBRANCH  24  28
ENDBRANCH   1  20
TORSDOF 7
