REMARK  9 active torsions:
REMARK  status: ('A' for Active; 'I' for Inactive)
REMARK    1  A    between atoms: C2_2  and  N1_3 
REMARK    2  A    between atoms: C2_2  and  C3_7 
REMARK    3  A    between atoms: C4_11  and  N3_12 
REMARK    4  A    between atoms: C5_18  and  C6_19 
REMARK    5  A    between atoms: C6_19  and  N5_20 
REMARK    6  A    between atoms: C7_23  and  C8_24 
REMARK    7  A    between atoms: C9_27  and  N8_28 
REMARK    8  A    between atoms: N8_28  and  O2_30 
REMARK    9  A    between atoms: C11_36  and  O4_37 
ROOT
HETATM    1  C3  UNL     1      -2.860  -0.343   0.338  1.00  0.00     0.254 C 
HETATM    2  N2  UNL     1      -2.410  -0.558  -1.006  1.00  0.00    -0.020 N 
ATOM      3  H21 UNL     1      -2.145   0.322  -1.448  1.00  0.00     0.282 HD
ATOM      4  H22 UNL     1      -3.186  -0.821  -1.613  1.00  0.00     0.282 HD
HETATM    5  C4  UNL     1      -1.337  -1.523  -1.090  1.00  0.00     0.483 C 
HETATM    6  N4  UNL     1      -0.231  -0.987  -0.310  1.00  0.00    -0.344 N 
ATOM      7  H4  UNL     1       0.710  -0.995  -0.705  1.00  0.00     0.163 HD
HETATM    8  C5  UNL     1      -0.416  -0.505   0.862  1.00  0.00     0.036 C 
HETATM    9  C11 UNL     1      -1.807  -0.518   1.389  1.00  0.00     0.198 C 
ENDROOT
BRANCH   8  10
HETATM   10  C6  UNL     1       0.692   0.053   1.689  1.00  0.00     0.209 C 
BRANCH  10  11
HETATM   11  N5  UNL     1       1.964  -0.025   1.000  1.00  0.00    -0.236 N 
HETATM   12  N6  UNL     1       2.380   0.982   0.217  1.00  0.00    -0.286 N 
HETATM   13  C7  UNL     1       3.553   0.940  -0.436  1.00  0.00     0.159 A 
ATOM     14  H6  UNL     1       1.787   1.805   0.114  1.00  0.00     0.187 HD
HETATM   15  C9  UNL     1       4.325  -0.190  -0.270  1.00  0.00     0.163 A 
HETATM   16  N9  UNL     1       3.880  -1.198   0.529  1.00  0.00    -0.290 N 
HETATM   17  C10 UNL     1       2.701  -1.138   1.175  1.00  0.00     0.343 A 
ATOM     18  H9  UNL     1       4.461  -2.029   0.642  1.00  0.00     0.172 HD
HETATM   19  O3  UNL     1       2.326  -2.093   1.906  1.00  0.00    -0.245 OA
BRANCH  13  20
HETATM   20  C8  UNL     1       4.016   2.033  -1.291  1.00  0.00     0.286 C 
HETATM   21  N7  UNL     1       3.224   3.204  -1.467  1.00  0.00    -0.056 NA
HETATM   22  O1  UNL     1       5.106   1.965  -1.882  1.00  0.00    -0.269 OA
ENDBRANCH  13  20
BRANCH  15  23
HETATM   23  N8  UNL     1       5.457  -0.249  -0.890  1.00  0.00    -0.251 N 
ATOM     24  H8  UNL     1       5.777   0.514  -1.487  1.00  0.00     0.196 HD
BRANCH  23  25
HETATM   25  O2  UNL     1       6.211  -1.384  -0.711  1.00  0.00    -0.288 OA
ATOM     26  H2  UNL     1       7.043  -1.427  -1.167  1.00  0.00     0.244 HD
ENDBRANCH  23  25
ENDBRANCH  15  23
ENDBRANCH  10  11
ENDBRANCH   8  10
BRANCH   9  27
HETATM   27  O4  UNL     1      -2.079  -1.710   2.081  1.00  0.00    -0.388 OA
ATOM     28  H4  UNL     1      -1.411  -1.821   2.748  1.00  0.00     0.210 HD
ENDBRANCH   9  27
BRANCH   5  29
HETATM   29  N3  UNL     1      -1.704  -2.842  -0.690  1.00  0.00    -0.033 N 
ATOM     30  H33 UNL     1      -2.103  -2.832   0.249  1.00  0.00     0.278 HD
ATOM     31  H32 UNL     1      -2.515  -3.163  -1.219  1.00  0.00     0.278 HD
ATOM     32  H31 UNL     1      -0.947  -3.523  -0.749  1.00  0.00     0.278 HD
ENDBRANCH   5  29
BRANCH   1  33
HETATM   33  C2  UNL     1      -3.487   1.046   0.431  1.00  0.00     0.213 C 
HETATM   34  C1  UNL     1      -4.656   1.191  -0.495  1.00  0.00     0.042 C 
BRANCH  33  35
HETATM   35  N1  UNL     1      -2.530   2.097   0.271  1.00  0.00    -0.073 N 
ATOM     36  H13 UNL     1      -2.223   2.170  -0.699  1.00  0.00     0.274 HD
ATOM     37  H12 UNL     1      -2.969   3.012   0.373  1.00  0.00     0.274 HD
ATOM     38  H11 UNL     1      -1.734   1.998   0.901  1.00  0.00     0.274 HD
ENDBRANCH  33  35
ENDBRANCH   1  33
TORSDOF 9
