REMARK  12 active torsions:
REMARK  status: ('A' for Active; 'I' for Inactive)
REMARK    1  A    between atoms: C1_2  and  C2_4 
REMARK    2  A    between atoms: C2_4  and  O2_5 
REMARK    3  A    between atoms: C2_4  and  C12_18 
REMARK    4  A    between atoms: O2_5  and  C3_6 
REMARK    5  A    between atoms: C8_11  and  O3_12 
REMARK    6  A    between atoms: C13_21  and  C14_22 
REMARK    7  A    between atoms: C14_22  and  O5_23 
REMARK    8  A    between atoms: C16_27  and  C17_28 
REMARK    9  A    between atoms: C17_28  and  O6_29 
REMARK   10  A    between atoms: C18_31  and  C19_32 
REMARK   11  A    between atoms: C19_32  and  O7_33 
REMARK   12  A    between atoms: C20_35  and  O8_36 
ROOT
HETATM    1  C12 UNL     1       0.055  -0.875  -0.621  1.00  0.00     0.187 A 
HETATM    2  N2  UNL     1      -0.996  -0.474  -1.308  1.00  0.00    -0.322 N 
ATOM      3  H2  UNL     1      -0.956  -0.026  -2.223  1.00  0.00     0.169 HD
HETATM    4  C13 UNL     1      -2.124  -0.738  -0.635  1.00  0.00     0.142 A 
HETATM    5  N3  UNL     1      -1.687  -1.340   0.535  1.00  0.00    -0.244 N 
ATOM      6  H3  UNL     1      -2.287  -1.676   1.289  1.00  0.00     0.196 HD
HETATM    7  O9  UNL     1      -0.409  -1.406   0.516  1.00  0.00    -0.219 OA
ENDROOT
BRANCH   1   8
HETATM    8  C2  UNL     1       1.502  -0.810  -0.955  1.00  0.00     0.294 C 
BRANCH   8   9
HETATM    9  C1  UNL     1       1.926  -2.266  -1.185  1.00  0.00     0.268 C 
HETATM   10  N1  UNL     1       2.565  -2.977  -0.165  1.00  0.00    -0.059 NA
HETATM   11  O1  UNL     1       1.668  -2.752  -2.288  1.00  0.00    -0.273 OA
ENDBRANCH   8   9
BRANCH   8  12
HETATM   12  O2  UNL     1       2.138  -0.323   0.197  1.00  0.00    -0.326 OA
BRANCH  12  13
HETATM   13  C3  UNL     1       3.438   0.069   0.330  1.00  0.00     0.106 A 
HETATM   14  C4  UNL     1       4.337  -0.039  -0.695  1.00  0.00     0.077 A 
HETATM   15  C5  UNL     1       5.654   0.355  -0.548  1.00  0.00     0.077 A 
HETATM   16  C6  UNL     1       6.119   0.874   0.647  1.00  0.00    -0.022 A 
HETATM   17  O4  UNL     1       6.502   0.216  -1.625  1.00  0.00    -0.350 OA
HETATM   18  C7  UNL     1       5.210   0.982   1.673  1.00  0.00     0.049 A 
HETATM   19  C9  UNL     1       7.568   1.234   0.840  1.00  0.00     0.043 C 
HETATM   20  C8  UNL     1       3.897   0.598   1.546  1.00  0.00     0.099 A 
HETATM   21  C10 UNL     1       8.330   0.341  -0.147  1.00  0.00     0.031 C 
HETATM   22  C11 UNL     1       7.826   0.697  -1.535  1.00  0.00     0.176 C 
BRANCH  20  23
HETATM   23  O3  UNL     1       2.994   0.714   2.579  1.00  0.00    -0.358 OA
ATOM     24  H3  UNL     1       3.305   1.072   3.402  1.00  0.00     0.217 HD
ENDBRANCH  20  23
ENDBRANCH  12  13
ENDBRANCH   8  12
ENDBRANCH   1   8
BRANCH   4  25
HETATM   25  C14 UNL     1      -3.574  -0.523  -0.920  1.00  0.00     0.152 C 
HETATM   26  C15 UNL     1      -3.786   0.581  -1.895  1.00  0.00     0.123 C 
HETATM   27  S1  UNL     1      -5.578   0.484  -2.336  1.00  0.00    -0.158 SA
HETATM   28  C16 UNL     1      -6.436   0.189  -0.763  1.00  0.00     0.079 C 
HETATM   29  C18 UNL     1      -5.507   0.482   0.363  1.00  0.00     0.057 C 
HETATM   30  C20 UNL     1      -4.280  -0.334   0.400  1.00  0.00     0.168 C 
BRANCH  25  31
HETATM   31  O5  UNL     1      -4.078  -1.734  -1.448  1.00  0.00    -0.378 OA
ATOM     32  H5  UNL     1      -5.000  -1.597  -1.629  1.00  0.00     0.211 HD
ENDBRANCH  25  31
BRANCH  28  33
HETATM   33  C17 UNL     1      -7.575   1.214  -0.701  1.00  0.00     0.179 C 
BRANCH  33  34
HETATM   34  O6  UNL     1      -6.992   2.479  -0.748  1.00  0.00    -0.400 OA
ATOM     35  H6  UNL     1      -7.698   3.114  -0.710  1.00  0.00     0.209 HD
ENDBRANCH  33  34
ENDBRANCH  28  33
BRANCH  29  36
HETATM   36  C19 UNL     1      -6.232   0.271   1.691  1.00  0.00     0.172 C 
BRANCH  36  37
HETATM   37  O7  UNL     1      -6.701  -1.011   1.853  1.00  0.00    -0.400 OA
ATOM     38  H7  UNL     1      -7.152  -1.142   2.679  1.00  0.00     0.209 HD
ENDBRANCH  36  37
ENDBRANCH  29  36
BRANCH  30  39
HETATM   39  O8  UNL     1      -3.365   0.328   1.255  1.00  0.00    -0.392 OA
ATOM     40  H8  UNL     1      -3.810   0.447   2.086  1.00  0.00     0.210 HD
ENDBRANCH  30  39
ENDBRANCH   4  25
TORSDOF 12
