REMARK  4 active torsions:
REMARK  status: ('A' for Active; 'I' for Inactive)
REMARK    1  A    between atoms: C5_5  and  C6_6 
REMARK    2  A    between atoms: C9_10  and  C10_11 
REMARK    3  A    between atoms: C10_11  and  C11_12 
REMARK    4  A    between atoms: C18_28  and  O7_29 
ROOT
HETATM    1  C6  UNL     1       0.595   1.180   0.229  1.00  0.00     0.065 C 
HETATM    2  C7  UNL     1       0.476  -0.105  -0.027  1.00  0.00     0.048 C 
HETATM    3  C8  UNL     1       1.609  -0.889  -0.519  1.00  0.00     0.174 C 
HETATM    4  O1  UNL     1       2.253  -0.406  -1.525  1.00  0.00    -0.292 OA
HETATM    5  C9  UNL     1       1.968  -2.187   0.130  1.00  0.00     0.162 C 
HETATM    6  C12 UNL     1       0.705  -2.983  -0.047  1.00  0.00     0.231 C 
HETATM    7  O4  UNL     1       0.771  -4.165  -0.423  1.00  0.00    -0.273 OA
HETATM    8  N1  UNL     1      -0.496  -2.334   0.224  1.00  0.00    -0.335 N 
ATOM      9  H1  UNL     1      -1.282  -2.935   0.472  1.00  0.00     0.164 HD
HETATM   10  C13 UNL     1      -0.771  -0.909   0.198  1.00  0.00     0.225 C 
HETATM   11  N2  UNL     1      -1.410  -0.642   1.461  1.00  0.00    -0.333 N 
ATOM     12  H2  UNL     1      -0.915  -0.156   2.209  1.00  0.00     0.165 HD
HETATM   13  C14 UNL     1      -2.757  -1.079   1.631  1.00  0.00     0.248 C 
HETATM   14  O5  UNL     1      -3.179  -1.487   2.738  1.00  0.00    -0.271 OA
HETATM   15  C15 UNL     1      -3.726  -1.065   0.483  1.00  0.00     0.209 C 
HETATM   16  C16 UNL     1      -4.899  -1.986   0.805  1.00  0.00     0.049 C 
HETATM   17  O6  UNL     1      -4.159   0.250   0.241  1.00  0.00    -0.374 OA
HETATM   18  C17 UNL     1      -4.158   0.585  -1.104  1.00  0.00     0.202 C 
HETATM   19  C18 UNL     1      -3.719   2.004  -1.373  1.00  0.00     0.159 C 
HETATM   20  C19 UNL     1      -2.205   2.182  -1.244  1.00  0.00     0.156 C 
HETATM   21  N3  UNL     1      -1.818   2.122   0.123  1.00  0.00    -0.354 N 
ATOM     22  H3  UNL     1      -2.587   2.182   0.791  1.00  0.00     0.162 HD
HETATM   23  C20 UNL     1      -0.544   1.993   0.698  1.00  0.00     0.253 C 
HETATM   24  O8  UNL     1      -0.368   2.682   1.775  1.00  0.00    -0.268 OA
ENDROOT
BRANCH   1  25
HETATM   25  C5  UNL     1       1.874   1.885   0.060  1.00  0.00     0.052 A 
HETATM   26  C4  UNL     1       2.104   3.179   0.210  1.00  0.00     0.023 A 
HETATM   27  C3  UNL     1       3.401   3.670   0.014  1.00  0.00     0.018 A 
HETATM   28  C2  UNL     1       4.345   2.824  -0.304  1.00  0.00     0.010 A 
HETATM   29  C1  UNL     1       5.786   3.016  -0.582  1.00  0.00     0.059 C 
HETATM   30  S1  UNL     1       3.524   1.248  -0.244  1.00  0.00     0.081 S 
HETATM   31  O9  UNL     1       3.938   0.729   1.176  1.00  0.00    -0.247 OA
ENDBRANCH   1  25
BRANCH   5  32
HETATM   32  C10 UNL     1       3.155  -2.798  -0.523  1.00  0.00     0.135 C 
BRANCH  32  33
HETATM   33  C11 UNL     1       3.536  -4.052   0.151  1.00  0.00     0.173 C 
HETATM   34  O2  UNL     1       2.984  -4.434   1.208  1.00  0.00    -0.648 OA
HETATM   35  O3  UNL     1       4.559  -4.831  -0.435  1.00  0.00    -0.648 OA
ENDBRANCH  32  33
ENDBRANCH   5  32
BRANCH  19  36
HETATM   36  O7  UNL     1      -4.206   2.528  -2.548  1.00  0.00    -0.392 OA
ATOM     37  H7  UNL     1      -3.930   3.421  -2.717  1.00  0.00     0.210 HD
ENDBRANCH  19  36
TORSDOF 4
