REMARK  10 active torsions:
REMARK  status: ('A' for Active; 'I' for Inactive)
REMARK    1  A    between atoms: C2_2  and  N1_3 
REMARK       I    between atoms: N1_3  and  C3_5 
REMARK    2  A    between atoms: C3_5  and  C4_7 
REMARK    3  A    between atoms: C4_7  and  O3_9 
REMARK    4  A    between atoms: O3_9  and  C5_10 
REMARK    5  A    between atoms: C7_12  and  O4_13 
REMARK    6  A    between atoms: C7_12  and  C8_15 
REMARK    7  A    between atoms: C9_16  and  O5_17 
REMARK    8  A    between atoms: C13_25  and  N3_26 
REMARK    9  A    between atoms: N3_26  and  S1_28 
REMARK   10  A    between atoms: C18_35  and  O9_37 
ROOT
HETATM    1  C5  UNL     1       1.003   0.547  -0.417  1.00  0.00     0.169 C 
HETATM    2  C6  UNL     1      -0.239   1.092   0.243  1.00  0.00     0.074 C 
HETATM    3  C7  UNL     1      -1.443   1.008  -0.689  1.00  0.00     0.072 C 
HETATM    4  C15 UNL     1      -1.153   1.467  -2.068  1.00  0.00     0.019 C 
HETATM    5  C16 UNL     1      -1.761   2.852  -2.375  1.00  0.00     0.013 C 
HETATM    6  C17 UNL     1       0.261   1.447  -2.537  1.00  0.00     0.047 C 
HETATM    7  C18 UNL     1       1.332   1.531  -1.528  1.00  0.00     0.084 C 
HETATM    8  C19 UNL     1       2.620   0.993  -2.172  1.00  0.00     0.049 C 
ENDROOT
BRANCH   3   9
HETATM    9  O4  UNL     1      -2.321   1.989  -0.143  1.00  0.00    -0.389 OA
ATOM     10  H4  UNL     1      -3.071   1.937  -0.724  1.00  0.00     0.210 HD
ENDBRANCH   3   9
BRANCH   3  11
HETATM   11  C8  UNL     1      -1.998  -0.344  -0.645  1.00  0.00     0.083 C 
HETATM   12  C9  UNL     1      -3.135  -0.713  -1.522  1.00  0.00     0.164 C 
HETATM   13  C10 UNL     1      -3.328  -2.149  -1.057  1.00  0.00     0.022 A 
HETATM   14  C11 UNL     1      -3.712  -3.415  -1.389  1.00  0.00     0.179 A 
HETATM   15  C12 UNL     1      -2.952  -2.208   0.266  1.00  0.00     0.067 A 
HETATM   16  O6  UNL     1      -3.575  -4.187  -0.330  1.00  0.00    -0.249 OA
HETATM   17  N2  UNL     1      -3.123  -3.466   0.653  1.00  0.00    -0.263 N 
ATOM     18  H2  UNL     1      -2.927  -3.818   1.590  1.00  0.00     0.194 HD
HETATM   19  C13 UNL     1      -2.515  -0.815   0.699  1.00  0.00     0.155 C 
BRANCH  12  20
HETATM   20  O5  UNL     1      -4.307  -0.116  -1.409  1.00  0.00    -0.390 OA
ATOM     21  H5  UNL     1      -5.036  -0.352  -1.971  1.00  0.00     0.210 HD
ENDBRANCH  12  20
BRANCH  19  22
HETATM   22  N3  UNL     1      -3.700  -0.176   1.154  1.00  0.00    -0.309 N 
ATOM     23  H3  UNL     1      -4.504   0.050   0.568  1.00  0.00     0.172 HD
BRANCH  22  24
HETATM   24  S1  UNL     1      -3.581   0.161   2.834  1.00  0.00     0.223 S 
HETATM   25  C14 UNL     1      -3.394  -1.363   3.762  1.00  0.00     0.185 C 
HETATM   26  O7  UNL     1      -2.477   1.118   3.127  1.00  0.00    -0.206 OA
HETATM   27  O8  UNL     1      -4.899   0.746   3.309  1.00  0.00    -0.206 OA
ENDBRANCH  22  24
ENDBRANCH  19  22
ENDBRANCH   3  11
BRANCH   1  28
HETATM   28  O3  UNL     1       2.042   0.296   0.451  1.00  0.00    -0.305 OA
BRANCH  28  29
HETATM   29  C4  UNL     1       2.671  -0.899   0.691  1.00  0.00     0.351 C 
HETATM   30  O2  UNL     1       2.264  -1.895   0.051  1.00  0.00    -0.254 OA
BRANCH  29  31
HETATM   31  C3  UNL     1       3.766  -1.086   1.626  1.00  0.00     0.317 C 
HETATM   32  N1  UNL     1       4.379  -2.340   1.838  1.00  0.00    -0.353 N 
ATOM     33  H1  UNL     1       4.034  -3.141   1.309  1.00  0.00     0.162 HD
HETATM   34  O1  UNL     1       4.190  -0.102   2.276  1.00  0.00    -0.262 OA
BRANCH  32  35
HETATM   35  C2  UNL     1       5.456  -2.548   2.752  1.00  0.00     0.118 C 
HETATM   36  C1  UNL     1       6.674  -1.725   2.426  1.00  0.00     0.026 C 
ENDBRANCH  32  35
ENDBRANCH  29  31
ENDBRANCH  28  29
ENDBRANCH   1  28
BRANCH   7  37
HETATM   37  O9  UNL     1       1.564   2.763  -0.999  1.00  0.00    -0.383 OA
HETATM   38  C20 UNL     1       1.907   3.753  -1.866  1.00  0.00     0.202 C 
ENDBRANCH   7  37
TORSDOF 10
