REMARK  14 active torsions:
REMARK  status: ('A' for Active; 'I' for Inactive)
REMARK    1  A    between atoms: C3_5  and  C4_6 
REMARK    2  A    between atoms: C4_6  and  C5_7 
REMARK    3  A    between atoms: C5_7  and  O1_8 
REMARK    4  A    between atoms: C11_15  and  O2_16 
REMARK    5  A    between atoms: C12_18  and  O3_19 
REMARK    6  A    between atoms: C12_18  and  N2_21 
REMARK       I    between atoms: N2_21  and  C13_23 
REMARK    7  A    between atoms: C13_23  and  O5_25 
REMARK    8  A    between atoms: O5_25  and  S1_26 
REMARK    9  A    between atoms: S1_26  and  O6_27 
REMARK   10  A    between atoms: C16_31  and  O7_32 
REMARK   11  A    between atoms: O7_32  and  C17_33 
REMARK   12  A    between atoms: C17_33  and  C19_35 
REMARK   13  A    between atoms: C19_35  and  O8_36 
REMARK   14  A    between atoms: O8_36  and  C20_37 
ROOT
HETATM    1  C5  UNL     1      -2.015  -0.734   0.993  1.00  0.00     0.119 C 
HETATM    2  C6  UNL     1      -3.278  -0.875   1.819  1.00  0.00     0.055 C 
HETATM    3  C7  UNL     1      -3.998   0.385   2.096  1.00  0.00     0.010 C 
HETATM    4  C8  UNL     1      -4.844   0.940   1.018  1.00  0.00     0.001 C 
HETATM    5  C9  UNL     1      -4.961   0.103  -0.217  1.00  0.00     0.012 C 
HETATM    6  C10 UNL     1      -3.939  -0.959  -0.390  1.00  0.00     0.073 C 
HETATM    7  C11 UNL     1      -4.041  -1.808   0.898  1.00  0.00     0.134 C 
HETATM    8  C12 UNL     1      -2.492  -0.433  -0.367  1.00  0.00     0.173 C 
ENDROOT
BRANCH   1   9
HETATM    9  C4  UNL     1      -0.980   0.114   1.602  1.00  0.00     0.100 C 
BRANCH   9  10
HETATM   10  C3  UNL     1       0.290   0.076   0.888  1.00  0.00     0.012 A 
HETATM   11  N1  UNL     1       0.649   0.899  -0.101  1.00  0.00    -0.361 N 
HETATM   12  C2  UNL     1       1.832   0.829  -0.734  1.00  0.00     0.039 A 
ATOM     13  H1  UNL     1      -0.011   1.620  -0.392  1.00  0.00     0.165 HD
HETATM   14  C1  UNL     1       2.169   1.774  -1.826  1.00  0.00     0.071 C 
HETATM   15  C16 UNL     1       2.802  -0.127  -0.407  1.00  0.00     0.091 A 
HETATM   16  C15 UNL     1       2.454  -0.987   0.610  1.00  0.00     0.040 A 
HETATM   17  C14 UNL     1       1.228  -0.898   1.252  1.00  0.00     0.028 A 
BRANCH  15  18
HETATM   18  O7  UNL     1       3.999  -0.189  -1.056  1.00  0.00    -0.342 OA
BRANCH  18  19
HETATM   19  C17 UNL     1       5.057  -1.083  -0.834  1.00  0.00     0.149 C 
HETATM   20  C18 UNL     1       5.330  -1.885  -2.121  1.00  0.00     0.042 C 
BRANCH  19  21
HETATM   21  C19 UNL     1       6.329  -0.279  -0.604  1.00  0.00     0.212 C 
BRANCH  21  22
HETATM   22  O8  UNL     1       6.201   0.568   0.501  1.00  0.00    -0.304 OA
BRANCH  22  23
HETATM   23  C20 UNL     1       5.971   0.193   1.792  1.00  0.00     0.372 C 
HETATM   24  N3  UNL     1       5.856   1.168   2.841  1.00  0.00    -0.032 NA
HETATM   25  O9  UNL     1       5.856  -1.023   2.077  1.00  0.00    -0.242 OA
ENDBRANCH  22  23
ENDBRANCH  21  22
ENDBRANCH  19  21
ENDBRANCH  18  19
ENDBRANCH  15  18
ENDBRANCH   9  10
ENDBRANCH   1   9
BRANCH   1  26
HETATM   26  O1  UNL     1      -1.485  -2.063   0.990  1.00  0.00    -0.384 OA
ATOM     27  H1  UNL     1      -2.154  -2.611   0.596  1.00  0.00     0.210 HD
ENDBRANCH   1  26
BRANCH   8  28
HETATM   28  O3  UNL     1      -1.829  -1.175  -1.357  1.00  0.00    -0.367 OA
ATOM     29  H3  UNL     1      -2.137  -0.981  -2.235  1.00  0.00     0.212 HD
ENDBRANCH   8  28
BRANCH   8  30
HETATM   30  N2  UNL     1      -2.453   0.951  -0.767  1.00  0.00    -0.301 N 
HETATM   31  C13 UNL     1      -2.751   1.359  -2.095  1.00  0.00     0.376 C 
HETATM   32  O4  UNL     1      -3.062   0.555  -3.029  1.00  0.00    -0.237 OA
ATOM     33  H2  UNL     1      -2.204   1.659  -0.076  1.00  0.00     0.168 HD
BRANCH  31  34
HETATM   34  O5  UNL     1      -2.722   2.697  -2.477  1.00  0.00    -0.200 OA
BRANCH  34  35
HETATM   35  S1  UNL     1      -3.073   3.222  -4.059  1.00  0.00     0.166 SA
BRANCH  35  36
HETATM   36  O6  UNL     1      -4.545   3.239  -4.380  1.00  0.00    -0.306 OA
ATOM     37  H6  UNL     1      -4.741   3.532  -5.262  1.00  0.00     0.230 HD
ENDBRANCH  35  36
ENDBRANCH  34  35
ENDBRANCH  31  34
ENDBRANCH   8  30
BRANCH   7  38
HETATM   38  O2  UNL     1      -5.348  -1.980   1.275  1.00  0.00    -0.395 OA
ATOM     39  H2  UNL     1      -5.826  -2.564   0.698  1.00  0.00     0.210 HD
ENDBRANCH   7  38
TORSDOF 14
