REMARK  5 active torsions:
REMARK  status: ('A' for Active; 'I' for Inactive)
REMARK    1  A    between atoms: C5_5  and  S1_6 
REMARK    2  A    between atoms: S1_6  and  C6_9 
REMARK    3  A    between atoms: C9_14  and  C10_15 
REMARK    4  A    between atoms: C14_25  and  N5_26 
REMARK       I    between atoms: N5_26  and  C15_28 
REMARK       I    between atoms: C15_28  and  N6_30 
REMARK    5  A    between atoms: N6_30  and  C16_32 
ROOT
HETATM    1  C6  UNL     1       1.117   0.226  -1.656  1.00  0.00     0.107 A 
HETATM    2  C7  UNL     1       1.097   1.582  -1.785  1.00  0.00     0.062 A 
HETATM    3  C8  UNL     1       0.251   2.258  -0.970  1.00  0.00     0.056 A 
HETATM    4  N1  UNL     1       0.069   3.618  -0.930  1.00  0.00    -0.339 N 
ATOM      5  H1  UNL     1       0.605   4.214  -1.561  1.00  0.00     0.167 HD
HETATM    6  C9  UNL     1      -0.791   4.171  -0.086  1.00  0.00     0.134 A 
HETATM    7  N4  UNL     1      -1.543   3.476   0.782  1.00  0.00    -0.325 N 
ATOM      8  H4  UNL     1      -2.192   3.947   1.412  1.00  0.00     0.169 HD
HETATM    9  C14 UNL     1      -1.411   2.133   0.792  1.00  0.00     0.130 A 
HETATM   10  C22 UNL     1      -0.502   1.535  -0.098  1.00  0.00     0.077 A 
HETATM   11  S2  UNL     1      -0.019  -0.070  -0.429  1.00  0.00    -0.072 SA
ENDROOT
BRANCH   9  12
HETATM   12  N5  UNL     1      -2.072   1.391   1.569  1.00  0.00    -0.293 N 
HETATM   13  C15 UNL     1      -2.019  -0.031   1.670  1.00  0.00     0.326 C 
HETATM   14  O3  UNL     1      -1.155  -0.474   2.450  1.00  0.00    -0.247 OA
HETATM   15  N6  UNL     1      -2.897  -0.830   0.929  1.00  0.00    -0.307 N 
ATOM     16  H6  UNL     1      -3.545  -0.313   0.335  1.00  0.00     0.170 HD
ATOM     17  H5  UNL     1      -2.720   1.863   2.199  1.00  0.00     0.172 HD
BRANCH  15  18
HETATM   18  C16 UNL     1      -3.032  -2.228   0.869  1.00  0.00     0.058 A 
HETATM   19  C17 UNL     1      -2.227  -3.059   1.615  1.00  0.00     0.033 A 
HETATM   20  C18 UNL     1      -2.404  -4.446   1.518  1.00  0.00     0.019 A 
HETATM   21  C19 UNL     1      -3.369  -4.920   0.685  1.00  0.00     0.088 A 
HETATM   22  N7  UNL     1      -4.140  -4.097  -0.030  1.00  0.00    -0.368 N 
HETATM   23  C20 UNL     1      -4.000  -2.785   0.038  1.00  0.00     0.032 A 
ATOM     24  H7  UNL     1      -4.854  -4.491  -0.643  1.00  0.00     0.165 HD
HETATM   25  C21 UNL     1      -4.876  -1.919  -0.772  1.00  0.00     0.070 C 
ENDBRANCH  15  18
ENDBRANCH   9  12
BRANCH   6  26
HETATM   26  C10 UNL     1      -0.948   5.623  -0.082  1.00  0.00     0.079 A 
HETATM   27  C11 UNL     1      -0.201   6.380  -0.952  1.00  0.00     0.050 A 
HETATM   28  C12 UNL     1      -0.381   7.745  -0.915  1.00  0.00     0.091 A 
HETATM   29  N2  UNL     1      -1.242   8.358  -0.076  1.00  0.00    -0.362 N 
HETATM   30  C13 UNL     1      -1.951   7.586   0.756  1.00  0.00     0.180 A 
ATOM     31  H2  UNL     1      -1.348   9.372  -0.076  1.00  0.00     0.165 HD
HETATM   32  N3  UNL     1      -1.793   6.246   0.738  1.00  0.00    -0.349 N 
ATOM     33  H3  UNL     1      -2.347   5.683   1.383  1.00  0.00     0.166 HD
ENDBRANCH   6  26
BRANCH   1  34
HETATM   34  S1  UNL     1       2.061  -0.969  -2.517  1.00  0.00     0.213 S 
HETATM   35  O1  UNL     1       1.152  -1.898  -3.308  1.00  0.00    -0.217 OA
HETATM   36  O2  UNL     1       2.895  -0.245  -3.547  1.00  0.00    -0.217 OA
BRANCH  34  37
HETATM   37  C5  UNL     1       3.078  -1.896  -1.431  1.00  0.00     0.064 A 
HETATM   38  C4  UNL     1       4.359  -1.473  -1.139  1.00  0.00     0.024 A 
HETATM   39  C3  UNL     1       5.174  -2.191  -0.285  1.00  0.00     0.008 A 
HETATM   40  C2  UNL     1       4.748  -3.358   0.314  1.00  0.00    -0.062 A 
HETATM   41  C1  UNL     1       5.636  -4.127   1.236  1.00  0.00     0.048 C 
HETATM   42  C24 UNL     1       3.469  -3.785   0.026  1.00  0.00     0.008 A 
HETATM   43  C23 UNL     1       2.656  -3.064  -0.829  1.00  0.00     0.024 A 
ENDBRANCH  34  37
ENDBRANCH   1  34
TORSDOF 5
