REMARK  5 active torsions:
REMARK  status: ('A' for Active; 'I' for Inactive)
REMARK    1  A    between atoms: C4_4  and  N1_5 
REMARK    2  A    between atoms: C8_13  and  C9_14 
REMARK    3  A    between atoms: C11_17  and  N4_18 
REMARK    4  A    between atoms: N4_18  and  C12_20 
REMARK    5  A    between atoms: C25_38  and  C26_39 
ROOT
HETATM    1  N1  UNL     1      -4.527  -1.547  -1.667  1.00  0.00    -0.304 N 
HETATM    2  C5  UNL     1      -5.380  -2.150  -2.514  1.00  0.00     0.190 A 
HETATM    3  N2  UNL     1      -4.695  -2.898  -3.388  1.00  0.00    -0.336 N 
ATOM      4  H2  UNL     1      -5.101  -3.459  -4.137  1.00  0.00     0.168 HD
HETATM    5  C6  UNL     1      -3.364  -2.786  -3.111  1.00  0.00     0.133 A 
HETATM    6  N3  UNL     1      -2.263  -3.312  -3.661  1.00  0.00    -0.350 N 
ATOM      7  H3  UNL     1      -2.329  -3.942  -4.461  1.00  0.00     0.166 HD
HETATM    8  C7  UNL     1      -1.052  -2.987  -3.128  1.00  0.00     0.103 A 
HETATM    9  C8  UNL     1      -0.937  -2.141  -2.049  1.00  0.00     0.009 A 
HETATM   10  C21 UNL     1      -2.068  -1.609  -1.494  1.00  0.00     0.049 A 
HETATM   11  C22 UNL     1      -3.292  -1.938  -2.034  1.00  0.00     0.085 A 
ENDROOT
BRANCH   9  12
HETATM   12  C9  UNL     1       0.398  -1.797  -1.480  1.00  0.00     0.052 A 
HETATM   13  C10 UNL     1       1.531  -2.336  -2.043  1.00  0.00     0.083 A 
HETATM   14  S1  UNL     1       2.768  -1.665  -1.071  1.00  0.00    -0.064 SA
HETATM   15  C11 UNL     1       1.789  -0.755  -0.024  1.00  0.00     0.149 A 
HETATM   16  N6  UNL     1       0.557  -1.002  -0.461  1.00  0.00    -0.335 N 
ATOM     17  H6  UNL     1      -0.250  -0.576  -0.005  1.00  0.00     0.168 HD
BRANCH  15  18
HETATM   18  N4  UNL     1       2.149   0.013   0.981  1.00  0.00    -0.337 N 
ATOM     19  H4  UNL     1       1.469   0.518   1.549  1.00  0.00     0.168 HD
BRANCH  18  20
HETATM   20  C12 UNL     1       3.564   0.095   1.229  1.00  0.00     0.035 A 
HETATM   21  C13 UNL     1       4.169  -0.651   2.215  1.00  0.00     0.030 A 
HETATM   22  C14 UNL     1       5.530  -0.585   2.467  1.00  0.00     0.020 A 
HETATM   23  C15 UNL     1       6.309   0.260   1.702  1.00  0.00     0.048 A 
HETATM   24  C16 UNL     1       5.703   1.011   0.710  1.00  0.00     0.050 A 
HETATM   25  C20 UNL     1       7.733   0.581   1.683  1.00  0.00     0.261 A 
HETATM   26  C17 UNL     1       4.345   0.939   0.465  1.00  0.00     0.047 A 
HETATM   27  C18 UNL     1       6.732   1.818   0.048  1.00  0.00     0.261 A 
HETATM   28  O1  UNL     1       6.545   2.623  -0.905  1.00  0.00    -0.267 OA
HETATM   29  N5  UNL     1       7.970   1.537   0.662  1.00  0.00    -0.284 N 
HETATM   30  C19 UNL     1       9.260   2.111   0.325  1.00  0.00     0.163 C 
HETATM   31  O2  UNL     1       8.590   0.075   2.459  1.00  0.00    -0.267 OA
ENDBRANCH  18  20
ENDBRANCH  15  18
ENDBRANCH   9  12
BRANCH   1  32
HETATM   32  C4  UNL     1      -4.862  -0.672  -0.598  1.00  0.00     0.041 A 
HETATM   33  C3  UNL     1      -4.963   0.690  -0.777  1.00  0.00     0.038 A 
HETATM   34  C2  UNL     1      -5.290   1.567   0.254  1.00  0.00    -0.043 A 
HETATM   35  C1  UNL     1      -5.389   3.030   0.015  1.00  0.00     0.049 C 
HETATM   36  C25 UNL     1      -5.527   1.091   1.517  1.00  0.00     0.046 A 
HETATM   37  C24 UNL     1      -5.427  -0.285   1.707  1.00  0.00     0.021 A 
HETATM   38  C23 UNL     1      -5.102  -1.145   0.676  1.00  0.00     0.031 A 
BRANCH  36  39
HETATM   39  C26 UNL     1      -5.875   1.919   2.664  1.00  0.00     0.209 C 
HETATM   40  O3  UNL     1      -6.081   1.390   3.809  1.00  0.00    -0.644 OA
HETATM   41  O4  UNL     1      -6.011   3.297   2.632  1.00  0.00    -0.644 OA
ENDBRANCH  36  39
ENDBRANCH   1  32
TORSDOF 5
