REMARK  5 active torsions:
REMARK  status: ('A' for Active; 'I' for Inactive)
REMARK    1  A    between atoms: C6_6  and  O1_7 
REMARK    2  A    between atoms: O1_7  and  C7_8 
REMARK    3  A    between atoms: C8_11  and  C9_12 
REMARK       I    between atoms: C9_12  and  N2_14 
REMARK    4  A    between atoms: N2_14  and  C10_16 
REMARK    5  A    between atoms: N4_27  and  C19_28 
ROOT
HETATM    1  C1  UNL     1      -1.418  -2.994  -5.576  1.00  0.00     0.018 C 
HETATM    2  C2  UNL     1      -1.962  -2.400  -4.674  1.00  0.00    -0.078 C 
HETATM    3  C3  UNL     1      -2.618  -1.714  -3.594  1.00  0.00     0.018 A 
HETATM    4  C4  UNL     1      -3.974  -1.776  -3.480  1.00  0.00     0.023 A 
HETATM    5  C5  UNL     1      -4.536  -1.095  -2.425  1.00  0.00     0.040 A 
HETATM    6  C6  UNL     1      -3.768  -0.383  -1.521  1.00  0.00     0.096 A 
HETATM    7  C8  UNL     1      -2.419  -0.323  -1.633  1.00  0.00     0.067 A 
HETATM    8  C30 UNL     1      -1.850  -1.022  -2.719  1.00  0.00     0.040 A 
ENDROOT
BRANCH   7   9
HETATM    9  C9  UNL     1      -1.500   0.352  -0.703  1.00  0.00     0.259 C 
HETATM   10  O3  UNL     1      -0.268   0.312  -1.030  1.00  0.00    -0.267 OA
HETATM   11  N2  UNL     1      -1.846   1.012   0.463  1.00  0.00    -0.323 N 
ATOM     12  H2  UNL     1      -2.830   1.052   0.728  1.00  0.00     0.169 HD
BRANCH  11  13
HETATM   13  C10 UNL     1      -0.873   1.647   1.321  1.00  0.00     0.035 A 
HETATM   14  C11 UNL     1      -1.270   2.828   1.962  1.00  0.00     0.030 A 
HETATM   15  C12 UNL     1      -0.377   3.431   2.806  1.00  0.00     0.010 A 
HETATM   16  C13 UNL     1       0.895   2.919   3.047  1.00  0.00    -0.045 A 
HETATM   17  C14 UNL     1       1.246   1.758   2.398  1.00  0.00     0.002 A 
HETATM   18  C29 UNL     1       1.712   3.696   3.977  1.00  0.00     0.045 A 
HETATM   19  C15 UNL     1       0.372   1.120   1.540  1.00  0.00     0.044 A 
HETATM   20  C16 UNL     1       2.591   1.214   2.649  1.00  0.00     0.075 A 
HETATM   21  C17 UNL     1       3.400   1.929   3.532  1.00  0.00     0.038 A 
HETATM   22  N4  UNL     1       3.239   0.152   2.208  1.00  0.00    -0.291 N 
HETATM   23  N3  UNL     1       4.560   1.251   3.601  1.00  0.00    -0.353 N 
HETATM   24  C28 UNL     1       3.052   3.160   4.234  1.00  0.00     0.064 A 
HETATM   25  C18 UNL     1       4.479   0.190   2.816  1.00  0.00     0.190 A 
ATOM     26  H3  UNL     1       5.368   1.512   4.166  1.00  0.00     0.166 HD
BRANCH  22  27
HETATM   27  C19 UNL     1       2.853  -0.866   1.309  1.00  0.00     0.113 A 
HETATM   28  C20 UNL     1       2.306  -2.068   1.791  1.00  0.00     0.051 A 
HETATM   29  C21 UNL     1       1.971  -3.100   0.944  1.00  0.00     0.035 A 
HETATM   30  C22 UNL     1       2.162  -2.992  -0.426  1.00  0.00     0.059 A 
HETATM   31  N5  UNL     1       1.842  -3.988  -1.271  1.00  0.00    -0.363 N 
HETATM   32  C27 UNL     1       2.699  -1.805  -0.880  1.00  0.00     0.062 A 
HETATM   33  C23 UNL     1       2.027  -3.883  -2.606  1.00  0.00     0.111 A 
ATOM     34  H5  UNL     1       1.448  -4.849  -0.893  1.00  0.00     0.165 HD
HETATM   35  C24 UNL     1       2.562  -2.715  -3.112  1.00  0.00     0.062 A 
HETATM   36  C25 UNL     1       2.753  -2.620  -4.534  1.00  0.00     0.101 C 
HETATM   37  C26 UNL     1       2.889  -1.697  -2.247  1.00  0.00     0.056 A 
HETATM   38  N6  UNL     1       2.920  -2.532  -5.682  1.00  0.00    -0.191 NA
HETATM   39  N7  UNL     1       3.017  -0.815  -0.032  1.00  0.00    -0.340 N 
ATOM     40  H7  UNL     1       3.411   0.038  -0.428  1.00  0.00     0.167 HD
ENDBRANCH  22  27
ENDBRANCH  11  13
ENDBRANCH   7   9
BRANCH   6  41
HETATM   41  O1  UNL     1      -4.451   0.258  -0.512  1.00  0.00    -0.263 OA
BRANCH  41  42
HETATM   42  C7  UNL     1      -5.320   1.337  -0.844  1.00  0.00     0.378 C 
HETATM   43  N1  UNL     1      -6.000   1.968   0.210  1.00  0.00    -0.032 NA
HETATM   44  O2  UNL     1      -5.399   1.628  -2.045  1.00  0.00    -0.242 OA
ENDBRANCH  41  42
ENDBRANCH   6  41
TORSDOF 5
