REMARK  17 active torsions:
REMARK  status: ('A' for Active; 'I' for Inactive)
REMARK    1  A    between atoms: C2_2  and  C3_3 
REMARK    2  A    between atoms: C3_3  and  C4_4 
REMARK    3  A    between atoms: C4_4  and  C5_5 
REMARK    4  A    between atoms: C5_5  and  C6_6 
REMARK    5  A    between atoms: C5_5  and  C9_9 
REMARK    6  A    between atoms: C9_9  and  O1_10 
REMARK    7  A    between atoms: C9_9  and  C10_12 
REMARK    8  A    between atoms: C10_12  and  O2_14 
REMARK    9  A    between atoms: C10_12  and  C12_16 
REMARK   10  A    between atoms: C15_19  and  C16_20 
REMARK   11  A    between atoms: C16_20  and  O3_21 
REMARK   12  A    between atoms: C16_20  and  C17_23 
REMARK   13  A    between atoms: C17_23  and  O4_24 
REMARK   14  A    between atoms: C17_23  and  C18_26 
REMARK   15  A    between atoms: C18_26  and  O5_27 
REMARK   16  A    between atoms: C18_26  and  C19_29 
REMARK   17  A    between atoms: C19_29  and  O6_30 
ROOT
HETATM    1  C12 UNL     1       0.568  -0.112   0.163  1.00  0.00     0.158 C 
HETATM    2  C13 UNL     1       0.891   0.798  -1.006  1.00  0.00     0.038 C 
HETATM    3  C14 UNL     1       2.422   0.604  -1.013  1.00  0.00     0.037 C 
HETATM    4  C15 UNL     1       2.695   0.512   0.471  1.00  0.00     0.153 C 
HETATM    5  O7  UNL     1       1.475   0.318   1.118  1.00  0.00    -0.375 OA
ENDROOT
BRANCH   1   6
HETATM    6  C10 UNL     1      -0.835   0.176   0.720  1.00  0.00     0.106 C 
HETATM    7  C11 UNL     1      -0.851  -0.422   2.079  1.00  0.00     0.051 C 
BRANCH   6   8
HETATM    8  C9  UNL     1      -1.883  -0.179  -0.241  1.00  0.00     0.162 C 
BRANCH   8   9
HETATM    9  C5  UNL     1      -3.106   0.704  -0.326  1.00  0.00     0.045 C 
BRANCH   9  10
HETATM   10  C4  UNL     1      -3.649   0.710  -1.720  1.00  0.00     0.015 C 
BRANCH  10  11
HETATM   11  C3  UNL     1      -4.229  -0.469  -2.340  1.00  0.00     0.027 C 
BRANCH  11  12
HETATM   12  C2  UNL     1      -5.409  -1.108  -1.754  1.00  0.00    -0.037 C 
HETATM   13  C1  UNL     1      -5.417  -2.433  -1.484  1.00  0.00     0.007 C 
ENDBRANCH  11  12
ENDBRANCH  10  11
ENDBRANCH   9  10
BRANCH   9  14
HETATM   14  C6  UNL     1      -4.170   0.413   0.632  1.00  0.00    -0.086 C 
HETATM   15  C7  UNL     1      -4.295  -0.539   1.508  1.00  0.00     0.014 C 
HETATM   16  C8  UNL     1      -5.306   1.434   0.643  1.00  0.00     0.043 C 
ENDBRANCH   9  14
ENDBRANCH   8   9
BRANCH   8  17
HETATM   17  O1  UNL     1      -2.035  -1.496  -0.488  1.00  0.00    -0.392 OA
ATOM     18  H1  UNL     1      -1.266  -2.051  -0.435  1.00  0.00     0.210 HD
ENDBRANCH   8  17
ENDBRANCH   6   8
BRANCH   6  19
HETATM   19  O2  UNL     1      -0.820   1.589   0.901  1.00  0.00    -0.385 OA
ATOM     20  H2  UNL     1      -0.141   1.819   1.524  1.00  0.00     0.210 HD
ENDBRANCH   6  19
ENDBRANCH   1   6
BRANCH   4  21
HETATM   21  C16 UNL     1       3.559  -0.663   0.842  1.00  0.00     0.178 C 
BRANCH  21  22
HETATM   22  O3  UNL     1       3.770  -0.782   2.210  1.00  0.00    -0.390 OA
ATOM     23  H3  UNL     1       4.315  -1.524   2.444  1.00  0.00     0.210 HD
ENDBRANCH  21  22
BRANCH  21  24
HETATM   24  C17 UNL     1       4.772  -0.875   0.024  1.00  0.00     0.180 C 
BRANCH  24  25
HETATM   25  O4  UNL     1       5.237  -2.213   0.251  1.00  0.00    -0.390 OA
ATOM     26  H4  UNL     1       6.016  -2.349  -0.275  1.00  0.00     0.210 HD
ENDBRANCH  24  25
BRANCH  24  27
HETATM   27  C18 UNL     1       5.947  -0.018   0.246  1.00  0.00     0.173 C 
BRANCH  27  28
HETATM   28  O5  UNL     1       6.445  -0.151   1.559  1.00  0.00    -0.391 OA
ATOM     29  H5  UNL     1       7.204   0.402   1.702  1.00  0.00     0.210 HD
ENDBRANCH  27  28
BRANCH  27  30
HETATM   30  C19 UNL     1       5.896   1.411  -0.101  1.00  0.00     0.198 C 
BRANCH  30  31
HETATM   31  O6  UNL     1       7.230   1.906  -0.039  1.00  0.00    -0.398 OA
ATOM     32  H6  UNL     1       7.197   2.829  -0.263  1.00  0.00     0.209 HD
ENDBRANCH  30  31
ENDBRANCH  27  30
ENDBRANCH  24  27
ENDBRANCH  21  24
ENDBRANCH   4  21
TORSDOF 17
