REMARK  14 active torsions:
REMARK  status: ('A' for Active; 'I' for Inactive)
REMARK    1  A    between atoms: N1_2  and  C2_4 
REMARK    2  A    between atoms: C2_4  and  O1_5 
REMARK    3  A    between atoms: C2_4  and  C3_7 
REMARK    4  A    between atoms: C3_7  and  C4_8 
REMARK    5  A    between atoms: C3_7  and  C8_12 
REMARK    6  A    between atoms: C4_8  and  C5_9 
REMARK    7  A    between atoms: C8_12  and  C9_13 
REMARK    8  A    between atoms: C9_13  and  O2_14 
REMARK    9  A    between atoms: C9_13  and  N2_16 
REMARK   10  A    between atoms: C13_21  and  C14_22 
REMARK   11  A    between atoms: C14_22  and  N3_23 
REMARK   12  A    between atoms: N3_23  and  C15_26 
REMARK   13  A    between atoms: C15_26  and  O4_27 
REMARK   14  A    between atoms: C15_26  and  C16_29 
ROOT
HETATM    1  N2  UNL     1       0.450  -0.239   0.141  1.00  0.00     0.147 N 
HETATM    2  C10 UNL     1       0.631  -0.934  -1.100  1.00  0.00     0.281 C 
HETATM    3  C11 UNL     1       0.708  -0.079  -2.316  1.00  0.00     0.056 C 
HETATM    4  C12 UNL     1       1.437   1.225  -2.117  1.00  0.00     0.172 C 
HETATM    5  O3  UNL     1       1.277   1.722  -0.826  1.00  0.00    -0.356 OA
HETATM    6  C13 UNL     1       1.489   0.799   0.166  1.00  0.00     0.388 C 
ENDROOT
BRANCH   1   7
HETATM    7  C9  UNL     1      -0.823   0.522   0.171  1.00  0.00     0.360 C 
BRANCH   7   8
HETATM    8  C8  UNL     1      -1.915  -0.530   0.000  1.00  0.00     0.077 C 
BRANCH   8   9
HETATM    9  C3  UNL     1      -3.304   0.020   0.238  1.00  0.00     0.064 C 
BRANCH   9  10
HETATM   10  C2  UNL     1      -4.318  -1.041  -0.018  1.00  0.00     0.115 C 
BRANCH  10  11
HETATM   11  N1  UNL     1      -4.222  -2.268   0.637  1.00  0.00    -0.379 N 
HETATM   12  C1  UNL     1      -3.224  -3.212   0.421  1.00  0.00     0.148 C 
ATOM     13  H1  UNL     1      -4.939  -2.490   1.328  1.00  0.00     0.160 HD
ENDBRANCH  10  11
BRANCH  10  14
HETATM   14  O1  UNL     1      -5.626  -0.608  -0.232  1.00  0.00    -0.349 OA
ATOM     15  H1  UNL     1      -5.691   0.228  -0.678  1.00  0.00     0.219 HD
ENDBRANCH  10  14
ENDBRANCH   9  10
BRANCH   9  16
HETATM   16  C4  UNL     1      -3.467   1.313  -0.427  1.00  0.00     0.017 C 
BRANCH  16  17
HETATM   17  C5  UNL     1      -4.551   2.260  -0.179  1.00  0.00    -0.014 A 
HETATM   18  C6  UNL     1      -4.517   2.803   1.300  1.00  0.00     0.005 A 
HETATM   19  C7  UNL     1      -5.742   2.257   0.630  1.00  0.00     0.005 A 
ENDBRANCH  16  17
ENDBRANCH   9  16
ENDBRANCH   8   9
ENDBRANCH   7   8
BRANCH   7  20
HETATM   20  O2  UNL     1      -0.880   1.041   1.452  1.00  0.00    -0.368 OA
ATOM     21  H2  UNL     1      -0.200   1.696   1.558  1.00  0.00     0.212 HD
ENDBRANCH   7  20
ENDBRANCH   1   7
BRANCH   6  22
HETATM   22  C14 UNL     1       2.861   0.186  -0.011  1.00  0.00     0.299 C 
BRANCH  22  23
HETATM   23  N3  UNL     1       3.137  -0.782   1.004  1.00  0.00    -0.039 N 
ATOM     24  H32 UNL     1       3.090  -0.351   1.927  1.00  0.00     0.280 HD
ATOM     25  H31 UNL     1       2.366  -1.445   1.081  1.00  0.00     0.280 HD
BRANCH  23  26
HETATM   26  C15 UNL     1       4.386  -1.483   0.841  1.00  0.00     0.369 C 
BRANCH  26  27
HETATM   27  O4  UNL     1       4.348  -2.268  -0.339  1.00  0.00    -0.365 OA
ATOM     28  H4  UNL     1       5.171  -2.730  -0.446  1.00  0.00     0.212 HD
ENDBRANCH  26  27
BRANCH  26  29
HETATM   29  C16 UNL     1       5.569  -0.619   0.776  1.00  0.00     0.065 A 
HETATM   30  C17 UNL     1       5.855   0.468   1.569  1.00  0.00     0.031 A 
HETATM   31  C18 UNL     1       7.061   0.957   1.153  1.00  0.00     0.019 A 
HETATM   32  C19 UNL     1       7.504   0.175   0.115  1.00  0.00     0.088 A 
HETATM   33  N4  UNL     1       6.586  -0.770  -0.094  1.00  0.00    -0.366 N 
ATOM     34  H4  UNL     1       6.645  -1.498  -0.806  1.00  0.00     0.165 HD
ENDBRANCH  26  29
ENDBRANCH  23  26
ENDBRANCH  22  23
ENDBRANCH   6  22
TORSDOF 14
