REMARK  14 active torsions:
REMARK  status: ('A' for Active; 'I' for Inactive)
REMARK    1  A    between atoms: C2_2  and  O1_3 
REMARK    2  A    between atoms: C2_2  and  C3_5 
REMARK    3  A    between atoms: C3_5  and  N1_6 
REMARK    4  A    between atoms: C3_5  and  C5_12 
REMARK    5  A    between atoms: N1_6  and  C4_8 
REMARK    6  A    between atoms: C8_15  and  O2_16 
REMARK    7  A    between atoms: O2_16  and  C9_17 
REMARK    8  A    between atoms: C9_17  and  C10_18 
REMARK    9  A    between atoms: C10_18  and  N3_19 
REMARK   10  A    between atoms: C10_18  and  O3_23 
REMARK   11  A    between atoms: O3_23  and  C11_24 
REMARK   12  A    between atoms: C15_28  and  C16_29 
REMARK   13  A    between atoms: C16_29  and  C17_30 
REMARK   14  A    between atoms: C17_30  and  O4_31 
ROOT
HETATM    1  O2  UNL     1      -0.288  -0.423  -0.929  1.00  0.00    -0.347 OA
ENDROOT
BRANCH   1   2
HETATM    2  C8  UNL     1      -1.656  -0.404  -0.684  1.00  0.00     0.069 A 
HETATM    3  C7  UNL     1      -2.330   0.794  -0.774  1.00  0.00     0.037 A 
HETATM    4  C6  UNL     1      -3.693   0.845  -0.535  1.00  0.00     0.012 A 
HETATM    5  C5  UNL     1      -4.431  -0.273  -0.202  1.00  0.00    -0.033 A 
HETATM    6  C19 UNL     1      -3.732  -1.456  -0.119  1.00  0.00     0.012 A 
HETATM    7  C18 UNL     1      -2.366  -1.525  -0.355  1.00  0.00     0.037 A 
BRANCH   5   8
HETATM    8  C3  UNL     1      -5.877  -0.268   0.091  1.00  0.00     0.143 C 
BRANCH   8   9
HETATM    9  C2  UNL     1      -6.432   1.105   0.319  1.00  0.00     0.141 C 
HETATM   10  C1  UNL     1      -7.851   0.975   0.861  1.00  0.00     0.042 C 
BRANCH   9  11
HETATM   11  O1  UNL     1      -5.704   1.788   1.282  1.00  0.00    -0.394 OA
ATOM     12  H1  UNL     1      -4.820   1.869   0.944  1.00  0.00     0.210 HD
ENDBRANCH   9  11
ENDBRANCH   8   9
BRANCH   8  13
HETATM   13  N1  UNL     1      -6.631  -1.008  -0.887  1.00  0.00    -0.375 N 
ATOM     14  H1  UNL     1      -7.429  -0.534  -1.311  1.00  0.00     0.161 HD
BRANCH  13  15
HETATM   15  C4  UNL     1      -6.369  -2.332  -1.316  1.00  0.00     0.169 C 
HETATM   16  N2  UNL     1      -7.084  -3.346  -0.918  1.00  0.00    -0.396 N 
ATOM     17  H22 UNL     1      -7.855  -3.163  -0.276  1.00  0.00     0.156 HD
ATOM     18  H21 UNL     1      -6.895  -4.300  -1.227  1.00  0.00     0.156 HD
ENDBRANCH  13  15
ENDBRANCH   8  13
ENDBRANCH   5   8
ENDBRANCH   1   2
BRANCH   1  19
HETATM   19  C9  UNL     1       0.435   0.746  -1.268  1.00  0.00     0.236 C 
BRANCH  19  20
HETATM   20  C10 UNL     1       1.872   0.361  -1.461  1.00  0.00     0.345 C 
BRANCH  20  21
HETATM   21  N3  UNL     1       2.041  -0.618  -2.518  1.00  0.00    -0.051 N 
ATOM     22  H33 UNL     1       1.458  -1.439  -2.357  1.00  0.00     0.277 HD
ATOM     23  H32 UNL     1       1.626  -0.293  -3.391  1.00  0.00     0.277 HD
ATOM     24  H31 UNL     1       3.018  -0.880  -2.649  1.00  0.00     0.277 HD
ENDBRANCH  20  21
BRANCH  20  25
HETATM   25  O3  UNL     1       2.534  -0.042  -0.361  1.00  0.00    -0.327 OA
BRANCH  25  26
HETATM   26  C11 UNL     1       3.614   0.698   0.048  1.00  0.00     0.263 C 
HETATM   27  C12 UNL     1       3.582   1.112   1.481  1.00  0.00     0.061 C 
HETATM   28  C13 UNL     1       4.798   0.629   2.249  1.00  0.00     0.007 C 
HETATM   29  C14 UNL     1       6.089   0.921   1.475  1.00  0.00     0.032 C 
HETATM   30  C15 UNL     1       5.920   0.610   0.015  1.00  0.00     0.126 C 
HETATM   31  O5  UNL     1       4.738  -0.118  -0.121  1.00  0.00    -0.356 OA
BRANCH  30  32
HETATM   32  C16 UNL     1       7.034  -0.202  -0.565  1.00  0.00     0.058 C 
BRANCH  32  33
HETATM   33  C17 UNL     1       7.213  -1.540   0.095  1.00  0.00     0.166 C 
BRANCH  33  34
HETATM   34  O4  UNL     1       8.289  -2.172  -0.559  1.00  0.00    -0.401 OA
ATOM     35  H4  UNL     1       8.402  -3.018  -0.142  1.00  0.00     0.209 HD
ENDBRANCH  33  34
ENDBRANCH  32  33
ENDBRANCH  30  32
ENDBRANCH  25  26
ENDBRANCH  20  25
ENDBRANCH  19  20
ENDBRANCH   1  19
TORSDOF 14
