REMARK  15 active torsions:
REMARK  status: ('A' for Active; 'I' for Inactive)
REMARK    1  A    between atoms: C5_5  and  N1_6 
REMARK    2  A    between atoms: N1_6  and  C6_9 
REMARK    3  A    between atoms: C6_9  and  C7_10 
REMARK    4  A    between atoms: C7_10  and  C8_11 
REMARK    5  A    between atoms: C8_11  and  C9_12 
REMARK    6  A    between atoms: C9_12  and  C10_13 
REMARK    7  A    between atoms: C10_13  and  C11_14 
REMARK    8  A    between atoms: C11_14  and  C12_15 
REMARK    9  A    between atoms: C12_15  and  N2_16 
REMARK   10  A    between atoms: N2_16  and  C13_18 
REMARK   11  A    between atoms: C15_20  and  N3_21 
REMARK   12  A    between atoms: C16_25  and  O1_26 
REMARK   13  A    between atoms: C17_29  and  C18_30 
REMARK   14  A    between atoms: C18_30  and  O3_31 
REMARK   15  A    between atoms: C20_34  and  N4_35 
ROOT
HETATM    1  C10 UNL     1       1.573  -0.553   1.186  1.00  0.00     0.005 C 
ENDROOT
BRANCH   1   2
HETATM    2  C9  UNL     1       0.468  -1.324   0.604  1.00  0.00     0.000 C 
BRANCH   2   3
HETATM    3  C8  UNL     1      -0.879  -0.748   0.554  1.00  0.00     0.002 C 
BRANCH   3   4
HETATM    4  C7  UNL     1      -1.157   0.513  -0.145  1.00  0.00     0.027 C 
BRANCH   4   5
HETATM    5  C6  UNL     1      -2.646   0.889  -0.084  1.00  0.00     0.232 C 
BRANCH   5   6
HETATM    6  N1  UNL     1      -3.468  -0.115  -0.674  1.00  0.00    -0.071 N 
ATOM      7  H12 UNL     1      -3.290  -1.040  -0.282  1.00  0.00     0.277 HD
ATOM      8  H11 UNL     1      -3.204  -0.313  -1.639  1.00  0.00     0.277 HD
BRANCH   6   9
HETATM    9  C5  UNL     1      -4.886   0.281  -0.552  1.00  0.00     0.188 C 
HETATM   10  C4  UNL     1      -5.669  -0.062  -1.767  1.00  0.00     0.033 C 
HETATM   11  C3  UNL     1      -7.013   0.624  -1.647  1.00  0.00     0.008 C 
HETATM   12  C2  UNL     1      -7.546   0.437  -0.265  1.00  0.00     0.012 C 
HETATM   13  C1  UNL     1      -9.052   0.181  -0.253  1.00  0.00     0.012 C 
HETATM   14  C20 UNL     1      -6.907  -0.719   0.429  1.00  0.00     0.189 C 
HETATM   15  C19 UNL     1      -5.429  -0.438   0.645  1.00  0.00     0.066 C 
BRANCH  14  16
HETATM   16  N4  UNL     1      -7.537  -0.967   1.719  1.00  0.00    -0.075 N 
ATOM     17  H43 UNL     1      -7.538  -0.131   2.304  1.00  0.00     0.274 HD
ATOM     18  H42 UNL     1      -8.545  -1.094   1.627  1.00  0.00     0.274 HD
ATOM     19  H41 UNL     1      -7.100  -1.757   2.193  1.00  0.00     0.274 HD
ENDBRANCH  14  16
ENDBRANCH   6   9
ENDBRANCH   5   6
ENDBRANCH   4   5
ENDBRANCH   3   4
ENDBRANCH   2   3
ENDBRANCH   1   2
BRANCH   1  20
HETATM   20  C11 UNL     1       2.069   0.588   0.396  1.00  0.00     0.044 C 
BRANCH  20  21
HETATM   21  C12 UNL     1       3.110   1.353   1.194  1.00  0.00     0.056 C 
BRANCH  21  22
HETATM   22  N2  UNL     1       4.255   0.746   1.641  1.00  0.00    -0.395 N 
ATOM     23  H2  UNL     1       4.309   0.603   2.649  1.00  0.00     0.159 HD
BRANCH  22  24
HETATM   24  C13 UNL     1       5.340   0.303   0.924  1.00  0.00     0.114 C 
HETATM   25  C14 UNL     1       5.229  -0.815  -0.061  1.00  0.00     0.065 C 
HETATM   26  C15 UNL     1       6.639  -1.342  -0.273  1.00  0.00     0.240 C 
HETATM   27  C16 UNL     1       7.706  -0.422   0.187  1.00  0.00     0.287 C 
HETATM   28  O2  UNL     1       7.479   0.908   0.214  1.00  0.00    -0.350 OA
HETATM   29  C17 UNL     1       6.186   1.352   0.248  1.00  0.00     0.170 C 
BRANCH  26  30
HETATM   30  N3  UNL     1       6.740  -2.573   0.491  1.00  0.00    -0.070 N 
ATOM     31  H33 UNL     1       6.496  -2.459   1.475  1.00  0.00     0.274 HD
ATOM     32  H32 UNL     1       6.016  -3.253   0.258  1.00  0.00     0.274 HD
ATOM     33  H31 UNL     1       7.686  -2.927   0.349  1.00  0.00     0.274 HD
ENDBRANCH  26  30
BRANCH  27  34
HETATM   34  O1  UNL     1       8.828  -0.655  -0.635  1.00  0.00    -0.369 OA
ATOM     35  H1  UNL     1       9.512  -0.065  -0.340  1.00  0.00     0.212 HD
ENDBRANCH  27  34
BRANCH  29  36
HETATM   36  C18 UNL     1       5.820   1.625  -1.196  1.00  0.00     0.198 C 
BRANCH  36  37
HETATM   37  O3  UNL     1       6.742   2.618  -1.617  1.00  0.00    -0.398 OA
ATOM     38  H3  UNL     1       6.512   2.789  -2.523  1.00  0.00     0.209 HD
ENDBRANCH  36  37
ENDBRANCH  29  36
ENDBRANCH  22  24
ENDBRANCH  21  22
ENDBRANCH  20  21
ENDBRANCH   1  20
TORSDOF 15
