REMARK  9 active torsions:
REMARK  status: ('A' for Active; 'I' for Inactive)
REMARK       I    between atoms: C1_4  and  N3_6 
REMARK    1  A    between atoms: N3_6  and  C2_8 
REMARK    2  A    between atoms: C5_17  and  N6_18 
REMARK    3  A    between atoms: N6_18  and  C6_20 
REMARK    4  A    between atoms: C6_20  and  C7_21 
REMARK    5  A    between atoms: C7_21  and  O3_22 
REMARK    6  A    between atoms: O3_22  and  N7_23 
REMARK    7  A    between atoms: N7_23  and  C8_24 
REMARK    8  A    between atoms: C8_24  and  C9_25 
REMARK    9  A    between atoms: C9_25  and  O4_26 
ROOT
HETATM    1  C2  UNL     1      -3.135  -0.022  -0.477  1.00  0.00     0.690 C 
HETATM    2  N4  UNL     1      -3.899  -0.664   0.411  1.00  0.00    -0.141 N 
ATOM      3  H4  UNL     1      -4.857  -0.333   0.522  1.00  0.00     0.189 HD
HETATM    4  C3  UNL     1      -3.520  -1.708   1.173  1.00  0.00     0.341 C 
HETATM    5  O1  UNL     1      -4.401  -2.094   1.960  1.00  0.00    -0.246 OA
HETATM    6  N5  UNL     1      -2.369  -2.400   1.233  1.00  0.00    -0.272 N 
ATOM      7  H5  UNL     1      -2.293  -3.109   1.962  1.00  0.00     0.174 HD
HETATM    8  C4  UNL     1      -1.297  -2.242   0.412  1.00  0.00     0.293 C 
HETATM    9  O2  UNL     1      -0.550  -3.246   0.307  1.00  0.00    -0.264 OA
HETATM   10  C5  UNL     1      -0.952  -1.109  -0.307  1.00  0.00     0.185 C 
HETATM   11  N8  UNL     1      -1.847  -0.226  -0.819  1.00  0.00    -0.171 N 
ATOM     12  H8  UNL     1      -1.495   0.368  -1.570  1.00  0.00     0.186 HD
ENDROOT
BRANCH  10  13
HETATM   13  N6  UNL     1       0.270  -0.882  -0.497  1.00  0.00    -0.369 N 
ATOM     14  H6  UNL     1       0.469  -0.036  -1.031  1.00  0.00     0.161 HD
BRANCH  13  15
HETATM   15  C6  UNL     1       1.420  -1.613  -0.088  1.00  0.00     0.149 C 
BRANCH  15  16
HETATM   16  C7  UNL     1       2.641  -0.694  -0.280  1.00  0.00     0.215 C 
BRANCH  16  17
HETATM   17  O3  UNL     1       2.480   0.427   0.488  1.00  0.00    -0.285 OA
BRANCH  17  18
HETATM   18  N7  UNL     1       3.491   1.265   0.369  1.00  0.00    -0.099 NA
BRANCH  18  19
HETATM   19  C8  UNL     1       4.702   0.591   0.046  1.00  0.00     0.168 C 
BRANCH  19  20
HETATM   20  C9  UNL     1       5.796   1.657  -0.038  1.00  0.00     0.182 C 
BRANCH  20  21
HETATM   21  O4  UNL     1       5.898   2.299   1.187  1.00  0.00    -0.400 OA
ATOM     22  H4  UNL     1       6.577   2.961   1.135  1.00  0.00     0.209 HD
ENDBRANCH  20  21
ENDBRANCH  19  20
ENDBRANCH  18  19
ENDBRANCH  17  18
ENDBRANCH  16  17
ENDBRANCH  15  16
ENDBRANCH  13  15
ENDBRANCH  10  13
BRANCH   1  23
HETATM   23  N3  UNL     1      -3.700   0.930  -1.100  1.00  0.00    -0.163 N 
HETATM   24  C1  UNL     1      -5.025   1.354  -0.941  1.00  0.00     0.200 C 
HETATM   25  N1  UNL     1      -6.033   0.854  -1.572  1.00  0.00    -0.373 N 
HETATM   26  N2  UNL     1      -5.296   2.405  -0.028  1.00  0.00    -0.063 NA
ATOM     27  H12 UNL     1      -6.998   1.163  -1.456  1.00  0.00     0.158 HD
ATOM     28  H11 UNL     1      -5.838   0.098  -2.229  1.00  0.00     0.158 HD
ATOM     29  H3  UNL     1      -3.134   1.434  -1.782  1.00  0.00     0.187 HD
ENDBRANCH   1  23
TORSDOF 9
