REMARK  9 active torsions:
REMARK  status: ('A' for Active; 'I' for Inactive)
REMARK    1  A    between atoms: N1_1  and  C1_4 
REMARK    2  A    between atoms: N4_10  and  C3_11 
REMARK    3  A    between atoms: C3_11  and  C4_12 
REMARK    4  A    between atoms: C4_12  and  O1_13 
REMARK    5  A    between atoms: O1_13  and  C5_14 
REMARK    6  A    between atoms: C5_14  and  N5_15 
REMARK    7  A    between atoms: C6_22  and  C7_23 
REMARK    8  A    between atoms: C7_23  and  N9_24 
REMARK    9  A    between atoms: C8_28  and  N10_29 
ROOT
HETATM    1  C1  UNL     1       5.671  -0.872  -0.391  1.00  0.00     0.679 A 
HETATM    2  N2  UNL     1       5.021   0.300  -0.415  1.00  0.00    -0.172 N 
ATOM      3  H2  UNL     1       5.466   1.218  -0.430  1.00  0.00     0.186 HD
HETATM    4  C2  UNL     1       3.692   0.083  -0.416  1.00  0.00     0.181 A 
HETATM    5  N3  UNL     1       2.605   0.906  -0.435  1.00  0.00    -0.265 N 
ATOM      6  H3  UNL     1       2.737   1.917  -0.453  1.00  0.00     0.189 HD
HETATM    7  N4  UNL     1       1.381   0.404  -0.430  1.00  0.00    -0.120 N 
HETATM    8  C8  UNL     1       1.232  -0.923  -0.406  1.00  0.00     0.694 A 
HETATM    9  N11 UNL     1       2.278  -1.778  -0.386  1.00  0.00    -0.171 N 
ATOM     10  H11 UNL     1       2.120  -2.786  -0.367  1.00  0.00     0.186 HD
HETATM   11  C9  UNL     1       3.527  -1.287  -0.391  1.00  0.00     0.182 A 
HETATM   12  N12 UNL     1       4.757  -1.859  -0.376  1.00  0.00    -0.172 N 
ATOM     13  H12 UNL     1       4.954  -2.860  -0.357  1.00  0.00     0.186 HD
ENDROOT
BRANCH   7  14
HETATM   14  C3  UNL     1       0.207   1.253  -0.450  1.00  0.00     0.195 C 
BRANCH  14  15
HETATM   15  C4  UNL     1      -0.142   1.528   0.985  1.00  0.00     0.198 C 
BRANCH  15  16
HETATM   16  O1  UNL     1      -1.137   2.298   1.306  1.00  0.00    -0.343 OA
BRANCH  16  17
HETATM   17  C5  UNL     1      -2.413   2.303   1.138  1.00  0.00     0.254 C 
BRANCH  17  18
HETATM   18  N5  UNL     1      -3.273   1.265   1.650  1.00  0.00    -0.215 N 
HETATM   19  N6  UNL     1      -3.763   1.172   2.865  1.00  0.00    -0.219 N 
HETATM   20  N7  UNL     1      -4.466   0.078   2.942  1.00  0.00    -0.226 N 
ATOM     21  H6  UNL     1      -3.618   1.842   3.620  1.00  0.00     0.210 HD
HETATM   22  N8  UNL     1      -4.442  -0.548   1.790  1.00  0.00    -0.270 N 
ATOM     23  H7  UNL     1      -4.961  -0.244   3.774  1.00  0.00     0.210 HD
HETATM   24  C6  UNL     1      -3.681   0.208   0.961  1.00  0.00     0.147 A 
ATOM     25  H8  UNL     1      -4.904  -1.429   1.563  1.00  0.00     0.190 HD
BRANCH  24  26
HETATM   26  C7  UNL     1      -3.458  -0.185  -0.460  1.00  0.00     0.309 C 
BRANCH  26  27
HETATM   27  N9  UNL     1      -4.755  -0.368  -1.133  1.00  0.00    -0.073 N 
ATOM     28  H93 UNL     1      -5.353  -1.031  -0.640  1.00  0.00     0.274 HD
ATOM     29  H92 UNL     1      -5.350   0.456  -1.051  1.00  0.00     0.274 HD
ATOM     30  H91 UNL     1      -4.602  -0.637  -2.105  1.00  0.00     0.274 HD
ENDBRANCH  26  27
ENDBRANCH  24  26
ENDBRANCH  17  18
ENDBRANCH  16  17
ENDBRANCH  15  16
ENDBRANCH  14  15
ENDBRANCH   7  14
BRANCH   8  31
HETATM   31  N10 UNL     1       0.073  -1.479  -0.400  1.00  0.00    -0.233 N 
ATOM     32 2H10 UNL     1      -0.717  -0.834  -0.415  1.00  0.00     0.174 HD
ATOM     33 1H10 UNL     1      -0.041  -2.492  -0.382  1.00  0.00     0.174 HD
ENDBRANCH   8  31
BRANCH   1  34
HETATM   34  N1  UNL     1       6.953  -1.036  -0.383  1.00  0.00    -0.234 N 
ATOM     35  H12 UNL     1       7.646  -0.288  -0.394  1.00  0.00     0.174 HD
ATOM     36  H11 UNL     1       7.448  -1.928  -0.365  1.00  0.00     0.174 HD
ENDBRANCH   1  34
TORSDOF 9
