REMARK  10 active torsions:
REMARK  status: ('A' for Active; 'I' for Inactive)
REMARK    1  A    between atoms: N2_4  and  N3_6 
REMARK       I    between atoms: N3_6  and  C1_8 
REMARK    2  A    between atoms: N5_10  and  C2_12 
REMARK    3  A    between atoms: C2_12  and  C3_13 
REMARK    4  A    between atoms: C4_16  and  N7_17 
REMARK    5  A    between atoms: N9_23  and  C6_25 
REMARK    6  A    between atoms: C6_25  and  O1_26 
REMARK    7  A    between atoms: C6_25  and  C7_28 
REMARK    8  A    between atoms: C7_28  and  C8_29 
REMARK    9  A    between atoms: C8_29  and  C9_30 
REMARK   10  A    between atoms: C9_30  and  N10_31 
ROOT
HETATM    1  C3  UNL     1       1.769   1.074   0.073  1.00  0.00     0.131 A 
HETATM    2  N6  UNL     1       1.513   2.307   0.543  1.00  0.00    -0.176 N 
ATOM      3  H6  UNL     1       2.277   2.871   0.915  1.00  0.00     0.185 HD
HETATM    4  C4  UNL     1       0.272   2.805   0.530  1.00  0.00     0.722 A 
HETATM    5  N8  UNL     1      -0.727   2.032   0.027  1.00  0.00    -0.020 N 
ATOM      6  H8  UNL     1      -1.674   2.412   0.016  1.00  0.00     0.203 HD
HETATM    7  C5  UNL     1      -0.535   0.814  -0.449  1.00  0.00     0.696 A 
HETATM    8  N9  UNL     1      -1.476   0.084  -0.923  1.00  0.00    -0.199 N 
ATOM      9  H9  UNL     1      -1.272  -0.850  -1.277  1.00  0.00     0.180 HD
HETATM   10  N11 UNL     1       0.750   0.346  -0.414  1.00  0.00    -0.178 N 
ATOM     11  H11 UNL     1       0.942  -0.590  -0.771  1.00  0.00     0.185 HD
ENDROOT
BRANCH   1  12
HETATM   12  C2  UNL     1       3.163   0.563   0.108  1.00  0.00     0.199 C 
BRANCH  12  13
HETATM   13  N5  UNL     1       3.212  -0.784  -0.447  1.00  0.00    -0.356 N 
HETATM   14  C1  UNL     1       4.273  -1.496  -0.385  1.00  0.00     0.204 C 
HETATM   15  N3  UNL     1       5.432  -0.969   0.236  1.00  0.00    -0.260 N 
HETATM   16  N4  UNL     1       4.265  -2.800  -0.942  1.00  0.00    -0.062 NA
ATOM     17  H3  UNL     1       5.398  -0.733   1.228  1.00  0.00     0.191 HD
ATOM     18  H5  UNL     1       2.380  -1.168  -0.896  1.00  0.00     0.162 HD
BRANCH  15  19
HETATM   19  N2  UNL     1       6.615  -0.764  -0.466  1.00  0.00    -0.247 N 
HETATM   20  N1  UNL     1       7.715  -1.280  -0.104  1.00  0.00    -0.331 N 
ATOM     21  H12 UNL     1       7.715  -1.863   0.733  1.00  0.00     0.178 HD
ATOM     22  H11 UNL     1       8.583  -1.130  -0.619  1.00  0.00     0.178 HD
ATOM     23  H2  UNL     1       6.597  -0.178  -1.301  1.00  0.00     0.207 HD
ENDBRANCH  15  19
ENDBRANCH  12  13
ENDBRANCH   1  12
BRANCH   4  24
HETATM   24  N7  UNL     1       0.053   3.980   0.982  1.00  0.00    -0.053 N 
HETATM   25  F1  UNL     1       1.086   4.692   1.466  1.00  0.00    -0.086 F 
ATOM     26  H7  UNL     1      -0.889   4.371   0.976  1.00  0.00     0.218 HD
ENDBRANCH   4  24
BRANCH   8  27
HETATM   27  C6  UNL     1      -2.822   0.591  -0.952  1.00  0.00     0.235 C 
BRANCH  27  28
HETATM   28  O1  UNL     1      -2.892   1.632  -1.901  1.00  0.00    -0.376 OA
ATOM     29  H1  UNL     1      -3.781   1.967  -1.920  1.00  0.00     0.212 HD
ENDBRANCH  27  28
BRANCH  27  30
HETATM   30  C7  UNL     1      -3.823  -0.482  -1.337  1.00  0.00     0.056 C 
BRANCH  30  31
HETATM   31  C8  UNL     1      -3.807  -1.635  -0.367  1.00  0.00     0.031 C 
BRANCH  31  32
HETATM   32  C9  UNL     1      -4.151  -1.188   1.036  1.00  0.00     0.230 C 
BRANCH  32  33
HETATM   33  N10 UNL     1      -5.466  -0.599   1.075  1.00  0.00    -0.079 N 
ATOM     34 3H10 UNL     1      -5.560   0.162   0.402  1.00  0.00     0.274 HD
ATOM     35 2H10 UNL     1      -6.173  -1.228   0.694  1.00  0.00     0.274 HD
ATOM     36 1H10 UNL     1      -5.698  -0.297   2.021  1.00  0.00     0.274 HD
ENDBRANCH  32  33
ENDBRANCH  31  32
ENDBRANCH  30  31
ENDBRANCH  27  30
ENDBRANCH   8  27
TORSDOF 10
