REMARK  1 active torsions:
REMARK  status: ('A' for Active; 'I' for Inactive)
REMARK    1  A    between atoms: C4_6  and  O2_7 
ROOT
HETATM    1  C1  UNL     1      -1.259  -0.983   0.057  1.00  0.00     0.043 C 
HETATM    2  C2  UNL     1      -0.339   0.092  -0.476  1.00  0.00     0.157 C 
HETATM    3  O1  UNL     1       0.822  -0.346  -0.994  1.00  0.00    -0.373 OA
HETATM    4  C3  UNL     1       1.695  -0.795  -0.053  1.00  0.00     0.244 C 
HETATM    5  S1  UNL     1       1.509   0.500   1.241  1.00  0.00    -0.109 SA
HETATM    6  C4  UNL     1      -0.087   1.140   0.583  1.00  0.00     0.210 C 
ENDROOT
BRANCH   6   7
HETATM    7  O2  UNL     1       0.101   2.379   0.008  1.00  0.00    -0.383 OA
ATOM      8  H2  UNL     1       0.259   3.038   0.674  1.00  0.00     0.211 HD
ENDBRANCH   6   7
TORSDOF 1
