REMARK  1 active torsions:
REMARK  status: ('A' for Active; 'I' for Inactive)
REMARK    1  A    between atoms: C4_5  and  O2_6 
ROOT
HETATM    1  C1  UNL     1       2.031  -0.183  -0.360  1.00  0.00     0.024 C 
HETATM    2  C2  UNL     1       0.852   0.552   0.178  1.00  0.00     0.072 C 
HETATM    3  C3  UNL     1      -0.048  -0.295   1.039  1.00  0.00     0.186 C 
HETATM    4  O1  UNL     1      -0.986  -0.903   0.245  1.00  0.00    -0.351 OA
HETATM    5  C4  UNL     1      -1.715   0.028  -0.437  1.00  0.00     0.322 C 
HETATM    6  S1  UNL     1      -0.332   1.006  -1.158  1.00  0.00    -0.103 SA
ENDROOT
BRANCH   5   7
HETATM    7  O2  UNL     1      -2.442  -0.600  -1.428  1.00  0.00    -0.362 OA
ATOM      8  H2  UNL     1      -2.949   0.048  -1.903  1.00  0.00     0.213 HD
ENDBRANCH   5   7
TORSDOF 1
