REMARK  2 active torsions:
REMARK  status: ('A' for Active; 'I' for Inactive)
REMARK    1  A    between atoms: C2_2  and  O1_3 
REMARK    2  A    between atoms: C4_8  and  O4_10 
ROOT
HETATM    1  C1  UNL     1      -0.980   1.369   0.761  1.00  0.00     0.085 C 
HETATM    2  C2  UNL     1      -0.732   0.002   0.236  1.00  0.00     0.217 C 
HETATM    3  O2  UNL     1      -1.593  -0.288  -0.848  1.00  0.00    -0.326 OA
HETATM    4  C3  UNL     1      -0.826  -1.268  -1.505  1.00  0.00     0.345 C 
HETATM    5  O3  UNL     1       0.400  -0.584  -1.617  1.00  0.00    -0.326 OA
HETATM    6  C4  UNL     1       0.626  -0.280  -0.253  1.00  0.00     0.217 C 
HETATM    7  C5  UNL     1       1.610   0.829  -0.205  1.00  0.00     0.085 C 
ENDROOT
BRANCH   2   8
HETATM    8  O1  UNL     1      -1.122  -0.915   1.235  1.00  0.00    -0.361 OA
ATOM      9  H1  UNL     1      -0.963  -1.789   0.899  1.00  0.00     0.213 HD
ENDBRANCH   2   8
BRANCH   6  10
HETATM   10  O4  UNL     1       1.128  -1.479   0.299  1.00  0.00    -0.361 OA
ATOM     11  H4  UNL     1       2.005  -1.661  -0.017  1.00  0.00     0.213 HD
ENDBRANCH   6  10
TORSDOF 2
