REMARK  2 active torsions:
REMARK  status: ('A' for Active; 'I' for Inactive)
REMARK    1  A    between atoms: C3_4  and  O2_5 
REMARK    2  A    between atoms: C4_7  and  O3_8 
ROOT
HETATM    1  C1  UNL     1       2.275   0.131  -0.069  1.00  0.00     0.051 C 
HETATM    2  C2  UNL     1       0.945   0.307  -0.821  1.00  0.00     0.184 C 
HETATM    3  O1  UNL     1       0.160   1.110  -0.091  1.00  0.00    -0.343 OA
HETATM    4  C3  UNL     1      -0.986   0.605   0.335  1.00  0.00     0.297 C 
HETATM    5  C4  UNL     1      -0.915  -0.849   0.646  1.00  0.00     0.236 C 
HETATM    6  S1  UNL     1       0.180  -1.362  -0.738  1.00  0.00    -0.101 SA
ENDROOT
BRANCH   4   7
HETATM    7  O2  UNL     1      -2.079   0.837  -0.533  1.00  0.00    -0.368 OA
ATOM      8  H2  UNL     1      -2.902   0.474  -0.227  1.00  0.00     0.212 HD
ENDBRANCH   4   7
BRANCH   5   9
HETATM    9  O3  UNL     1      -2.116  -1.503   0.567  1.00  0.00    -0.380 OA
ATOM     10  H3  UNL     1      -2.071  -2.431   0.765  1.00  0.00     0.211 HD
ENDBRANCH   5   9
TORSDOF 2
