REMARK  3 active torsions:
REMARK  status: ('A' for Active; 'I' for Inactive)
REMARK    1  A    between atoms: N1_2  and  O1_3 
REMARK    2  A    between atoms: O1_3  and  C2_4 
REMARK    3  A    between atoms: C2_4  and  N2_6 
ROOT
HETATM    1  N2  UNL     1       1.816  -0.485   0.498  1.00  0.00    -0.263 N 
ATOM      2  H2  UNL     1       1.385  -0.890   1.329  1.00  0.00     0.181 HD
HETATM    3  C3  UNL     1       3.214  -0.292   0.485  1.00  0.00     0.184 C 
HETATM    4  N3  UNL     1       4.366  -0.153   0.471  1.00  0.00    -0.172 NA
ENDROOT
BRANCH   1   5
HETATM    5  C2  UNL     1       0.992  -0.140  -0.593  1.00  0.00     0.243 C 
HETATM    6  S1  UNL     1       1.659   0.503  -1.923  1.00  0.00    -0.031 SA
BRANCH   5   7
HETATM    7  O1  UNL     1      -0.365  -0.355  -0.514  1.00  0.00    -0.214 OA
BRANCH   7   8
HETATM    8  N1  UNL     1      -1.155   0.141   0.493  1.00  0.00    -0.096 NA
HETATM    9  C1  UNL     1      -2.526   0.179   0.021  1.00  0.00     0.168 C 
ENDBRANCH   7   8
ENDBRANCH   5   7
ENDBRANCH   1   5
TORSDOF 3
