REMARK  2 active torsions:
REMARK  status: ('A' for Active; 'I' for Inactive)
REMARK    1  A    between atoms: O1_1  and  C1_3 
REMARK    2  A    between atoms: C3_6  and  O2_7 
ROOT
HETATM    1  C1  UNL     1       1.332   0.230  -0.204  1.00  0.00     0.266 C 
HETATM    2  C2  UNL     1       0.745  -0.952  -0.965  1.00  0.00     0.137 C 
HETATM    3  S1  UNL     1      -0.435  -1.839   0.128  1.00  0.00    -0.131 SA
HETATM    4  C3  UNL     1      -1.563  -0.518   0.716  1.00  0.00     0.203 C 
HETATM    5  C4  UNL     1      -0.693   0.737   0.792  1.00  0.00     0.213 C 
HETATM    6  O3  UNL     1       0.647   0.417   0.987  1.00  0.00    -0.357 OA
ENDROOT
BRANCH   1   7
HETATM    7  O1  UNL     1       2.667  -0.014   0.120  1.00  0.00    -0.370 OA
ATOM      8  H1  UNL     1       3.033   0.723   0.595  1.00  0.00     0.212 HD
ENDBRANCH   1   7
BRANCH   4   9
HETATM    9  O2  UNL     1      -2.585  -0.295  -0.203  1.00  0.00    -0.383 OA
ATOM     10  H2  UNL     1      -3.169   0.389   0.102  1.00  0.00     0.211 HD
ENDBRANCH   4   9
TORSDOF 2
