REMARK  4 active torsions:
REMARK  status: ('A' for Active; 'I' for Inactive)
REMARK    1  A    between atoms: C3_3  and  C5_5 
REMARK    2  A    between atoms: C5_5  and  C6_6 
REMARK    3  A    between atoms: C5_5  and  N1_10 
REMARK    4  A    between atoms: C6_6  and  C7_7 
ROOT
HETATM    1  C1  UNL     1      -3.118  -2.120   1.767  1.00  0.00     0.097 C 
HETATM    2  C2  UNL     1      -2.301  -1.900   0.885  1.00  0.00    -0.181 C 
HETATM    3  C3  UNL     1      -1.305  -1.699  -0.142  1.00  0.00     0.070 C 
HETATM    4  C4  UNL     1      -0.561  -3.051  -0.251  1.00  0.00     0.024 C 
ENDROOT
BRANCH   3   5
HETATM    5  C5  UNL     1      -0.341  -0.590   0.036  1.00  0.00     0.096 C 
BRANCH   5   6
HETATM    6  C6  UNL     1      -0.755   0.789  -0.006  1.00  0.00     0.030 C 
BRANCH   6   7
HETATM    7  C7  UNL     1      -1.794   1.452   0.794  1.00  0.00    -0.021 C 
HETATM    8  C8  UNL     1      -1.669   2.998   0.459  1.00  0.00     0.009 C 
HETATM    9  C9  UNL     1      -3.177   1.192   0.143  1.00  0.00     0.009 C 
ENDBRANCH   6   7
ENDBRANCH   5   6
BRANCH   5  10
HETATM   10  N1  UNL     1       0.679  -0.827  -0.953  1.00  0.00    -0.389 N 
HETATM   11  C10 UNL     1       1.968  -0.422  -0.893  1.00  0.00     0.010 C 
HETATM   12  C11 UNL     1       2.833  -0.848   0.260  1.00  0.00     0.081 C 
HETATM   13  C13 UNL     1       2.409   0.965  -1.200  1.00  0.00     0.284 C 
HETATM   14  C12 UNL     1       3.964   0.154   0.177  1.00  0.00     0.238 C 
HETATM   15  N2  UNL     1       3.197   1.394  -0.026  1.00  0.00    -0.070 N 
ATOM     16  H22 UNL     1       2.670   1.741   0.775  1.00  0.00     0.277 HD
ATOM     17  H21 UNL     1       3.737   2.253  -0.128  1.00  0.00     0.277 HD
ATOM     18  H1  UNL     1       0.401  -1.353  -1.782  1.00  0.00     0.159 HD
ENDBRANCH   5  10
ENDBRANCH   3   5
TORSDOF 4
