REMARK  5 active torsions:
REMARK  status: ('A' for Active; 'I' for Inactive)
REMARK    1  A    between atoms: N1_2  and  C2_5 
REMARK    2  A    between atoms: C2_5  and  C3_6 
REMARK    3  A    between atoms: C3_6  and  C4_7 
REMARK    4  A    between atoms: C4_7  and  N2_8 
REMARK    5  A    between atoms: N2_8  and  C5_11 
ROOT
HETATM    1  N2  UNL     1       0.143  -0.622  -0.818  1.00  0.00    -0.070 N 
ATOM      2  H21 UNL     1       0.030  -1.596  -0.537  1.00  0.00     0.277 HD
ATOM      3  H22 UNL     1      -0.121  -0.693  -1.801  1.00  0.00     0.277 HD
ENDROOT
BRANCH   1   4
HETATM    4  C4  UNL     1       1.531  -0.217  -0.694  1.00  0.00     0.234 C 
BRANCH   4   5
HETATM    5  C3  UNL     1       2.036  -0.582   0.701  1.00  0.00     0.055 C 
BRANCH   5   6
HETATM    6  C2  UNL     1       3.511  -0.082   0.773  1.00  0.00     0.233 C 
BRANCH   6   7
HETATM    7  N1  UNL     1       4.273  -0.736  -0.248  1.00  0.00    -0.079 N 
HETATM    8  C1  UNL     1       5.485   0.029  -0.420  1.00  0.00     0.266 C 
ATOM      9  H12 UNL     1       3.753  -0.866  -1.116  1.00  0.00     0.276 HD
ATOM     10  H11 UNL     1       4.445  -1.722  -0.052  1.00  0.00     0.276 HD
ENDBRANCH   6   7
ENDBRANCH   5   6
ENDBRANCH   4   5
ENDBRANCH   1   4
BRANCH   1  11
HETATM   11  C5  UNL     1      -0.786   0.218  -0.107  1.00  0.00     0.194 C 
HETATM   12  C6  UNL     1      -1.759   0.797  -1.115  1.00  0.00     0.017 C 
HETATM   13  C7  UNL     1      -2.747  -0.311  -1.538  1.00  0.00     0.011 C 
HETATM   14  C13 UNL     1      -2.744   1.751  -0.495  1.00  0.00     0.011 C 
HETATM   15  C8  UNL     1      -3.435  -0.510  -0.204  1.00  0.00    -0.010 C 
HETATM   16  C9  UNL     1      -2.526  -1.418   0.614  1.00  0.00     0.011 C 
HETATM   17  C12 UNL     1      -3.410   0.803   0.530  1.00  0.00    -0.010 C 
HETATM   18  C10 UNL     1      -1.484  -0.382   1.054  1.00  0.00     0.017 C 
HETATM   19  C11 UNL     1      -2.383   0.684   1.650  1.00  0.00     0.011 C 
ENDBRANCH   1  11
TORSDOF 5
