REMARK  5 active torsions:
REMARK  status: ('A' for Active; 'I' for Inactive)
REMARK    1  A    between atoms: C2_2  and  N1_3 
REMARK    2  A    between atoms: N1_3  and  C3_4 
REMARK    3  A    between atoms: N1_3  and  C6_10 
REMARK    4  A    between atoms: C3_4  and  C4_5 
REMARK    5  A    between atoms: C4_5  and  N2_6 
ROOT
HETATM    1  N1  UNL     1       0.440  -0.560   0.394  1.00  0.00    -0.382 N 
ENDROOT
BRANCH   1   2
HETATM    2  C2  UNL     1       0.696  -1.922   0.650  1.00  0.00     0.118 C 
HETATM    3  C1  UNL     1       0.468  -2.288   2.130  1.00  0.00     0.026 C 
ENDBRANCH   1   2
BRANCH   1   4
HETATM    4  C3  UNL     1       1.377   0.291   0.931  1.00  0.00     0.086 C 
BRANCH   4   5
HETATM    5  C4  UNL     1       2.724   0.350   0.245  1.00  0.00     0.276 C 
BRANCH   5   6
HETATM    6  N2  UNL     1       2.610   0.819  -1.126  1.00  0.00    -0.075 N 
HETATM    7  C5  UNL     1       3.948   0.981  -1.653  1.00  0.00     0.267 C 
ATOM      8  H22 UNL     1       2.028   0.213  -1.704  1.00  0.00     0.277 HD
ATOM      9  H21 UNL     1       2.047   1.666  -1.209  1.00  0.00     0.277 HD
ENDBRANCH   5   6
ENDBRANCH   4   5
ENDBRANCH   1   4
BRANCH   1  10
HETATM   10  C6  UNL     1      -0.784  -0.165  -0.103  1.00  0.00     0.036 C 
HETATM   11  C7  UNL     1      -0.864   1.232  -0.667  1.00  0.00     0.036 C 
HETATM   12  C8  UNL     1      -2.318   1.661  -0.459  1.00  0.00    -0.011 C 
HETATM   13  C9  UNL     1      -3.168   0.682  -1.190  1.00  0.00     0.010 C 
HETATM   14  C13 UNL     1      -2.500   1.173   0.986  1.00  0.00     0.012 C 
HETATM   15  C10 UNL     1      -2.793  -0.617  -0.508  1.00  0.00    -0.005 C 
HETATM   16  C11 UNL     1      -1.453  -1.085  -1.101  1.00  0.00     0.036 C 
HETATM   17  C12 UNL     1      -2.018  -0.261   0.736  1.00  0.00     0.018 C 
ENDBRANCH   1  10
TORSDOF 5
