REMARK  5 active torsions:
REMARK  status: ('A' for Active; 'I' for Inactive)
REMARK    1  A    between atoms: C2_2  and  C3_3 
REMARK    2  A    between atoms: C3_3  and  N1_4 
REMARK    3  A    between atoms: N1_4  and  C4_7 
REMARK    4  A    between atoms: C4_7  and  N2_8 
REMARK    5  A    between atoms: N2_8  and  C5_11 
ROOT
HETATM    1  C5  UNL     1       0.805   0.025   0.122  1.00  0.00     0.196 C 
HETATM    2  C6  UNL     1       1.706   0.970  -0.668  1.00  0.00     0.065 C 
HETATM    3  C7  UNL     1       3.030   0.902   0.032  1.00  0.00     0.046 C 
HETATM    4  C8  UNL     1       3.814   2.142   0.046  1.00  0.00     0.040 C 
HETATM    5  C9  UNL     1       2.652   0.371   1.433  1.00  0.00     0.040 C 
HETATM    6  C10 UNL     1       1.812  -0.788   0.873  1.00  0.00     0.038 C 
HETATM    7  C11 UNL     1       2.804  -1.350  -0.140  1.00  0.00     0.149 C 
HETATM    8  N3  UNL     1       3.720  -0.275  -0.431  1.00  0.00    -0.324 N 
HETATM    9  N4  UNL     1       4.849  -0.287  -0.892  1.00  0.00    -0.346 N 
ATOM     10  H41 UNL     1       5.337  -1.120  -1.220  1.00  0.00     0.176 HD
ATOM     11  H42 UNL     1       5.497   0.473  -1.098  1.00  0.00     0.176 HD
ENDROOT
BRANCH   1  12
HETATM   12  N2  UNL     1      -0.083  -0.718  -0.681  1.00  0.00    -0.047 N 
ATOM     13  H22 UNL     1       0.334  -1.559  -1.080  1.00  0.00     0.279 HD
ATOM     14  H21 UNL     1      -0.311  -0.264  -1.565  1.00  0.00     0.279 HD
BRANCH  12  15
HETATM   15  C4  UNL     1      -1.259  -0.986   0.165  1.00  0.00     0.463 C 
BRANCH  15  16
HETATM   16  N1  UNL     1      -2.290  -1.613  -0.581  1.00  0.00    -0.051 N 
ATOM     17  H12 UNL     1      -2.621  -2.471  -0.140  1.00  0.00     0.279 HD
ATOM     18  H11 UNL     1      -1.946  -2.022  -1.450  1.00  0.00     0.279 HD
BRANCH  16  19
HETATM   19  C3  UNL     1      -3.350  -0.668  -0.803  1.00  0.00     0.234 C 
BRANCH  19  20
HETATM   20  C2  UNL     1      -4.165  -0.237   0.361  1.00  0.00     0.023 C 
HETATM   21  C1  UNL     1      -5.303   0.650  -0.175  1.00  0.00     0.007 C 
ENDBRANCH  19  20
ENDBRANCH  16  19
ENDBRANCH  15  16
ENDBRANCH  12  15
ENDBRANCH   1  12
TORSDOF 5
