REMARK  2 active torsions:
REMARK  status: ('A' for Active; 'I' for Inactive)
REMARK    1  A    between atoms: C2_2  and  C3_3 
REMARK    2  A    between atoms: C3_3  and  N1_4 
ROOT
HETATM    1  N1  UNL     1       1.188  -0.381  -0.279  1.00  0.00    -0.277 N 
HETATM    2  C4  UNL     1       0.969  -1.701  -0.264  1.00  0.00     0.250 A 
HETATM    3  O1  UNL     1       1.999  -2.397  -0.342  1.00  0.00    -0.268 OA
HETATM    4  C5  UNL     1      -0.204  -2.439  -0.176  1.00  0.00     0.077 A 
HETATM    5  C6  UNL     1      -1.488  -1.977   0.015  1.00  0.00     0.036 A 
HETATM    6  C7  UNL     1      -1.876  -0.650   0.088  1.00  0.00     0.051 A 
HETATM    7  N2  UNL     1      -3.224  -0.566   0.217  1.00  0.00    -0.323 N 
ATOM      8  H2  UNL     1      -3.784  -1.418   0.246  1.00  0.00     0.169 HD
HETATM    9  C8  UNL     1      -3.823   0.623   0.306  1.00  0.00     0.245 A 
HETATM   10  O2  UNL     1      -5.077   0.642   0.425  1.00  0.00    -0.268 OA
HETATM   11  C9  UNL     1      -3.069   1.784   0.267  1.00  0.00     0.075 A 
HETATM   12  C10 UNL     1      -1.703   1.748   0.137  1.00  0.00     0.025 A 
HETATM   13  C11 UNL     1      -1.112   0.504   0.047  1.00  0.00     0.059 A 
HETATM   14  C12 UNL     1       0.271   0.583  -0.081  1.00  0.00     0.263 A 
HETATM   15  O3  UNL     1       0.761   1.739   0.000  1.00  0.00    -0.267 OA
ENDROOT
BRANCH   1  16
HETATM   16  C3  UNL     1       2.534   0.024  -0.533  1.00  0.00     0.162 C 
BRANCH  16  17
HETATM   17  C2  UNL     1       3.363   0.170   0.668  1.00  0.00    -0.017 C 
HETATM   18  C1  UNL     1       3.912   1.344   0.958  1.00  0.00     0.008 C 
ENDBRANCH  16  17
ENDBRANCH   1  16
TORSDOF 2
