REMARK  13 active torsions:
REMARK  status: ('A' for Active; 'I' for Inactive)
REMARK    1  A    between atoms: C3_5  and  C4_6 
REMARK    2  A    between atoms: C4_6  and  C5_7 
REMARK    3  A    between atoms: C6_10  and  N3_11 
REMARK    4  A    between atoms: N5_16  and  C7_17 
REMARK    5  A    between atoms: C7_17  and  C8_18 
REMARK    6  A    between atoms: C9_19  and  C10_20 
REMARK    7  A    between atoms: C10_20  and  C11_21 
REMARK    8  A    between atoms: C13_25  and  C14_26 
REMARK    9  A    between atoms: C14_26  and  C15_27 
REMARK   10  A    between atoms: C15_27  and  C16_28 
REMARK   11  A    between atoms: C16_28  and  C17_29 
REMARK   12  A    between atoms: C20_38  and  N10_39 
REMARK   13  A    between atoms: N10_39  and  O3_41 
ROOT
HETATM    1  C5  UNL     1      -2.367  -2.417   1.085  1.00  0.00     0.142 A 
HETATM    2  N2  UNL     1      -2.116  -2.207   2.393  1.00  0.00    -0.174 N 
ATOM      3  H2  UNL     1      -2.821  -1.936   3.079  1.00  0.00     0.186 HD
HETATM    4  C6  UNL     1      -0.819  -2.401   2.675  1.00  0.00     0.692 A 
HETATM    5  N4  UNL     1      -0.247  -2.745   1.495  1.00  0.00    -0.128 N 
ATOM      6  H4  UNL     1       0.741  -2.962   1.364  1.00  0.00     0.206 HD
HETATM    7  N5  UNL     1      -1.167  -2.758   0.531  1.00  0.00    -0.258 N 
ENDROOT
BRANCH   7   8
HETATM    8  C7  UNL     1      -0.892  -3.079  -0.830  1.00  0.00     0.178 C 
BRANCH   8   9
HETATM    9  C8  UNL     1      -0.518  -1.907  -1.663  1.00  0.00    -0.009 C 
HETATM   10  C9  UNL     1      -0.441  -0.678  -1.203  1.00  0.00    -0.022 C 
BRANCH  10  11
HETATM   11  C10 UNL     1      -0.061   0.427  -2.104  1.00  0.00     0.103 C 
BRANCH  11  12
HETATM   12  C11 UNL     1       1.171   1.063  -1.587  1.00  0.00     0.086 A 
HETATM   13  N6  UNL     1       1.116   2.098  -0.700  1.00  0.00    -0.353 N 
HETATM   14  C12 UNL     1       2.387   2.453  -0.425  1.00  0.00     0.114 A 
ATOM     15  H6  UNL     1       0.272   2.523  -0.317  1.00  0.00     0.166 HD
HETATM   16  C13 UNL     1       3.244   1.646  -1.135  1.00  0.00     0.028 A 
HETATM   17  N8  UNL     1       2.463   0.800  -1.841  1.00  0.00    -0.343 N 
HETATM   18  C18 UNL     1       2.939  -0.226  -2.731  1.00  0.00     0.157 C 
BRANCH  16  19
HETATM   19  C14 UNL     1       4.749   1.660  -1.157  1.00  0.00     0.059 C 
BRANCH  19  20
HETATM   20  C15 UNL     1       5.320   0.765  -0.113  1.00  0.00     0.015 C 
BRANCH  20  21
HETATM   21  C16 UNL     1       4.914   1.129   1.285  1.00  0.00     0.100 C 
BRANCH  21  22
HETATM   22  C17 UNL     1       5.390   2.464   1.651  1.00  0.00     0.231 C 
HETATM   23  N7  UNL     1       4.906   3.069   2.857  1.00  0.00    -0.062 NA
HETATM   24  O1  UNL     1       6.202   3.105   0.958  1.00  0.00    -0.277 OA
ENDBRANCH  21  22
ENDBRANCH  20  21
ENDBRANCH  19  20
ENDBRANCH  16  19
ENDBRANCH  11  12
ENDBRANCH  10  11
ENDBRANCH   8   9
ENDBRANCH   7   8
BRANCH   1  25
HETATM   25  C4  UNL     1      -3.630  -2.318   0.368  1.00  0.00     0.099 C 
BRANCH  25  26
HETATM   26  C3  UNL     1      -4.213  -1.129   0.185  1.00  0.00     0.112 A 
HETATM   27  N1  UNL     1      -3.695  -0.001   0.630  1.00  0.00    -0.341 N 
HETATM   28  C2  UNL     1      -4.315   1.209   0.430  1.00  0.00     0.058 A 
ATOM     29  H1  UNL     1      -2.810  -0.027   1.136  1.00  0.00     0.167 HD
HETATM   30  C1  UNL     1      -3.697   2.251   0.921  1.00  0.00     0.045 C 
HETATM   31  C20 UNL     1      -5.491   1.320  -0.234  1.00  0.00     0.148 A 
HETATM   32  C19 UNL     1      -6.025   0.093  -0.701  1.00  0.00     0.277 A 
HETATM   33  N9  UNL     1      -5.379  -1.047  -0.477  1.00  0.00    -0.307 N 
HETATM   34  O2  UNL     1      -7.133   0.133  -1.335  1.00  0.00    -0.265 OA
ATOM     35  H9  UNL     1      -5.793  -1.910  -0.829  1.00  0.00     0.170 HD
BRANCH  31  36
HETATM   36  N10 UNL     1      -6.166   2.380  -0.486  1.00  0.00    -0.262 N 
ATOM     37  H10 UNL     1      -7.037   2.267  -1.004  1.00  0.00     0.194 HD
BRANCH  36  38
HETATM   38  O3  UNL     1      -5.822   3.625  -0.125  1.00  0.00    -0.289 OA
ATOM     39  H3  UNL     1      -6.322   4.411  -0.312  1.00  0.00     0.244 HD
ENDBRANCH  36  38
ENDBRANCH  31  36
ENDBRANCH  25  26
ENDBRANCH   1  25
BRANCH   4  40
HETATM   40  N3  UNL     1      -0.247  -2.284   3.824  1.00  0.00    -0.233 N 
ATOM     41  H32 UNL     1      -0.677  -2.025   4.712  1.00  0.00     0.174 HD
ATOM     42  H31 UNL     1       0.739  -2.432   4.038  1.00  0.00     0.174 HD
ENDBRANCH   4  40
TORSDOF 13
