REMARK  12 active torsions:
REMARK  status: ('A' for Active; 'I' for Inactive)
REMARK    1  A    between atoms: C3_3  and  C4_4 
REMARK    2  A    between atoms: C4_4  and  C5_5 
REMARK    3  A    between atoms: C5_5  and  N1_6 
REMARK       I    between atoms: C6_8  and  N3_10 
REMARK    4  A    between atoms: N3_10  and  C7_12 
REMARK    5  A    between atoms: C9_17  and  C10_18 
REMARK    6  A    between atoms: C10_18  and  C11_19 
REMARK    7  A    between atoms: C11_19  and  C12_20 
REMARK    8  A    between atoms: C14_24  and  N6_25 
REMARK       I    between atoms: N6_25  and  C15_27 
REMARK    9  A    between atoms: N10_34  and  O2_35 
REMARK   10  A    between atoms: C16_39  and  C17_40 
REMARK   11  A    between atoms: C17_40  and  C18_41 
REMARK   12  A    between atoms: C18_41  and  C19_42 
ROOT
HETATM    1  C1  UNL     1      -5.918   4.959   0.588  1.00  0.00     0.012 C 
HETATM    2  C2  UNL     1      -6.491   3.995   0.146  1.00  0.00    -0.117 C 
HETATM    3  C3  UNL     1      -7.168   2.811  -0.403  1.00  0.00     0.098 C 
ENDROOT
BRANCH   3   4
HETATM    4  C4  UNL     1      -6.143   1.704  -0.606  1.00  0.00     0.056 C 
BRANCH   4   5
HETATM    5  C5  UNL     1      -5.507   1.356   0.715  1.00  0.00     0.064 C 
BRANCH   5   6
HETATM    6  N1  UNL     1      -4.549   0.344   0.573  1.00  0.00    -0.344 N 
HETATM    7  C6  UNL     1      -4.164  -0.396  -0.349  1.00  0.00     0.193 C 
HETATM    8  N2  UNL     1      -4.639  -0.443  -1.703  1.00  0.00    -0.063 NA
HETATM    9  N3  UNL     1      -3.117  -1.333  -0.070  1.00  0.00    -0.315 N 
ATOM     10  H3  UNL     1      -3.378  -2.309   0.068  1.00  0.00     0.170 HD
ATOM     11  H1  UNL     1      -4.042   0.171   1.441  1.00  0.00     0.167 HD
BRANCH   9  12
HETATM   12  C7  UNL     1      -1.878  -1.029   0.018  1.00  0.00     0.137 A 
HETATM   13  N4  UNL     1      -1.508   0.259  -0.162  1.00  0.00    -0.306 N 
HETATM   14  C8  UNL     1      -0.191   0.583  -0.069  1.00  0.00     0.273 A 
ATOM     15  H4  UNL     1      -2.205   0.975  -0.364  1.00  0.00     0.170 HD
HETATM   16  O1  UNL     1       0.117   1.783  -0.239  1.00  0.00    -0.266 OA
HETATM   17  C9  UNL     1       0.776  -0.332   0.196  1.00  0.00     0.098 A 
HETATM   18  N11 UNL     1       0.358  -1.612   0.368  1.00  0.00    -0.349 N 
HETATM   19  C16 UNL     1      -0.948  -1.986   0.286  1.00  0.00     0.074 A 
ATOM     20  H11 UNL     1       1.056  -2.328   0.568  1.00  0.00     0.166 HD
BRANCH  17  21
HETATM   21  C10 UNL     1       2.063  -0.102   0.295  1.00  0.00     0.015 C 
BRANCH  21  22
HETATM   22  C11 UNL     1       2.618   1.250   0.119  1.00  0.00     0.092 C 
BRANCH  22  23
HETATM   23  C12 UNL     1       4.114   1.187   0.219  1.00  0.00     0.079 A 
HETATM   24  C13 UNL     1       4.841   0.980  -0.924  1.00  0.00     0.135 A 
HETATM   25  N5  UNL     1       6.174   0.920  -0.840  1.00  0.00    -0.198 N 
HETATM   26  C14 UNL     1       6.815   1.059   0.344  1.00  0.00     0.701 A 
ATOM     27  H5  UNL     1       6.720   0.766  -1.687  1.00  0.00     0.183 HD
HETATM   28  N9  UNL     1       6.048   1.260   1.428  1.00  0.00    -0.105 N 
HETATM   29  N10 UNL     1       4.728   1.327   1.400  1.00  0.00    -0.152 N 
ATOM     30  H9  UNL     1       6.513   1.368   2.329  1.00  0.00     0.208 HD
BRANCH  26  31
HETATM   31  N6  UNL     1       8.100   0.991   0.387  1.00  0.00    -0.162 N 
HETATM   32  C15 UNL     1       8.833   0.771  -0.800  1.00  0.00     0.200 C 
HETATM   33  N7  UNL     1       9.256  -0.376  -1.203  1.00  0.00    -0.373 N 
HETATM   34  N8  UNL     1       9.142   1.889  -1.634  1.00  0.00    -0.063 NA
ATOM     35  H72 UNL     1       9.035  -1.174  -0.608  1.00  0.00     0.158 HD
ATOM     36  H71 UNL     1       9.785  -0.535  -2.060  1.00  0.00     0.158 HD
ATOM     37  H6  UNL     1       8.588   1.096   1.277  1.00  0.00     0.187 HD
ENDBRANCH  26  31
BRANCH  29  38
HETATM   38  O2  UNL     1       4.037   1.514   2.415  1.00  0.00    -0.267 OA
ATOM     39  H2  UNL     1       4.473   1.613   3.253  1.00  0.00     0.247 HD
ENDBRANCH  29  38
ENDBRANCH  22  23
ENDBRANCH  21  22
ENDBRANCH  17  21
BRANCH  19  40
HETATM   40  C17 UNL     1      -1.220  -3.246   0.464  1.00  0.00     0.015 C 
BRANCH  40  41
HETATM   41  C18 UNL     1      -2.545  -3.827   0.406  1.00  0.00     0.129 C 
BRANCH  41  42
HETATM   42  C19 UNL     1      -2.395  -5.334   0.567  1.00  0.00     0.234 C 
HETATM   43  N12 UNL     1      -2.676  -5.875   1.826  1.00  0.00    -0.062 NA
HETATM   44  O3  UNL     1      -2.031  -5.980  -0.439  1.00  0.00    -0.277 OA
ENDBRANCH  41  42
ENDBRANCH  40  41
ENDBRANCH  19  40
ENDBRANCH   9  12
ENDBRANCH   5   6
ENDBRANCH   4   5
ENDBRANCH   3   4
TORSDOF 12
