REMARK  10 active torsions:
REMARK  status: ('A' for Active; 'I' for Inactive)
REMARK    1  A    between atoms: C2_2  and  C3_3 
REMARK    2  A    between atoms: C4_4  and  C5_5 
REMARK    3  A    between atoms: C5_5  and  N1_6 
REMARK    4  A    between atoms: C5_5  and  C9_16 
REMARK       I    between atoms: N1_6  and  C6_7 
REMARK    5  A    between atoms: C6_7  and  C7_9 
REMARK       I    between atoms: C7_9  and  N2_11 
REMARK       I    between atoms: C9_16  and  N5_18 
REMARK    6  A    between atoms: N5_18  and  C10_20 
REMARK    7  A    between atoms: C10_20  and  N6_21 
REMARK    8  A    between atoms: C10_20  and  C12_26 
REMARK       I    between atoms: C12_26  and  N9_28 
REMARK    9  A    between atoms: N9_28  and  C13_30 
REMARK   10  A    between atoms: C13_30  and  C14_31 
REMARK       I    between atoms: C14_31  and  N10_33 
ROOT
HETATM    1  C9  UNL     1      -1.385  -0.317   0.211  1.00  0.00     0.267 C 
HETATM    2  O3  UNL     1      -1.700   0.534  -0.636  1.00  0.00    -0.269 OA
HETATM    3  N5  UNL     1      -0.030  -0.839   0.202  1.00  0.00    -0.328 N 
ATOM      4  H5  UNL     1       0.250  -1.531   0.897  1.00  0.00     0.165 HD
ENDROOT
BRANCH   3   5
HETATM    5  C10 UNL     1       0.922  -0.386  -0.781  1.00  0.00     0.280 C 
BRANCH   5   6
HETATM    6  N6  UNL     1       1.634  -1.456  -1.343  1.00  0.00    -0.338 N 
HETATM    7  C11 UNL     1       2.127  -2.525  -0.952  1.00  0.00     0.198 C 
HETATM    8  N7  UNL     1       2.797  -3.319  -1.966  1.00  0.00    -0.067 NA
HETATM    9  N8  UNL     1       2.110  -3.069   0.354  1.00  0.00    -0.067 NA
ATOM     10  H6  UNL     1       1.788  -1.318  -2.342  1.00  0.00     0.164 HD
ENDBRANCH   5   6
BRANCH   5  11
HETATM   11  C12 UNL     1       1.852   0.670  -0.227  1.00  0.00     0.260 C 
HETATM   12  O4  UNL     1       1.896   0.884   0.999  1.00  0.00    -0.269 OA
HETATM   13  N9  UNL     1       2.635   1.388  -1.118  1.00  0.00    -0.349 N 
ATOM     14  H9  UNL     1       2.559   1.181  -2.114  1.00  0.00     0.163 HD
BRANCH  13  15
HETATM   15  C13 UNL     1       3.549   2.412  -0.695  1.00  0.00     0.225 C 
BRANCH  15  16
HETATM   16  C14 UNL     1       4.636   1.945   0.179  1.00  0.00     0.241 C 
HETATM   17  O5  UNL     1       4.736   0.727   0.528  1.00  0.00    -0.271 OA
HETATM   18  N10 UNL     1       5.609   2.871   0.655  1.00  0.00    -0.302 N 
HETATM   19  C15 UNL     1       6.892   2.681   0.525  1.00  0.00     0.203 C 
ATOM     20  H10 UNL     1       5.287   3.721   1.118  1.00  0.00     0.171 HD
HETATM   21  N11 UNL     1       7.819   3.633   1.018  1.00  0.00    -0.066 NA
HETATM   22  N12 UNL     1       7.392   1.500  -0.100  1.00  0.00    -0.066 NA
ENDBRANCH  15  16
ENDBRANCH  13  15
ENDBRANCH   5  11
ENDBRANCH   3   5
BRANCH   1  23
HETATM   23  C5  UNL     1      -2.315  -0.832   1.241  1.00  0.00     0.337 C 
BRANCH  23  24
HETATM   24  C4  UNL     1      -2.676  -2.220   0.666  1.00  0.00    -0.057 C 
HETATM   25  C3  UNL     1      -2.954  -3.298   0.210  1.00  0.00    -0.103 C 
BRANCH  25  26
HETATM   26  C2  UNL     1      -3.258  -4.617  -0.339  1.00  0.00     0.089 C 
HETATM   27  C1  UNL     1      -1.950  -5.329  -0.553  1.00  0.00     0.018 C 
ENDBRANCH  25  26
ENDBRANCH  23  24
BRANCH  23  28
HETATM   28  N1  UNL     1      -3.508  -0.193   1.449  1.00  0.00    -0.379 NA
HETATM   29  C6  UNL     1      -4.703   0.448   1.659  1.00  0.00     0.381 C 
HETATM   30  O1  UNL     1      -5.372   0.403   2.724  1.00  0.00    -0.246 OA
BRANCH  29  31
HETATM   31  C7  UNL     1      -5.292   1.285   0.572  1.00  0.00     0.330 C 
HETATM   32  O2  UNL     1      -4.865   1.329  -0.579  1.00  0.00    -0.261 OA
HETATM   33  N2  UNL     1      -6.438   2.100   0.899  1.00  0.00    -0.294 N 
HETATM   34  C8  UNL     1      -6.369   3.386   0.761  1.00  0.00     0.203 C 
ATOM     35  H2  UNL     1      -7.297   1.666   1.237  1.00  0.00     0.171 HD
HETATM   36  N3  UNL     1      -7.508   4.158   1.088  1.00  0.00    -0.066 NA
HETATM   37  N4  UNL     1      -5.210   4.059   0.314  1.00  0.00    -0.066 NA
ENDBRANCH  29  31
ENDBRANCH  23  28
ENDBRANCH   1  23
TORSDOF 10
