REMARK  13 active torsions:
REMARK  status: ('A' for Active; 'I' for Inactive)
REMARK       I    between atoms: N1_3  and  C3_5 
REMARK       I    between atoms: N3_7  and  C4_9 
REMARK       I    between atoms: N5_11  and  C5_13 
REMARK    1  A    between atoms: N7_15  and  C6_17 
REMARK    2  A    between atoms: C6_17  and  C7_18 
REMARK    3  A    between atoms: C6_17  and  C21_39 
REMARK    4  A    between atoms: C8_19  and  C9_20 
REMARK    5  A    between atoms: C10_21  and  C11_22 
REMARK    6  A    between atoms: C12_23  and  C13_24 
REMARK    7  A    between atoms: C14_25  and  C15_26 
REMARK    8  A    between atoms: C15_26  and  C16_27 
REMARK    9  A    between atoms: C16_27  and  C17_28 
REMARK   10  A    between atoms: C17_28  and  N8_29 
REMARK       I    between atoms: N8_29  and  C18_31 
REMARK   11  A    between atoms: C18_31  and  C19_33 
REMARK   12  A    between atoms: C19_33  and  N9_34 
REMARK       I    between atoms: N9_34  and  C20_36 
REMARK   13  A    between atoms: C21_39  and  O3_40 
ROOT
HETATM    1  C1  UNL     1     -11.334   2.535   0.675  1.00  0.00     0.037 C 
HETATM    2  C2  UNL     1     -10.326   2.224   1.260  1.00  0.00     0.001 C 
HETATM    3  N1  UNL     1      -9.149   1.840   1.955  1.00  0.00    -0.290 N 
ATOM      4  H1  UNL     1      -9.207   1.645   2.954  1.00  0.00     0.179 HD
HETATM    5  C3  UNL     1      -7.895   1.719   1.304  1.00  0.00     0.202 C 
HETATM    6  N2  UNL     1      -7.083   2.885   1.122  1.00  0.00    -0.062 NA
HETATM    7  N3  UNL     1      -7.435   0.611   0.859  1.00  0.00    -0.304 N 
ATOM      8  H3  UNL     1      -6.521   0.636   0.407  1.00  0.00     0.171 HD
HETATM    9  C4  UNL     1      -8.077  -0.640   0.937  1.00  0.00     0.197 C 
HETATM   10  N4  UNL     1      -9.267  -0.782   1.740  1.00  0.00    -0.063 NA
HETATM   11  N5  UNL     1      -7.688  -1.696   0.345  1.00  0.00    -0.305 N 
ATOM     12  H5  UNL     1      -8.220  -2.558   0.465  1.00  0.00     0.171 HD
HETATM   13  C5  UNL     1      -6.524  -1.705  -0.484  1.00  0.00     0.191 C 
HETATM   14  N6  UNL     1      -5.586  -2.784  -0.458  1.00  0.00    -0.063 NA
HETATM   15  N7  UNL     1      -6.275  -0.738  -1.288  1.00  0.00    -0.347 N 
ATOM     16  H7  UNL     1      -6.947   0.029  -1.302  1.00  0.00     0.163 HD
ENDROOT
BRANCH  15  17
HETATM   17  C6  UNL     1      -5.160  -0.622  -2.163  1.00  0.00     0.188 C 
BRANCH  17  18
HETATM   18  C7  UNL     1      -3.874  -0.617  -1.476  1.00  0.00    -0.065 C 
HETATM   19  C8  UNL     1      -2.796  -0.609  -0.932  1.00  0.00    -0.012 C 
BRANCH  19  20
HETATM   20  C9  UNL     1      -1.520  -0.595  -0.322  1.00  0.00    -0.001 C 
HETATM   21  C10 UNL     1      -0.420  -0.582   0.174  1.00  0.00    -0.000 C 
BRANCH  21  22
HETATM   22  C11 UNL     1       0.881  -0.561   0.726  1.00  0.00    -0.000 C 
HETATM   23  C12 UNL     1       2.005  -0.540   1.174  1.00  0.00    -0.001 C 
BRANCH  23  24
HETATM   24  C13 UNL     1       3.332  -0.514   1.671  1.00  0.00    -0.014 C 
HETATM   25  C14 UNL     1       4.471  -0.488   2.070  1.00  0.00    -0.092 C 
BRANCH  25  26
HETATM   26  C15 UNL     1       5.878  -0.451   2.531  1.00  0.00     0.096 C 
BRANCH  26  27
HETATM   27  C16 UNL     1       6.556  -1.768   2.134  1.00  0.00     0.032 C 
BRANCH  27  28
HETATM   28  C17 UNL     1       6.464  -1.860   0.640  1.00  0.00     0.123 C 
BRANCH  28  29
HETATM   29  N8  UNL     1       7.098  -0.790  -0.062  1.00  0.00    -0.360 N 
HETATM   30  C18 UNL     1       8.494  -0.528   0.073  1.00  0.00     0.235 C 
HETATM   31  O1  UNL     1       9.219  -1.238   0.821  1.00  0.00    -0.272 OA
ATOM     32  H8  UNL     1       6.538  -0.198  -0.676  1.00  0.00     0.162 HD
BRANCH  30  33
HETATM   33  C19 UNL     1       9.137   0.584  -0.660  1.00  0.00     0.226 C 
BRANCH  33  34
HETATM   34  N9  UNL     1      10.543   0.656  -0.374  1.00  0.00    -0.337 N 
HETATM   35  C20 UNL     1      11.394   1.638  -0.951  1.00  0.00     0.329 C 
HETATM   36  N10 UNL     1      12.773   1.682  -0.649  1.00  0.00    -0.040 NA
HETATM   37  O2  UNL     1      10.893   2.471  -1.739  1.00  0.00    -0.251 OA
ATOM     38  H9  UNL     1      10.947  -0.025   0.269  1.00  0.00     0.164 HD
ENDBRANCH  33  34
ENDBRANCH  30  33
ENDBRANCH  28  29
ENDBRANCH  27  28
ENDBRANCH  26  27
ENDBRANCH  25  26
ENDBRANCH  23  24
ENDBRANCH  21  22
ENDBRANCH  19  20
ENDBRANCH  17  18
BRANCH  17  39
HETATM   39  C21 UNL     1      -5.248   0.642  -3.027  1.00  0.00     0.202 C 
BRANCH  39  40
HETATM   40  O3  UNL     1      -6.375   0.652  -3.810  1.00  0.00    -0.398 OA
ATOM     41  H3  UNL     1      -6.430   1.435  -4.345  1.00  0.00     0.209 HD
ENDBRANCH  39  40
ENDBRANCH  17  39
ENDBRANCH  15  17
TORSDOF 13
