REMARK  12 active torsions:
REMARK  status: ('A' for Active; 'I' for Inactive)
REMARK       I    between atoms: C2_5  and  N3_6 
REMARK       I    between atoms: C2_5  and  N5_10 
REMARK    1  A    between atoms: N5_10  and  C4_12 
REMARK    2  A    between atoms: C4_12  and  C5_13 
REMARK    3  A    between atoms: C5_13  and  N6_14 
REMARK    4  A    between atoms: N6_14  and  C6_16 
REMARK    5  A    between atoms: C6_16  and  C7_17 
REMARK    6  A    between atoms: C6_16  and  C17_30 
REMARK    7  A    between atoms: C7_17  and  N7_18 
REMARK    8  A    between atoms: N7_18  and  C8_19 
REMARK    9  A    between atoms: N7_18  and  C10_23 
REMARK   10  A    between atoms: C8_19  and  C9_20 
REMARK   11  A    between atoms: C9_20  and  O1_21 
REMARK   12  A    between atoms: C10_23  and  C11_24 
ROOT
HETATM    1  N1  UNL     1       6.805  -4.704  -0.315  1.00  0.00    -0.171 NA
HETATM    2  C1  UNL     1       6.213  -3.858   0.241  1.00  0.00     0.196 C 
HETATM    3  N2  UNL     1       5.504  -2.871   0.919  1.00  0.00    -0.126 N 
ATOM      4  H2  UNL     1       5.726  -2.690   1.898  1.00  0.00     0.197 HD
HETATM    5  C2  UNL     1       4.574  -2.176   0.350  1.00  0.00     0.696 C 
HETATM    6  N3  UNL     1       4.318  -2.476  -1.012  1.00  0.00    -0.126 N 
ATOM      7  H3  UNL     1       3.451  -2.931  -1.297  1.00  0.00     0.197 HD
HETATM    8  C3  UNL     1       5.305  -2.124  -1.963  1.00  0.00     0.196 C 
HETATM    9  N4  UNL     1       6.111  -1.834  -2.727  1.00  0.00    -0.171 NA
HETATM   10  N5  UNL     1       3.876  -1.205   1.042  1.00  0.00    -0.223 N 
ATOM     11  H5  UNL     1       3.868  -1.320   2.055  1.00  0.00     0.177 HD
ENDROOT
BRANCH  10  12
HETATM   12  C4  UNL     1       3.159  -0.056   0.555  1.00  0.00     0.157 C 
BRANCH  12  13
HETATM   13  C5  UNL     1       1.887  -0.441  -0.199  1.00  0.00     0.134 C 
BRANCH  13  14
HETATM   14  N6  UNL     1       1.150   0.736  -0.607  1.00  0.00    -0.410 N 
ATOM     15  H6  UNL     1       1.111   1.041  -1.580  1.00  0.00     0.154 HD
BRANCH  14  16
HETATM   16  C6  UNL     1       0.486   1.438   0.430  1.00  0.00     0.123 C 
BRANCH  16  17
HETATM   17  C7  UNL     1      -0.745   0.881   1.044  1.00  0.00     0.124 C 
BRANCH  17  18
HETATM   18  N7  UNL     1      -1.889   0.727   0.188  1.00  0.00    -0.288 NA
BRANCH  18  19
HETATM   19  C8  UNL     1      -3.030   0.700   1.145  1.00  0.00     0.121 C 
BRANCH  19  20
HETATM   20  C9  UNL     1      -4.335   0.997   0.520  1.00  0.00     0.179 C 
BRANCH  20  21
HETATM   21  O1  UNL     1      -5.305   0.927   1.547  1.00  0.00    -0.400 OA
ATOM     22  H1  UNL     1      -6.144   1.118   1.145  1.00  0.00     0.209 HD
ENDBRANCH  20  21
ENDBRANCH  19  20
ENDBRANCH  18  19
BRANCH  18  23
HETATM   23  C10 UNL     1      -1.967  -0.369  -0.685  1.00  0.00     0.071 C 
BRANCH  23  24
HETATM   24  C11 UNL     1      -2.269  -1.725  -0.247  1.00  0.00    -0.026 A 
HETATM   25  C12 UNL     1      -1.436  -2.527   0.470  1.00  0.00     0.012 A 
HETATM   26  C13 UNL     1      -1.786  -3.836   0.801  1.00  0.00     0.001 A 
HETATM   27  C14 UNL     1      -2.986  -4.380   0.422  1.00  0.00     0.000 A 
HETATM   28  C15 UNL     1      -3.821  -3.562  -0.300  1.00  0.00     0.001 A 
HETATM   29  C16 UNL     1      -3.497  -2.283  -0.634  1.00  0.00     0.012 A 
ENDBRANCH  23  24
ENDBRANCH  18  23
ENDBRANCH  17  18
ENDBRANCH  16  17
BRANCH  16  30
HETATM   30  C17 UNL     1       0.349   2.903   0.114  1.00  0.00    -0.035 A 
HETATM   31  C18 UNL     1       0.722   3.862   1.028  1.00  0.00     0.009 A 
HETATM   32  C19 UNL     1       0.620   5.199   0.794  1.00  0.00     0.001 A 
HETATM   33  C20 UNL     1       0.117   5.616  -0.419  1.00  0.00     0.000 A 
HETATM   34  C21 UNL     1      -0.260   4.660  -1.339  1.00  0.00     0.001 A 
HETATM   35  C22 UNL     1      -0.153   3.307  -1.093  1.00  0.00     0.009 A 
ENDBRANCH  16  30
ENDBRANCH  14  16
ENDBRANCH  13  14
ENDBRANCH  12  13
ENDBRANCH  10  12
TORSDOF 12
