REMARK  12 active torsions:
REMARK  status: ('A' for Active; 'I' for Inactive)
REMARK    1  A    between atoms: N1_5  and  C5_6 
REMARK    2  A    between atoms: C5_6  and  C6_7 
REMARK    3  A    between atoms: C9_10  and  C10_11 
REMARK    4  A    between atoms: C10_11  and  N2_12 
REMARK    5  A    between atoms: N2_12  and  S1_14 
REMARK    6  A    between atoms: S1_14  and  N3_17 
REMARK    7  A    between atoms: N3_17  and  C11_19 
REMARK    8  A    between atoms: C11_19  and  C12_20 
REMARK    9  A    between atoms: C11_19  and  C14_26 
REMARK   10  A    between atoms: C12_20  and  C13_21 
REMARK   11  A    between atoms: C13_21  and  N4_22 
REMARK   12  A    between atoms: C14_26  and  C15_27 
ROOT
HETATM    1  N2  UNL     1      -1.150   1.786  -1.197  1.00  0.00    -0.297 N 
ATOM      2  H2  UNL     1      -1.040   1.164  -1.998  1.00  0.00     0.174 HD
ENDROOT
BRANCH   1   3
HETATM    3  C10 UNL     1      -0.041   2.244  -0.445  1.00  0.00     0.198 C 
BRANCH   3   4
HETATM    4  C9  UNL     1       1.222   1.716  -0.967  1.00  0.00     0.071 A 
HETATM    5  C8  UNL     1       1.325   0.858  -2.061  1.00  0.00     0.037 A 
HETATM    6  C7  UNL     1       2.666   0.574  -2.257  1.00  0.00     0.037 A 
HETATM    7  C6  UNL     1       3.316   1.278  -1.268  1.00  0.00     0.071 A 
HETATM    8  O3  UNL     1       2.451   1.917  -0.552  1.00  0.00    -0.316 OA
BRANCH   7   9
HETATM    9  C5  UNL     1       4.796   1.295  -1.060  1.00  0.00     0.192 C 
BRANCH   9  10
HETATM   10  N1  UNL     1       5.220   0.259  -0.170  1.00  0.00    -0.360 N 
HETATM   11  C4  UNL     1       5.560  -0.958  -0.638  1.00  0.00     0.091 A 
HETATM   12  C3  UNL     1       5.976  -1.990   0.170  1.00  0.00     0.024 A 
HETATM   13  C2  UNL     1       6.061  -1.804   1.532  1.00  0.00    -0.059 A 
HETATM   14  C1  UNL     1       6.509  -2.905   2.439  1.00  0.00     0.048 C 
HETATM   15  C17 UNL     1       5.713  -0.558   2.016  1.00  0.00     0.024 A 
HETATM   16  C16 UNL     1       5.299   0.458   1.178  1.00  0.00     0.091 A 
ENDBRANCH   9  10
ENDBRANCH   7   9
ENDBRANCH   3   4
ENDBRANCH   1   3
BRANCH   1  17
HETATM   17  S1  UNL     1      -2.679   2.334  -0.685  1.00  0.00     0.315 S 
HETATM   18  O1  UNL     1      -2.530   3.790  -0.244  1.00  0.00    -0.183 OA
HETATM   19  O2  UNL     1      -3.563   2.360  -1.908  1.00  0.00    -0.183 OA
BRANCH  17  20
HETATM   20  N3  UNL     1      -3.298   1.371   0.554  1.00  0.00    -0.298 N 
ATOM     21  H3  UNL     1      -3.018   1.504   1.526  1.00  0.00     0.174 HD
BRANCH  20  22
HETATM   22  C11 UNL     1      -4.245   0.348   0.169  1.00  0.00     0.097 C 
BRANCH  22  23
HETATM   23  C12 UNL     1      -5.644   0.755   0.622  1.00  0.00     0.053 C 
BRANCH  23  24
HETATM   24  C13 UNL     1      -6.628  -0.300   0.216  1.00  0.00     0.231 C 
BRANCH  24  25
HETATM   25  N4  UNL     1      -7.996   0.095   0.608  1.00  0.00    -0.079 N 
ATOM     26  H43 UNL     1      -8.059   0.311   1.603  1.00  0.00     0.274 HD
ATOM     27  H42 UNL     1      -8.248   1.012   0.238  1.00  0.00     0.274 HD
ATOM     28  H41 UNL     1      -8.666  -0.623   0.332  1.00  0.00     0.274 HD
ENDBRANCH  24  25
ENDBRANCH  23  24
ENDBRANCH  22  23
BRANCH  22  29
HETATM   29  C14 UNL     1      -3.904  -1.027   0.641  1.00  0.00     0.037 C 
BRANCH  29  30
HETATM   30  C15 UNL     1      -2.562  -1.479   0.104  1.00  0.00     0.088 C 
HETATM   31  S2  UNL     1      -2.165  -3.159   0.684  1.00  0.00    -0.098 SA
ENDBRANCH  29  30
ENDBRANCH  22  29
ENDBRANCH  20  22
ENDBRANCH  17  20
ENDBRANCH   1  17
TORSDOF 12
