REMARK  13 active torsions:
REMARK  status: ('A' for Active; 'I' for Inactive)
REMARK    1  A    between atoms: N1_2  and  C4_5 
REMARK    2  A    between atoms: C4_5  and  C5_6 
REMARK    3  A    between atoms: C5_6  and  N2_7 
REMARK    4  A    between atoms: N2_7  and  C6_9 
REMARK    5  A    between atoms: C6_9  and  C7_10 
REMARK    6  A    between atoms: C7_10  and  C8_11 
REMARK    7  A    between atoms: C8_11  and  N3_12 
REMARK    8  A    between atoms: N3_12  and  C9_14 
REMARK    9  A    between atoms: C17_26  and  O1_27 
REMARK   10  A    between atoms: O1_27  and  C18_28 
REMARK   11  A    between atoms: C18_28  and  C19_29 
REMARK   12  A    between atoms: C19_29  and  C20_30 
REMARK   13  A    between atoms: C20_30  and  O2_31 
ROOT
HETATM    1  C9  UNL     1       1.920  -1.680   0.667  1.00  0.00     0.071 A 
HETATM    2  C10 UNL     1       1.826  -3.058   0.897  1.00  0.00     0.019 A 
HETATM    3  C11 UNL     1       0.616  -3.665   1.120  1.00  0.00     0.016 A 
HETATM    4  C12 UNL     1       0.529  -5.019   1.347  1.00  0.00     0.001 A 
HETATM    5  C13 UNL     1       1.685  -5.770   1.348  1.00  0.00     0.002 A 
HETATM    6  C14 UNL     1       2.925  -5.209   1.129  1.00  0.00     0.030 A 
HETATM    7  C15 UNL     1       2.971  -3.827   0.903  1.00  0.00     0.046 A 
HETATM    8  N4  UNL     1       4.201  -3.306   0.693  1.00  0.00    -0.340 N 
ATOM      9  H4  UNL     1       5.029  -3.901   0.703  1.00  0.00     0.167 HD
HETATM   10  C16 UNL     1       4.306  -1.973   0.469  1.00  0.00     0.138 A 
HETATM   11  N5  UNL     1       5.386  -1.224   0.238  1.00  0.00    -0.306 N 
ATOM     12  H5  UNL     1       6.350  -1.556   0.192  1.00  0.00     0.171 HD
HETATM   13  C17 UNL     1       4.963   0.086   0.071  1.00  0.00     0.225 A 
HETATM   14  N6  UNL     1       3.622   0.065   0.212  1.00  0.00    -0.317 N 
ATOM     15  H6  UNL     1       3.019   0.884   0.142  1.00  0.00     0.169 HD
HETATM   16  C21 UNL     1       3.196  -1.165   0.453  1.00  0.00     0.107 A 
ENDROOT
BRANCH   1  17
HETATM   17  N3  UNL     1       0.849  -0.975   0.664  1.00  0.00    -0.387 N 
ATOM     18  H3  UNL     1      -0.036  -1.454   0.831  1.00  0.00     0.159 HD
BRANCH  17  19
HETATM   19  C8  UNL     1       0.812   0.432   0.443  1.00  0.00     0.121 C 
BRANCH  19  20
HETATM   20  C7  UNL     1      -0.552   1.032   0.516  1.00  0.00     0.039 C 
BRANCH  20  21
HETATM   21  C6  UNL     1      -1.504   0.454  -0.507  1.00  0.00     0.115 C 
BRANCH  21  22
HETATM   22  N2  UNL     1      -2.814   1.055  -0.423  1.00  0.00    -0.419 N 
ATOM     23  H2  UNL     1      -3.189   1.659  -1.154  1.00  0.00     0.153 HD
BRANCH  22  24
HETATM   24  C5  UNL     1      -3.545   0.738   0.765  1.00  0.00     0.141 C 
BRANCH  24  25
HETATM   25  C4  UNL     1      -4.869   1.442   0.716  1.00  0.00     0.255 C 
BRANCH  25  26
HETATM   26  N1  UNL     1      -5.709   1.106  -0.383  1.00  0.00    -0.077 N 
HETATM   27  C1  UNL     1      -7.036   0.713   0.065  1.00  0.00     0.271 C 
HETATM   28  C2  UNL     1      -5.876   2.335  -1.182  1.00  0.00     0.271 C 
HETATM   29  C3  UNL     1      -5.220   0.106  -1.275  1.00  0.00     0.271 C 
ENDBRANCH  25  26
ENDBRANCH  24  25
ENDBRANCH  22  24
ENDBRANCH  21  22
ENDBRANCH  20  21
ENDBRANCH  19  20
ENDBRANCH  17  19
ENDBRANCH   1  17
BRANCH  13  30
HETATM   30  O1  UNL     1       5.842   1.073  -0.178  1.00  0.00    -0.322 OA
BRANCH  30  31
HETATM   31  C18 UNL     1       5.938   2.380  -0.407  1.00  0.00     0.181 C 
BRANCH  31  32
HETATM   32  C19 UNL     1       5.351   3.010  -1.626  1.00  0.00     0.053 C 
BRANCH  32  33
HETATM   33  C20 UNL     1       3.876   2.887  -1.828  1.00  0.00     0.166 C 
BRANCH  33  34
HETATM   34  O2  UNL     1       3.146   3.413  -0.767  1.00  0.00    -0.401 OA
ATOM     35  H2  UNL     1       2.208   3.335  -0.895  1.00  0.00     0.209 HD
ENDBRANCH  33  34
ENDBRANCH  32  33
ENDBRANCH  31  32
ENDBRANCH  30  31
ENDBRANCH  13  30
TORSDOF 13
