REMARK  11 active torsions:
REMARK  status: ('A' for Active; 'I' for Inactive)
REMARK    1  A    between atoms: N1_1  and  C1_4 
REMARK    2  A    between atoms: C3_8  and  C4_9 
REMARK    3  A    between atoms: C4_9  and  C5_10 
REMARK    4  A    between atoms: C5_10  and  N3_11 
REMARK       I    between atoms: N3_11  and  C6_12 
REMARK    5  A    between atoms: C7_17  and  C8_18 
REMARK    6  A    between atoms: C8_18  and  N6_19 
REMARK    7  A    between atoms: N6_19  and  C9_20 
REMARK    8  A    between atoms: N6_19  and  C17_28 
REMARK    9  A    between atoms: C9_20  and  C10_21 
REMARK   10  A    between atoms: C10_21  and  C11_22 
REMARK   11  A    between atoms: C17_28  and  C18_29 
ROOT
HETATM    1  C8  UNL     1      -0.688   0.463   1.150  1.00  0.00     0.123 C 
ENDROOT
BRANCH   1   2
HETATM    2  C7  UNL     1       0.523  -0.362   1.064  1.00  0.00     0.092 A 
HETATM    3  C1  UNL     1       0.925  -0.842   2.355  1.00  0.00     0.127 A 
HETATM    4  N2  UNL     1       2.084  -1.539   2.518  1.00  0.00    -0.349 N 
HETATM    5  C2  UNL     1       2.832  -1.762   1.453  1.00  0.00     0.115 A 
ATOM      6  H2  UNL     1       2.366  -1.879   3.437  1.00  0.00     0.167 HD
HETATM    7  C3  UNL     1       2.418  -1.282   0.231  1.00  0.00     0.031 A 
HETATM    8  N5  UNL     1       1.284  -0.596   0.032  1.00  0.00    -0.354 N 
ATOM      9  H5  UNL     1       1.025  -0.267  -0.898  1.00  0.00     0.166 HD
BRANCH   3  10
HETATM   10  N1  UNL     1       0.258  -0.555   3.342  1.00  0.00    -0.384 N 
ATOM     11  H12 UNL     1       0.544  -0.896   4.260  1.00  0.00     0.157 HD
ATOM     12  H11 UNL     1      -0.610  -0.033   3.220  1.00  0.00     0.157 HD
ENDBRANCH   3  10
BRANCH   7  13
HETATM   13  C4  UNL     1       3.505  -1.443  -0.871  1.00  0.00     0.118 C 
BRANCH  13  14
HETATM   14  C5  UNL     1       4.563  -0.536  -0.344  1.00  0.00     0.166 C 
BRANCH  14  15
HETATM   15  N3  UNL     1       5.715  -0.090  -0.934  1.00  0.00    -0.371 NA
HETATM   16  C6  UNL     1       6.832   0.344  -1.511  1.00  0.00     0.405 C 
HETATM   17  N4  UNL     1       8.190   0.078  -0.943  1.00  0.00    -0.025 NA
HETATM   18  O1  UNL     1       6.964   1.039  -2.587  1.00  0.00    -0.234 OA
ENDBRANCH  14  15
ENDBRANCH  13  14
ENDBRANCH   7  13
ENDBRANCH   1   2
BRANCH   1  19
HETATM   19  N6  UNL     1      -1.419   0.839   0.034  1.00  0.00    -0.363 N 
BRANCH  19  20
HETATM   20  C9  UNL     1      -2.553  -0.046  -0.128  1.00  0.00     0.132 C 
BRANCH  20  21
HETATM   21  C10 UNL     1      -2.228  -1.453  -0.587  1.00  0.00     0.058 C 
BRANCH  21  22
HETATM   22  C11 UNL     1      -3.468  -2.280  -0.366  1.00  0.00    -0.057 A 
HETATM   23  C12 UNL     1      -4.524  -2.269  -1.226  1.00  0.00     0.007 A 
HETATM   24  C13 UNL     1      -5.676  -3.029  -0.975  1.00  0.00     0.001 A 
HETATM   25  C14 UNL     1      -5.670  -3.780   0.177  1.00  0.00     0.000 A 
HETATM   26  C15 UNL     1      -4.617  -3.797   1.034  1.00  0.00     0.001 A 
HETATM   27  C16 UNL     1      -3.475  -3.052   0.805  1.00  0.00     0.007 A 
ENDBRANCH  21  22
ENDBRANCH  20  21
ENDBRANCH  19  20
BRANCH  19  28
HETATM   28  C17 UNL     1      -1.243   1.909  -0.800  1.00  0.00     0.103 C 
BRANCH  28  29
HETATM   29  C18 UNL     1      -1.298   3.272  -0.308  1.00  0.00    -0.005 A 
HETATM   30  C19 UNL     1      -2.482   3.950  -0.181  1.00  0.00     0.015 A 
HETATM   31  C20 UNL     1      -2.509   5.279   0.266  1.00  0.00     0.018 A 
HETATM   32  C21 UNL     1      -1.346   5.932   0.590  1.00  0.00     0.087 A 
HETATM   33  N7  UNL     1      -0.174   5.252   0.466  1.00  0.00    -0.374 N 
HETATM   34  C22 UNL     1      -0.159   3.964   0.027  1.00  0.00     0.100 A 
ATOM     35  H7  UNL     1       0.704   5.713   0.705  1.00  0.00     0.164 HD
ENDBRANCH  28  29
ENDBRANCH  19  28
ENDBRANCH   1  19
TORSDOF 11
