REMARK  12 active torsions:
REMARK  status: ('A' for Active; 'I' for Inactive)
REMARK    1  A    between atoms: O1_2  and  C2_3 
REMARK    2  A    between atoms: C2_3  and  C3_4 
REMARK    3  A    between atoms: C3_4  and  O2_5 
REMARK    4  A    between atoms: O2_5  and  C4_6 
REMARK       I    between atoms: C4_6  and  N1_8 
REMARK    5  A    between atoms: N1_8  and  C5_10 
REMARK    6  A    between atoms: C5_10  and  C6_11 
REMARK    7  A    between atoms: C6_11  and  C7_12 
REMARK    8  A    between atoms: C10_15  and  C11_16 
REMARK       I    between atoms: N2_17  and  C12_19 
REMARK    9  A    between atoms: C12_19  and  C13_21 
REMARK   10  A    between atoms: C13_21  and  C14_22 
REMARK   11  A    between atoms: C14_22  and  C15_23 
REMARK   12  A    between atoms: C18_26  and  C19_27 
ROOT
HETATM    1  C11 UNL     1      -1.071  -0.948  -0.549  1.00  0.00     0.120 C 
HETATM    2  N2  UNL     1      -2.120  -0.382  -0.113  1.00  0.00    -0.335 N 
ATOM      3  H2  UNL     1      -2.069   0.473   0.441  1.00  0.00     0.168 HD
HETATM    4  C12 UNL     1      -3.397  -0.998  -0.433  1.00  0.00     0.221 C 
HETATM    5  O4  UNL     1      -3.955  -0.625  -1.481  1.00  0.00    -0.273 OA
ENDROOT
BRANCH   1   6
HETATM    6  C10 UNL     1       0.243  -0.362  -0.251  1.00  0.00     0.048 A 
HETATM    7  C9  UNL     1       0.476   0.778   0.477  1.00  0.00     0.033 A 
HETATM    8  C8  UNL     1       1.857   0.938   0.493  1.00  0.00     0.027 A 
HETATM    9  C7  UNL     1       2.441  -0.088  -0.214  1.00  0.00     0.011 A 
HETATM   10  N5  UNL     1       1.431  -0.855  -0.649  1.00  0.00    -0.358 N 
ATOM     11  H5  UNL     1       1.547  -1.700  -1.208  1.00  0.00     0.166 HD
BRANCH   9  12
HETATM   12  C6  UNL     1       3.905  -0.318  -0.458  1.00  0.00     0.076 C 
BRANCH  12  13
HETATM   13  C5  UNL     1       4.296   0.387  -1.729  1.00  0.00     0.131 C 
BRANCH  13  14
HETATM   14  N1  UNL     1       5.679   0.194  -2.016  1.00  0.00    -0.337 N 
HETATM   15  C4  UNL     1       6.702   0.656  -1.161  1.00  0.00     0.360 C 
HETATM   16  O3  UNL     1       6.382   1.265  -0.115  1.00  0.00    -0.239 OA
ATOM     17  H1  UNL     1       5.939  -0.297  -2.872  1.00  0.00     0.164 HD
BRANCH  15  18
HETATM   18  O2  UNL     1       8.044   0.457  -1.442  1.00  0.00    -0.302 OA
BRANCH  18  19
HETATM   19  C3  UNL     1       9.065   0.901  -0.604  1.00  0.00     0.207 C 
BRANCH  19  20
HETATM   20  C2  UNL     1       9.075   0.289   0.749  1.00  0.00     0.193 C 
BRANCH  20  21
HETATM   21  O1  UNL     1      10.110   0.752   1.557  1.00  0.00    -0.394 OA
HETATM   22  C1  UNL     1      10.088   2.103   1.787  1.00  0.00     0.201 C 
ENDBRANCH  20  21
ENDBRANCH  19  20
ENDBRANCH  18  19
ENDBRANCH  15  18
ENDBRANCH  13  14
ENDBRANCH  12  13
ENDBRANCH   9  12
ENDBRANCH   1   6
BRANCH   4  23
HETATM   23  C13 UNL     1      -3.963  -1.997   0.446  1.00  0.00     0.107 C 
BRANCH  23  24
HETATM   24  C14 UNL     1      -5.347  -2.405   0.172  1.00  0.00     0.047 C 
BRANCH  24  25
HETATM   25  C15 UNL     1      -6.402  -1.378   0.255  1.00  0.00    -0.058 A 
HETATM   26  C16 UNL     1      -6.943  -0.775  -0.845  1.00  0.00     0.008 A 
HETATM   27  C17 UNL     1      -7.921   0.217  -0.749  1.00  0.00     0.015 A 
HETATM   28  C18 UNL     1      -8.396   0.641   0.474  1.00  0.00     0.004 A 
HETATM   29  C20 UNL     1      -7.854   0.035   1.583  1.00  0.00     0.015 A 
HETATM   30  C21 UNL     1      -6.887  -0.944   1.495  1.00  0.00     0.008 A 
BRANCH  28  31
HETATM   31  C19 UNL     1      -9.422   1.682   0.546  1.00  0.00     0.120 C 
HETATM   32  N3  UNL     1      -9.929   2.147   1.624  1.00  0.00    -0.387 N 
ATOM     33  H32 UNL     1      -9.578   1.746   2.494  1.00  0.00     0.157 HD
ATOM     34  H31 UNL     1     -10.644   2.873   1.674  1.00  0.00     0.157 HD
HETATM   35  N4  UNL     1      -9.913   2.243  -0.672  1.00  0.00    -0.082 NA
ENDBRANCH  28  31
ENDBRANCH  24  25
ENDBRANCH  23  24
ENDBRANCH   4  23
TORSDOF 12
