REMARK  4 active torsions:
REMARK  status: ('A' for Active; 'I' for Inactive)
REMARK    1  A    between atoms: C2_3  and  N2_4 
REMARK    2  A    between atoms: C2_3  and  C3_8 
REMARK    3  A    between atoms: C3_8  and  C4_10 
REMARK    4  A    between atoms: C6_19  and  N6_20 
ROOT
HETATM    1  N1  UNL     1       3.772  -1.334   1.564  1.00  0.00    -0.195 NA
HETATM    2  C1  UNL     1       3.070  -0.864   0.767  1.00  0.00     0.100 C 
HETATM    3  C2  UNL     1       2.195  -0.266  -0.264  1.00  0.00     0.364 C 
ENDROOT
BRANCH   3   4
HETATM    4  N2  UNL     1       2.132   1.140  -0.032  1.00  0.00    -0.055 N 
ATOM      5  H23 UNL     1       1.836   1.370   0.917  1.00  0.00     0.276 HD
ATOM      6  H22 UNL     1       3.054   1.575   0.002  1.00  0.00     0.276 HD
ATOM      7  H21 UNL     1       1.528   1.553  -0.743  1.00  0.00     0.276 HD
ENDBRANCH   3   4
BRANCH   3   8
HETATM    8  C3  UNL     1       0.892  -0.950  -0.323  1.00  0.00     0.225 C 
HETATM    9  O1  UNL     1       0.931  -2.183  -0.525  1.00  0.00    -0.287 OA
BRANCH   8  10
HETATM   10  C4  UNL     1      -0.385  -0.287  -0.164  1.00  0.00     0.141 A 
HETATM   11  N3  UNL     1      -0.326   1.065   0.054  1.00  0.00    -0.290 N 
HETATM   12  N4  UNL     1      -1.405   1.783   0.214  1.00  0.00    -0.251 N 
ATOM     13  H3  UNL     1       0.585   1.522   0.092  1.00  0.00     0.187 HD
HETATM   14  C5  UNL     1      -2.607   1.182   0.165  1.00  0.00     0.340 A 
ATOM     15  H4  UNL     1      -1.337   2.788   0.374  1.00  0.00     0.191 HD
HETATM   16  O2  UNL     1      -3.640   1.912   0.325  1.00  0.00    -0.245 OA
HETATM   17  N5  UNL     1      -2.714  -0.132  -0.045  1.00  0.00    -0.292 N 
HETATM   18  C6  UNL     1      -1.599  -0.921  -0.218  1.00  0.00     0.135 A 
ATOM     19  H5  UNL     1      -3.639  -0.560  -0.078  1.00  0.00     0.172 HD
BRANCH  18  20
HETATM   20  N6  UNL     1      -1.772  -2.122  -0.407  1.00  0.00    -0.383 N 
ATOM     21  H62 UNL     1      -0.946  -2.707  -0.535  1.00  0.00     0.157 HD
ATOM     22  H61 UNL     1      -2.675  -2.594  -0.447  1.00  0.00     0.157 HD
ENDBRANCH  18  20
ENDBRANCH   8  10
ENDBRANCH   3   8
TORSDOF 4
