REMARK  3 active torsions:
REMARK  status: ('A' for Active; 'I' for Inactive)
REMARK       I    between atoms: C1_2  and  N2_4 
REMARK    1  A    between atoms: N2_4  and  N3_6 
REMARK    2  A    between atoms: C2_8  and  C3_9 
REMARK    3  A    between atoms: N6_14  and  N7_15 
ROOT
HETATM    1  C3  UNL     1      -0.902  -0.680   0.125  1.00  0.00     0.137 A 
HETATM    2  N4  UNL     1      -1.596  -1.772  -0.244  1.00  0.00    -0.278 N 
ATOM      3  H4  UNL     1      -1.194  -2.696  -0.402  1.00  0.00     0.189 HD
HETATM    4  N5  UNL     1      -2.873  -1.470  -0.371  1.00  0.00    -0.218 N 
ATOM      5  H5  UNL     1      -3.601  -2.131  -0.642  1.00  0.00     0.210 HD
HETATM    6  N6  UNL     1      -3.082  -0.193  -0.099  1.00  0.00    -0.147 N 
HETATM    7  C4  UNL     1      -1.864   0.325   0.214  1.00  0.00     0.311 A 
HETATM    8  O2  UNL     1      -1.648   1.516   0.532  1.00  0.00    -0.262 OA
ENDROOT
BRANCH   1   9
HETATM    9  C2  UNL     1       0.530  -0.556   0.377  1.00  0.00     0.144 C 
HETATM   10  N3  UNL     1       1.044   0.567   0.725  1.00  0.00    -0.306 N 
ATOM     11  H3  UNL     1       0.415   1.365   0.817  1.00  0.00     0.186 HD
BRANCH  10  12
HETATM   12  N2  UNL     1       2.379   0.776   0.983  1.00  0.00    -0.254 N 
HETATM   13  C1  UNL     1       3.375   0.321   0.080  1.00  0.00     0.347 C 
HETATM   14  N1  UNL     1       4.759   0.516   0.308  1.00  0.00    -0.038 NA
HETATM   15  O1  UNL     1       2.959  -0.284  -0.967  1.00  0.00    -0.249 OA
ATOM     16  H2  UNL     1       2.657   1.264   1.834  1.00  0.00     0.191 HD
ENDBRANCH  10  12
ENDBRANCH   1   9
BRANCH   6  17
HETATM   17  N7  UNL     1      -4.305   0.486  -0.127  1.00  0.00    -0.320 N 
ATOM     18  H72 UNL     1      -5.218   0.098  -0.362  1.00  0.00     0.179 HD
ATOM     19  H71 UNL     1      -4.466   1.471   0.083  1.00  0.00     0.179 HD
ENDBRANCH   6  17
TORSDOF 3
