REMARK  3 active torsions:
REMARK  status: ('A' for Active; 'I' for Inactive)
REMARK    1  A    between atoms: N1_1  and  C1_4 
REMARK    2  A    between atoms: C2_7  and  N3_8 
REMARK    3  A    between atoms: C3_11  and  C4_12 
ROOT
HETATM    1  C1  UNL     1      -2.047  -0.569  -0.046  1.00  0.00     0.680 A 
HETATM    2  N2  UNL     1      -1.577   0.661   0.066  1.00  0.00    -0.170 N 
ATOM      3  H2  UNL     1      -2.261   1.416   0.116  1.00  0.00     0.186 HD
HETATM    4  C2  UNL     1      -0.258   1.015   0.121  1.00  0.00     0.209 A 
HETATM    5  C3  UNL     1       0.638  -0.018   0.055  1.00  0.00     0.148 A 
HETATM    6  C5  UNL     1       0.120  -1.330  -0.066  1.00  0.00     0.279 A 
HETATM    7  O4  UNL     1       0.948  -2.264  -0.127  1.00  0.00    -0.266 OA
HETATM    8  N5  UNL     1      -1.187  -1.602  -0.115  1.00  0.00    -0.155 N 
ATOM      9  H5  UNL     1      -1.522  -2.561  -0.202  1.00  0.00     0.187 HD
ENDROOT
BRANCH   1  10
HETATM   10  N1  UNL     1      -3.304  -0.855  -0.094  1.00  0.00    -0.234 N 
ATOM     11  H12 UNL     1      -3.956  -0.072  -0.042  1.00  0.00     0.174 HD
ATOM     12  H11 UNL     1      -3.667  -1.804  -0.180  1.00  0.00     0.174 HD
ENDBRANCH   1  10
BRANCH   4  13
HETATM   13  N3  UNL     1       0.085   2.387   0.205  1.00  0.00    -0.096 N 
HETATM   14  O1  UNL     1      -0.920   3.174   0.245  1.00  0.00    -0.530 OA
HETATM   15  O2  UNL     1       1.266   3.006   0.251  1.00  0.00    -0.530 OA
ENDBRANCH   4  13
BRANCH   5  16
HETATM   16  C4  UNL     1       2.068   0.120   0.162  1.00  0.00     0.274 C 
HETATM   17  N4  UNL     1       2.920  -0.975  -0.282  1.00  0.00    -0.057 NA
HETATM   18  O3  UNL     1       2.661   1.090   0.598  1.00  0.00    -0.271 OA
ENDBRANCH   5  16
TORSDOF 3
