REMARK  2 active torsions:
REMARK  status: ('A' for Active; 'I' for Inactive)
REMARK    1  A    between atoms: N1_1  and  N2_4 
REMARK       I    between atoms: N2_4  and  C1_6 
REMARK    2  A    between atoms: C1_6  and  C2_8 
REMARK       I    between atoms: N3_10  and  C4_11 
ROOT
HETATM    1  C2  UNL     1      -0.470  -0.071   0.228  1.00  0.00     0.122 A 
HETATM    2  C3  UNL     1       0.834  -0.380  -0.167  1.00  0.00     0.141 A 
HETATM    3  N3  UNL     1       1.672   0.555   0.331  1.00  0.00    -0.226 N 
HETATM    4  C4  UNL     1       3.078   0.631   0.176  1.00  0.00     0.343 C 
HETATM    5  N4  UNL     1       3.815  -0.324  -0.566  1.00  0.00    -0.039 NA
HETATM    6  O2  UNL     1       3.685   1.586   0.720  1.00  0.00    -0.250 OA
HETATM    7  C5  UNL     1       0.898   1.400   1.005  1.00  0.00     0.335 A 
HETATM    8  O3  UNL     1       1.316   2.424   1.623  1.00  0.00    -0.246 OA
HETATM    9  N5  UNL     1      -0.385   1.045   0.957  1.00  0.00    -0.302 N 
ATOM     10  H5  UNL     1      -1.162   1.537   1.398  1.00  0.00     0.171 HD
ENDROOT
BRANCH   1  11
HETATM   11  C1  UNL     1      -1.649  -0.837  -0.107  1.00  0.00     0.287 C 
HETATM   12  N2  UNL     1      -2.920  -0.425   0.352  1.00  0.00    -0.271 N 
ATOM     13  H2  UNL     1      -2.992   0.418   0.921  1.00  0.00     0.189 HD
HETATM   14  O1  UNL     1      -1.578  -1.884  -0.813  1.00  0.00    -0.264 OA
BRANCH  12  15
HETATM   15  N1  UNL     1      -4.080  -1.140   0.048  1.00  0.00    -0.342 N 
ATOM     16  H12 UNL     1      -3.990  -1.981  -0.522  1.00  0.00     0.176 HD
ATOM     17  H11 UNL     1      -4.998  -0.843   0.379  1.00  0.00     0.176 HD
ENDBRANCH  12  15
ENDBRANCH   1  11
TORSDOF 2
