REMARK  4 active torsions:
REMARK  status: ('A' for Active; 'I' for Inactive)
REMARK    1  A    between atoms: N3_8  and  N4_9 
REMARK    2  A    between atoms: N5_11  and  N6_13 
REMARK    3  A    between atoms: N6_13  and  C3_15 
REMARK    4  A    between atoms: N10_21  and  O1_22 
ROOT
HETATM    1  N4  UNL     1      -1.048   1.746  -0.442  1.00  0.00    -0.221 N 
ATOM      2  H4  UNL     1      -1.380   2.705  -0.543  1.00  0.00     0.210 HD
HETATM    3  N5  UNL     1       0.140   1.505  -0.797  1.00  0.00    -0.213 N 
ATOM      4  H5  UNL     1       0.690   2.283  -1.161  1.00  0.00     0.210 HD
ENDROOT
BRANCH   3   5
HETATM    5  N6  UNL     1       0.752   0.263  -0.729  1.00  0.00    -0.112 N 
ATOM      6  H6  UNL     1       0.216  -0.565  -0.989  1.00  0.00     0.207 HD
BRANCH   5   7
HETATM    7  C3  UNL     1       2.103   0.104  -0.309  1.00  0.00     0.753 A 
HETATM    8  N7  UNL     1       2.932   1.092   0.062  1.00  0.00    -0.114 N 
HETATM    9  N8  UNL     1       4.077   0.552   0.375  1.00  0.00    -0.209 N 
ATOM     10  H7  UNL     1       2.707   2.086   0.093  1.00  0.00     0.207 HD
HETATM   11  N9  UNL     1       4.015  -0.770   0.217  1.00  0.00     0.039 NA
ATOM     12  H8  UNL     1       4.899   1.065   0.694  1.00  0.00     0.206 HD
HETATM   13  N10 UNL     1       2.785  -1.039  -0.208  1.00  0.00     0.035 N 
BRANCH  13  14
HETATM   14  O1  UNL     1       2.355  -2.312  -0.481  1.00  0.00    -0.256 OA
ATOM     15  H1  UNL     1       2.840  -3.125  -0.409  1.00  0.00     0.247 HD
ENDBRANCH  13  14
ENDBRANCH   5   7
ENDBRANCH   3   5
BRANCH   1  16
HETATM   16  N3  UNL     1      -1.934   0.822   0.071  1.00  0.00    -0.229 N 
HETATM   17  C1  UNL     1      -1.881  -0.095   1.143  1.00  0.00     0.194 C 
HETATM   18  N1  UNL     1      -1.203  -0.203   2.260  1.00  0.00    -0.370 N 
HETATM   19  N2  UNL     1      -2.880  -0.849   0.485  1.00  0.00    -0.343 N 
ATOM     20  H12 UNL     1      -1.165  -0.866   3.035  1.00  0.00     0.159 HD
ATOM     21  H11 UNL     1      -0.482   0.341   2.735  1.00  0.00     0.159 HD
HETATM   22  C2  UNL     1      -3.264   0.356  -0.206  1.00  0.00     0.278 C 
ATOM     23  H2  UNL     1      -3.192  -1.820   0.495  1.00  0.00     0.164 HD
ENDBRANCH   1  16
TORSDOF 4
