REMARK  2 active torsions:
REMARK  status: ('A' for Active; 'I' for Inactive)
REMARK       I    between atoms: C1_2  and  N2_4 
REMARK    1  A    between atoms: N2_4  and  N3_6 
REMARK    2  A    between atoms: C2_8  and  C3_9 
ROOT
HETATM    1  C3  UNL     1       1.241  -0.500   0.041  1.00  0.00     0.122 A 
HETATM    2  N4  UNL     1       2.181  -1.318  -0.425  1.00  0.00    -0.281 N 
ATOM      3  H4  UNL     1       1.924  -2.273  -0.675  1.00  0.00     0.188 HD
HETATM    4  N5  UNL     1       3.437  -0.934  -0.575  1.00  0.00    -0.239 N 
ATOM      5  H5  UNL     1       4.119  -1.601  -0.936  1.00  0.00     0.208 HD
HETATM    6  N6  UNL     1       3.837   0.292  -0.270  1.00  0.00    -0.248 N 
ATOM      7  H6  UNL     1       4.815   0.552  -0.400  1.00  0.00     0.192 HD
HETATM    8  C4  UNL     1       2.960   1.202   0.212  1.00  0.00     0.313 A 
HETATM    9  O2  UNL     1       3.298   2.367   0.510  1.00  0.00    -0.262 OA
HETATM   10  C5  UNL     1       1.649   0.797   0.367  1.00  0.00     0.270 A 
HETATM   11  O3  UNL     1       0.761   1.586   0.812  1.00  0.00    -0.280 OA
ENDROOT
BRANCH   1  12
HETATM   12  C2  UNL     1      -0.151  -0.889   0.219  1.00  0.00     0.142 C 
HETATM   13  N3  UNL     1      -1.012  -0.048   0.675  1.00  0.00    -0.306 N 
ATOM     14  H3  UNL     1      -0.687   0.891   0.904  1.00  0.00     0.186 HD
BRANCH  13  15
HETATM   15  N2  UNL     1      -2.344  -0.336   0.873  1.00  0.00    -0.254 N 
HETATM   16  C1  UNL     1      -3.356   0.397   0.212  1.00  0.00     0.347 C 
HETATM   17  N1  UNL     1      -4.740   0.105   0.411  1.00  0.00    -0.038 NA
HETATM   18  O1  UNL     1      -3.076   1.330  -0.574  1.00  0.00    -0.249 OA
ATOM     19  H2  UNL     1      -2.605  -1.091   1.507  1.00  0.00     0.191 HD
ENDBRANCH  13  15
ENDBRANCH   1  12
TORSDOF 2
