REMARK  3 active torsions:
REMARK  status: ('A' for Active; 'I' for Inactive)
REMARK    1  A    between atoms: C1_2  and  C2_4 
REMARK    2  A    between atoms: C2_4  and  N2_5 
REMARK    3  A    between atoms: C2_4  and  C3_9 
ROOT
HETATM    1  C3  UNL     1      -0.218   0.598   0.052  1.00  0.00     0.094 A 
HETATM    2  C4  UNL     1      -0.200   1.696  -0.779  1.00  0.00     0.135 A 
HETATM    3  N3  UNL     1       1.031   1.791  -1.310  1.00  0.00    -0.198 N 
ATOM      4  H3  UNL     1       1.336   2.511  -1.965  1.00  0.00     0.183 HD
HETATM    5  C5  UNL     1       1.808   0.777  -0.838  1.00  0.00     0.707 A 
HETATM    6  N4  UNL     1       3.044   0.250  -0.904  1.00  0.00    -0.127 N 
ATOM      7  H4  UNL     1       3.827   0.597  -1.457  1.00  0.00     0.205 HD
HETATM    8  N5  UNL     1       3.042  -0.807  -0.109  1.00  0.00    -0.236 N 
ATOM      9  H5  UNL     1       3.837  -1.424   0.057  1.00  0.00     0.192 HD
HETATM   10  C6  UNL     1       1.825  -0.938   0.444  1.00  0.00     0.360 A 
HETATM   11  O2  UNL     1       1.421  -1.825   1.260  1.00  0.00    -0.244 OA
HETATM   12  N6  UNL     1       1.029   0.059  -0.008  1.00  0.00    -0.093 N 
ENDROOT
BRANCH   1  13
HETATM   13  C2  UNL     1      -1.343   0.075   0.866  1.00  0.00     0.324 C 
BRANCH  13  14
HETATM   14  C1  UNL     1      -2.326  -0.671   0.050  1.00  0.00     0.267 C 
HETATM   15  N1  UNL     1      -1.951  -1.795  -0.743  1.00  0.00    -0.060 NA
HETATM   16  O1  UNL     1      -3.532  -0.267   0.083  1.00  0.00    -0.274 OA
ENDBRANCH  13  14
BRANCH  13  17
HETATM   17  N2  UNL     1      -2.007   1.144   1.548  1.00  0.00    -0.061 N 
ATOM     18  H23 UNL     1      -2.519   1.752   0.908  1.00  0.00     0.275 HD
ATOM     19  H22 UNL     1      -2.799   0.816   2.101  1.00  0.00     0.275 HD
ATOM     20  H21 UNL     1      -1.329   1.658   2.111  1.00  0.00     0.275 HD
ENDBRANCH  13  17
ENDBRANCH   1  13
TORSDOF 3
