REMARK  3 active torsions:
REMARK  status: ('A' for Active; 'I' for Inactive)
REMARK    1  A    between atoms: N1_1  and  C1_4 
REMARK    2  A    between atoms: C2_7  and  C3_8 
REMARK    3  A    between atoms: C4_15  and  C5_16 
ROOT
HETATM    1  C1  UNL     1      -0.477   1.294  -0.903  1.00  0.00     0.134 A 
HETATM    2  N2  UNL     1       0.866   1.258  -0.738  1.00  0.00    -0.322 N 
ATOM      3  H2  UNL     1       1.446   1.950  -1.213  1.00  0.00     0.169 HD
HETATM    4  C2  UNL     1       1.452   0.328   0.040  1.00  0.00     0.188 A 
HETATM    5  N4  UNL     1       0.633  -0.556   0.639  1.00  0.00    -0.281 N 
ATOM      6  H4  UNL     1       1.045  -1.274   1.235  1.00  0.00     0.188 HD
HETATM    7  N5  UNL     1      -0.681  -0.538   0.491  1.00  0.00    -0.291 N 
ATOM      8  H5  UNL     1      -1.245  -1.238   0.974  1.00  0.00     0.187 HD
HETATM    9  C4  UNL     1      -1.293   0.376  -0.278  1.00  0.00     0.157 A 
ENDROOT
BRANCH   1  10
HETATM   10  N1  UNL     1      -1.055   2.178  -1.645  1.00  0.00    -0.383 N 
ATOM     11  H12 UNL     1      -0.451   2.857  -2.108  1.00  0.00     0.157 HD
ATOM     12  H11 UNL     1      -2.067   2.205  -1.769  1.00  0.00     0.157 HD
ENDBRANCH   1  10
BRANCH   9  13
HETATM   13  C5  UNL     1      -2.754   0.394  -0.441  1.00  0.00     0.286 C 
HETATM   14  N6  UNL     1      -3.590  -0.550   0.202  1.00  0.00    -0.056 NA
HETATM   15  O2  UNL     1      -3.323   1.254  -1.164  1.00  0.00    -0.269 OA
ENDBRANCH   9  13
BRANCH   4  16
HETATM   16  C3  UNL     1       2.898   0.276   0.229  1.00  0.00     0.300 C 
HETATM   17  N3  UNL     1       3.441  -0.730   1.061  1.00  0.00    -0.054 NA
HETATM   18  O1  UNL     1       3.676   1.084  -0.316  1.00  0.00    -0.268 OA
ENDBRANCH   4  16
TORSDOF 3
