REMARK  3 active torsions:
REMARK  status: ('A' for Active; 'I' for Inactive)
REMARK    1  A    between atoms: N1_1  and  N2_4 
REMARK    2  A    between atoms: N2_4  and  C1_5 
REMARK    3  A    between atoms: C1_5  and  C2_6 
ROOT
HETATM    1  C2  UNL     1       0.705  -0.556  -0.164  1.00  0.00     0.033 A 
HETATM    2  C3  UNL     1      -0.058   0.465  -0.712  1.00  0.00     0.077 A 
HETATM    3  C4  UNL     1      -1.422   0.562  -0.512  1.00  0.00     0.137 A 
HETATM    4  N3  UNL     1      -2.385   1.416  -0.907  1.00  0.00    -0.281 N 
ATOM      5  H3  UNL     1      -2.225   2.233  -1.496  1.00  0.00     0.188 HD
HETATM    6  N4  UNL     1      -3.562   1.058  -0.432  1.00  0.00    -0.249 N 
ATOM      7  H4  UNL     1      -4.456   1.528  -0.578  1.00  0.00     0.192 HD
HETATM    8  C5  UNL     1      -3.335  -0.062   0.288  1.00  0.00     0.351 A 
HETATM    9  O1  UNL     1      -4.236  -0.710   0.907  1.00  0.00    -0.244 OA
HETATM   10  N5  UNL     1      -2.021  -0.375   0.245  1.00  0.00    -0.197 N 
HETATM   11  C6  UNL     1      -1.298  -1.380   0.790  1.00  0.00     0.336 A 
HETATM   12  O2  UNL     1      -1.887  -2.239   1.491  1.00  0.00    -0.246 OA
HETATM   13  N6  UNL     1       0.029  -1.458   0.584  1.00  0.00    -0.310 N 
ATOM     14  H6  UNL     1       0.546  -2.228   1.009  1.00  0.00     0.170 HD
ENDROOT
BRANCH   1  15
HETATM   15  C1  UNL     1       2.173  -0.653  -0.385  1.00  0.00     0.191 C 
BRANCH  15  16
HETATM   16  N2  UNL     1       2.826   0.088   0.678  1.00  0.00    -0.142 NA
BRANCH  16  17
HETATM   17  N1  UNL     1       4.215   0.063   0.568  1.00  0.00    -0.348 N 
ATOM     18  H12 UNL     1       4.703  -0.426  -0.182  1.00  0.00     0.172 HD
ATOM     19  H11 UNL     1       4.674   0.584   1.315  1.00  0.00     0.172 HD
ENDBRANCH  16  17
ENDBRANCH  15  16
ENDBRANCH   1  15
TORSDOF 3
