REMARK  16 active torsions:
REMARK  status: ('A' for Active; 'I' for Inactive)
REMARK    1  A    between atoms: N1_1  and  C1_5 
REMARK    2  A    between atoms: C1_5  and  C2_6 
REMARK    3  A    between atoms: C3_8  and  O2_9 
REMARK    4  A    between atoms: O2_9  and  C4_10 
REMARK    5  A    between atoms: C5_11  and  O3_12 
REMARK    6  A    between atoms: C6_14  and  N2_15 
REMARK    7  A    between atoms: N2_15  and  O4_16 
REMARK    8  A    between atoms: O4_16  and  C7_17 
REMARK    9  A    between atoms: C10_25  and  C11_26 
REMARK   10  A    between atoms: C11_26  and  O7_27 
REMARK   11  A    between atoms: C12_29  and  O8_30 
REMARK   12  A    between atoms: O8_30  and  C13_31 
REMARK   13  A    between atoms: C17_38  and  N5_39 
REMARK   14  A    between atoms: C18_43  and  O9_44 
REMARK   15  A    between atoms: C19_46  and  O10_47 
REMARK   16  A    between atoms: C20_49  and  O11_50 
ROOT
HETATM    1  C4  UNL     1       0.510  -0.574  -0.636  1.00  0.00     0.189 C 
HETATM    2  C5  UNL     1      -0.232  -1.841  -1.107  1.00  0.00     0.196 C 
HETATM    3  C6  UNL     1      -1.418  -1.403  -1.973  1.00  0.00     0.273 C 
HETATM    4  O6  UNL     1      -0.995  -0.265  -2.649  1.00  0.00    -0.355 OA
HETATM    5  C10 UNL     1      -1.077   0.829  -1.789  1.00  0.00     0.179 C 
HETATM    6  C12 UNL     1      -0.581   0.446  -0.385  1.00  0.00     0.184 C 
ENDROOT
BRANCH   1   7
HETATM    7  O2  UNL     1       1.235  -0.853   0.445  1.00  0.00    -0.348 OA
BRANCH   7   8
HETATM    8  C3  UNL     1       2.608  -0.757   0.376  1.00  0.00     0.292 C 
HETATM    9  O1  UNL     1       3.166   0.252   1.117  1.00  0.00    -0.349 OA
HETATM   10  C2  UNL     1       3.995  -0.139   2.136  1.00  0.00     0.181 C 
HETATM   11  C20 UNL     1       5.128  -1.025   1.704  1.00  0.00     0.180 C 
HETATM   12  C19 UNL     1       4.818  -1.761   0.416  1.00  0.00     0.183 C 
HETATM   13  C18 UNL     1       3.323  -2.069   0.472  1.00  0.00     0.204 C 
BRANCH  10  14
HETATM   14  C1  UNL     1       4.551   1.113   2.783  1.00  0.00     0.264 C 
BRANCH  14  15
HETATM   15  N1  UNL     1       5.300   1.934   1.867  1.00  0.00    -0.077 N 
ATOM     16  H13 UNL     1       6.041   1.396   1.418  1.00  0.00     0.274 HD
ATOM     17  H12 UNL     1       4.742   2.166   1.045  1.00  0.00     0.274 HD
ATOM     18  H11 UNL     1       5.674   2.777   2.303  1.00  0.00     0.274 HD
ENDBRANCH  14  15
ENDBRANCH  10  14
BRANCH  11  19
HETATM   19  O11 UNL     1       6.319  -0.343   1.518  1.00  0.00    -0.390 OA
ATOM     20  H11 UNL     1       7.036  -0.903   1.245  1.00  0.00     0.210 HD
ENDBRANCH  11  19
BRANCH  12  21
HETATM   21  O10 UNL     1       5.145  -0.973  -0.663  1.00  0.00    -0.390 OA
ATOM     22  H10 UNL     1       6.075  -0.781  -0.698  1.00  0.00     0.210 HD
ENDBRANCH  12  21
BRANCH  13  23
HETATM   23  O9  UNL     1       3.121  -2.740   1.666  1.00  0.00    -0.388 OA
ATOM     24  H9  UNL     1       3.575  -3.572   1.727  1.00  0.00     0.210 HD
ENDBRANCH  13  23
ENDBRANCH   7   8
ENDBRANCH   1   7
BRANCH   2  25
HETATM   25  O3  UNL     1       0.628  -2.584  -1.913  1.00  0.00    -0.389 OA
ATOM     26  H3  UNL     1       0.171  -3.365  -2.203  1.00  0.00     0.210 HD
ENDBRANCH   2  25
BRANCH   6  27
HETATM   27  O8  UNL     1      -0.030   1.522   0.242  1.00  0.00    -0.371 OA
BRANCH  27  28
HETATM   28  C13 UNL     1      -0.582   1.935   1.408  1.00  0.00     0.178 C 
HETATM   29  C14 UNL     1       0.302   1.897   2.628  1.00  0.00     0.266 C 
HETATM   30  N4  UNL     1      -0.494   2.023   3.822  1.00  0.00    -0.073 N 
HETATM   31  C15 UNL     1      -1.866   2.373   3.581  1.00  0.00     0.234 C 
ATOM     32  H42 UNL     1      -0.436   1.172   4.381  1.00  0.00     0.277 HD
ATOM     33  H41 UNL     1      -0.065   2.685   4.469  1.00  0.00     0.277 HD
HETATM   34  C16 UNL     1      -2.029   3.487   2.599  1.00  0.00     0.063 C 
HETATM   35  C17 UNL     1      -1.146   3.344   1.374  1.00  0.00     0.215 C 
BRANCH  35  36
HETATM   36  N5  UNL     1      -0.060   4.324   1.549  1.00  0.00    -0.072 N 
ATOM     37  H53 UNL     1       0.481   4.149   2.396  1.00  0.00     0.274 HD
ATOM     38  H52 UNL     1       0.687   4.194   0.866  1.00  0.00     0.274 HD
ATOM     39  H51 UNL     1      -0.439   5.271   1.526  1.00  0.00     0.274 HD
ENDBRANCH  35  36
ENDBRANCH  27  28
ENDBRANCH   6  27
BRANCH   3  40
HETATM   40  N2  UNL     1      -1.754  -2.498  -2.842  1.00  0.00    -0.061 NA
BRANCH  40  41
HETATM   41  O4  UNL     1      -2.782  -2.262  -3.652  1.00  0.00    -0.223 OA
BRANCH  41  42
HETATM   42  C7  UNL     1      -3.998  -2.699  -3.173  1.00  0.00     0.488 C 
HETATM   43  N3  UNL     1      -4.903  -1.576  -3.113  1.00  0.00    -0.021 N 
HETATM   44  C8  UNL     1      -6.221  -2.160  -3.232  1.00  0.00     0.264 C 
ATOM     45  H32 UNL     1      -4.782  -0.989  -2.288  1.00  0.00     0.283 HD
ATOM     46  H31 UNL     1      -4.708  -0.848  -3.801  1.00  0.00     0.283 HD
HETATM   47  C9  UNL     1      -5.964  -3.476  -3.881  1.00  0.00     0.200 C 
HETATM   48  O5  UNL     1      -4.590  -3.639  -4.009  1.00  0.00    -0.336 OA
ENDBRANCH  41  42
ENDBRANCH  40  41
ENDBRANCH   3  40
BRANCH   5  49
HETATM   49  C11 UNL     1      -2.500   1.284  -1.791  1.00  0.00     0.198 C 
BRANCH  49  50
HETATM   50  O7  UNL     1      -2.838   1.641  -3.119  1.00  0.00    -0.398 OA
ATOM     51  H7  UNL     1      -3.743   1.930  -3.120  1.00  0.00     0.209 HD
ENDBRANCH  49  50
ENDBRANCH   5  49
TORSDOF 16
