REMARK  17 active torsions:
REMARK  status: ('A' for Active; 'I' for Inactive)
REMARK    1  A    between atoms: C3_4  and  O2_5 
REMARK    2  A    between atoms: O2_5  and  C4_6 
REMARK    3  A    between atoms: C5_7  and  N1_8 
REMARK    4  A    between atoms: C7_13  and  N2_14 
REMARK    5  A    between atoms: C8_18  and  O3_19 
REMARK    6  A    between atoms: O3_19  and  C9_20 
REMARK    7  A    between atoms: C10_22  and  C11_23 
REMARK    8  A    between atoms: C11_23  and  N3_24 
REMARK    9  A    between atoms: C12_28  and  O5_29 
REMARK   10  A    between atoms: C13_31  and  O6_32 
REMARK   11  A    between atoms: C14_34  and  N4_35 
REMARK   12  A    between atoms: C15_39  and  O7_40 
REMARK   13  A    between atoms: C16_42  and  O8_43 
REMARK   14  A    between atoms: O8_43  and  C17_44 
REMARK   15  A    between atoms: C19_49  and  C20_50 
REMARK   16  A    between atoms: C20_50  and  N6_51 
REMARK   17  A    between atoms: C21_56  and  O10_57 
ROOT
HETATM    1  C4  UNL     1       0.401  -0.898  -0.192  1.00  0.00     0.186 C 
HETATM    2  C5  UNL     1       0.711   0.213  -1.133  1.00  0.00     0.217 C 
HETATM    3  C6  UNL     1       0.169  -0.040  -2.508  1.00  0.00     0.071 C 
HETATM    4  C7  UNL     1      -1.301  -0.317  -2.551  1.00  0.00     0.217 C 
HETATM    5  C8  UNL     1      -1.873  -0.870  -1.291  1.00  0.00     0.186 C 
HETATM    6  C15 UNL     1      -0.872  -1.638  -0.463  1.00  0.00     0.180 C 
ENDROOT
BRANCH   1   7
HETATM    7  O2  UNL     1       1.470  -1.759  -0.131  1.00  0.00    -0.349 OA
BRANCH   7   8
HETATM    8  C3  UNL     1       2.078  -1.829   1.098  1.00  0.00     0.292 C 
HETATM    9  O1  UNL     1       1.972  -3.180   1.513  1.00  0.00    -0.351 OA
HETATM   10  C2  UNL     1       2.723  -3.807   0.512  1.00  0.00     0.152 C 
HETATM   11  C1  UNL     1       3.127  -5.211   0.903  1.00  0.00     0.042 C 
HETATM   12  C21 UNL     1       3.973  -2.969   0.326  1.00  0.00     0.180 C 
HETATM   13  C16 UNL     1       3.586  -1.695   1.051  1.00  0.00     0.212 C 
BRANCH  12  14
HETATM   14  O10 UNL     1       4.251  -2.745  -1.008  1.00  0.00    -0.390 OA
ATOM     15  H10 UNL     1       5.034  -2.220  -1.125  1.00  0.00     0.210 HD
ENDBRANCH  12  14
BRANCH  13  16
HETATM   16  O8  UNL     1       4.029  -0.553   0.439  1.00  0.00    -0.326 OA
BRANCH  16  17
HETATM   17  C17 UNL     1       4.833   0.140   1.363  1.00  0.00     0.470 C 
HETATM   18  N5  UNL     1       6.155   0.221   0.768  1.00  0.00    -0.022 N 
HETATM   19  C18 UNL     1       6.770   1.298   1.546  1.00  0.00     0.272 C 
ATOM     20  H52 UNL     1       6.677  -0.655   0.753  1.00  0.00     0.283 HD
ATOM     21  H51 UNL     1       6.167   0.356  -0.243  1.00  0.00     0.283 HD
HETATM   22  C19 UNL     1       5.571   2.219   1.739  1.00  0.00     0.177 C 
HETATM   23  O9  UNL     1       4.447   1.448   1.510  1.00  0.00    -0.330 OA
BRANCH  22  24
HETATM   24  C20 UNL     1       5.639   3.242   0.605  1.00  0.00     0.263 C 
BRANCH  24  25
HETATM   25  N6  UNL     1       6.805   4.087   0.788  1.00  0.00    -0.077 N 
ATOM     26  H63 UNL     1       6.822   4.528   1.708  1.00  0.00     0.274 HD
ATOM     27  H62 UNL     1       7.665   3.545   0.871  1.00  0.00     0.274 HD
ATOM     28  H61 UNL     1       6.850   4.770   0.031  1.00  0.00     0.274 HD
ENDBRANCH  24  25
ENDBRANCH  22  24
ENDBRANCH  16  17
ENDBRANCH  13  16
ENDBRANCH   7   8
ENDBRANCH   1   7
BRANCH   2  29
HETATM   29  N1  UNL     1       0.310   1.520  -0.619  1.00  0.00    -0.072 N 
ATOM     30  H13 UNL     1      -0.677   1.524  -0.362  1.00  0.00     0.274 HD
ATOM     31  H12 UNL     1       0.721   1.693   0.298  1.00  0.00     0.274 HD
ATOM     32  H11 UNL     1       0.522   2.281  -1.264  1.00  0.00     0.274 HD
ENDBRANCH   2  29
BRANCH   6  33
HETATM   33  O7  UNL     1      -0.535  -2.850  -1.095  1.00  0.00    -0.390 OA
ATOM     34  H7  UNL     1      -1.343  -3.320  -1.267  1.00  0.00     0.210 HD
ENDBRANCH   6  33
BRANCH   5  35
HETATM   35  O3  UNL     1      -2.371   0.150  -0.531  1.00  0.00    -0.349 OA
BRANCH  35  36
HETATM   36  C9  UNL     1      -3.679   0.150  -0.221  1.00  0.00     0.294 C 
HETATM   37  O4  UNL     1      -4.296   1.256  -0.806  1.00  0.00    -0.349 OA
HETATM   38  C10 UNL     1      -5.659   1.160  -0.874  1.00  0.00     0.181 C 
HETATM   39  C12 UNL     1      -6.341   0.719   0.365  1.00  0.00     0.179 C 
HETATM   40  C13 UNL     1      -5.549  -0.159   1.263  1.00  0.00     0.184 C 
HETATM   41  C14 UNL     1      -4.051   0.176   1.226  1.00  0.00     0.269 C 
BRANCH  38  42
HETATM   42  C11 UNL     1      -6.183   2.563  -1.215  1.00  0.00     0.264 C 
BRANCH  42  43
HETATM   43  N3  UNL     1      -7.626   2.578  -1.312  1.00  0.00    -0.077 N 
ATOM     44  H33 UNL     1      -7.963   1.881  -1.976  1.00  0.00     0.274 HD
ATOM     45  H32 UNL     1      -8.061   2.212  -0.465  1.00  0.00     0.274 HD
ATOM     46  H31 UNL     1      -7.974   3.510  -1.538  1.00  0.00     0.274 HD
ENDBRANCH  42  43
ENDBRANCH  38  42
BRANCH  39  47
HETATM   47  O5  UNL     1      -7.527   0.049  -0.009  1.00  0.00    -0.390 OA
ATOM     48  H5  UNL     1      -7.964  -0.234   0.786  1.00  0.00     0.210 HD
ENDBRANCH  39  47
BRANCH  40  49
HETATM   49  O6  UNL     1      -5.956  -0.125   2.582  1.00  0.00    -0.391 OA
ATOM     50  H6  UNL     1      -5.449  -0.687   3.157  1.00  0.00     0.210 HD
ENDBRANCH  40  49
BRANCH  41  51
HETATM   51  N4  UNL     1      -3.927   1.520   1.713  1.00  0.00    -0.068 N 
ATOM     52  H43 UNL     1      -3.001   1.912   1.542  1.00  0.00     0.275 HD
ATOM     53  H42 UNL     1      -4.467   2.186   1.160  1.00  0.00     0.275 HD
ATOM     54  H41 UNL     1      -4.181   1.538   2.701  1.00  0.00     0.275 HD
ENDBRANCH  41  51
ENDBRANCH  35  36
ENDBRANCH   5  35
BRANCH   4  55
HETATM   55  N2  UNL     1      -1.976   0.944  -2.829  1.00  0.00    -0.072 N 
ATOM     56  H23 UNL     1      -1.729   1.681  -2.169  1.00  0.00     0.274 HD
ATOM     57  H22 UNL     1      -1.633   1.401  -3.674  1.00  0.00     0.274 HD
ATOM     58  H21 UNL     1      -2.978   0.755  -2.858  1.00  0.00     0.274 HD
ENDBRANCH   4  55
TORSDOF 17
