REMARK  16 active torsions:
REMARK  status: ('A' for Active; 'I' for Inactive)
REMARK    1  A    between atoms: C3_4  and  O2_5 
REMARK    2  A    between atoms: O2_5  and  C4_6 
REMARK    3  A    between atoms: C5_7  and  N1_8 
REMARK    4  A    between atoms: C7_13  and  O3_14 
REMARK    5  A    between atoms: O3_14  and  C8_15 
REMARK    6  A    between atoms: C9_17  and  C10_18 
REMARK    7  A    between atoms: C10_18  and  N2_19 
REMARK    8  A    between atoms: C11_23  and  O5_24 
REMARK    9  A    between atoms: C12_29  and  N4_30 
REMARK   10  A    between atoms: C13_34  and  O6_35 
REMARK   11  A    between atoms: O6_35  and  C14_36 
REMARK   12  A    between atoms: C17_40  and  N5_41 
REMARK   13  A    between atoms: C18_45  and  O8_46 
REMARK   14  A    between atoms: C19_48  and  N6_49 
REMARK   15  A    between atoms: C20_53  and  O9_54 
REMARK   16  A    between atoms: C21_56  and  N7_57 
ROOT
HETATM    1  C4  UNL     1      -1.992  -0.974  -0.247  1.00  0.00     0.188 C 
HETATM    2  C5  UNL     1      -1.199  -2.068   0.389  1.00  0.00     0.217 C 
HETATM    3  C6  UNL     1      -0.299  -1.413   1.452  1.00  0.00     0.070 C 
HETATM    4  C7  UNL     1       0.778  -0.727   0.621  1.00  0.00     0.158 C 
HETATM    5  C13 UNL     1       0.071   0.372  -0.124  1.00  0.00     0.186 C 
HETATM    6  C19 UNL     1      -0.979  -0.150  -1.064  1.00  0.00     0.245 C 
ENDROOT
BRANCH   4   7
HETATM    7  O3  UNL     1       1.790  -0.208   1.358  1.00  0.00    -0.349 OA
BRANCH   7   8
HETATM    8  C8  UNL     1       3.017  -0.848   1.203  1.00  0.00     0.319 C 
HETATM    9  O4  UNL     1       3.243  -1.521   2.387  1.00  0.00    -0.346 OA
HETATM   10  C9  UNL     1       4.525  -1.941   2.625  1.00  0.00     0.206 C 
HETATM   11  C11 UNL     1       5.547  -0.844   2.441  1.00  0.00     0.352 C 
HETATM   12  N3  UNL     1       5.453  -0.406   1.089  1.00  0.00    -0.013 N 
HETATM   13  C12 UNL     1       4.118  -0.027   0.672  1.00  0.00     0.437 C 
ATOM     14  H32 UNL     1       6.109   0.356   0.916  1.00  0.00     0.283 HD
ATOM     15  H31 UNL     1       5.835  -1.112   0.460  1.00  0.00     0.283 HD
BRANCH  10  16
HETATM   16  C10 UNL     1       4.844  -3.155   1.792  1.00  0.00     0.266 C 
BRANCH  16  17
HETATM   17  N2  UNL     1       6.178  -3.669   1.985  1.00  0.00    -0.077 N 
ATOM     18  H23 UNL     1       6.870  -2.936   1.828  1.00  0.00     0.274 HD
ATOM     19  H22 UNL     1       6.348  -3.859   2.973  1.00  0.00     0.274 HD
ATOM     20  H21 UNL     1       6.394  -4.491   1.421  1.00  0.00     0.274 HD
ENDBRANCH  16  17
ENDBRANCH  10  16
BRANCH  11  21
HETATM   21  O5  UNL     1       6.807  -1.390   2.650  1.00  0.00    -0.368 OA
ATOM     22  H5  UNL     1       7.450  -0.700   2.534  1.00  0.00     0.212 HD
ENDBRANCH  11  21
BRANCH  13  23
HETATM   23  N4  UNL     1       4.125  -0.039  -0.805  1.00  0.00    -0.045 N 
ATOM     24  H43 UNL     1       4.154  -0.990  -1.173  1.00  0.00     0.277 HD
ATOM     25  H42 UNL     1       3.224   0.248  -1.187  1.00  0.00     0.277 HD
ATOM     26  H41 UNL     1       4.888   0.530  -1.173  1.00  0.00     0.277 HD
ENDBRANCH  13  23
ENDBRANCH   7   8
ENDBRANCH   4   7
BRANCH   5  27
HETATM   27  O6  UNL     1       0.878   1.300  -0.712  1.00  0.00    -0.349 OA
BRANCH  27  28
HETATM   28  C14 UNL     1       0.782   2.591  -0.193  1.00  0.00     0.291 C 
HETATM   29  O7  UNL     1       1.957   2.953   0.460  1.00  0.00    -0.352 OA
HETATM   30  C15 UNL     1       2.261   4.238   0.103  1.00  0.00     0.153 C 
HETATM   31  C16 UNL     1       1.639   5.156   1.160  1.00  0.00     0.042 C 
HETATM   32  C17 UNL     1       1.707   4.480  -1.255  1.00  0.00     0.245 C 
HETATM   33  C18 UNL     1       0.512   3.547  -1.297  1.00  0.00     0.206 C 
BRANCH  32  34
HETATM   34  N5  UNL     1       1.300   5.858  -1.460  1.00  0.00    -0.070 N 
ATOM     35  H53 UNL     1       0.643   6.156  -0.739  1.00  0.00     0.274 HD
ATOM     36  H52 UNL     1       2.068   6.499  -1.259  1.00  0.00     0.274 HD
ATOM     37  H51 UNL     1       0.920   6.024  -2.392  1.00  0.00     0.274 HD
ENDBRANCH  32  34
BRANCH  33  38
HETATM   38  O8  UNL     1      -0.646   4.279  -1.008  1.00  0.00    -0.388 OA
ATOM     39  H8  UNL     1      -0.819   4.891  -1.714  1.00  0.00     0.210 HD
ENDBRANCH  33  38
ENDBRANCH  27  28
ENDBRANCH   5  27
BRANCH   2  40
HETATM   40  N1  UNL     1      -1.998  -3.112   0.977  1.00  0.00    -0.072 N 
ATOM     41  H13 UNL     1      -2.663  -2.720   1.643  1.00  0.00     0.274 HD
ATOM     42  H12 UNL     1      -2.647  -3.495   0.289  1.00  0.00     0.274 HD
ATOM     43  H11 UNL     1      -1.456  -3.859   1.411  1.00  0.00     0.274 HD
ENDBRANCH   2  40
BRANCH   6  44
HETATM   44  N6  UNL     1      -1.625   0.974  -1.684  1.00  0.00    -0.070 N 
ATOM     45  H63 UNL     1      -2.424   0.687  -2.250  1.00  0.00     0.274 HD
ATOM     46  H62 UNL     1      -2.120   1.550  -1.003  1.00  0.00     0.274 HD
ATOM     47  H61 UNL     1      -0.954   1.520  -2.225  1.00  0.00     0.274 HD
ENDBRANCH   6  44
BRANCH   1  48
HETATM   48  O2  UNL     1      -2.959  -1.534  -1.047  1.00  0.00    -0.349 OA
BRANCH  48  49
HETATM   49  C3  UNL     1      -4.242  -1.178  -0.747  1.00  0.00     0.291 C 
HETATM   50  O1  UNL     1      -4.823  -0.543  -1.814  1.00  0.00    -0.352 OA
HETATM   51  C2  UNL     1      -6.048  -1.084  -2.086  1.00  0.00     0.153 C 
HETATM   52  C1  UNL     1      -7.071  -0.080  -2.568  1.00  0.00     0.042 C 
HETATM   53  C21 UNL     1      -6.495  -1.768  -0.808  1.00  0.00     0.245 C 
HETATM   54  C20 UNL     1      -5.135  -2.338  -0.367  1.00  0.00     0.206 C 
BRANCH  53  55
HETATM   55  N7  UNL     1      -7.362  -2.883  -1.037  1.00  0.00    -0.070 N 
ATOM     56  H73 UNL     1      -8.166  -2.607  -1.601  1.00  0.00     0.274 HD
ATOM     57  H72 UNL     1      -6.931  -3.552  -1.675  1.00  0.00     0.274 HD
ATOM     58  H71 UNL     1      -7.663  -3.343  -0.178  1.00  0.00     0.274 HD
ENDBRANCH  53  55
BRANCH  54  59
HETATM   59  O9  UNL     1      -4.936  -3.457  -1.167  1.00  0.00    -0.388 OA
ATOM     60  H9  UNL     1      -5.497  -4.186  -0.928  1.00  0.00     0.210 HD
ENDBRANCH  54  59
ENDBRANCH  48  49
ENDBRANCH   1  48
TORSDOF 16
