REMARK  16 active torsions:
REMARK  status: ('A' for Active; 'I' for Inactive)
REMARK    1  A    between atoms: N1_1  and  C1_4 
REMARK    2  A    between atoms: C3_8  and  C4_9 
REMARK    3  A    between atoms: C4_9  and  N3_10 
REMARK    4  A    between atoms: C5_13  and  C6_14 
REMARK       I    between atoms: C6_14  and  N5_16 
REMARK    5  A    between atoms: N5_16  and  N6_18 
REMARK    6  A    between atoms: N6_18  and  C7_20 
REMARK    7  A    between atoms: C8_23  and  N8_24 
REMARK    8  A    between atoms: C9_29  and  N10_30 
REMARK    9  A    between atoms: C11_36  and  O2_37 
REMARK   10  A    between atoms: C12_39  and  C13_40 
REMARK       I    between atoms: C13_40  and  N12_42 
REMARK   11  A    between atoms: N12_42  and  O4_44 
REMARK   12  A    between atoms: O4_44  and  C14_45 
REMARK   13  A    between atoms: C14_45  and  C15_46 
REMARK   14  A    between atoms: C15_46  and  O5_47 
REMARK   15  A    between atoms: C15_46  and  C16_49 
REMARK   16  A    between atoms: C16_49  and  O6_50 
ROOT
HETATM    1  N3  UNL     1      -1.304   2.720  -1.932  1.00  0.00    -0.207 N 
HETATM    2  N4  UNL     1      -2.372   1.984  -1.892  1.00  0.00    -0.275 N 
ATOM      3  H4  UNL     1      -3.322   2.347  -1.968  1.00  0.00     0.189 HD
HETATM    4  C5  UNL     1      -2.064   0.659  -1.735  1.00  0.00     0.152 A 
HETATM    5  C10 UNL     1      -0.693   0.634  -1.678  1.00  0.00     0.145 A 
HETATM    6  C11 UNL     1       0.443  -0.150  -1.533  1.00  0.00     0.133 A 
HETATM    7  C12 UNL     1       1.548   0.678  -1.576  1.00  0.00     0.155 A 
HETATM    8  N13 UNL     1       1.022   1.925  -1.744  1.00  0.00    -0.270 N 
ATOM      9  H13 UNL     1       1.583   2.774  -1.816  1.00  0.00     0.189 HD
HETATM   10  N14 UNL     1      -0.276   1.907  -1.802  1.00  0.00    -0.174 N 
ENDROOT
BRANCH   4  11
HETATM   11  C6  UNL     1      -3.034  -0.401  -1.627  1.00  0.00     0.291 C 
HETATM   12  O1  UNL     1      -4.230  -0.027  -1.308  1.00  0.00    -0.264 OA
HETATM   13  N5  UNL     1      -2.855  -1.772  -1.824  1.00  0.00    -0.250 N 
ATOM     14  H5  UNL     1      -1.936  -2.129  -2.085  1.00  0.00     0.191 HD
BRANCH  13  15
HETATM   15  N6  UNL     1      -3.948  -2.679  -1.663  1.00  0.00    -0.128 N 
ATOM     16  H6  UNL     1      -4.521  -2.959  -2.459  1.00  0.00     0.205 HD
BRANCH  15  17
HETATM   17  C7  UNL     1      -4.187  -3.131  -0.481  1.00  0.00     0.726 A 
HETATM   18  N7  UNL     1      -5.222  -3.993  -0.320  1.00  0.00    -0.020 N 
HETATM   19  C8  UNL     1      -5.494  -4.477   0.895  1.00  0.00     0.705 A 
ATOM     20  H7  UNL     1      -5.789  -4.270  -1.122  1.00  0.00     0.203 HD
HETATM   21  N9  UNL     1      -4.782  -4.150   1.988  1.00  0.00    -0.022 N 
HETATM   22  C9  UNL     1      -3.760  -3.298   1.832  1.00  0.00     0.705 A 
ATOM     23  H9  UNL     1      -5.012  -4.537   2.903  1.00  0.00     0.203 HD
HETATM   24  N11 UNL     1      -3.475  -2.803   0.616  1.00  0.00    -0.020 N 
ATOM     25  H11 UNL     1      -2.692  -2.156   0.519  1.00  0.00     0.203 HD
BRANCH  19  26
HETATM   26  N8  UNL     1      -6.487  -5.300   1.022  1.00  0.00    -0.234 N 
ATOM     27  H82 UNL     1      -7.027  -5.548   0.193  1.00  0.00     0.174 HD
ATOM     28  H81 UNL     1      -6.695  -5.670   1.950  1.00  0.00     0.174 HD
ENDBRANCH  19  26
BRANCH  22  29
HETATM   29  N10 UNL     1      -3.073  -2.979   2.872  1.00  0.00    -0.234 N 
ATOM     30 2H10 UNL     1      -3.289  -3.355   3.795  1.00  0.00     0.174 HD
ATOM     31 1H10 UNL     1      -2.295  -2.330   2.753  1.00  0.00     0.174 HD
ENDBRANCH  22  29
ENDBRANCH  15  17
ENDBRANCH  13  15
ENDBRANCH   4  11
BRANCH   1  32
HETATM   32  C4  UNL     1      -1.213   4.181  -2.089  1.00  0.00     0.213 C 
BRANCH  32  33
HETATM   33  C3  UNL     1      -1.234   4.793  -0.733  1.00  0.00    -0.005 A 
HETATM   34  C2  UNL     1      -2.412   5.155  -0.113  1.00  0.00     0.116 A 
HETATM   35  N2  UNL     1      -2.388   5.708   1.119  1.00  0.00    -0.202 N 
HETATM   36  C1  UNL     1      -1.249   5.934   1.799  1.00  0.00     0.675 A 
ATOM     37  H2  UNL     1      -3.274   5.966   1.554  1.00  0.00     0.183 HD
HETATM   38  N15 UNL     1      -0.101   5.580   1.193  1.00  0.00    -0.202 N 
HETATM   39  C17 UNL     1      -0.061   5.026  -0.032  1.00  0.00     0.116 A 
ATOM     40  H15 UNL     1       0.778   5.739   1.685  1.00  0.00     0.183 HD
BRANCH  36  41
HETATM   41  N1  UNL     1      -1.221   6.463   2.977  1.00  0.00    -0.234 N 
ATOM     42  H12 UNL     1      -2.091   6.731   3.436  1.00  0.00     0.174 HD
ATOM     43  H11 UNL     1      -0.358   6.634   3.492  1.00  0.00     0.174 HD
ENDBRANCH  36  41
ENDBRANCH  32  33
ENDBRANCH   1  32
BRANCH   6  44
HETATM   44  O2  UNL     1       0.483  -1.506  -1.373  1.00  0.00    -0.356 OA
ATOM     45  H2  UNL     1       1.261  -2.043  -1.274  1.00  0.00     0.218 HD
ENDBRANCH   6  44
BRANCH   7  46
HETATM   46  C13 UNL     1       2.963   0.399  -1.477  1.00  0.00     0.296 C 
HETATM   47  O3  UNL     1       3.800   1.332  -1.549  1.00  0.00    -0.264 OA
HETATM   48  N12 UNL     1       3.449  -0.915  -1.298  1.00  0.00    -0.229 N 
ATOM     49  H12 UNL     1       2.792  -1.693  -1.236  1.00  0.00     0.198 HD
BRANCH  48  50
HETATM   50  O4  UNL     1       4.800  -1.154  -1.206  1.00  0.00    -0.275 OA
BRANCH  50  51
HETATM   51  C14 UNL     1       5.112  -1.661   0.063  1.00  0.00     0.235 C 
BRANCH  51  52
HETATM   52  C15 UNL     1       6.616  -1.890   0.066  1.00  0.00     0.167 C 
BRANCH  52  53
HETATM   53  O5  UNL     1       7.211  -0.669  -0.168  1.00  0.00    -0.391 OA
ATOM     54  H5  UNL     1       8.150  -0.812  -0.166  1.00  0.00     0.210 HD
ENDBRANCH  52  53
BRANCH  52  55
HETATM   55  C16 UNL     1       6.995  -2.364   1.455  1.00  0.00     0.198 C 
BRANCH  55  56
HETATM   56  O6  UNL     1       6.376  -3.601   1.655  1.00  0.00    -0.398 OA
ATOM     57  H6  UNL     1       6.614  -3.898   2.526  1.00  0.00     0.209 HD
ENDBRANCH  55  56
ENDBRANCH  52  55
ENDBRANCH  51  52
ENDBRANCH  50  51
ENDBRANCH  48  50
ENDBRANCH   7  46
TORSDOF 16
