REMARK  6 active torsions:
REMARK  status: ('A' for Active; 'I' for Inactive)
REMARK    1  A    between atoms: C3_3  and  C4_4 
REMARK    2  A    between atoms: C4_4  and  O1_5 
REMARK    3  A    between atoms: O1_5  and  C5_6 
REMARK    4  A    between atoms: C9_10  and  N1_11 
REMARK    5  A    between atoms: C13_15  and  O2_16 
REMARK    6  A    between atoms: C14_18  and  O3_19 
ROOT
HETATM    1  C1  UNL     1       2.531   4.261   0.330  1.00  0.00     0.112 C 
HETATM    2  C2  UNL     1       1.872   2.936   0.339  1.00  0.00    -0.107 C 
HETATM    3  C3  UNL     1       1.340   1.855   0.332  1.00  0.00    -0.061 C 
ENDROOT
BRANCH   3   4
HETATM    4  C4  UNL     1       0.719   0.556   0.341  1.00  0.00     0.172 C 
HETATM    5  C8  UNL     1      -0.749   0.623   0.692  1.00  0.00     0.062 C 
HETATM    6  C9  UNL     1      -1.447  -0.212  -0.032  1.00  0.00     0.144 C 
HETATM    7  C13 UNL     1      -0.522  -0.936  -0.929  1.00  0.00     0.208 C 
HETATM    8  C14 UNL     1       0.590   0.064  -1.111  1.00  0.00     0.204 C 
BRANCH   4   9
HETATM    9  O1  UNL     1       1.337  -0.405   1.063  1.00  0.00    -0.357 OA
BRANCH   9  10
HETATM   10  C5  UNL     1       2.607  -0.741   0.734  1.00  0.00     0.116 C 
HETATM   11  C6  UNL     1       3.497  -0.355   1.928  1.00  0.00     0.039 C 
HETATM   12  C7  UNL     1       2.858  -2.201   0.490  1.00  0.00     0.039 C 
ENDBRANCH   9  10
ENDBRANCH   4   9
BRANCH   6  13
HETATM   13  N1  UNL     1      -2.855  -0.472  -0.031  1.00  0.00    -0.050 N 
HETATM   14  C10 UNL     1      -3.029  -1.861   0.347  1.00  0.00     0.278 C 
HETATM   15  C11 UNL     1      -3.528   0.364   0.936  1.00  0.00     0.278 C 
HETATM   16  C12 UNL     1      -3.467  -0.273  -1.308  1.00  0.00     0.278 C 
ENDBRANCH   6  13
BRANCH   7  17
HETATM   17  O2  UNL     1      -1.115  -1.296  -2.133  1.00  0.00    -0.387 OA
ATOM     18  H2  UNL     1      -0.520  -1.761  -2.710  1.00  0.00     0.210 HD
ENDBRANCH   7  17
BRANCH   8  19
HETATM   19  O3  UNL     1       0.183   1.113  -1.912  1.00  0.00    -0.388 OA
ATOM     20  H3  UNL     1       0.103   0.809  -2.809  1.00  0.00     0.210 HD
ENDBRANCH   8  19
ENDBRANCH   3   4
TORSDOF 6
