REMARK  10 active torsions:
REMARK  status: ('A' for Active; 'I' for Inactive)
REMARK       I    between atoms: N1_2  and  C2_4 
REMARK    1  A    between atoms: C2_4  and  C3_6 
REMARK    2  A    between atoms: C4_9  and  N3_10 
REMARK       I    between atoms: N3_10  and  C5_12 
REMARK    3  A    between atoms: C5_12  and  C6_14 
REMARK    4  A    between atoms: C7_15  and  N4_16 
REMARK    5  A    between atoms: N4_16  and  O3_18 
REMARK    6  A    between atoms: C8_21  and  N6_22 
REMARK    7  A    between atoms: N7_25  and  N8_26 
REMARK    8  A    between atoms: C10_32  and  C11_33 
REMARK    9  A    between atoms: C11_33  and  O4_34 
REMARK   10  A    between atoms: C11_33  and  O5_36 
ROOT
HETATM    1  C3  UNL     1      -1.295  -0.626  -0.248  1.00  0.00     0.131 A 
HETATM    2  N2  UNL     1       0.048  -0.512  -0.544  1.00  0.00    -0.184 N 
ATOM      3  H2  UNL     1       0.529  -1.305  -0.968  1.00  0.00     0.184 HD
HETATM    4  C4  UNL     1       0.741   0.606  -0.293  1.00  0.00     0.708 A 
HETATM    5  N5  UNL     1       0.105   1.662   0.272  1.00  0.00     0.043 N 
HETATM    6  C8  UNL     1       0.553   2.882   0.626  1.00  0.00     0.735 A 
HETATM    7  N7  UNL     1      -0.488   3.584   1.157  1.00  0.00    -0.025 N 
HETATM    8  N9  UNL     1      -1.533   2.762   1.106  1.00  0.00    -0.247 N 
ATOM      9  H9  UNL     1      -2.469   3.000   1.434  1.00  0.00     0.191 HD
HETATM   10  C9  UNL     1      -1.202   1.599   0.577  1.00  0.00     0.177 A 
HETATM   11  C10 UNL     1      -1.944   0.434   0.318  1.00  0.00     0.076 A 
ENDROOT
BRANCH   4  12
HETATM   12  N3  UNL     1       1.977   0.737  -0.556  1.00  0.00    -0.155 N 
HETATM   13  C5  UNL     1       2.819  -0.218  -1.134  1.00  0.00     0.260 C 
HETATM   14  O2  UNL     1       2.734  -0.469  -2.364  1.00  0.00    -0.268 OA
ATOM     15  H3  UNL     1       2.400   1.635  -0.320  1.00  0.00     0.187 HD
BRANCH  13  16
HETATM   16  C6  UNL     1       3.794  -0.917  -0.300  1.00  0.00     0.094 C 
HETATM   17  C7  UNL     1       4.616  -1.829  -0.791  1.00  0.00     0.119 C 
BRANCH  17  18
HETATM   18  N4  UNL     1       5.549  -2.487   0.052  1.00  0.00    -0.280 N 
ATOM     19  H4  UNL     1       5.564  -3.507   0.065  1.00  0.00     0.193 HD
BRANCH  18  20
HETATM   20  O3  UNL     1       6.409  -1.822   0.829  1.00  0.00    -0.290 OA
ATOM     21  H3  UNL     1       7.034  -2.262   1.393  1.00  0.00     0.244 HD
ENDBRANCH  18  20
ENDBRANCH  17  18
ENDBRANCH  13  16
ENDBRANCH   4  12
BRANCH   1  22
HETATM   22  C2  UNL     1      -1.871  -1.904  -0.609  1.00  0.00     0.269 C 
HETATM   23  N1  UNL     1      -2.951  -2.565  -0.003  1.00  0.00    -0.360 N 
HETATM   24  C1  UNL     1      -3.444  -3.864  -0.480  1.00  0.00     0.149 C 
ATOM     25  H1  UNL     1      -3.409  -2.128   0.797  1.00  0.00     0.162 HD
HETATM   26  O1  UNL     1      -1.352  -2.552  -1.602  1.00  0.00    -0.266 OA
ENDBRANCH   1  22
BRANCH   6  27
HETATM   27  N6  UNL     1       1.742   3.356   0.508  1.00  0.00    -0.230 N 
ATOM     28  H62 UNL     1       2.521   2.831   0.111  1.00  0.00     0.174 HD
ATOM     29  H61 UNL     1       2.081   4.280   0.776  1.00  0.00     0.174 HD
ENDBRANCH   6  27
BRANCH  11  30
HETATM   30  C11 UNL     1      -3.399   0.449   0.598  1.00  0.00     0.294 C 
BRANCH  30  31
HETATM   31  O4  UNL     1      -3.898   1.746   0.195  1.00  0.00    -0.367 OA
ATOM     32  H4  UNL     1      -4.831   1.756   0.375  1.00  0.00     0.213 HD
ENDBRANCH  30  31
BRANCH  30  33
HETATM   33  O5  UNL     1      -3.650   0.396   1.944  1.00  0.00    -0.367 OA
ATOM     34  H5  UNL     1      -4.583   0.406   2.124  1.00  0.00     0.213 HD
ENDBRANCH  30  33
ENDBRANCH  11  30
BRANCH   7  35
HETATM   35  N8  UNL     1      -0.472   4.888   1.652  1.00  0.00    -0.309 N 
ATOM     36  H82 UNL     1       0.329   5.518   1.691  1.00  0.00     0.179 HD
ATOM     37  H81 UNL     1      -1.251   5.413   2.049  1.00  0.00     0.179 HD
ENDBRANCH   7  35
TORSDOF 10
