REMARK  6 active torsions:
REMARK  status: ('A' for Active; 'I' for Inactive)
REMARK    1  A    between atoms: C3_4  and  C4_5 
REMARK    2  A    between atoms: C5_8  and  N3_9 
REMARK       I    between atoms: N3_9  and  C6_11 
REMARK    3  A    between atoms: N5_13  and  O1_15 
REMARK    4  A    between atoms: N8_21  and  C7_22 
REMARK    5  A    between atoms: C7_22  and  N9_23 
REMARK    6  A    between atoms: C9_25  and  O2_26 
ROOT
HETATM    1  C4  UNL     1       0.367   0.409  -0.438  1.00  0.00     0.261 C 
HETATM    2  N2  UNL     1       1.776   0.644  -0.445  1.00  0.00    -0.197 N 
ATOM      3  H2  UNL     1       2.170   1.382  -1.028  1.00  0.00     0.180 HD
HETATM    4  C5  UNL     1       2.548  -0.083   0.291  1.00  0.00     0.698 C 
HETATM    5  N6  UNL     1       1.943  -1.082   1.074  1.00  0.00    -0.117 N 
ATOM      6  H6  UNL     1       2.497  -1.887   1.367  1.00  0.00     0.207 HD
HETATM    7  N7  UNL     1       0.625  -1.004   1.456  1.00  0.00    -0.223 N 
ATOM      8  H7  UNL     1       0.228  -1.613   2.171  1.00  0.00     0.209 HD
HETATM    9  N8  UNL     1      -0.118  -0.053   0.811  1.00  0.00    -0.248 N 
ENDROOT
BRANCH   4  10
HETATM   10  N3  UNL     1       3.951   0.089   0.338  1.00  0.00    -0.161 N 
HETATM   11  C6  UNL     1       4.798  -0.556  -0.593  1.00  0.00     0.226 C 
HETATM   12  N4  UNL     1       6.143  -0.905  -0.307  1.00  0.00    -0.061 NA
HETATM   13  N5  UNL     1       4.304  -0.831  -1.752  1.00  0.00    -0.240 N 
ATOM     14  H5  UNL     1       3.336  -0.574  -1.942  1.00  0.00     0.197 HD
ATOM     15  H3  UNL     1       4.359   0.688   1.055  1.00  0.00     0.187 HD
BRANCH  13  16
HETATM   16  O1  UNL     1       5.023  -1.454  -2.740  1.00  0.00    -0.287 OA
ATOM     17  H1  UNL     1       4.659  -1.657  -3.594  1.00  0.00     0.244 HD
ENDBRANCH  13  16
ENDBRANCH   4  10
BRANCH   1  18
HETATM   18  C3  UNL     1      -0.283   1.740  -0.724  1.00  0.00     0.020 A 
HETATM   19  C2  UNL     1       0.059   2.954  -0.145  1.00  0.00     0.122 A 
HETATM   20  N1  UNL     1      -0.744   3.921  -0.651  1.00  0.00    -0.307 N 
HETATM   21  C1  UNL     1      -0.764   5.330  -0.354  1.00  0.00     0.177 C 
HETATM   22  N11 UNL     1      -1.562   3.329  -1.518  1.00  0.00    -0.310 N 
HETATM   23  C11 UNL     1      -1.304   2.014  -1.580  1.00  0.00     0.119 A 
ATOM     24  H11 UNL     1      -2.283   3.807  -2.059  1.00  0.00     0.186 HD
ENDBRANCH   1  18
BRANCH   9  25
HETATM   25  C7  UNL     1      -1.530  -0.184   0.902  1.00  0.00     0.193 C 
BRANCH  25  26
HETATM   26  N9  UNL     1      -2.141  -1.079  -0.024  1.00  0.00    -0.191 NA
HETATM   27  C8  UNL     1      -3.573  -1.077   0.223  1.00  0.00     0.149 C 
HETATM   28  C9  UNL     1      -3.745  -2.220   1.202  1.00  0.00     0.149 C 
HETATM   29  C10 UNL     1      -2.649  -3.160   0.781  1.00  0.00     0.162 C 
HETATM   30  N10 UNL     1      -1.717  -2.384   0.026  1.00  0.00    -0.157 NA
BRANCH  28  31
HETATM   31  O2  UNL     1      -5.009  -2.792   1.039  1.00  0.00    -0.393 OA
ATOM     32  H2  UNL     1      -5.117  -3.509   1.653  1.00  0.00     0.210 HD
ENDBRANCH  28  31
ENDBRANCH  25  26
ENDBRANCH   9  25
TORSDOF 6
