REMARK  8 active torsions:
REMARK  status: ('A' for Active; 'I' for Inactive)
REMARK       I    between atoms: C1_2  and  N10_31 
REMARK    1  A    between atoms: N2_3  and  N3_5 
REMARK    2  A    between atoms: C2_7  and  N4_8 
REMARK    3  A    between atoms: C2_7  and  C7_24 
REMARK    4  A    between atoms: C3_10  and  C4_12 
REMARK    5  A    between atoms: C6_21  and  O2_22 
REMARK    6  A    between atoms: C7_24  and  O3_25 
REMARK    7  A    between atoms: N9_27  and  O4_29 
REMARK    8  A    between atoms: N10_31  and  N11_33 
ROOT
HETATM    1  N3  UNL     1       1.610   0.921   1.594  1.00  0.00    -0.279 N 
ATOM      2  H3  UNL     1       2.391   1.545   1.798  1.00  0.00     0.189 HD
HETATM    3  C2  UNL     1       0.894   1.443   0.739  1.00  0.00     0.175 C 
ENDROOT
BRANCH   3   4
HETATM    4  N4  UNL     1      -0.287   0.809   0.237  1.00  0.00    -0.324 N 
HETATM    5  C3  UNL     1      -0.418   0.374  -0.962  1.00  0.00     0.150 C 
HETATM    6  N5  UNL     1       0.616   0.486  -1.907  1.00  0.00    -0.080 NA
ATOM      7  H4  UNL     1      -1.075   0.696   0.874  1.00  0.00     0.169 HD
BRANCH   5   8
HETATM    8  C4  UNL     1      -1.676  -0.245  -1.335  1.00  0.00     0.140 A 
HETATM    9  N6  UNL     1      -2.691  -0.361  -0.443  1.00  0.00    -0.290 N 
HETATM   10  N7  UNL     1      -3.847  -0.914  -0.743  1.00  0.00    -0.251 N 
ATOM     11  H6  UNL     1      -2.552  -0.004   0.502  1.00  0.00     0.187 HD
HETATM   12  C5  UNL     1      -4.120  -1.414  -1.969  1.00  0.00     0.340 A 
ATOM     13  H7  UNL     1      -4.566  -0.967  -0.021  1.00  0.00     0.191 HD
HETATM   14  O1  UNL     1      -5.222  -1.946  -2.270  1.00  0.00    -0.245 OA
HETATM   15  N8  UNL     1      -3.147  -1.324  -2.892  1.00  0.00    -0.286 N 
HETATM   16  C6  UNL     1      -1.944  -0.751  -2.584  1.00  0.00     0.176 A 
ATOM     17  H8  UNL     1      -3.308  -1.687  -3.832  1.00  0.00     0.172 HD
BRANCH  16  18
HETATM   18  O2  UNL     1      -0.964  -0.675  -3.559  1.00  0.00    -0.344 OA
ATOM     19  H2  UNL     1      -1.149  -1.025  -4.423  1.00  0.00     0.219 HD
ENDBRANCH  16  18
ENDBRANCH   5   8
ENDBRANCH   3   4
BRANCH   3  20
HETATM   20  C7  UNL     1       1.211   2.792   0.170  1.00  0.00     0.206 C 
HETATM   21  N9  UNL     1       0.479   3.355  -0.709  1.00  0.00    -0.244 N 
ATOM     22  H9  UNL     1      -0.350   2.851  -1.023  1.00  0.00     0.196 HD
BRANCH  20  23
HETATM   23  O3  UNL     1       2.355   3.394   0.664  1.00  0.00    -0.342 OA
ATOM     24  H3  UNL     1       2.556   4.249   0.303  1.00  0.00     0.219 HD
ENDBRANCH  20  23
BRANCH  21  25
HETATM   25  O4  UNL     1       0.717   4.571  -1.258  1.00  0.00    -0.288 OA
ATOM     26  H4  UNL     1       0.172   4.991  -1.913  1.00  0.00     0.244 HD
ENDBRANCH  21  25
ENDBRANCH   3  20
BRANCH   1  27
HETATM   27  N2  UNL     1       1.718  -0.130   2.317  1.00  0.00    -0.271 N 
HETATM   28  C1  UNL     1       1.146  -1.178   2.658  1.00  0.00     0.226 C 
HETATM   29  N1  UNL     1      -0.143  -1.596   2.203  1.00  0.00    -0.060 NA
HETATM   30  N10 UNL     1       1.856  -2.033   3.596  1.00  0.00    -0.212 N 
ATOM     31  H10 UNL     1       1.369  -2.477   4.375  1.00  0.00     0.196 HD
ATOM     32  H2  UNL     1       2.618  -0.092   2.796  1.00  0.00     0.189 HD
BRANCH  30  33
HETATM   33  N11 UNL     1       3.212  -2.227   3.401  1.00  0.00    -0.036 N 
HETATM   34  O5  UNL     1       3.749  -3.352   3.437  1.00  0.00    -0.516 OA
HETATM   35  O6  UNL     1       4.014  -1.123   3.156  1.00  0.00    -0.516 OA
ENDBRANCH  30  33
ENDBRANCH   1  27
TORSDOF 8
