REMARK  4 active torsions:
REMARK  status: ('A' for Active; 'I' for Inactive)
REMARK    1  A    between atoms: C2_2  and  O1_3 
REMARK    2  A    between atoms: C2_2  and  C3_5 
REMARK    3  A    between atoms: C10_16  and  C11_17 
REMARK    4  A    between atoms: C11_17  and  N3_18 
ROOT
HETATM    1  C3  UNL     1      -2.230  -0.259  -0.057  1.00  0.00     0.082 C 
HETATM    2  C4  UNL     1      -2.615  -0.577   1.362  1.00  0.00     0.039 C 
HETATM    3  C5  UNL     1      -1.187   0.814  -0.167  1.00  0.00     0.074 C 
HETATM    4  C6  UNL     1       0.074   0.047  -0.446  1.00  0.00     0.117 C 
HETATM    5  C7  UNL     1       0.511   0.114  -1.868  1.00  0.00     0.274 C 
HETATM    6  N1  UNL     1       1.643  -0.769  -2.036  1.00  0.00    -0.055 N 
ATOM      7  H11 UNL     1       1.878  -0.886  -3.022  1.00  0.00     0.278 HD
ATOM      8  H12 UNL     1       1.396  -1.733  -1.814  1.00  0.00     0.278 HD
HETATM    9  C8  UNL     1       2.792  -0.331  -1.270  1.00  0.00     0.298 C 
HETATM   10  C9  UNL     1       3.355   0.919  -1.779  1.00  0.00     0.093 C 
HETATM   11  N2  UNL     1       3.820   1.903  -2.188  1.00  0.00    -0.195 NA
HETATM   12  C10 UNL     1       2.474  -0.201   0.203  1.00  0.00     0.066 C 
HETATM   13  C12 UNL     1       1.187   0.498   0.467  1.00  0.00    -0.005 C 
HETATM   14  C13 UNL     1       0.837   0.297   1.926  1.00  0.00     0.018 C 
HETATM   15  C14 UNL     1       1.409   1.984   0.290  1.00  0.00     0.018 C 
HETATM   16  O2  UNL     1      -0.310  -1.259  -0.178  1.00  0.00    -0.272 OA
HETATM   17  N4  UNL     1      -1.566  -1.405  -0.609  1.00  0.00    -0.087 NA
ENDROOT
BRANCH  12  18
HETATM   18  C11 UNL     1       2.537  -1.537   0.912  1.00  0.00     0.238 C 
BRANCH  18  19
HETATM   19  N3  UNL     1       3.855  -2.125   0.805  1.00  0.00    -0.079 N 
ATOM     20  H33 UNL     1       4.153  -2.202  -0.167  1.00  0.00     0.274 HD
ATOM     21  H32 UNL     1       4.578  -1.488   1.140  1.00  0.00     0.274 HD
ATOM     22  H31 UNL     1       3.897  -3.025   1.283  1.00  0.00     0.274 HD
ENDBRANCH  18  19
ENDBRANCH  12  18
BRANCH   1  23
HETATM   23  C2  UNL     1      -3.476   0.127  -0.816  1.00  0.00     0.140 C 
HETATM   24  C1  UNL     1      -4.091   1.318  -0.074  1.00  0.00     0.041 C 
BRANCH  23  25
HETATM   25  O1  UNL     1      -4.407  -0.884  -0.829  1.00  0.00    -0.394 OA
ATOM     26  H1  UNL     1      -4.026  -1.623  -1.289  1.00  0.00     0.210 HD
ENDBRANCH  23  25
ENDBRANCH   1  23
TORSDOF 4
