REMARK  2 active torsions:
REMARK  status: ('A' for Active; 'I' for Inactive)
REMARK    1  A    between atoms: N2_5  and  C4_6 
REMARK    2  A    between atoms: C9_18  and  N7_19 
ROOT
HETATM    1  C4  UNL     1      -0.887   0.190  -0.070  1.00  0.00     0.141 A 
HETATM    2  N3  UNL     1      -1.472   1.422  -0.267  1.00  0.00    -0.326 N 
ATOM      3  H3  UNL     1      -0.859   2.221  -0.426  1.00  0.00     0.169 HD
HETATM    4  C5  UNL     1      -2.781   1.636  -0.263  1.00  0.00     0.123 A 
HETATM    5  N4  UNL     1      -3.288   2.834  -0.456  1.00  0.00    -0.384 N 
ATOM      6  H41 UNL     1      -4.295   2.999  -0.453  1.00  0.00     0.157 HD
ATOM      7  H42 UNL     1      -2.654   3.617  -0.614  1.00  0.00     0.157 HD
HETATM    8  C6  UNL     1      -3.634   0.582  -0.051  1.00  0.00     0.115 A 
HETATM    9  C7  UNL     1      -5.069   0.757  -0.037  1.00  0.00     0.105 C 
HETATM   10  N5  UNL     1      -6.224   0.879  -0.036  1.00  0.00    -0.191 NA
HETATM   11  C8  UNL     1      -3.098  -0.656   0.150  1.00  0.00     0.107 A 
HETATM   12  N6  UNL     1      -3.923  -1.807   0.381  1.00  0.00    -0.098 NA
HETATM   13  C9  UNL     1      -1.702  -0.886   0.147  1.00  0.00     0.172 A 
ENDROOT
BRANCH  13  14
HETATM   14  N7  UNL     1      -1.258  -2.198   0.402  1.00  0.00    -0.110 N 
HETATM   15  O1  UNL     1      -0.720  -2.526   1.467  1.00  0.00    -0.532 OA
HETATM   16  O2  UNL     1      -1.455  -3.166  -0.549  1.00  0.00    -0.532 OA
ENDBRANCH  13  14
BRANCH   1  17
HETATM   17  N2  UNL     1       0.523   0.116  -0.070  1.00  0.00    -0.359 N 
HETATM   18  C3  UNL     1       1.264   1.375   0.090  1.00  0.00     0.168 C 
HETATM   19  C2  UNL     1       2.647   1.125   0.661  1.00  0.00     0.077 C 
HETATM   20  N1  UNL     1       3.352   0.244  -0.177  1.00  0.00    -0.394 N 
HETATM   21  C1  UNL     1       4.630  -0.195   0.237  1.00  0.00     0.148 C 
HETATM   22  C11 UNL     1       2.616  -0.603  -1.026  1.00  0.00     0.141 C 
HETATM   23  C10 UNL     1       1.333  -1.041  -0.256  1.00  0.00     0.144 C 
ENDBRANCH   1  17
TORSDOF 2
