REMARK  6 active torsions:
REMARK  status: ('A' for Active; 'I' for Inactive)
REMARK    1  A    between atoms: C2_2  and  N1_3 
REMARK    2  A    between atoms: C4_6  and  C5_7 
REMARK    3  A    between atoms: C5_7  and  C6_8 
REMARK    4  A    between atoms: C7_9  and  C8_10 
REMARK    5  A    between atoms: C8_10  and  N3_11 
REMARK    6  A    between atoms: C9_15  and  N4_16 
REMARK       I    between atoms: N6_21  and  C10_22 
ROOT
HETATM    1  C6  UNL     1      -1.462   0.181  -0.490  1.00  0.00     0.055 A 
HETATM    2  C7  UNL     1      -2.237  -0.657   0.313  1.00  0.00     0.037 A 
HETATM    3  C9  UNL     1      -3.171   0.126   0.972  1.00  0.00     0.124 A 
HETATM    4  N5  UNL     1      -2.956   1.378   0.572  1.00  0.00    -0.276 N 
ATOM      5  H5  UNL     1      -3.493   2.185   0.890  1.00  0.00     0.189 HD
HETATM    6  N6  UNL     1      -1.941   1.440  -0.303  1.00  0.00    -0.226 N 
HETATM    7  C10 UNL     1      -1.542   2.667  -0.890  1.00  0.00     0.238 C 
HETATM    8  C11 UNL     1      -2.229   3.949  -0.543  1.00  0.00     0.119 C 
HETATM    9  O1  UNL     1      -0.616   2.746  -1.709  1.00  0.00    -0.272 OA
ENDROOT
BRANCH   1  10
HETATM   10  C5  UNL     1      -0.376  -0.255  -1.373  1.00  0.00     0.120 C 
BRANCH  10  11
HETATM   11  C4  UNL     1       0.845  -0.721  -0.723  1.00  0.00     0.059 A 
HETATM   12  C3  UNL     1       1.803  -0.046  -0.063  1.00  0.00     0.143 A 
HETATM   13  N1  UNL     1       2.786  -0.908   0.345  1.00  0.00    -0.311 N 
HETATM   14  N2  UNL     1       1.843   1.345   0.211  1.00  0.00    -0.080 NA
HETATM   15  C12 UNL     1       2.401  -2.114  -0.084  1.00  0.00     0.179 A 
HETATM   16  N7  UNL     1       1.241  -2.026  -0.726  1.00  0.00    -0.333 N 
HETATM   17  S1  UNL     1       3.211  -3.546   0.127  1.00  0.00    -0.040 SA
ATOM     18  H7  UNL     1       0.733  -2.803  -1.149  1.00  0.00     0.168 HD
BRANCH  13  19
HETATM   19  C2  UNL     1       3.985  -0.636   1.071  1.00  0.00     0.128 C 
HETATM   20  C1  UNL     1       5.164  -0.314   0.188  1.00  0.00     0.027 C 
ENDBRANCH  13  19
ENDBRANCH  10  11
ENDBRANCH   1  10
BRANCH   2  21
HETATM   21  C8  UNL     1      -2.162  -2.115   0.504  1.00  0.00     0.274 C 
BRANCH  21  22
HETATM   22  N3  UNL     1      -3.207  -2.553   1.435  1.00  0.00    -0.075 N 
ATOM     23  H33 UNL     1      -3.166  -2.049   2.321  1.00  0.00     0.274 HD
ATOM     24  H32 UNL     1      -4.135  -2.254   1.136  1.00  0.00     0.274 HD
ATOM     25  H31 UNL     1      -3.155  -3.563   1.567  1.00  0.00     0.274 HD
ENDBRANCH  21  22
ENDBRANCH   2  21
BRANCH   3  26
HETATM   26  N4  UNL     1      -4.078  -0.248   1.807  1.00  0.00    -0.384 N 
ATOM     27  H42 UNL     1      -4.243  -1.207   2.113  1.00  0.00     0.157 HD
ATOM     28  H41 UNL     1      -4.766   0.328   2.292  1.00  0.00     0.157 HD
ENDBRANCH   3  26
TORSDOF 6
