REMARK  1 active torsions:
REMARK  status: ('A' for Active; 'I' for Inactive)
REMARK    1  A    between atoms: N1_1  and  C1_4 
ROOT
HETATM    1  C1  UNL     1      -1.788   1.395   0.120  1.00  0.00     0.132 A 
HETATM    2  N2  UNL     1      -2.950   0.759  -0.159  1.00  0.00    -0.337 N 
ATOM      3  H2  UNL     1      -3.823   1.287  -0.172  1.00  0.00     0.168 HD
HETATM    4  C2  UNL     1      -2.969  -0.567  -0.421  1.00  0.00     0.183 A 
HETATM    5  N3  UNL     1      -1.807  -1.238  -0.395  1.00  0.00    -0.337 N 
ATOM      6  H3  UNL     1      -1.830  -2.238  -0.593  1.00  0.00     0.168 HD
HETATM    7  C3  UNL     1      -0.609  -0.675  -0.124  1.00  0.00     0.134 A 
HETATM    8  C4  UNL     1      -0.620   0.679   0.138  1.00  0.00     0.135 A 
HETATM    9  N4  UNL     1       0.426   1.418   0.412  1.00  0.00    -0.298 N 
ATOM     10  H4  UNL     1       0.250   2.409   0.576  1.00  0.00     0.187 HD
HETATM   11  N5  UNL     1       1.779   0.994   0.506  1.00  0.00    -0.334 N 
ATOM     12  H5  UNL     1       2.372   1.481   1.178  1.00  0.00     0.180 HD
HETATM   13  C5  UNL     1       2.386  -0.057  -0.258  1.00  0.00     0.159 C 
HETATM   14  C6  UNL     1       1.775  -1.395   0.076  1.00  0.00     0.142 C 
HETATM   15  N6  UNL     1       0.368  -1.487  -0.139  1.00  0.00    -0.373 N 
ATOM     16  H6  UNL     1       0.074  -2.439  -0.359  1.00  0.00     0.161 HD
ENDROOT
BRANCH   1  17
HETATM   17  N1  UNL     1      -1.792   2.662   0.367  1.00  0.00    -0.383 N 
ATOM     18  H12 UNL     1      -2.662   3.195   0.354  1.00  0.00     0.157 HD
ATOM     19  H11 UNL     1      -0.916   3.141   0.577  1.00  0.00     0.157 HD
ENDBRANCH   1  17
TORSDOF 1
