REMARK  2 active torsions:
REMARK  status: ('A' for Active; 'I' for Inactive)
REMARK    1  A    between atoms: N1_1  and  C1_4 
REMARK    2  A    between atoms: N4_10  and  O1_11 
ROOT
HETATM    1  C1  UNL     1      -1.834  -0.223   0.089  1.00  0.00     0.692 A 
HETATM    2  N2  UNL     1      -1.278  -0.798   1.166  1.00  0.00    -0.131 N 
ATOM      3  H2  UNL     1      -1.892  -1.250   1.844  1.00  0.00     0.205 HD
HETATM    4  N3  UNL     1       0.025  -0.809   1.395  1.00  0.00    -0.266 N 
ATOM      5  H3  UNL     1       0.376  -1.265   2.237  1.00  0.00     0.189 HD
HETATM    6  C2  UNL     1       0.900  -0.237   0.551  1.00  0.00     0.194 A 
HETATM    7  N4  UNL     1       2.234  -0.092   0.516  1.00  0.00    -0.198 N 
HETATM    8  C3  UNL     1       2.529   0.586  -0.600  1.00  0.00     0.217 A 
HETATM    9  N5  UNL     1       1.393   0.882  -1.292  1.00  0.00    -0.333 N 
ATOM     10  H5  UNL     1       1.357   1.392  -2.175  1.00  0.00     0.168 HD
HETATM   11  C4  UNL     1       0.326   0.398  -0.632  1.00  0.00     0.170 A 
HETATM   12  N6  UNL     1      -1.008   0.369  -0.796  1.00  0.00    -0.172 N 
ATOM     13  H6  UNL     1      -1.410   0.812  -1.622  1.00  0.00     0.186 HD
ENDROOT
BRANCH   1  14
HETATM   14  N1  UNL     1      -3.128  -0.234  -0.100  1.00  0.00    -0.233 N 
ATOM     15  H12 UNL     1      -3.753  -0.682   0.570  1.00  0.00     0.174 HD
ATOM     16  H11 UNL     1      -3.551   0.203  -0.919  1.00  0.00     0.174 HD
ENDBRANCH   1  14
BRANCH   7  17
HETATM   17  O1  UNL     1       3.176  -0.527   1.415  1.00  0.00    -0.280 OA
ATOM     18  H1  UNL     1       4.120  -0.424   1.390  1.00  0.00     0.245 HD
ENDBRANCH   7  17
TORSDOF 2
