REMARK  0 active torsions:
REMARK  status: ('A' for Active; 'I' for Inactive)
ROOT
HETATM    1  N1  UNL     1       2.673   1.105  -0.148  1.00  0.00    -0.233 N 
ATOM      2  H11 UNL     1       3.111   0.184  -0.155  1.00  0.00     0.174 HD
ATOM      3  H12 UNL     1       3.431   1.785  -0.196  1.00  0.00     0.174 HD
HETATM    4  C1  UNL     1       1.401   1.221  -0.088  1.00  0.00     0.700 A 
HETATM    5  N2  UNL     1       0.814   2.457  -0.079  1.00  0.00    -0.130 N 
ATOM      6  H2  UNL     1       1.297   3.354  -0.117  1.00  0.00     0.205 HD
HETATM    7  N3  UNL     1      -0.483   2.277  -0.012  1.00  0.00    -0.274 N 
ATOM      8  H3  UNL     1      -1.172   3.029   0.011  1.00  0.00     0.189 HD
HETATM    9  C2  UNL     1      -0.784   0.955   0.023  1.00  0.00     0.124 A 
HETATM   10  N4  UNL     1       0.401   0.324  -0.025  1.00  0.00    -0.106 N 
HETATM   11  C3  UNL     1       0.460  -1.099  -0.009  1.00  0.00     0.212 A 
HETATM   12  N5  UNL     1       1.712  -1.779  -0.059  1.00  0.00    -0.062 NA
HETATM   13  N6  UNL     1      -0.632  -1.753   0.052  1.00  0.00    -0.363 N 
ATOM     14  H6  UNL     1      -0.539  -2.769   0.062  1.00  0.00     0.162 HD
HETATM   15  C4  UNL     1      -1.961  -1.257   0.108  1.00  0.00     0.130 A 
HETATM   16  C5  UNL     1      -2.077   0.230   0.101  1.00  0.00     0.099 A 
ENDROOT
TORSDOF 0
