REMARK  4 active torsions:
REMARK  status: ('A' for Active; 'I' for Inactive)
REMARK    1  A    between atoms: C4_5  and  C5_6 
REMARK    2  A    between atoms: C6_7  and  C7_8 
REMARK    3  A    between atoms: C12_14  and  C13_15 
REMARK    4  A    between atoms: C14_16  and  C15_17 
ROOT
HETATM    1  N1  UNL     1      -2.109  -2.999   0.697  1.00  0.00    -0.101 NA
HETATM    2  C1  UNL     1      -0.796  -2.495   0.537  1.00  0.00     0.065 A 
HETATM    3  C2  UNL     1       0.299  -3.311   0.633  1.00  0.00     0.029 A 
HETATM    4  C3  UNL     1       1.568  -2.793   0.473  1.00  0.00     0.022 A 
HETATM    5  C4  UNL     1       1.769  -1.454   0.213  1.00  0.00     0.019 A 
HETATM    6  C11 UNL     1       0.653  -0.659   0.121  1.00  0.00     0.043 A 
HETATM    7  C12 UNL     1      -0.633  -1.155   0.279  1.00  0.00     0.043 A 
ENDROOT
BRANCH   7   8
HETATM    8  C13 UNL     1      -1.806  -0.339   0.186  1.00  0.00    -0.059 C 
HETATM    9  C14 UNL     1      -2.792   0.371   0.097  1.00  0.00    -0.061 C 
BRANCH   9  10
HETATM   10  C15 UNL     1      -3.961   1.204  -0.032  1.00  0.00     0.018 A 
HETATM   11  C16 UNL     1      -4.789   1.357   1.056  1.00  0.00     0.020 A 
HETATM   12  C17 UNL     1      -5.925   2.162   0.944  1.00  0.00     0.001 A 
HETATM   13  C18 UNL     1      -6.232   2.806  -0.236  1.00  0.00     0.000 A 
HETATM   14  C19 UNL     1      -5.408   2.659  -1.332  1.00  0.00     0.001 A 
HETATM   15  C20 UNL     1      -4.285   1.854  -1.198  1.00  0.00     0.020 A 
ENDBRANCH   9  10
ENDBRANCH   7   8
BRANCH   5  16
HETATM   16  C5  UNL     1       3.112  -0.974   0.055  1.00  0.00    -0.061 C 
HETATM   17  C6  UNL     1       4.234  -0.552  -0.079  1.00  0.00    -0.054 C 
BRANCH  17  18
HETATM   18  C7  UNL     1       5.600  -0.063  -0.231  1.00  0.00     0.058 A 
HETATM   19  C8  UNL     1       6.000   1.155  -0.717  1.00  0.00     0.028 A 
HETATM   20  C9  UNL     1       7.318   1.391  -0.767  1.00  0.00     0.009 A 
HETATM   21  C10 UNL     1       8.155   0.398  -0.329  1.00  0.00     0.051 A 
HETATM   22  S1  UNL     1       7.070  -0.833   0.138  1.00  0.00    -0.093 SA
ENDBRANCH  17  18
ENDBRANCH   5  16
TORSDOF 4
