REMARK  1 active torsions:
REMARK  status: ('A' for Active; 'I' for Inactive)
REMARK    1  A    between atoms: O1_1  and  C1_3 
ROOT
HETATM    1  C1  UNL     1       3.531  -1.694   0.751  1.00  0.00     0.066 A 
HETATM    2  C2  UNL     1       4.225  -0.578   0.339  1.00  0.00     0.037 A 
HETATM    3  C3  UNL     1       3.602   0.539  -0.157  1.00  0.00     0.016 A 
HETATM    4  C4  UNL     1       2.241   0.563  -0.253  1.00  0.00    -0.007 A 
HETATM    5  C5  UNL     1       1.760   1.793  -0.735  1.00  0.00     0.109 C 
HETATM    6  N1  UNL     1       0.569   2.313  -0.328  1.00  0.00    -0.331 N 
HETATM    7  C6  UNL     1       0.354   3.626  -0.142  1.00  0.00     0.097 A 
HETATM    8  C7  UNL     1      -0.923   3.793   0.346  1.00  0.00     0.020 A 
HETATM    9  C8  UNL     1      -1.563   2.556   0.482  1.00  0.00     0.032 A 
HETATM   10  C9  UNL     1      -0.634   1.641   0.058  1.00  0.00     0.051 A 
HETATM   11  C10 UNL     1      -0.817   0.291  -0.014  1.00  0.00     0.031 A 
HETATM   12  C11 UNL     1      -2.038  -0.297  -0.160  1.00  0.00     0.005 A 
HETATM   13  C12 UNL     1      -3.308   0.162  -0.321  1.00  0.00     0.014 A 
HETATM   14  C13 UNL     1      -4.338  -0.766  -0.467  1.00  0.00     0.001 A 
HETATM   15  C14 UNL     1      -4.106  -2.110  -0.455  1.00  0.00     0.002 A 
HETATM   16  C15 UNL     1      -2.807  -2.578  -0.294  1.00  0.00     0.030 A 
HETATM   17  C16 UNL     1      -1.796  -1.656  -0.150  1.00  0.00     0.043 A 
HETATM   18  N2  UNL     1      -0.463  -1.907  -0.009  1.00  0.00    -0.354 N 
ATOM     19  H2  UNL     1      -0.013  -2.822   0.027  1.00  0.00     0.166 HD
HETATM   20  C17 UNL     1       0.129  -0.727   0.071  1.00  0.00     0.057 A 
HETATM   21  C18 UNL     1       1.517  -0.557   0.156  1.00  0.00     0.006 A 
HETATM   22  C19 UNL     1       2.139  -1.687   0.659  1.00  0.00     0.051 A 
ENDROOT
BRANCH   1  23
HETATM   23  O1  UNL     1       4.202  -2.794   1.245  1.00  0.00    -0.361 OA
ATOM     24  H1  UNL     1       3.723  -3.564   1.529  1.00  0.00     0.217 HD
ENDBRANCH   1  23
TORSDOF 1
