REMARK  2 active torsions:
REMARK  status: ('A' for Active; 'I' for Inactive)
REMARK    1  A    between atoms: C7_8  and  N2_9 
REMARK    2  A    between atoms: N2_9  and  C8_11 
ROOT
HETATM    1  N1  UNL     1       2.183  -1.955   2.175  1.00  0.00    -0.191 NA
HETATM    2  C1  UNL     1       2.543  -1.349   1.239  1.00  0.00     0.102 C 
HETATM    3  C2  UNL     1       2.981  -0.598   0.091  1.00  0.00     0.071 A 
HETATM    4  C3  UNL     1       4.250  -0.824  -0.361  1.00  0.00     0.025 A 
HETATM    5  C4  UNL     1       4.700  -0.124  -1.457  1.00  0.00     0.002 A 
HETATM    6  C5  UNL     1       3.870   0.774  -2.059  1.00  0.00     0.002 A 
HETATM    7  C6  UNL     1       2.594   1.000  -1.603  1.00  0.00     0.031 A 
HETATM    8  C7  UNL     1       2.085   0.311  -0.488  1.00  0.00     0.053 A 
ENDROOT
BRANCH   8   9
HETATM    9  N2  UNL     1       0.863   0.469   0.025  1.00  0.00    -0.354 N 
ATOM     10  H2  UNL     1       1.011   1.203   0.717  1.00  0.00     0.166 HD
BRANCH   9  11
HETATM   11  C8  UNL     1      -0.305   0.244   0.139  1.00  0.00     0.058 A 
HETATM   12  C9  UNL     1      -1.033   0.990   1.098  1.00  0.00     0.018 A 
HETATM   13  C10 UNL     1      -0.355   1.934   1.846  1.00  0.00     0.016 A 
HETATM   14  C14 UNL     1      -2.376   0.806   1.303  1.00  0.00     0.045 A 
HETATM   15  C11 UNL     1      -1.053   2.659   2.775  1.00  0.00     0.001 A 
HETATM   16  C12 UNL     1      -2.401   2.502   3.009  1.00  0.00     0.002 A 
HETATM   17  C13 UNL     1      -3.045   1.556   2.248  1.00  0.00     0.030 A 
HETATM   18  N3  UNL     1      -3.038  -0.109   0.578  1.00  0.00    -0.355 N 
HETATM   19  C15 UNL     1      -2.412  -0.845  -0.340  1.00  0.00     0.045 A 
ATOM     20  H3  UNL     1      -4.037  -0.243   0.732  1.00  0.00     0.166 HD
HETATM   21  C16 UNL     1      -3.169  -1.761  -1.038  1.00  0.00     0.030 A 
HETATM   22  C20 UNL     1      -1.040  -0.677  -0.571  1.00  0.00     0.018 A 
HETATM   23  C17 UNL     1      -2.576  -2.545  -1.996  1.00  0.00     0.002 A 
HETATM   24  C18 UNL     1      -1.247  -2.389  -2.226  1.00  0.00     0.001 A 
HETATM   25  C19 UNL     1      -0.464  -1.464  -1.526  1.00  0.00     0.016 A 
ENDBRANCH   9  11
ENDBRANCH   8   9
TORSDOF 2
