REMARK  13 active torsions:
REMARK  status: ('A' for Active; 'I' for Inactive)
REMARK    1  A    between atoms: C4_10  and  N4_11 
REMARK       I    between atoms: N4_11  and  C5_13 
REMARK       I    between atoms: C5_13  and  N9_29 
REMARK    2  A    between atoms: N5_14  and  C6_16 
REMARK    3  A    between atoms: C6_16  and  C7_17 
REMARK    4  A    between atoms: C7_17  and  C8_18 
REMARK    5  A    between atoms: C8_18  and  N6_19 
REMARK    6  A    between atoms: N6_19  and  N7_21 
REMARK    7  A    between atoms: C9_23  and  C10_24 
REMARK    8  A    between atoms: C10_24  and  N8_25 
REMARK    9  A    between atoms: N9_29  and  O1_30 
REMARK   10  A    between atoms: N9_29  and  C11_32 
REMARK   11  A    between atoms: C11_32  and  O2_33 
REMARK   12  A    between atoms: C11_32  and  C12_35 
REMARK   13  A    between atoms: C14_39  and  N11_40 
ROOT
HETATM    1  N4  UNL     1      -1.538  -2.249   0.549  1.00  0.00    -0.173 N 
ATOM      2  H4  UNL     1      -2.269  -2.044   1.230  1.00  0.00     0.186 HD
HETATM    3  C5  UNL     1      -0.823  -1.158  -0.016  1.00  0.00     0.704 C 
HETATM    4  N5  UNL     1       0.285  -1.358  -0.605  1.00  0.00    -0.224 N 
ATOM      5  H5  UNL     1       0.616  -2.322  -0.644  1.00  0.00     0.177 HD
HETATM    6  N9  UNL     1      -1.361   0.158   0.085  1.00  0.00    -0.055 N 
ENDROOT
BRANCH   1   7
HETATM    7  C4  UNL     1      -1.316  -3.473   0.251  1.00  0.00     0.144 A 
HETATM    8  C2  UNL     1      -2.082  -4.437   0.872  1.00  0.00     0.001 A 
HETATM    9  C1  UNL     1      -3.146  -4.112   1.866  1.00  0.00     0.054 C 
HETATM   10  C3  UNL     1      -1.883  -5.771   0.586  1.00  0.00     0.119 A 
HETATM   11  N1  UNL     1      -0.938  -6.112  -0.300  1.00  0.00    -0.297 N 
HETATM   12  N2  UNL     1      -0.209  -5.181  -0.890  1.00  0.00    -0.241 N 
ATOM     13  H1  UNL     1      -0.780  -7.095  -0.520  1.00  0.00     0.187 HD
HETATM   14  N3  UNL     1      -0.391  -3.899  -0.625  1.00  0.00    -0.270 N 
ATOM     15  H2  UNL     1       0.507  -5.457  -1.562  1.00  0.00     0.208 HD
ATOM     16  H3  UNL     1       0.191  -3.210  -1.102  1.00  0.00     0.190 HD
ENDBRANCH   1   7
BRANCH   4  17
HETATM   17  C6  UNL     1       1.111  -0.372  -1.216  1.00  0.00     0.140 C 
BRANCH  17  18
HETATM   18  C7  UNL     1       2.572  -0.539  -0.853  1.00  0.00     0.041 C 
BRANCH  18  19
HETATM   19  C8  UNL     1       3.394   0.532  -1.530  1.00  0.00     0.141 C 
BRANCH  19  20
HETATM   20  N6  UNL     1       4.790   0.379  -1.188  1.00  0.00    -0.337 N 
ATOM     21  H6  UNL     1       5.073  -0.380  -0.568  1.00  0.00     0.180 HD
BRANCH  20  22
HETATM   22  N7  UNL     1       5.754   1.247  -1.689  1.00  0.00    -0.319 N 
HETATM   23  C9  UNL     1       6.508   1.889  -0.879  1.00  0.00     0.106 C 
ATOM     24  H7  UNL     1       5.859   1.371  -2.696  1.00  0.00     0.185 HD
BRANCH  23  25
HETATM   25  C10 UNL     1       6.353   1.707   0.569  1.00  0.00     0.275 C 
BRANCH  25  26
HETATM   26  N8  UNL     1       6.206   2.967   1.287  1.00  0.00    -0.075 N 
ATOM     27  H83 UNL     1       6.981   3.597   1.080  1.00  0.00     0.274 HD
ATOM     28  H82 UNL     1       5.437   3.517   0.904  1.00  0.00     0.274 HD
ATOM     29  H81 UNL     1       6.098   2.841   2.293  1.00  0.00     0.274 HD
ENDBRANCH  25  26
ENDBRANCH  23  25
ENDBRANCH  20  22
ENDBRANCH  19  20
ENDBRANCH  18  19
ENDBRANCH  17  18
ENDBRANCH   4  17
BRANCH   6  30
HETATM   30  O1  UNL     1      -0.692   1.058   0.865  1.00  0.00    -0.271 OA
ATOM     31  H1  UNL     1      -1.051   1.935   0.932  1.00  0.00     0.245 HD
ENDBRANCH   6  30
BRANCH   6  32
HETATM   32  C11 UNL     1      -2.555   0.530  -0.646  1.00  0.00     0.304 C 
BRANCH  32  33
HETATM   33  O2  UNL     1      -2.222   0.551  -1.996  1.00  0.00    -0.369 OA
ATOM     34  H2  UNL     1      -3.005   0.795  -2.475  1.00  0.00     0.212 HD
ENDBRANCH  32  33
BRANCH  32  35
HETATM   35  C12 UNL     1      -3.222   1.743  -0.195  1.00  0.00     0.053 A 
HETATM   36  C13 UNL     1      -3.464   2.743  -1.131  1.00  0.00     0.121 A 
HETATM   37  N10 UNL     1      -4.005   3.926  -0.845  1.00  0.00    -0.201 N 
HETATM   38  C14 UNL     1      -4.335   4.157   0.438  1.00  0.00     0.677 A 
ATOM     39  H10 UNL     1      -4.162   4.627  -1.569  1.00  0.00     0.183 HD
HETATM   40  N12 UNL     1      -4.120   3.225   1.362  1.00  0.00    -0.177 N 
HETATM   41  C15 UNL     1      -3.568   1.998   1.105  1.00  0.00     0.126 A 
ATOM     42  H12 UNL     1      -4.383   3.438   2.324  1.00  0.00     0.186 HD
HETATM   43  N13 UNL     1      -3.461   1.145   2.056  1.00  0.00    -0.384 N 
ATOM     44 2H13 UNL     1      -3.050   0.231   1.865  1.00  0.00     0.157 HD
ATOM     45 1H13 UNL     1      -3.719   1.335   3.024  1.00  0.00     0.157 HD
BRANCH  38  46
HETATM   46  N11 UNL     1      -4.870   5.318   0.747  1.00  0.00    -0.234 N 
ATOM     47 2H11 UNL     1      -5.035   6.033   0.038  1.00  0.00     0.174 HD
ATOM     48 1H11 UNL     1      -5.120   5.493   1.720  1.00  0.00     0.174 HD
ENDBRANCH  38  46
ENDBRANCH  32  35
ENDBRANCH   6  32
TORSDOF 13
