REMARK  12 active torsions:
REMARK  status: ('A' for Active; 'I' for Inactive)
REMARK    1  A    between atoms: C2_3  and  C3_4 
REMARK       I    between atoms: C3_4  and  N2_6 
REMARK    2  A    between atoms: N2_6  and  C4_8 
REMARK    3  A    between atoms: C4_8  and  C5_9 
REMARK    4  A    between atoms: C5_9  and  C6_10 
REMARK    5  A    between atoms: C5_9  and  S1_15 
REMARK    6  A    between atoms: C6_10  and  N3_11 
REMARK    7  A    between atoms: N3_11  and  N4_12 
REMARK    8  A    between atoms: S1_15  and  C7_16 
REMARK    9  A    between atoms: C9_18  and  N5_19 
REMARK   10  A    between atoms: C10_24  and  N7_25 
REMARK   11  A    between atoms: C12_33  and  C13_34 
REMARK   12  A    between atoms: C14_40  and  N12_41 
ROOT
HETATM    1  C4  UNL     1      -0.823  -1.944   0.555  1.00  0.00     0.139 C 
ENDROOT
BRANCH   1   2
HETATM    2  N2  UNL     1       0.337  -1.083   0.356  1.00  0.00    -0.354 N 
HETATM    3  C3  UNL     1       1.276  -0.910   1.367  1.00  0.00     0.269 C 
HETATM    4  O1  UNL     1       1.053  -1.534   2.475  1.00  0.00    -0.266 OA
ATOM      5  H2  UNL     1       0.461  -0.602  -0.535  1.00  0.00     0.162 HD
BRANCH   3   6
HETATM    6  C2  UNL     1       2.465  -0.103   1.304  1.00  0.00     0.119 A 
HETATM    7  N1  UNL     1       3.209   0.247   0.214  1.00  0.00    -0.330 N 
HETATM    8  C1  UNL     1       3.048  -0.327  -1.097  1.00  0.00     0.158 C 
HETATM    9  C12 UNL     1       4.141   1.086   0.613  1.00  0.00     0.141 A 
HETATM   10  N9  UNL     1       4.015   1.281   1.975  1.00  0.00    -0.348 N 
HETATM   11  C11 UNL     1       3.009   0.571   2.405  1.00  0.00     0.125 A 
ATOM     12  H9  UNL     1       4.609   1.880   2.548  1.00  0.00     0.167 HD
BRANCH   9  13
HETATM   13  C13 UNL     1       5.224   1.825  -0.045  1.00  0.00     0.146 A 
HETATM   14  N10 UNL     1       6.094   2.654   0.641  1.00  0.00    -0.234 N 
HETATM   15  O2  UNL     1       6.917   3.237  -0.124  1.00  0.00    -0.155 OA
ATOM     16  H10 UNL     1       6.074   2.781   1.653  1.00  0.00     0.197 HD
HETATM   17  N11 UNL     1       6.669   2.860  -1.318  1.00  0.00    -0.224 N 
HETATM   18  C14 UNL     1       5.617   1.974  -1.332  1.00  0.00     0.154 A 
ATOM     19  H11 UNL     1       7.179   3.172  -2.145  1.00  0.00     0.198 HD
BRANCH  18  20
HETATM   20  N12 UNL     1       5.149   1.472  -2.396  1.00  0.00    -0.382 N 
ATOM     21 2H12 UNL     1       4.369   0.815  -2.406  1.00  0.00     0.157 HD
ATOM     22 1H12 UNL     1       5.445   1.584  -3.366  1.00  0.00     0.157 HD
ENDBRANCH  18  20
ENDBRANCH   9  13
ENDBRANCH   3   6
ENDBRANCH   1   2
BRANCH   1  23
HETATM   23  C5  UNL     1      -1.679  -1.950  -0.685  1.00  0.00     0.088 C 
BRANCH  23  24
HETATM   24  C6  UNL     1      -2.899  -2.824  -0.547  1.00  0.00     0.151 C 
BRANCH  24  25
HETATM   25  N3  UNL     1      -2.475  -4.213  -0.286  1.00  0.00    -0.147 NA
BRANCH  25  26
HETATM   26  N4  UNL     1      -3.566  -5.049  -0.148  1.00  0.00    -0.348 N 
ATOM     27  H42 UNL     1      -4.533  -4.732  -0.220  1.00  0.00     0.172 HD
ATOM     28  H41 UNL     1      -3.273  -6.009   0.032  1.00  0.00     0.172 HD
ENDBRANCH  25  26
ENDBRANCH  24  25
ENDBRANCH  23  24
BRANCH  23  29
HETATM   29  S1  UNL     1      -1.927  -0.332  -1.311  1.00  0.00    -0.104 SA
BRANCH  29  30
HETATM   30  C7  UNL     1      -2.868   0.805  -0.373  1.00  0.00     0.090 A 
HETATM   31  C8  UNL     1      -3.447   0.539   0.838  1.00  0.00     0.086 A 
HETATM   32  C9  UNL     1      -4.188   1.495   1.538  1.00  0.00     0.117 A 
HETATM   33  N6  UNL     1      -4.340   2.707   1.016  1.00  0.00    -0.177 N 
HETATM   34  C10 UNL     1      -3.776   2.981  -0.174  1.00  0.00     0.678 A 
ATOM     35  H6  UNL     1      -4.877   3.420   1.510  1.00  0.00     0.185 HD
HETATM   36  N8  UNL     1      -3.066   2.072  -0.847  1.00  0.00    -0.186 N 
ATOM     37  H8  UNL     1      -2.658   2.332  -1.745  1.00  0.00     0.185 HD
BRANCH  32  38
HETATM   38  N5  UNL     1      -4.719   1.215   2.674  1.00  0.00    -0.385 N 
ATOM     39  H52 UNL     1      -4.602   0.284   3.075  1.00  0.00     0.157 HD
ATOM     40  H51 UNL     1      -5.260   1.913   3.185  1.00  0.00     0.157 HD
ENDBRANCH  32  38
BRANCH  34  41
HETATM   41  N7  UNL     1      -3.971   4.186  -0.617  1.00  0.00    -0.234 N 
ATOM     42  H72 UNL     1      -4.513   4.880  -0.103  1.00  0.00     0.174 HD
ATOM     43  H71 UNL     1      -3.543   4.394  -1.519  1.00  0.00     0.174 HD
ENDBRANCH  34  41
ENDBRANCH  29  30
ENDBRANCH  23  29
ENDBRANCH   1  23
TORSDOF 12
