REMARK  13 active torsions:
REMARK  status: ('A' for Active; 'I' for Inactive)
REMARK    1  A    between atoms: N1_1  and  C1_4 
REMARK    2  A    between atoms: C2_7  and  N3_8 
REMARK    3  A    between atoms: N3_8  and  N4_10 
REMARK    4  A    between atoms: C4_20  and  C5_21 
REMARK    5  A    between atoms: C6_24  and  C7_25 
REMARK    6  A    between atoms: C7_25  and  S1_26 
REMARK    7  A    between atoms: S1_26  and  C8_27 
REMARK    8  A    between atoms: C8_27  and  C9_28 
REMARK    9  A    between atoms: C9_28  and  O1_29 
REMARK   10  A    between atoms: C9_28  and  C10_31 
REMARK   11  A    between atoms: C10_31  and  O2_32 
REMARK   12  A    between atoms: C10_31  and  C11_34 
REMARK   13  A    between atoms: C11_34  and  O3_35 
ROOT
HETATM    1  C1  UNL     1       5.008   0.758   1.426  1.00  0.00     0.130 A 
HETATM    2  N2  UNL     1       6.339   0.733   1.267  1.00  0.00    -0.175 N 
ATOM      3  H2  UNL     1       6.941   0.893   2.075  1.00  0.00     0.186 HD
HETATM    4  C2  UNL     1       6.903   0.499   0.055  1.00  0.00     0.699 A 
HETATM    5  N5  UNL     1       6.146   0.283  -1.031  1.00  0.00    -0.173 N 
ATOM      6  H5  UNL     1       6.586   0.109  -1.934  1.00  0.00     0.186 HD
HETATM    7  C3  UNL     1       4.796   0.297  -0.926  1.00  0.00     0.151 A 
HETATM    8  N6  UNL     1       4.003   0.088  -1.988  1.00  0.00    -0.284 N 
ATOM      9  H6  UNL     1       4.433  -0.087  -2.896  1.00  0.00     0.188 HD
HETATM   10  N7  UNL     1       2.678   0.101  -1.897  1.00  0.00    -0.294 N 
ATOM     11  H7  UNL     1       2.123  -0.065  -2.737  1.00  0.00     0.187 HD
HETATM   12  C4  UNL     1       2.047   0.325  -0.736  1.00  0.00     0.117 A 
HETATM   13  C13 UNL     1       2.823   0.544   0.374  1.00  0.00     0.096 A 
HETATM   14  N10 UNL     1       2.225   0.785   1.624  1.00  0.00    -0.099 NA
HETATM   15  C14 UNL     1       4.216   0.538   0.324  1.00  0.00     0.081 A 
ENDROOT
BRANCH  12  16
HETATM   16  C5  UNL     1       0.591   0.350  -0.623  1.00  0.00     0.136 A 
HETATM   17  N8  UNL     1      -0.181   0.557   0.435  1.00  0.00    -0.342 N 
HETATM   18  C6  UNL     1      -1.496   0.492   0.074  1.00  0.00     0.035 A 
ATOM     19  H8  UNL     1       0.158   0.738   1.380  1.00  0.00     0.167 HD
HETATM   20  C12 UNL     1      -1.516   0.236  -1.260  1.00  0.00     0.115 A 
HETATM   21  N9  UNL     1      -0.225   0.153  -1.664  1.00  0.00    -0.348 N 
ATOM     22  H9  UNL     1       0.079  -0.032  -2.620  1.00  0.00     0.167 HD
BRANCH  18  23
HETATM   23  C7  UNL     1      -2.640   0.685   1.058  1.00  0.00     0.132 C 
BRANCH  23  24
HETATM   24  S1  UNL     1      -3.135  -0.873   1.750  1.00  0.00    -0.160 SA
BRANCH  24  25
HETATM   25  C8  UNL     1      -4.073  -1.965   0.722  1.00  0.00     0.108 C 
BRANCH  25  26
HETATM   26  C9  UNL     1      -5.519  -1.700   0.558  1.00  0.00     0.158 C 
BRANCH  26  27
HETATM   27  O1  UNL     1      -6.017  -2.702  -0.320  1.00  0.00    -0.392 OA
ATOM     28  H1  UNL     1      -6.946  -2.532  -0.425  1.00  0.00     0.210 HD
ENDBRANCH  26  27
BRANCH  26  29
HETATM   29  C10 UNL     1      -6.005  -0.380   0.131  1.00  0.00     0.171 C 
BRANCH  29  30
HETATM   30  O2  UNL     1      -7.441  -0.441   0.200  1.00  0.00    -0.391 OA
ATOM     31  H2  UNL     1      -7.755   0.412  -0.076  1.00  0.00     0.210 HD
ENDBRANCH  29  30
BRANCH  29  32
HETATM   32  C11 UNL     1      -5.726  -0.039  -1.328  1.00  0.00     0.198 C 
BRANCH  32  33
HETATM   33  O3  UNL     1      -6.356   1.199  -1.611  1.00  0.00    -0.398 OA
ATOM     34  H3  UNL     1      -6.182   1.412  -2.520  1.00  0.00     0.209 HD
ENDBRANCH  32  33
ENDBRANCH  29  32
ENDBRANCH  26  29
ENDBRANCH  25  26
ENDBRANCH  24  25
ENDBRANCH  23  24
ENDBRANCH  18  23
ENDBRANCH  12  16
BRANCH   1  35
HETATM   35  N1  UNL     1       4.441   0.976   2.555  1.00  0.00    -0.384 N 
ATOM     36  H12 UNL     1       5.029   1.139   3.373  1.00  0.00     0.157 HD
ATOM     37  H11 UNL     1       3.428   0.995   2.676  1.00  0.00     0.157 HD
ENDBRANCH   1  35
BRANCH   4  38
HETATM   38  N3  UNL     1       8.182   0.480  -0.076  1.00  0.00    -0.138 N 
ATOM     39  H3  UNL     1       8.770   0.643   0.742  1.00  0.00     0.205 HD
BRANCH  38  40
HETATM   40  N4  UNL     1       8.780   0.243  -1.304  1.00  0.00    -0.331 N 
ATOM     41  H42 UNL     1       8.178   0.082  -2.111  1.00  0.00     0.177 HD
ATOM     42  H41 UNL     1       9.795   0.228  -1.408  1.00  0.00     0.177 HD
ENDBRANCH  38  40
ENDBRANCH   4  38
TORSDOF 13
