REMARK  13 active torsions:
REMARK  status: ('A' for Active; 'I' for Inactive)
REMARK    1  A    between atoms: N1_1  and  C1_5 
REMARK    2  A    between atoms: C1_5  and  N2_6 
REMARK    3  A    between atoms: N2_6  and  C2_9 
REMARK    4  A    between atoms: C2_9  and  C3_10 
REMARK    5  A    between atoms: C2_9  and  C10_31 
REMARK    6  A    between atoms: C3_10  and  C4_11 
REMARK    7  A    between atoms: C4_11  and  C5_12 
REMARK    8  A    between atoms: C6_13  and  C7_14 
REMARK    9  A    between atoms: C7_14  and  N3_15 
REMARK   10  A    between atoms: C7_14  and  O1_19 
REMARK   11  A    between atoms: C8_23  and  N5_24 
REMARK   12  A    between atoms: C12_34  and  N7_35 
REMARK   13  A    between atoms: N7_35  and  C13_37 
ROOT
HETATM    1  C2  UNL     1       0.898  -1.913  -0.117  1.00  0.00     0.238 C 
ENDROOT
BRANCH   1   2
HETATM    2  N2  UNL     1       1.015  -1.190  -1.337  1.00  0.00    -0.042 N 
ATOM      3  H22 UNL     1       1.964  -0.836  -1.459  1.00  0.00     0.280 HD
ATOM      4  H21 UNL     1       0.511  -0.305  -1.284  1.00  0.00     0.280 HD
BRANCH   2   5
HETATM    5  C1  UNL     1       0.607  -1.933  -2.466  1.00  0.00     0.461 C 
BRANCH   5   6
HETATM    6  N1  UNL     1      -0.546  -1.492  -3.149  1.00  0.00    -0.055 N 
ATOM      7  H13 UNL     1      -1.323  -1.422  -2.491  1.00  0.00     0.276 HD
ATOM      8  H12 UNL     1      -0.430  -0.513  -3.412  1.00  0.00     0.276 HD
ATOM      9  H11 UNL     1      -0.841  -2.029  -3.965  1.00  0.00     0.276 HD
ENDBRANCH   5   6
ENDBRANCH   2   5
ENDBRANCH   1   2
BRANCH   1  10
HETATM   10  C3  UNL     1      -0.592  -1.782   0.252  1.00  0.00     0.044 C 
BRANCH  10  11
HETATM   11  C4  UNL     1      -0.937  -0.312   0.497  1.00  0.00     0.049 C 
BRANCH  11  12
HETATM   12  C5  UNL     1      -2.315   0.031   0.705  1.00  0.00     0.038 A 
HETATM   13  C6  UNL     1      -2.849   1.210   0.248  1.00  0.00     0.093 A 
HETATM   14  N4  UNL     1      -4.174   1.515   0.500  1.00  0.00    -0.191 N 
HETATM   15  C8  UNL     1      -4.997   0.706   1.174  1.00  0.00     0.679 A 
ATOM     16  H4  UNL     1      -4.541   2.401   0.154  1.00  0.00     0.184 HD
HETATM   17  N6  UNL     1      -4.461  -0.456   1.615  1.00  0.00    -0.156 N 
HETATM   18  C9  UNL     1      -3.185  -0.791   1.401  1.00  0.00     0.268 A 
ATOM     19  H6  UNL     1      -5.056  -1.103   2.132  1.00  0.00     0.187 HD
HETATM   20  O2  UNL     1      -2.847  -1.905   1.876  1.00  0.00    -0.267 OA
BRANCH  13  21
HETATM   21  C7  UNL     1      -2.111   2.191  -0.561  1.00  0.00     0.368 C 
BRANCH  21  22
HETATM   22  N3  UNL     1      -1.468   1.650  -1.713  1.00  0.00    -0.047 N 
ATOM     23  H33 UNL     1      -0.856   0.878  -1.447  1.00  0.00     0.277 HD
ATOM     24  H32 UNL     1      -2.142   1.149  -2.292  1.00  0.00     0.277 HD
ATOM     25  H31 UNL     1      -0.956   2.331  -2.274  1.00  0.00     0.277 HD
ENDBRANCH  21  22
BRANCH  21  26
HETATM   26  O1  UNL     1      -1.167   2.897   0.248  1.00  0.00    -0.365 OA
ATOM     27  H1  UNL     1      -0.690   3.531  -0.275  1.00  0.00     0.212 HD
ENDBRANCH  21  26
ENDBRANCH  13  21
BRANCH  15  28
HETATM   28  N5  UNL     1      -6.220   1.003   1.395  1.00  0.00    -0.234 N 
ATOM     29  H52 UNL     1      -6.624   1.879   1.063  1.00  0.00     0.174 HD
ATOM     30  H51 UNL     1      -6.848   0.386   1.909  1.00  0.00     0.174 HD
ENDBRANCH  15  28
ENDBRANCH  11  12
ENDBRANCH  10  11
ENDBRANCH   1  10
BRANCH   1  31
HETATM   31  C10 UNL     1       1.852  -1.516   0.947  1.00  0.00     0.048 A 
HETATM   32  C11 UNL     1       1.715  -1.931   2.265  1.00  0.00     0.080 A 
HETATM   33  S1  UNL     1       3.087  -1.227   2.994  1.00  0.00    -0.063 SA
HETATM   34  C12 UNL     1       3.747  -0.452   1.607  1.00  0.00     0.164 A 
HETATM   35  N12 UNL     1       2.903  -0.765   0.656  1.00  0.00    -0.337 N 
ATOM     36  H12 UNL     1       3.053  -0.434  -0.297  1.00  0.00     0.168 HD
BRANCH  34  37
HETATM   37  N7  UNL     1       4.847   0.237   1.632  1.00  0.00    -0.167 N 
ATOM     38  H7  UNL     1       5.322   0.302   2.532  1.00  0.00     0.186 HD
BRANCH  37  39
HETATM   39  C13 UNL     1       5.457   0.906   0.549  1.00  0.00     0.715 A 
HETATM   40  N8  UNL     1       6.605   1.625   0.573  1.00  0.00    -0.115 N 
HETATM   41  N9  UNL     1       6.810   2.082  -0.669  1.00  0.00    -0.213 N 
ATOM     42  H8  UNL     1       7.201   1.788   1.385  1.00  0.00     0.207 HD
HETATM   43  N10 UNL     1       5.847   1.689  -1.477  1.00  0.00    -0.213 N 
ATOM     44  H9  UNL     1       7.604   2.657  -0.951  1.00  0.00     0.210 HD
HETATM   45  N11 UNL     1       5.037   0.984  -0.742  1.00  0.00    -0.115 N 
ATOM     46  H10 UNL     1       5.755   1.894  -2.472  1.00  0.00     0.210 HD
ATOM     47  H11 UNL     1       4.187   0.542  -1.093  1.00  0.00     0.207 HD
ENDBRANCH  37  39
ENDBRANCH  34  37
ENDBRANCH   1  31
TORSDOF 13
