REMARK  12 active torsions:
REMARK  status: ('A' for Active; 'I' for Inactive)
REMARK    1  A    between atoms: N1_1  and  C1_4 
REMARK    2  A    between atoms: N5_16  and  C6_17 
REMARK    3  A    between atoms: C6_17  and  C7_18 
REMARK    4  A    between atoms: C7_18  and  O1_19 
REMARK    5  A    between atoms: C7_18  and  C8_21 
REMARK    6  A    between atoms: C9_24  and  N7_25 
REMARK    7  A    between atoms: N7_25  and  C10_27 
REMARK    8  A    between atoms: C13_34  and  C14_35 
REMARK    9  A    between atoms: C14_35  and  O2_36 
REMARK   10  A    between atoms: N10_38  and  C15_39 
REMARK   11  A    between atoms: C15_39  and  C16_40 
REMARK   12  A    between atoms: C16_40  and  O3_41 
ROOT
HETATM    1  C8  UNL     1      -0.578  -0.616  -0.783  1.00  0.00     0.120 A 
HETATM    2  N6  UNL     1      -1.370   0.456  -0.436  1.00  0.00    -0.328 N 
ATOM      3  H6  UNL     1      -1.141   1.419  -0.681  1.00  0.00     0.169 HD
HETATM    4  C9  UNL     1      -2.436   0.129   0.232  1.00  0.00     0.134 A 
HETATM    5  C13 UNL     1      -2.368  -1.267   0.369  1.00  0.00     0.081 A 
HETATM    6  N10 UNL     1      -1.262  -1.648  -0.258  1.00  0.00    -0.331 N 
ENDROOT
BRANCH   1   7
HETATM    7  C7  UNL     1       0.581  -0.423  -1.633  1.00  0.00     0.224 C 
BRANCH   7   8
HETATM    8  C6  UNL     1       1.900  -0.932  -1.552  1.00  0.00     0.110 C 
BRANCH   8   9
HETATM    9  N5  UNL     1       2.853  -0.810  -0.530  1.00  0.00    -0.313 N 
HETATM   10  C3  UNL     1       3.759   0.177  -0.266  1.00  0.00     0.129 A 
HETATM   11  C2  UNL     1       4.072   1.363  -0.865  1.00  0.00     0.146 A 
HETATM   12  C4  UNL     1       4.504  -0.129   0.870  1.00  0.00     0.153 A 
HETATM   13  N2  UNL     1       5.002   2.168  -0.393  1.00  0.00    -0.175 N 
HETATM   14  N3  UNL     1       3.415   1.639  -1.956  1.00  0.00    -0.383 N 
HETATM   15  C1  UNL     1       5.708   1.838   0.736  1.00  0.00     0.679 A 
ATOM     16  H2  UNL     1       5.199   3.046  -0.872  1.00  0.00     0.186 HD
HETATM   17  N11 UNL     1       5.456   0.676   1.363  1.00  0.00    -0.174 N 
ATOM     18  H11 UNL     1       5.979   0.412   2.198  1.00  0.00     0.186 HD
ATOM     19  H32 UNL     1       3.649   2.525  -2.404  1.00  0.00     0.157 HD
ATOM     20  H31 UNL     1       2.695   1.016  -2.321  1.00  0.00     0.157 HD
HETATM   21  N4  UNL     1       4.051  -1.290   1.297  1.00  0.00    -0.336 N 
HETATM   22  C5  UNL     1       3.097  -1.693   0.481  1.00  0.00     0.189 A 
ATOM     23  H4  UNL     1       4.383  -1.793   2.120  1.00  0.00     0.168 HD
BRANCH  15  24
HETATM   24  N1  UNL     1       6.544   2.661   1.139  1.00  0.00    -0.234 N 
ATOM     25  H12 UNL     1       6.735   3.543   0.663  1.00  0.00     0.174 HD
ATOM     26  H11 UNL     1       7.069   2.416   1.978  1.00  0.00     0.174 HD
ENDBRANCH  15  24
ENDBRANCH   8   9
ENDBRANCH   7   8
BRANCH   7  27
HETATM   27  O1  UNL     1       0.113  -0.875  -2.983  1.00  0.00    -0.383 OA
ATOM     28  H1  UNL     1      -0.772  -0.534  -3.037  1.00  0.00     0.211 HD
ENDBRANCH   7  27
ENDBRANCH   1   7
BRANCH   6  29
HETATM   29  C15 UNL     1      -0.988  -3.047  -0.472  1.00  0.00     0.156 C 
BRANCH  29  30
HETATM   30  C16 UNL     1      -0.250  -3.772   0.585  1.00  0.00     0.184 C 
BRANCH  30  31
HETATM   31  O3  UNL     1      -0.032  -5.115   0.158  1.00  0.00    -0.399 OA
ATOM     32  H3  UNL     1       0.442  -5.581   0.837  1.00  0.00     0.209 HD
ENDBRANCH  30  31
ENDBRANCH  29  30
ENDBRANCH   6  29
BRANCH   4  33
HETATM   33  N7  UNL     1      -3.462   0.880   0.852  1.00  0.00    -0.313 N 
ATOM     34  H7  UNL     1      -4.072   0.467   1.557  1.00  0.00     0.170 HD
BRANCH  33  35
HETATM   35  C10 UNL     1      -3.607   2.250   0.445  1.00  0.00     0.176 C 
HETATM   36  N8  UNL     1      -2.859   3.229   0.538  1.00  0.00    -0.361 N 
HETATM   37  C11 UNL     1      -3.483   4.415  -0.039  1.00  0.00     0.142 C 
ATOM     38  H8  UNL     1      -1.931   3.211   0.961  1.00  0.00     0.162 HD
HETATM   39  C12 UNL     1      -4.879   4.026  -0.374  1.00  0.00     0.142 C 
HETATM   40  N9  UNL     1      -4.859   2.604  -0.201  1.00  0.00    -0.361 N 
ATOM     41  H9  UNL     1      -5.594   1.955  -0.482  1.00  0.00     0.162 HD
ENDBRANCH  33  35
ENDBRANCH   4  33
BRANCH   5  42
HETATM   42  C14 UNL     1      -3.534  -2.015   0.928  1.00  0.00     0.225 C 
BRANCH  42  43
HETATM   43  O2  UNL     1      -3.271  -2.527   2.227  1.00  0.00    -0.395 OA
ATOM     44  H2  UNL     1      -4.013  -3.003   2.582  1.00  0.00     0.209 HD
ENDBRANCH  42  43
ENDBRANCH   5  42
TORSDOF 12
