REMARK  12 active torsions:
REMARK  status: ('A' for Active; 'I' for Inactive)
REMARK    1  A    between atoms: S1_2  and  C2_3 
REMARK    2  A    between atoms: C2_3  and  C3_4 
REMARK    3  A    between atoms: C3_4  and  O1_5 
REMARK    4  A    between atoms: C4_9  and  C5_10 
REMARK    5  A    between atoms: C4_9  and  C9_23 
REMARK    6  A    between atoms: C5_10  and  C6_11 
REMARK    7  A    between atoms: C6_11  and  C7_12 
REMARK    8  A    between atoms: C7_12  and  N2_13 
REMARK    9  A    between atoms: N2_13  and  C8_16 
REMARK   10  A    between atoms: C8_16  and  N3_17 
REMARK   11  A    between atoms: C8_16  and  O2_21 
REMARK   12  A    between atoms: C13_31  and  N6_32 
ROOT
HETATM    1  C2  UNL     1      -0.349   2.378   0.234  1.00  0.00     0.161 C 
HETATM    2  N1  UNL     1      -0.280   1.283   1.027  1.00  0.00    -0.377 N 
ATOM      3  H1  UNL     1      -0.132   1.189   2.032  1.00  0.00     0.156 HD
HETATM    4  C4  UNL     1      -0.494   0.232  -0.064  1.00  0.00     0.121 C 
HETATM    5  C16 UNL     1       0.031   1.359  -0.831  1.00  0.00     0.199 C 
HETATM    6  O3  UNL     1       0.580   1.765  -1.846  1.00  0.00    -0.291 OA
ENDROOT
BRANCH   4   7
HETATM    7  C5  UNL     1       0.561  -0.793   0.471  1.00  0.00     0.046 C 
BRANCH   7   8
HETATM    8  C6  UNL     1       1.941  -0.213   0.489  1.00  0.00     0.031 C 
BRANCH   8   9
HETATM    9  C7  UNL     1       2.839  -1.341   1.028  1.00  0.00     0.237 C 
BRANCH   9  10
HETATM   10  N2  UNL     1       4.174  -0.830   1.060  1.00  0.00    -0.023 N 
ATOM     11  H22 UNL     1       4.451  -0.476   0.144  1.00  0.00     0.282 HD
ATOM     12  H21 UNL     1       4.219   0.038   1.594  1.00  0.00     0.282 HD
BRANCH  10  13
HETATM   13  C8  UNL     1       5.135  -1.793   1.555  1.00  0.00     0.519 C 
BRANCH  13  14
HETATM   14  N3  UNL     1       6.438  -1.154   1.531  1.00  0.00    -0.027 N 
ATOM     15  H33 UNL     1       6.683  -0.782   0.613  1.00  0.00     0.279 HD
ATOM     16  H32 UNL     1       6.459  -0.271   2.042  1.00  0.00     0.279 HD
ATOM     17  H31 UNL     1       7.115  -1.832   1.880  1.00  0.00     0.279 HD
ENDBRANCH  13  14
BRANCH  13  18
HETATM   18  O2  UNL     1       5.177  -2.854   0.652  1.00  0.00    -0.349 OA
ATOM     19  H2  UNL     1       5.808  -3.486   0.977  1.00  0.00     0.213 HD
ENDBRANCH  13  18
ENDBRANCH  10  13
ENDBRANCH   9  10
ENDBRANCH   8   9
ENDBRANCH   7   8
ENDBRANCH   4   7
BRANCH   4  20
HETATM   20  C9  UNL     1      -1.873  -0.118   0.185  1.00  0.00    -0.004 A 
HETATM   21  C10 UNL     1      -2.612   0.313   1.312  1.00  0.00     0.028 A 
HETATM   22  C11 UNL     1      -3.885  -0.079   1.629  1.00  0.00     0.090 A 
HETATM   23  N4  UNL     1      -4.479  -0.935   0.816  1.00  0.00    -0.351 N 
HETATM   24  C12 UNL     1      -3.880  -1.405  -0.272  1.00  0.00     0.135 A 
ATOM     25  H4  UNL     1      -5.427  -1.244   1.031  1.00  0.00     0.166 HD
HETATM   26  N5  UNL     1      -4.556  -2.262  -1.068  1.00  0.00    -0.176 N 
HETATM   27  C15 UNL     1      -2.574  -1.007  -0.607  1.00  0.00     0.062 A 
HETATM   28  C13 UNL     1      -3.999  -2.747  -2.190  1.00  0.00     0.679 A 
ATOM     29  H5  UNL     1      -5.502  -2.545  -0.814  1.00  0.00     0.186 HD
HETATM   30  N7  UNL     1      -2.768  -2.396  -2.549  1.00  0.00    -0.176 N 
HETATM   31  C14 UNL     1      -2.072  -1.537  -1.764  1.00  0.00     0.129 A 
ATOM     32  H7  UNL     1      -2.353  -2.768  -3.403  1.00  0.00     0.186 HD
HETATM   33  N8  UNL     1      -0.915  -1.173  -2.141  1.00  0.00    -0.384 N 
ATOM     34  H82 UNL     1      -0.541  -1.568  -3.004  1.00  0.00     0.157 HD
ATOM     35  H81 UNL     1      -0.391  -0.527  -1.550  1.00  0.00     0.157 HD
BRANCH  28  36
HETATM   36  N6  UNL     1      -4.677  -3.558  -2.916  1.00  0.00    -0.234 N 
ATOM     37  H62 UNL     1      -5.621  -3.827  -2.641  1.00  0.00     0.174 HD
ATOM     38  H61 UNL     1      -4.254  -3.926  -3.768  1.00  0.00     0.174 HD
ENDBRANCH  28  36
ENDBRANCH   4  20
BRANCH   1  39
HETATM   39  S1  UNL     1      -1.833   3.221  -0.220  1.00  0.00    -0.133 SA
HETATM   40  C1  UNL     1      -1.582   4.124  -1.767  1.00  0.00     0.093 C 
ENDBRANCH   1  39
BRANCH   1  41
HETATM   41  C3  UNL     1       0.746   3.388   0.568  1.00  0.00     0.214 C 
BRANCH  41  42
HETATM   42  O1  UNL     1       0.577   3.767   1.888  1.00  0.00    -0.397 OA
ATOM     43  H1  UNL     1       1.258   4.395   2.096  1.00  0.00     0.209 HD
ENDBRANCH  41  42
ENDBRANCH   1  41
TORSDOF 12
