REMARK  12 active torsions:
REMARK  status: ('A' for Active; 'I' for Inactive)
REMARK    1  A    between atoms: N1_1  and  C1_4 
REMARK    2  A    between atoms: C2_7  and  N3_8 
REMARK    3  A    between atoms: C4_14  and  N5_15 
REMARK    4  A    between atoms: N5_15  and  C5_16 
REMARK    5  A    between atoms: N5_15  and  C7_20 
REMARK    6  A    between atoms: C5_16  and  C6_17 
REMARK    7  A    between atoms: C6_17  and  O1_18 
REMARK    8  A    between atoms: C10_23  and  N6_24 
REMARK    9  A    between atoms: N6_24  and  N7_25 
REMARK   10  A    between atoms: N6_24  and  C11_28 
REMARK   11  A    between atoms: C11_28  and  O2_29 
REMARK   12  A    between atoms: C15_34  and  N8_35 
REMARK       I    between atoms: N8_35  and  C16_37 
REMARK       I    between atoms: C16_37  and  N9_38 
REMARK       I    between atoms: C16_37  and  N10_42 
ROOT
HETATM    1  C1  UNL     1      -4.557  -3.094   0.339  1.00  0.00     0.692 A 
HETATM    2  N2  UNL     1      -3.776  -3.797  -0.499  1.00  0.00    -0.172 N 
ATOM      3  H2  UNL     1      -4.045  -4.743  -0.770  1.00  0.00     0.186 HD
HETATM    4  C2  UNL     1      -2.638  -3.259  -0.984  1.00  0.00     0.161 A 
HETATM    5  C3  UNL     1      -2.250  -1.982  -0.634  1.00  0.00     0.175 A 
HETATM    6  N4  UNL     1      -1.093  -1.444  -1.129  1.00  0.00    -0.324 N 
ATOM      7  H4  UNL     1      -0.513  -1.993  -1.763  1.00  0.00     0.169 HD
HETATM    8  C4  UNL     1      -0.712  -0.205  -0.791  1.00  0.00     0.113 A 
HETATM    9  C14 UNL     1      -1.519   0.505   0.068  1.00  0.00     0.099 A 
HETATM   10  C15 UNL     1      -2.702  -0.056   0.569  1.00  0.00     0.132 A 
HETATM   11  N11 UNL     1      -3.050  -1.301   0.206  1.00  0.00    -0.206 N 
HETATM   12  N12 UNL     1      -4.176  -1.859   0.674  1.00  0.00    -0.122 N 
ATOM     13  H12 UNL     1      -4.764  -1.320   1.310  1.00  0.00     0.206 HD
ENDROOT
BRANCH   8  14
HETATM   14  N5  UNL     1       0.480   0.355  -1.302  1.00  0.00    -0.331 N 
BRANCH  14  15
HETATM   15  C5  UNL     1       0.420   1.132  -2.532  1.00  0.00     0.156 C 
BRANCH  15  16
HETATM   16  C6  UNL     1      -0.508   2.333  -2.336  1.00  0.00     0.184 C 
BRANCH  16  17
HETATM   17  O1  UNL     1      -0.573   3.087  -3.513  1.00  0.00    -0.399 OA
ATOM     18  H1  UNL     1      -1.149   3.833  -3.391  1.00  0.00     0.209 HD
ENDBRANCH  16  17
ENDBRANCH  15  16
ENDBRANCH  14  15
BRANCH  14  19
HETATM   19  C7  UNL     1       1.747   0.177  -0.637  1.00  0.00     0.036 A 
HETATM   20  C8  UNL     1       2.146   1.056   0.345  1.00  0.00     0.032 A 
HETATM   21  C9  UNL     1       3.369   0.905   0.999  1.00  0.00     0.033 A 
HETATM   22  C10 UNL     1       4.223  -0.127   0.687  1.00  0.00     0.052 A 
HETATM   23  C12 UNL     1       3.815  -1.002  -0.298  1.00  0.00     0.033 A 
HETATM   24  C13 UNL     1       2.606  -0.856  -0.946  1.00  0.00     0.032 A 
BRANCH  22  25
HETATM   25  N6  UNL     1       5.485  -0.291   1.352  1.00  0.00    -0.275 N 
BRANCH  25  26
HETATM   26  N7  UNL     1       6.327  -1.368   1.006  1.00  0.00    -0.341 N 
ATOM     27  H72 UNL     1       6.022  -2.020   0.283  1.00  0.00     0.177 HD
ATOM     28  H71 UNL     1       7.223  -1.484   1.478  1.00  0.00     0.177 HD
ENDBRANCH  25  26
BRANCH  25  29
HETATM   29  C11 UNL     1       5.914   0.625   2.368  1.00  0.00     0.312 C 
BRANCH  29  30
HETATM   30  O2  UNL     1       6.040   1.935   1.922  1.00  0.00    -0.380 OA
ATOM     31  H2  UNL     1       6.324   2.542   2.595  1.00  0.00     0.211 HD
ENDBRANCH  29  30
ENDBRANCH  25  29
ENDBRANCH  22  25
ENDBRANCH  14  19
ENDBRANCH   8  14
BRANCH  10  32
HETATM   32  N8  UNL     1      -3.479   0.579   1.369  1.00  0.00    -0.326 N 
HETATM   33  C16 UNL     1      -3.257   1.920   1.853  1.00  0.00     0.481 C 
HETATM   34  N9  UNL     1      -4.306   2.159   2.859  1.00  0.00    -0.033 N 
HETATM   35  N10 UNL     1      -3.409   2.860   0.754  1.00  0.00    -0.033 N 
ATOM     36  H93 UNL     1      -5.251   2.002   2.509  1.00  0.00     0.278 HD
ATOM     37  H92 UNL     1      -4.331   1.457   3.598  1.00  0.00     0.278 HD
ATOM     38  H91 UNL     1      -4.149   3.107   3.201  1.00  0.00     0.278 HD
ATOM     39 3H10 UNL     1      -2.807   2.630  -0.037  1.00  0.00     0.278 HD
ATOM     40 2H10 UNL     1      -4.309   2.763   0.284  1.00  0.00     0.278 HD
ATOM     41 1H10 UNL     1      -3.252   3.808   1.096  1.00  0.00     0.278 HD
ATOM     42  H8  UNL     1      -4.320   0.098   1.688  1.00  0.00     0.165 HD
ENDBRANCH  10  32
BRANCH   4  43
HETATM   43  N3  UNL     1      -1.891  -3.934  -1.785  1.00  0.00    -0.382 N 
ATOM     44  H32 UNL     1      -2.178  -4.878  -2.044  1.00  0.00     0.157 HD
ATOM     45  H31 UNL     1      -1.031  -3.527  -2.152  1.00  0.00     0.157 HD
ENDBRANCH   4  43
BRANCH   1  46
HETATM   46  N1  UNL     1      -5.650  -3.579   0.821  1.00  0.00    -0.233 N 
ATOM     47  H12 UNL     1      -5.941  -4.522   0.565  1.00  0.00     0.174 HD
ATOM     48  H11 UNL     1      -6.243  -3.045   1.457  1.00  0.00     0.174 HD
ENDBRANCH   1  46
TORSDOF 12
