REMARK  3 active torsions:
REMARK  status: ('A' for Active; 'I' for Inactive)
REMARK    1  A    between atoms: C14_15  and  C15_16 
REMARK       I    between atoms: C15_16  and  N1_18 
REMARK    2  A    between atoms: N1_18  and  C16_20 
REMARK    3  A    between atoms: C16_20  and  C17_21 
ROOT
HETATM    1  O1  UNL     1      -1.358   2.580   0.626  1.00  0.00    -0.297 OA
HETATM    2  C1  UNL     1      -1.010   1.454   0.930  1.00  0.00     0.140 C 
HETATM    3  C2  UNL     1      -1.656   0.861   2.126  1.00  0.00     0.079 C 
HETATM    4  C3  UNL     1      -2.971   1.578   2.441  1.00  0.00     0.007 C 
HETATM    5  C4  UNL     1      -3.838   1.668   1.234  1.00  0.00     0.000 C 
HETATM    6  C5  UNL     1      -5.196   1.025   1.400  1.00  0.00     0.000 C 
HETATM    7  C6  UNL     1      -5.215  -0.438   1.226  1.00  0.00     0.000 C 
HETATM    8  C7  UNL     1      -5.508  -0.997  -0.124  1.00  0.00     0.000 C 
HETATM    9  C8  UNL     1      -5.234  -0.192  -1.304  1.00  0.00     0.000 C 
HETATM   10  C9  UNL     1      -4.059  -0.491  -2.159  1.00  0.00     0.000 C 
HETATM   11  C10 UNL     1      -3.352  -1.770  -1.976  1.00  0.00     0.000 C 
HETATM   12  C11 UNL     1      -2.224  -1.771  -0.981  1.00  0.00     0.000 C 
HETATM   13  C12 UNL     1      -1.030  -0.952  -1.390  1.00  0.00     0.001 C 
HETATM   14  C13 UNL     1      -0.233  -0.681  -0.127  1.00  0.00     0.022 C 
HETATM   15  C14 UNL     1      -0.002   0.786   0.112  1.00  0.00     0.147 C 
ENDROOT
BRANCH  15  16
HETATM   16  C15 UNL     1       1.343   0.952   0.742  1.00  0.00     0.229 C 
HETATM   17  O2  UNL     1       1.402   1.600   1.815  1.00  0.00    -0.273 OA
HETATM   18  N1  UNL     1       2.516   0.421   0.189  1.00  0.00    -0.360 N 
ATOM     19  H1  UNL     1       2.480  -0.107  -0.683  1.00  0.00     0.162 HD
BRANCH  18  20
HETATM   20  C16 UNL     1       3.777   0.628   0.865  1.00  0.00     0.127 C 
BRANCH  20  21
HETATM   21  C17 UNL     1       4.898  -0.023   0.102  1.00  0.00     0.003 C 
HETATM   22  C18 UNL     1       6.207   0.208   0.828  1.00  0.00     0.006 C 
HETATM   23  C19 UNL     1       7.271  -0.575   0.097  1.00  0.00     0.000 C 
HETATM   24  C20 UNL     1       6.795  -1.094  -1.233  1.00  0.00     0.000 C 
HETATM   25  C21 UNL     1       6.072  -0.052  -2.048  1.00  0.00     0.000 C 
HETATM   26  C22 UNL     1       5.034   0.690  -1.248  1.00  0.00     0.006 C 
ENDBRANCH  20  21
ENDBRANCH  18  20
ENDBRANCH  15  16
TORSDOF 3
