REMARK  4 active torsions:
REMARK  status: ('A' for Active; 'I' for Inactive)
REMARK    1  A    between atoms: C9_9  and  C10_10 
REMARK    2  A    between atoms: C10_10  and  C11_11 
REMARK    3  A    between atoms: C11_11  and  C12_12 
REMARK    4  A    between atoms: C21_21  and  O1_22 
ROOT
HETATM    1  C1  UNL     1      -4.417  -2.668   2.004  1.00  0.00     0.019 C 
HETATM    2  C2  UNL     1      -4.266  -2.080   0.835  1.00  0.00    -0.067 C 
HETATM    3  C3  UNL     1      -5.296  -1.212   0.283  1.00  0.00     0.002 C 
HETATM    4  C4  UNL     1      -4.912  -0.233  -0.502  1.00  0.00    -0.021 C 
HETATM    5  C5  UNL     1      -3.488  -0.034  -0.803  1.00  0.00     0.017 C 
HETATM    6  C6  UNL     1      -2.719  -1.282  -0.936  1.00  0.00    -0.002 C 
HETATM    7  C7  UNL     1      -3.004  -2.339   0.095  1.00  0.00     0.043 C 
HETATM    8  C8  UNL     1      -1.227  -1.073  -1.006  1.00  0.00     0.011 C 
HETATM    9  C9  UNL     1      -0.783  -0.174   0.123  1.00  0.00    -0.003 C 
HETATM   10  C19 UNL     1      -1.457   1.137   0.159  1.00  0.00    -0.010 C 
HETATM   11  C20 UNL     1      -1.099   1.785   1.507  1.00  0.00     0.018 C 
HETATM   12  C21 UNL     1      -1.203   2.132  -0.883  1.00  0.00     0.127 C 
HETATM   13  C22 UNL     1      -2.277   3.182  -0.559  1.00  0.00     0.033 C 
HETATM   14  C23 UNL     1      -3.450   2.356  -0.155  1.00  0.00     0.009 C 
HETATM   15  C24 UNL     1      -2.946   0.968   0.171  1.00  0.00     0.004 C 
ENDROOT
BRANCH   9  16
HETATM   16  C10 UNL     1       0.675  -0.211   0.385  1.00  0.00     0.006 C 
BRANCH  16  17
HETATM   17  C11 UNL     1       1.601   0.177  -0.704  1.00  0.00     0.005 C 
BRANCH  17  18
HETATM   18  C12 UNL     1       3.025   0.034  -0.126  1.00  0.00    -0.014 C 
HETATM   19  C13 UNL     1       3.299  -1.353   0.307  1.00  0.00     0.004 C 
HETATM   20  C14 UNL     1       4.660  -1.892   0.061  1.00  0.00     0.000 C 
HETATM   21  C15 UNL     1       5.660  -1.228   0.996  1.00  0.00     0.000 C 
HETATM   22  C16 UNL     1       5.654   0.255   0.779  1.00  0.00     0.000 C 
HETATM   23  C17 UNL     1       5.453   0.516  -0.678  1.00  0.00     0.000 C 
HETATM   24  C18 UNL     1       4.027   0.700  -0.993  1.00  0.00     0.004 C 
ENDBRANCH  17  18
ENDBRANCH  16  17
ENDBRANCH   9  16
BRANCH  12  25
HETATM   25  O1  UNL     1      -1.414   1.760  -2.183  1.00  0.00    -0.395 OA
ATOM     26  H1  UNL     1      -1.249   2.406  -2.860  1.00  0.00     0.210 HD
ENDBRANCH  12  25
TORSDOF 4
