REMARK  3 active torsions:
REMARK  status: ('A' for Active; 'I' for Inactive)
REMARK    1  A    between atoms: C1_2  and  C2_3 
REMARK       I    between atoms: C1_2  and  N1_20 
REMARK    2  A    between atoms: C5_6  and  C6_7 
REMARK    3  A    between atoms: C5_6  and  C12_13 
ROOT
HETATM    1  C2  UNL     1       1.474   0.092  -0.918  1.00  0.00     0.078 C 
HETATM    2  C3  UNL     1       0.487  -0.351  -1.965  1.00  0.00     0.015 C 
HETATM    3  C4  UNL     1      -0.919  -0.074  -1.665  1.00  0.00     0.011 C 
HETATM    4  C5  UNL     1      -1.374  -0.267  -0.255  1.00  0.00    -0.033 C 
HETATM    5  C17 UNL     1      -0.240  -0.091   0.769  1.00  0.00     0.011 C 
HETATM    6  C18 UNL     1       1.060  -0.664   0.333  1.00  0.00     0.015 C 
ENDROOT
BRANCH   4   7
HETATM    7  C6  UNL     1      -2.371   0.766   0.112  1.00  0.00    -0.006 C 
HETATM    8  C7  UNL     1      -1.817   2.165  -0.096  1.00  0.00     0.005 C 
HETATM    9  C8  UNL     1      -2.385   3.050   0.994  1.00  0.00     0.000 C 
HETATM   10  C9  UNL     1      -3.861   2.679   1.088  1.00  0.00     0.000 C 
HETATM   11  C10 UNL     1      -4.382   2.086  -0.190  1.00  0.00     0.000 C 
HETATM   12  C11 UNL     1      -3.696   0.756  -0.536  1.00  0.00     0.005 C 
ENDBRANCH   4   7
BRANCH   4  13
HETATM   13  C12 UNL     1      -1.778  -1.697  -0.065  1.00  0.00    -0.006 C 
HETATM   14  C13 UNL     1      -2.800  -2.267  -0.951  1.00  0.00     0.005 C 
HETATM   15  C14 UNL     1      -3.783  -3.079  -0.106  1.00  0.00     0.000 C 
HETATM   16  C15 UNL     1      -3.219  -3.130   1.272  1.00  0.00     0.000 C 
HETATM   17  C16 UNL     1      -2.162  -2.039   1.352  1.00  0.00     0.005 C 
ENDBRANCH   4  13
BRANCH   1  18
HETATM   18  C1  UNL     1       2.855  -0.190  -1.344  1.00  0.00     0.224 C 
HETATM   19  O1  UNL     1       2.983  -0.909  -2.392  1.00  0.00    -0.273 OA
HETATM   20  N1  UNL     1       4.026   0.262  -0.697  1.00  0.00    -0.352 N 
HETATM   21  C19 UNL     1       5.316  -0.130  -1.246  1.00  0.00     0.125 C 
HETATM   22  C23 UNL     1       4.073   1.103   0.475  1.00  0.00     0.125 C 
HETATM   23  C20 UNL     1       6.403   0.415  -0.363  1.00  0.00     0.020 C 
HETATM   24  C21 UNL     1       6.201   0.033   1.084  1.00  0.00     0.003 C 
HETATM   25  C22 UNL     1       4.793   0.297   1.563  1.00  0.00     0.020 C 
ENDBRANCH   1  18
TORSDOF 3
