REMARK  9 active torsions:
REMARK  status: ('A' for Active; 'I' for Inactive)
REMARK    1  A    between atoms: C4_4  and  S1_5 
REMARK    2  A    between atoms: S1_5  and  C5_6 
REMARK    3  A    between atoms: C5_6  and  C6_7 
REMARK    4  A    between atoms: N1_9  and  C8_10 
REMARK    5  A    between atoms: C8_10  and  C9_11 
REMARK    6  A    between atoms: C9_11  and  C10_12 
REMARK    7  A    between atoms: C10_12  and  N2_13 
REMARK    8  A    between atoms: C13_19  and  C14_20 
REMARK    9  A    between atoms: C17_23  and  N5_24 
ROOT
HETATM    1  C1  UNL     1       0.690  -4.196   0.334  1.00  0.00     0.056 C 
HETATM    2  C2  UNL     1       1.528  -2.955   0.135  1.00  0.00    -0.019 A 
HETATM    3  C3  UNL     1       1.490  -2.071  -0.907  1.00  0.00     0.034 A 
HETATM    4  C4  UNL     1       2.335  -1.026  -0.872  1.00  0.00     0.021 A 
HETATM    5  C13 UNL     1       3.167  -0.920   0.194  1.00  0.00     0.049 A 
HETATM    6  S2  UNL     1       2.737  -2.311   1.139  1.00  0.00    -0.092 SA
ENDROOT
BRANCH   5   7
HETATM    7  C14 UNL     1       4.199   0.075   0.550  1.00  0.00     0.053 A 
HETATM    8  C15 UNL     1       4.591   1.184  -0.122  1.00  0.00     0.050 A 
HETATM    9  C16 UNL     1       5.612   1.841   0.586  1.00  0.00     0.054 A 
HETATM   10  C17 UNL     1       6.339   2.980   0.348  1.00  0.00     0.113 A 
HETATM   11  C19 UNL     1       5.800   1.061   1.708  1.00  0.00     0.120 A 
HETATM   12  N6  UNL     1       7.271   3.368   1.225  1.00  0.00    -0.338 N 
HETATM   13  C18 UNL     1       7.459   2.607   2.326  1.00  0.00     0.183 A 
ATOM     14  H6  UNL     1       7.823   4.212   1.068  1.00  0.00     0.168 HD
HETATM   15  N7  UNL     1       6.755   1.488   2.573  1.00  0.00    -0.338 N 
ATOM     16  H7  UNL     1       6.941   0.953   3.421  1.00  0.00     0.168 HD
HETATM   17  N8  UNL     1       4.961   0.026   1.673  1.00  0.00    -0.341 N 
ATOM     18  H8  UNL     1       4.900  -0.699   2.388  1.00  0.00     0.167 HD
BRANCH  10  19
HETATM   19  N5  UNL     1       6.123   3.661  -0.706  1.00  0.00    -0.385 N 
ATOM     20  H52 UNL     1       5.412   3.365  -1.375  1.00  0.00     0.157 HD
ATOM     21  H51 UNL     1       6.663   4.508  -0.883  1.00  0.00     0.157 HD
ENDBRANCH  10  19
ENDBRANCH   5   7
BRANCH   4  22
HETATM   22  S1  UNL     1       2.342   0.200  -2.233  1.00  0.00    -0.122 SA
BRANCH  22  23
HETATM   23  C5  UNL     1       1.135   1.501  -1.859  1.00  0.00     0.139 C 
BRANCH  23  24
HETATM   24  C6  UNL     1      -0.254   0.970  -1.883  1.00  0.00     0.050 A 
HETATM   25  C7  UNL     1      -0.989   0.402  -0.878  1.00  0.00     0.134 A 
HETATM   26  N1  UNL     1      -2.203   0.063  -1.352  1.00  0.00    -0.285 N 
HETATM   27  N3  UNL     1      -2.211   0.420  -2.638  1.00  0.00    -0.021 NA
HETATM   28  N4  UNL     1      -1.046   0.966  -2.968  1.00  0.00    -0.286 N 
ATOM     29  H4  UNL     1      -0.795   1.322  -3.890  1.00  0.00     0.184 HD
BRANCH  26  30
HETATM   30  C8  UNL     1      -3.295  -0.560  -0.669  1.00  0.00     0.147 C 
BRANCH  30  31
HETATM   31  C9  UNL     1      -4.215   0.456  -0.031  1.00  0.00     0.052 C 
BRANCH  31  32
HETATM   32  C10 UNL     1      -5.352  -0.252   0.678  1.00  0.00     0.273 C 
BRANCH  32  33
HETATM   33  N2  UNL     1      -6.161  -1.050  -0.231  1.00  0.00     0.080 N 
HETATM   34  C11 UNL     1      -6.898  -0.136  -1.123  1.00  0.00     0.309 C 
HETATM   35  C12 UNL     1      -7.098  -1.792   0.598  1.00  0.00     0.309 C 
ENDBRANCH  32  33
ENDBRANCH  31  32
ENDBRANCH  30  31
ENDBRANCH  26  30
ENDBRANCH  23  24
ENDBRANCH  22  23
ENDBRANCH   4  22
TORSDOF 9
