REMARK  10 active torsions:
REMARK  status: ('A' for Active; 'I' for Inactive)
REMARK    1  A    between atoms: C2_2  and  C3_3 
REMARK    2  A    between atoms: C3_3  and  C4_4 
REMARK    3  A    between atoms: C3_3  and  C6_6 
REMARK    4  A    between atoms: C9_11  and  S1_12 
REMARK    5  A    between atoms: S1_12  and  C10_13 
REMARK    6  A    between atoms: C10_13  and  C11_14 
REMARK    7  A    between atoms: C11_14  and  N3_17 
REMARK    8  A    between atoms: N3_17  and  C13_19 
REMARK    9  A    between atoms: C14_22  and  C15_23 
REMARK   10  A    between atoms: C17_27  and  N6_28 
ROOT
HETATM    1  C11 UNL     1       1.043   0.624  -0.595  1.00  0.00     0.200 C 
HETATM    2  C12 UNL     1       0.276   1.662  -1.213  1.00  0.00     0.085 C 
HETATM    3  N2  UNL     1      -0.304   2.500  -1.737  1.00  0.00    -0.195 NA
ENDROOT
BRANCH   1   4
HETATM    4  C10 UNL     1       0.571   0.038   0.677  1.00  0.00     0.122 C 
BRANCH   4   5
HETATM    5  S1  UNL     1      -1.010  -0.737   0.599  1.00  0.00    -0.091 SA
BRANCH   5   6
HETATM    6  C9  UNL     1      -2.437   0.292   0.666  1.00  0.00     0.144 A 
HETATM    7  N1  UNL     1      -2.412   1.601   0.863  1.00  0.00    -0.347 N 
HETATM    8  C8  UNL     1      -3.477   2.412   0.917  1.00  0.00     0.092 A 
ATOM      9  H1  UNL     1      -1.496   2.033   0.985  1.00  0.00     0.167 HD
HETATM   10  C7  UNL     1      -4.719   1.820   0.751  1.00  0.00     0.042 A 
HETATM   11  C6  UNL     1      -4.789   0.451   0.541  1.00  0.00     0.016 A 
HETATM   12  N9  UNL     1      -3.679  -0.278   0.502  1.00  0.00    -0.340 N 
ATOM     13  H9  UNL     1      -3.749  -1.284   0.347  1.00  0.00     0.167 HD
BRANCH  11  14
HETATM   14  C3  UNL     1      -6.146  -0.156   0.365  1.00  0.00     0.035 C 
BRANCH  14  15
HETATM   15  C2  UNL     1      -6.346  -1.358   1.229  1.00  0.00     0.006 C 
HETATM   16  C1  UNL     1      -6.333  -1.060   2.696  1.00  0.00     0.006 C 
ENDBRANCH  14  15
BRANCH  14  17
HETATM   17  C4  UNL     1      -6.182  -0.632  -1.093  1.00  0.00     0.006 C 
HETATM   18  C5  UNL     1      -5.985   0.565  -2.000  1.00  0.00     0.006 C 
ENDBRANCH  14  17
ENDBRANCH  11  14
ENDBRANCH   5   6
ENDBRANCH   4   5
ENDBRANCH   1   4
BRANCH   1  19
HETATM   19  N3  UNL     1       2.440   1.098  -0.461  1.00  0.00    -0.351 N 
ATOM     20  H3  UNL     1       2.678   2.086  -0.371  1.00  0.00     0.163 HD
BRANCH  19  21
HETATM   21  C13 UNL     1       3.347   0.151  -0.467  1.00  0.00     0.163 A 
HETATM   22  N4  UNL     1       4.657   0.316  -0.362  1.00  0.00    -0.320 N 
HETATM   23  C14 UNL     1       5.433  -0.723  -0.386  1.00  0.00     0.142 A 
ATOM     24  H4  UNL     1       5.052   1.251  -0.263  1.00  0.00     0.169 HD
HETATM   25  N8  UNL     1       4.865  -1.926  -0.516  1.00  0.00    -0.308 N 
HETATM   26  S2  UNL     1       3.225  -1.546  -0.604  1.00  0.00     0.024 SA
ATOM     27  H8  UNL     1       5.311  -2.842  -0.553  1.00  0.00     0.176 HD
BRANCH  23  28
HETATM   28  C15 UNL     1       6.909  -0.597  -0.273  1.00  0.00     0.092 A 
HETATM   29  C16 UNL     1       7.528   0.625  -0.143  1.00  0.00     0.123 A 
HETATM   30  N5  UNL     1       8.876   0.719  -0.044  1.00  0.00    -0.349 N 
HETATM   31  C17 UNL     1       9.655  -0.371  -0.070  1.00  0.00     0.114 A 
ATOM     32  H5  UNL     1       9.307   1.639   0.052  1.00  0.00     0.167 HD
HETATM   33  C18 UNL     1       9.044  -1.597  -0.201  1.00  0.00     0.136 A 
HETATM   34  N7  UNL     1       7.707  -1.674  -0.297  1.00  0.00    -0.358 N 
ATOM     35  H7  UNL     1       7.279  -2.595  -0.393  1.00  0.00     0.165 HD
BRANCH  31  36
HETATM   36  N6  UNL     1      10.948  -0.260   0.025  1.00  0.00    -0.384 N 
ATOM     37  H62 UNL     1      11.401   0.649   0.122  1.00  0.00     0.157 HD
ATOM     38  H61 UNL     1      11.541  -1.090   0.005  1.00  0.00     0.157 HD
ENDBRANCH  31  36
ENDBRANCH  23  28
ENDBRANCH  19  21
ENDBRANCH   1  19
TORSDOF 10
