REMARK  11 active torsions:
REMARK  status: ('A' for Active; 'I' for Inactive)
REMARK    1  A    between atoms: C3_3  and  O1_5 
REMARK    2  A    between atoms: C3_3  and  C5_7 
REMARK    3  A    between atoms: C5_7  and  S1_8 
REMARK    4  A    between atoms: S1_8  and  C6_9 
REMARK    5  A    between atoms: N3_15  and  C8_16 
REMARK    6  A    between atoms: C9_18  and  C10_19 
REMARK    7  A    between atoms: C10_19  and  O2_20 
REMARK    8  A    between atoms: C10_19  and  N4_22 
REMARK    9  A    between atoms: N4_22  and  C11_24 
REMARK   10  A    between atoms: C11_24  and  C12_25 
REMARK   11  A    between atoms: C12_25  and  C13_26 
ROOT
HETATM    1  C1  UNL     1      -4.070   3.771   0.751  1.00  0.00     0.015 C 
HETATM    2  C2  UNL     1      -4.742   2.768   0.715  1.00  0.00    -0.079 C 
HETATM    3  C3  UNL     1      -5.574   1.545   0.694  1.00  0.00     0.125 C 
HETATM    4  C4  UNL     1      -6.149   1.372  -0.671  1.00  0.00     0.061 C 
ENDROOT
BRANCH   3   5
HETATM    5  O1  UNL     1      -6.703   1.803   1.539  1.00  0.00    -0.377 OA
ATOM      6  H1  UNL     1      -7.237   1.018   1.526  1.00  0.00     0.211 HD
ENDBRANCH   3   5
BRANCH   3   7
HETATM    7  C5  UNL     1      -4.868   0.393   1.303  1.00  0.00     0.133 C 
BRANCH   7   8
HETATM    8  S1  UNL     1      -3.321  -0.099   0.564  1.00  0.00    -0.088 SA
BRANCH   8   9
HETATM    9  C6  UNL     1      -3.506  -0.915  -0.989  1.00  0.00     0.167 A 
HETATM   10  N1  UNL     1      -4.580  -1.275  -1.711  1.00  0.00    -0.279 N 
HETATM   11  N2  UNL     1      -4.212  -1.875  -2.836  1.00  0.00    -0.294 N 
ATOM     12  H1  UNL     1      -5.547  -1.110  -1.432  1.00  0.00     0.189 HD
HETATM   13  C7  UNL     1      -2.864  -1.913  -2.857  1.00  0.00     0.208 A 
ATOM     14  H2  UNL     1      -4.836  -2.241  -3.555  1.00  0.00     0.187 HD
HETATM   15  N3  UNL     1      -2.442  -1.328  -1.731  1.00  0.00    -0.279 N 
BRANCH  15  16
HETATM   16  C8  UNL     1      -1.063  -1.143  -1.332  1.00  0.00     0.091 A 
HETATM   17  S2  UNL     1      -0.036   0.185  -1.596  1.00  0.00    -0.067 SA
HETATM   18  C9  UNL     1       1.404  -0.406  -0.805  1.00  0.00     0.064 A 
HETATM   19  C15 UNL     1       1.006  -1.618  -0.373  1.00  0.00    -0.028 A 
HETATM   20  C16 UNL     1      -0.266  -2.000  -0.644  1.00  0.00    -0.016 A 
HETATM   21  C20 UNL     1       1.772  -2.675   0.407  1.00  0.00     0.041 C 
HETATM   22  C17 UNL     1      -0.678  -3.372  -0.145  1.00  0.00     0.042 C 
HETATM   23  C18 UNL     1      -0.398  -3.489   1.347  1.00  0.00     0.005 C 
HETATM   24  C19 UNL     1       1.009  -3.051   1.667  1.00  0.00     0.005 C 
BRANCH  18  25
HETATM   25  C10 UNL     1       2.636   0.363  -0.729  1.00  0.00     0.153 C 
BRANCH  25  26
HETATM   26  O2  UNL     1       2.598   1.552  -1.289  1.00  0.00    -0.345 OA
ATOM     27  H2  UNL     1       3.403   2.054  -1.239  1.00  0.00     0.219 HD
ENDBRANCH  25  26
BRANCH  25  28
HETATM   28  N4  UNL     1       3.861   0.057  -0.162  1.00  0.00    -0.370 N 
ATOM     29  H4  UNL     1       3.986  -0.851   0.285  1.00  0.00     0.161 HD
BRANCH  28  30
HETATM   30  C11 UNL     1       4.967   0.986  -0.185  1.00  0.00     0.121 C 
BRANCH  30  31
HETATM   31  C12 UNL     1       4.696   2.241   0.562  1.00  0.00     0.019 C 
BRANCH  31  32
HETATM   32  C13 UNL     1       5.877   3.200   0.533  1.00  0.00    -0.003 C 
HETATM   33  C14 UNL     1       7.115   2.596   1.151  1.00  0.00     0.005 C 
ENDBRANCH  31  32
ENDBRANCH  30  31
ENDBRANCH  28  30
ENDBRANCH  25  28
ENDBRANCH  18  25
ENDBRANCH  15  16
ENDBRANCH   8   9
ENDBRANCH   7   8
ENDBRANCH   3   7
TORSDOF 11
