REMARK  11 active torsions:
REMARK  status: ('A' for Active; 'I' for Inactive)
REMARK    1  A    between atoms: C2_2  and  C3_3 
REMARK    2  A    between atoms: C4_4  and  C5_5 
REMARK    3  A    between atoms: C5_5  and  C6_6 
REMARK    4  A    between atoms: C6_6  and  C7_7 
REMARK    5  A    between atoms: C6_6  and  O5_26 
REMARK    6  A    between atoms: C7_7  and  S1_8 
REMARK    7  A    between atoms: S1_8  and  C8_9 
REMARK    8  A    between atoms: C15_18  and  O3_19 
REMARK    9  A    between atoms: C18_23  and  O4_24 
REMARK   10  A    between atoms: O5_26  and  C19_27 
REMARK       I    between atoms: C19_27  and  N1_29 
REMARK   11  A    between atoms: N1_29  and  C20_31 
ROOT
HETATM    1  C8  UNL     1       0.787  -0.519   0.211  1.00  0.00     0.169 C 
HETATM    2  C9  UNL     1      -0.088  -1.175  -0.791  1.00  0.00     0.065 C 
HETATM    3  O1  UNL     1       1.191   0.761  -0.174  1.00  0.00    -0.215 OA
HETATM    4  O2  UNL     1       2.363   0.648  -0.733  1.00  0.00    -0.225 OA
HETATM    5  C10 UNL     1       3.093  -0.270  -0.006  1.00  0.00     0.131 C 
HETATM    6  C11 UNL     1       3.676   0.316   1.259  1.00  0.00     0.045 C 
HETATM    7  C12 UNL     1       4.501   1.532   0.875  1.00  0.00     0.010 C 
HETATM    8  C13 UNL     1       5.654   1.044   0.035  1.00  0.00     0.011 C 
HETATM    9  C14 UNL     1       6.389   2.274  -0.476  1.00  0.00     0.012 C 
HETATM   10  C15 UNL     1       5.245   0.221  -1.146  1.00  0.00     0.128 C 
HETATM   11  C16 UNL     1       4.214  -0.839  -0.809  1.00  0.00     0.051 C 
HETATM   12  C17 UNL     1       4.943  -1.946  -0.088  1.00  0.00     0.016 C 
HETATM   13  C18 UNL     1       2.085  -1.307   0.360  1.00  0.00     0.204 C 
ENDROOT
BRANCH   1  14
HETATM   14  S1  UNL     1      -0.027  -0.333   1.807  1.00  0.00    -0.123 SA
BRANCH  14  15
HETATM   15  C7  UNL     1      -1.385   0.844   1.815  1.00  0.00     0.110 C 
BRANCH  15  16
HETATM   16  C6  UNL     1      -2.629   0.419   1.119  1.00  0.00     0.146 C 
BRANCH  16  17
HETATM   17  C5  UNL     1      -3.671   1.545   1.219  1.00  0.00     0.060 C 
BRANCH  17  18
HETATM   18  C4  UNL     1      -3.135   2.743   0.580  1.00  0.00    -0.028 C 
HETATM   19  C3  UNL     1      -3.687   3.325  -0.450  1.00  0.00    -0.031 C 
BRANCH  19  20
HETATM   20  C2  UNL     1      -4.911   2.935  -1.174  1.00  0.00     0.022 C 
HETATM   21  C1  UNL     1      -5.958   4.058  -1.119  1.00  0.00     0.009 C 
ENDBRANCH  19  20
ENDBRANCH  17  18
ENDBRANCH  16  17
BRANCH  16  22
HETATM   22  O5  UNL     1      -3.182  -0.769   1.634  1.00  0.00    -0.298 OA
BRANCH  22  23
HETATM   23  C19 UNL     1      -3.602  -1.871   0.972  1.00  0.00     0.360 C 
HETATM   24  O6  UNL     1      -3.533  -1.911  -0.260  1.00  0.00    -0.239 OA
HETATM   25  N1  UNL     1      -4.136  -3.024   1.633  1.00  0.00    -0.337 N 
ATOM     26  H1  UNL     1      -4.202  -3.012   2.651  1.00  0.00     0.164 HD
BRANCH  25  27
HETATM   27  C20 UNL     1      -4.581  -4.191   0.938  1.00  0.00     0.120 C 
HETATM   28  C21 UNL     1      -5.706  -3.930  -0.038  1.00  0.00     0.026 C 
ENDBRANCH  25  27
ENDBRANCH  22  23
ENDBRANCH  16  22
ENDBRANCH  15  16
ENDBRANCH  14  15
ENDBRANCH   1  14
BRANCH  13  29
HETATM   29  O4  UNL     1       2.152  -2.369  -0.528  1.00  0.00    -0.388 OA
ATOM     30  H4  UNL     1       2.960  -2.860  -0.435  1.00  0.00     0.210 HD
ENDBRANCH  13  29
BRANCH  10  31
HETATM   31  O3  UNL     1       6.389  -0.454  -1.610  1.00  0.00    -0.395 OA
ATOM     32  H3  UNL     1       6.129  -0.976  -2.360  1.00  0.00     0.210 HD
ENDBRANCH  10  31
TORSDOF 11
