REMARK  6 active torsions:
REMARK  status: ('A' for Active; 'I' for Inactive)
REMARK    1  A    between atoms: C2_2  and  C3_3 
REMARK    2  A    between atoms: C3_3  and  O1_4 
REMARK    3  A    between atoms: O1_4  and  C4_5 
REMARK    4  A    between atoms: N1_11  and  O2_13 
REMARK    5  A    between atoms: O2_13  and  C10_14 
REMARK    6  A    between atoms: C16_20  and  O3_21 
ROOT
HETATM    1  C4  UNL     1      -2.282  -0.659  -0.520  1.00  0.00     0.220 C 
HETATM    2  C5  UNL     1      -1.667  -0.739   0.820  1.00  0.00     0.041 C 
HETATM    3  C6  UNL     1      -0.487  -1.296   0.996  1.00  0.00    -0.015 C 
HETATM    4  C7  UNL     1       0.348  -1.890  -0.072  1.00  0.00     0.069 C 
HETATM    5  C8  UNL     1       1.805  -1.530   0.076  1.00  0.00     0.071 C 
HETATM    6  C9  UNL     1       1.987  -0.146  -0.350  1.00  0.00     0.044 C 
HETATM    7  N1  UNL     1       3.020   0.531   0.006  1.00  0.00    -0.266 N 
ATOM      8  H1  UNL     1       3.106   1.495  -0.316  1.00  0.00     0.194 HD
HETATM    9  C13 UNL     1       0.988   0.557  -1.218  1.00  0.00     0.195 C 
HETATM   10  C14 UNL     1       0.255   1.584  -0.458  1.00  0.00     0.009 C 
HETATM   11  C15 UNL     1      -1.184   1.608  -0.356  1.00  0.00     0.009 C 
HETATM   12  C16 UNL     1      -2.085   0.730  -1.123  1.00  0.00     0.208 C 
HETATM   13  O4  UNL     1       0.255  -0.335  -1.932  1.00  0.00    -0.346 OA
HETATM   14  C17 UNL     1      -0.229  -1.448  -1.384  1.00  0.00     0.273 C 
HETATM   15  O5  UNL     1      -1.575  -1.512  -1.407  1.00  0.00    -0.318 OA
ENDROOT
BRANCH   7  16
HETATM   16  O2  UNL     1       4.014   0.012   0.802  1.00  0.00    -0.244 OA
BRANCH  16  17
HETATM   17  C10 UNL     1       5.315   0.485   0.683  1.00  0.00     0.063 C 
HETATM   18  C11 UNL     1       6.304  -0.380   0.640  1.00  0.00     0.048 C 
HETATM   19  C12 UNL     1       5.612   1.938   0.603  1.00  0.00     0.078 C 
ENDBRANCH  16  17
ENDBRANCH   7  16
BRANCH  12  20
HETATM   20  O3  UNL     1      -3.352   1.353  -1.043  1.00  0.00    -0.386 OA
ATOM     21  H3  UNL     1      -3.229   2.217  -1.418  1.00  0.00     0.210 HD
ENDBRANCH  12  20
BRANCH   1  22
HETATM   22  O1  UNL     1      -3.511  -1.177  -0.632  1.00  0.00    -0.319 OA
BRANCH  22  23
HETATM   23  C3  UNL     1      -4.645  -0.877  -0.093  1.00  0.00     0.138 C 
BRANCH  23  24
HETATM   24  C2  UNL     1      -4.851  -0.876   1.372  1.00  0.00     0.014 C 
HETATM   25  C1  UNL     1      -5.223   0.211   2.044  1.00  0.00     0.013 C 
ENDBRANCH  23  24
ENDBRANCH  22  23
ENDBRANCH   1  22
TORSDOF 6
