REMARK  5 active torsions:
REMARK  status: ('A' for Active; 'I' for Inactive)
REMARK    1  A    between atoms: C2_2  and  N1_3 
REMARK    2  A    between atoms: C6_7  and  C7_8 
REMARK    3  A    between atoms: C8_13  and  N4_14 
REMARK    4  A    between atoms: C13_23  and  O2_24 
REMARK    5  A    between atoms: O2_24  and  C14_25 
ROOT
HETATM    1  C14 UNL     1       0.604  -2.879  -1.016  1.00  0.00     0.299 C 
HETATM    2  C15 UNL     1       0.684  -4.103  -0.159  1.00  0.00     0.085 C 
HETATM    3  N6  UNL     1       0.754  -5.042   0.526  1.00  0.00    -0.195 NA
ENDROOT
BRANCH   1   4
HETATM    4  O2  UNL     1       0.639  -1.787  -0.299  1.00  0.00    -0.331 OA
BRANCH   4   5
HETATM    5  C13 UNL     1       0.668  -0.661   0.329  1.00  0.00     0.143 A 
HETATM    6  C7  UNL     1      -0.453   0.042   0.793  1.00  0.00     0.089 A 
HETATM    7  N2  UNL     1       0.024   1.127   1.389  1.00  0.00    -0.296 N 
HETATM    8  N3  UNL     1       1.339   1.173   1.342  1.00  0.00    -0.283 N 
ATOM      9  H2  UNL     1      -0.558   1.839   1.830  1.00  0.00     0.187 HD
HETATM   10  C8  UNL     1       1.821   0.100   0.703  1.00  0.00     0.158 A 
ATOM     11  H3  UNL     1       1.910   1.921   1.737  1.00  0.00     0.188 HD
BRANCH   6  12
HETATM   12  C6  UNL     1      -1.865  -0.242   0.554  1.00  0.00    -0.030 C 
HETATM   13  C5  UNL     1      -2.690  -0.875   1.599  1.00  0.00     0.043 C 
HETATM   14  C4  UNL     1      -3.844  -1.578   0.853  1.00  0.00     0.049 C 
HETATM   15  C3  UNL     1      -4.596  -0.636  -0.038  1.00  0.00     0.063 C 
HETATM   16  N1  UNL     1      -3.703  -0.025  -0.942  1.00  0.00    -0.370 N 
HETATM   17  C16 UNL     1      -2.312  -0.448  -0.855  1.00  0.00     0.163 C 
BRANCH  16  18
HETATM   18  C2  UNL     1      -3.968   1.261  -1.421  1.00  0.00     0.059 C 
HETATM   19  C1  UNL     1      -3.910   2.413  -0.443  1.00  0.00     0.055 C 
ENDBRANCH  16  18
ENDBRANCH   6  12
BRANCH  10  20
HETATM   20  N4  UNL     1       3.073  -0.374   0.431  1.00  0.00    -0.324 N 
HETATM   21  C9  UNL     1       4.211   0.098   0.275  1.00  0.00     0.129 A 
HETATM   22  C10 UNL     1       4.666   1.398   0.326  1.00  0.00     0.084 A 
HETATM   23  N5  UNL     1       5.337  -0.660   0.007  1.00  0.00    -0.245 N 
HETATM   24  C11 UNL     1       6.023   1.354   0.090  1.00  0.00     0.076 A 
HETATM   25  C12 UNL     1       6.998   2.483   0.044  1.00  0.00     0.079 C 
HETATM   26  O1  UNL     1       6.344   0.115  -0.088  1.00  0.00    -0.241 OA
ATOM     27  H5  UNL     1       5.358  -1.674  -0.098  1.00  0.00     0.196 HD
ATOM     28  H4  UNL     1       3.073  -1.389   0.328  1.00  0.00     0.169 HD
ENDBRANCH  10  20
ENDBRANCH   4   5
ENDBRANCH   1   4
TORSDOF 5
