REMARK  6 active torsions:
REMARK  status: ('A' for Active; 'I' for Inactive)
REMARK    1  A    between atoms: C2_2  and  C4_4 
REMARK    2  A    between atoms: C4_4  and  C5_5 
REMARK    3  A    between atoms: C5_5  and  N1_6 
REMARK    4  A    between atoms: N3_13  and  C10_14 
REMARK    5  A    between atoms: C10_14  and  C11_15 
REMARK    6  A    between atoms: C11_15  and  O1_16 
ROOT
HETATM    1  N1  UNL     1      -0.154  -0.333   0.533  1.00  0.00    -0.345 N 
HETATM    2  C6  UNL     1       0.216  -1.634   0.333  1.00  0.00     0.022 A 
HETATM    3  C7  UNL     1       1.575  -1.678   0.208  1.00  0.00    -0.005 A 
HETATM    4  C8  UNL     1       2.041  -0.377   0.335  1.00  0.00     0.071 A 
HETATM    5  N2  UNL     1       3.265   0.178   0.300  1.00  0.00    -0.350 N 
ATOM      6  H2  UNL     1       4.064  -0.438   0.150  1.00  0.00     0.166 HD
HETATM    7  C9  UNL     1       3.505   1.491   0.450  1.00  0.00     0.184 A 
HETATM    8  N3  UNL     1       2.430   2.271   0.645  1.00  0.00    -0.330 N 
HETATM    9  C12 UNL     1       1.170   1.787   0.692  1.00  0.00     0.133 A 
HETATM   10  S1  UNL     1      -0.047   2.836   0.941  1.00  0.00    -0.058 SA
HETATM   11  C13 UNL     1       0.938   0.433   0.536  1.00  0.00     0.101 A 
HETATM   12  C14 UNL     1       2.522  -2.763  -0.016  1.00  0.00     0.070 C 
HETATM   13  C15 UNL     1       1.953  -4.117  -0.223  1.00  0.00     0.237 C 
HETATM   14  N4  UNL     1       0.963  -4.337   0.803  1.00  0.00    -0.074 N 
ATOM     15  H41 UNL     1       1.135  -3.793   1.648  1.00  0.00     0.277 HD
ATOM     16  H42 UNL     1       1.026  -5.262   1.228  1.00  0.00     0.277 HD
HETATM   17  C16 UNL     1      -0.311  -4.075   0.220  1.00  0.00     0.238 C 
HETATM   18  C17 UNL     1      -0.795  -2.681   0.294  1.00  0.00     0.085 C 
ENDROOT
BRANCH   1  19
HETATM   19  C5  UNL     1      -1.506   0.165   0.708  1.00  0.00     0.129 C 
BRANCH  19  20
HETATM   20  C4  UNL     1      -2.185   0.557  -0.574  1.00  0.00     0.024 C 
BRANCH  20  21
HETATM   21  C2  UNL     1      -3.575   1.062  -0.185  1.00  0.00    -0.021 C 
HETATM   22  C1  UNL     1      -4.264  -0.097   0.508  1.00  0.00     0.009 C 
HETATM   23  C3  UNL     1      -4.340   1.529  -1.402  1.00  0.00     0.009 C 
ENDBRANCH  20  21
ENDBRANCH  19  20
ENDBRANCH   1  19
BRANCH   8  24
HETATM   24  C10 UNL     1       2.641   3.708   0.814  1.00  0.00     0.156 C 
BRANCH  24  25
HETATM   25  C11 UNL     1       2.586   4.372  -0.560  1.00  0.00     0.184 C 
BRANCH  25  26
HETATM   26  O1  UNL     1       3.566   3.852  -1.368  1.00  0.00    -0.399 OA
ATOM     27  H1  UNL     1       3.532   4.265  -2.223  1.00  0.00     0.209 HD
ENDBRANCH  25  26
ENDBRANCH  24  25
ENDBRANCH   8  24
TORSDOF 6
