REMARK  12 active torsions:
REMARK  status: ('A' for Active; 'I' for Inactive)
REMARK    1  A    between atoms: C3_3  and  O1_4 
REMARK    2  A    between atoms: C3_3  and  C4_6 
REMARK    3  A    between atoms: C3_3  and  C22_28 
REMARK    4  A    between atoms: C5_7  and  C6_8 
REMARK       I    between atoms: C6_8  and  N1_10 
REMARK    5  A    between atoms: C12_16  and  C13_17 
REMARK    6  A    between atoms: C13_17  and  O3_18 
REMARK    7  A    between atoms: O3_18  and  C14_19 
REMARK    8  A    between atoms: C24_30  and  C25_31 
REMARK    9  A    between atoms: C25_31  and  C27_33 
REMARK   10  A    between atoms: C27_33  and  O5_34 
REMARK   11  A    between atoms: C27_33  and  C28_36 
REMARK   12  A    between atoms: C28_36  and  O6_38 
ROOT
HETATM    1  C1  UNL     1      -6.301   4.198   0.416  1.00  0.00     0.016 C 
HETATM    2  C2  UNL     1      -5.511   3.404   0.857  1.00  0.00    -0.065 C 
HETATM    3  C3  UNL     1      -4.540   2.464   1.398  1.00  0.00     0.189 C 
ENDROOT
BRANCH   3   4
HETATM    4  O1  UNL     1      -4.061   2.900   2.634  1.00  0.00    -0.367 OA
ATOM      5  H1  UNL     1      -3.427   2.287   2.987  1.00  0.00     0.212 HD
ENDBRANCH   3   4
BRANCH   3   6
HETATM    6  C4  UNL     1      -3.437   2.397   0.407  1.00  0.00    -0.044 C 
HETATM    7  C5  UNL     1      -2.540   2.362  -0.401  1.00  0.00    -0.001 C 
BRANCH   7   8
HETATM    8  C6  UNL     1      -1.463   2.341  -1.352  1.00  0.00     0.298 C 
HETATM    9  O2  UNL     1      -1.660   2.971  -2.441  1.00  0.00    -0.258 OA
HETATM   10  N1  UNL     1      -0.260   1.669  -1.107  1.00  0.00    -0.341 N 
HETATM   11  C7  UNL     1      -0.089   0.975   0.133  1.00  0.00     0.129 C 
HETATM   12  C21 UNL     1       0.781   1.680  -2.090  1.00  0.00     0.129 C 
HETATM   13  C8  UNL     1       0.827  -0.217   0.023  1.00  0.00     0.058 C 
HETATM   14  C9  UNL     1       2.110   0.066  -0.674  1.00  0.00     0.064 C 
HETATM   15  C10 UNL     1       2.568  -1.093  -1.540  1.00  0.00     0.041 C 
HETATM   16  O4  UNL     1       3.128   0.184   0.272  1.00  0.00    -0.373 OA
HETATM   17  C20 UNL     1       2.127   1.304  -1.505  1.00  0.00     0.058 C 
HETATM   18  C11 UNL     1       4.064  -0.848  -1.595  1.00  0.00     0.037 C 
HETATM   19  C12 UNL     1       4.299   0.122  -0.476  1.00  0.00     0.146 C 
BRANCH  19  20
HETATM   20  C13 UNL     1       5.405  -0.307   0.456  1.00  0.00     0.200 C 
BRANCH  20  21
HETATM   21  O3  UNL     1       6.596  -0.386  -0.236  1.00  0.00    -0.383 OA
BRANCH  21  22
HETATM   22  C14 UNL     1       7.629  -0.781   0.611  1.00  0.00     0.121 C 
HETATM   23  C15 UNL     1       8.240  -2.039   0.080  1.00  0.00     0.032 C 
HETATM   24  C16 UNL     1       9.732  -1.921  -0.144  1.00  0.00     0.002 C 
HETATM   25  C17 UNL     1      10.396  -1.456   1.124  1.00  0.00     0.000 C 
HETATM   26  C18 UNL     1       9.786  -0.174   1.621  1.00  0.00     0.002 C 
HETATM   27  C19 UNL     1       8.682   0.320   0.714  1.00  0.00     0.032 C 
ENDBRANCH  21  22
ENDBRANCH  20  21
ENDBRANCH  19  20
ENDBRANCH   7   8
ENDBRANCH   3   6
BRANCH   3  28
HETATM   28  C22 UNL     1      -5.070   1.055   1.522  1.00  0.00     0.051 A 
HETATM   29  C23 UNL     1      -6.264   0.788   2.384  1.00  0.00     0.015 A 
HETATM   30  C24 UNL     1      -6.356   0.737   0.896  1.00  0.00     0.001 A 
BRANCH  30  31
HETATM   31  C25 UNL     1      -6.597  -0.545   0.149  1.00  0.00     0.017 C 
HETATM   32  C26 UNL     1      -6.411  -1.772   0.955  1.00  0.00     0.013 C 
BRANCH  31  33
HETATM   33  C27 UNL     1      -7.964  -0.464  -0.473  1.00  0.00     0.150 C 
BRANCH  33  34
HETATM   34  O5  UNL     1      -8.995  -0.304   0.438  1.00  0.00    -0.393 OA
ATOM     35  H5  UNL     1      -9.858  -0.253   0.045  1.00  0.00     0.210 HD
ENDBRANCH  33  34
BRANCH  33  36
HETATM   36  C28 UNL     1      -8.232  -1.508  -1.526  1.00  0.00     0.143 C 
HETATM   37  C29 UNL     1      -8.612  -2.856  -0.956  1.00  0.00     0.042 C 
BRANCH  36  38
HETATM   38  O6  UNL     1      -9.379  -1.095  -2.256  1.00  0.00    -0.393 OA
ATOM     39  H6  UNL     1      -9.548  -1.753  -2.920  1.00  0.00     0.210 HD
ENDBRANCH  36  38
ENDBRANCH  33  36
ENDBRANCH  31  33
ENDBRANCH  30  31
ENDBRANCH   3  28
TORSDOF 12
