REMARK  9 active torsions:
REMARK  status: ('A' for Active; 'I' for Inactive)
REMARK    1  A    between atoms: C2_2  and  C3_3 
REMARK    2  A    between atoms: C3_3  and  C4_4 
REMARK    3  A    between atoms: C8_11  and  C9_12 
REMARK    4  A    between atoms: C9_12  and  C10_13 
REMARK    5  A    between atoms: C10_13  and  C11_14 
REMARK    6  A    between atoms: C11_14  and  N2_15 
REMARK       I    between atoms: N2_15  and  C12_17 
REMARK       I    between atoms: C12_17  and  N4_24 
REMARK    7  A    between atoms: N3_18  and  C13_20 
REMARK    8  A    between atoms: C13_20  and  S2_22 
REMARK       I    between atoms: N4_24  and  C15_26 
REMARK    9  A    between atoms: C15_26  and  C16_28 
ROOT
HETATM    1  C4  UNL     1      -4.291  -0.014  -1.300  1.00  0.00     0.112 C 
HETATM    2  C5  UNL     1      -2.910   0.111  -0.584  1.00  0.00     0.122 C 
HETATM    3  C6  UNL     1      -3.149   0.419   0.848  1.00  0.00     0.130 C 
HETATM    4  C7  UNL     1      -2.325  -0.386   1.786  1.00  0.00     0.221 C 
HETATM    5  O1  UNL     1      -2.918  -1.396   2.313  1.00  0.00    -0.273 OA
HETATM    6  N1  UNL     1      -1.005  -0.164   2.147  1.00  0.00    -0.340 N 
ATOM      7  H1  UNL     1      -0.791  -0.126   3.144  1.00  0.00     0.164 HD
HETATM    8  C8  UNL     1       0.129   0.024   1.192  1.00  0.00     0.188 C 
HETATM    9  N5  UNL     1       0.349   1.445   1.217  1.00  0.00    -0.322 N 
ATOM     10  H5  UNL     1       0.864   1.803   2.021  1.00  0.00     0.166 HD
HETATM   11  C17 UNL     1      -0.059   2.404   0.268  1.00  0.00     0.319 C 
HETATM   12  O3  UNL     1      -0.249   3.578   0.788  1.00  0.00    -0.247 OA
HETATM   13  N6  UNL     1      -0.280   2.277  -1.104  1.00  0.00    -0.327 N 
ATOM     14  H6  UNL     1       0.260   2.919  -1.684  1.00  0.00     0.165 HD
HETATM   15  C18 UNL     1      -1.137   1.396  -1.829  1.00  0.00     0.256 C 
HETATM   16  N7  UNL     1      -2.460   1.307  -1.316  1.00  0.00    -0.311 N 
HETATM   17  C19 UNL     1      -3.612   2.141  -1.319  1.00  0.00     0.322 C 
HETATM   18  O4  UNL     1      -3.662   3.369  -1.580  1.00  0.00    -0.247 OA
HETATM   19  N8  UNL     1      -4.753   1.306  -0.959  1.00  0.00    -0.332 N 
HETATM   20  C20 UNL     1      -5.988   1.717  -0.403  1.00  0.00     0.155 C 
ENDROOT
BRANCH   8  21
HETATM   21  C9  UNL     1       1.207  -0.834   1.737  1.00  0.00     0.048 C 
BRANCH  21  22
HETATM   22  C10 UNL     1       2.505  -0.954   1.077  1.00  0.00     0.024 C 
BRANCH  22  23
HETATM   23  C11 UNL     1       3.262   0.333   0.978  1.00  0.00     0.138 C 
BRANCH  23  24
HETATM   24  N2  UNL     1       4.572   0.142   0.356  1.00  0.00    -0.226 N 
HETATM   25  C12 UNL     1       5.639  -0.585   0.907  1.00  0.00     0.682 C 
HETATM   26  N3  UNL     1       6.163  -0.288   2.022  1.00  0.00    -0.175 N 
HETATM   27  N4  UNL     1       6.200  -1.726   0.208  1.00  0.00    -0.159 N 
ATOM     28  H3  UNL     1       6.929  -0.896   2.311  1.00  0.00     0.185 HD
HETATM   29  C15 UNL     1       5.713  -2.145  -1.041  1.00  0.00     0.245 C 
ATOM     30  H4  UNL     1       6.971  -2.239   0.636  1.00  0.00     0.187 HD
HETATM   31  O2  UNL     1       4.776  -1.587  -1.656  1.00  0.00    -0.272 OA
ATOM     32  H2  UNL     1       4.723   0.574  -0.556  1.00  0.00     0.177 HD
BRANCH  26  33
HETATM   33  C13 UNL     1       5.858   0.738   2.916  1.00  0.00     0.153 C 
HETATM   34  S1  UNL     1       5.284   0.421   4.431  1.00  0.00    -0.052 SA
BRANCH  33  35
HETATM   35  S2  UNL     1       6.095   2.460   2.473  1.00  0.00    -0.104 SA
HETATM   36  C14 UNL     1       6.791   2.531   0.806  1.00  0.00     0.098 C 
ENDBRANCH  33  35
ENDBRANCH  26  33
BRANCH  29  37
HETATM   37  C16 UNL     1       6.332  -3.326  -1.703  1.00  0.00     0.188 C 
HETATM   38 BR1  UNL     1       5.526  -3.698  -3.401  1.00  0.00    -0.087 Br
ENDBRANCH  29  37
ENDBRANCH  23  24
ENDBRANCH  22  23
ENDBRANCH  21  22
ENDBRANCH   8  21
BRANCH   1  39
HETATM   39  C3  UNL     1      -5.050  -1.168  -0.798  1.00  0.00     0.027 C 
BRANCH  39  40
HETATM   40  C2  UNL     1      -6.368  -1.347  -1.506  1.00  0.00    -0.002 C 
HETATM   41  C1  UNL     1      -7.124  -2.555  -0.947  1.00  0.00     0.005 C 
ENDBRANCH  39  40
ENDBRANCH   1  39
TORSDOF 9
