REMARK  9 active torsions:
REMARK  status: ('A' for Active; 'I' for Inactive)
REMARK    1  A    between atoms: C2_2  and  C3_3 
REMARK    2  A    between atoms: C17_27  and  C18_28 
REMARK    3  A    between atoms: C18_28  and  C19_29 
REMARK    4  A    between atoms: C19_29  and  C20_30 
REMARK    5  A    between atoms: C20_30  and  C21_31 
REMARK    6  A    between atoms: C21_31  and  N4_32 
REMARK    7  A    between atoms: C23_38  and  O4_39 
REMARK    8  A    between atoms: C24_41  and  C25_42 
REMARK    9  A    between atoms: C25_42  and  C26_43 
ROOT
HETATM    1  C3  UNL     1      -3.455  -1.445   0.147  1.00  0.00     0.176 C 
HETATM    2  N1  UNL     1      -4.329  -0.655   1.008  1.00  0.00    -0.340 N 
ATOM      3  H1  UNL     1      -3.877  -0.264   1.835  1.00  0.00     0.163 HD
HETATM    4  C4  UNL     1      -5.675  -0.351   0.882  1.00  0.00     0.310 C 
HETATM    5  O1  UNL     1      -6.436  -0.666   1.886  1.00  0.00    -0.262 OA
HETATM    6  C5  UNL     1      -6.393   0.278  -0.212  1.00  0.00     0.309 C 
HETATM    7  O2  UNL     1      -7.439  -0.359  -0.621  1.00  0.00    -0.262 OA
HETATM    8  N2  UNL     1      -6.115   1.470  -0.882  1.00  0.00    -0.352 N 
ATOM      9  H2  UNL     1      -6.118   1.448  -1.902  1.00  0.00     0.162 HD
HETATM   10  C6  UNL     1      -5.822   2.737  -0.243  1.00  0.00     0.135 C 
HETATM   11  C7  UNL     1      -5.133   3.692  -1.203  1.00  0.00     0.114 C 
HETATM   12  C8  UNL     1      -3.766   3.874  -0.930  1.00  0.00    -0.100 C 
HETATM   13  C9  UNL     1      -2.698   3.990  -0.694  1.00  0.00    -0.067 C 
HETATM   14  C10 UNL     1      -1.314   4.100  -0.365  1.00  0.00     0.021 A 
HETATM   15  C11 UNL     1      -0.712   5.136  -1.076  1.00  0.00     0.044 A 
HETATM   16  C12 UNL     1       0.618   5.431  -0.939  1.00  0.00     0.037 A 
HETATM   17 CL1  UNL     1       1.395   6.725  -1.819  1.00  0.00    -0.084 Cl
HETATM   18  C13 UNL     1       1.299   4.631  -0.054  1.00  0.00     0.053 A 
HETATM   19  C14 UNL     1       0.711   3.570   0.683  1.00  0.00     0.037 A 
HETATM   20  C15 UNL     1      -0.614   3.297   0.530  1.00  0.00     0.050 A 
HETATM   21  N3  UNL     1       1.708   2.936   1.514  1.00  0.00    -0.325 N 
ATOM     22  H3  UNL     1       2.330   3.600   1.975  1.00  0.00     0.169 HD
HETATM   23  C16 UNL     1       1.997   1.608   1.817  1.00  0.00     0.245 C 
HETATM   24  O3  UNL     1       2.062   1.284   3.057  1.00  0.00    -0.271 OA
HETATM   25  C17 UNL     1       2.244   0.497   0.809  1.00  0.00     0.178 C 
HETATM   26  N5  UNL     1       2.017  -0.757   1.473  1.00  0.00    -0.355 N 
HETATM   27  C22 UNL     1       3.114  -1.226   2.347  1.00  0.00     0.152 C 
HETATM   28  C23 UNL     1       0.887  -1.598   1.447  1.00  0.00     0.137 C 
HETATM   29  C24 UNL     1      -0.120  -1.802   0.392  1.00  0.00     0.159 C 
HETATM   30  N6  UNL     1      -1.005  -0.666   0.206  1.00  0.00    -0.347 N 
ATOM     31  H6  UNL     1      -0.643   0.240   0.505  1.00  0.00     0.163 HD
HETATM   32  C29 UNL     1      -2.306  -0.667  -0.339  1.00  0.00     0.241 C 
HETATM   33  O5  UNL     1      -2.552   0.075  -1.360  1.00  0.00    -0.271 OA
ENDROOT
BRANCH  25  34
HETATM   34  C18 UNL     1       3.682   0.696   0.343  1.00  0.00     0.035 C 
BRANCH  34  35
HETATM   35  C19 UNL     1       4.179  -0.253  -0.654  1.00  0.00     0.004 C 
BRANCH  35  36
HETATM   36  C20 UNL     1       5.589   0.055  -1.069  1.00  0.00     0.027 C 
BRANCH  36  37
HETATM   37  C21 UNL     1       6.520  -0.025   0.101  1.00  0.00     0.229 C 
BRANCH  37  38
HETATM   38  N4  UNL     1       7.896   0.258  -0.355  1.00  0.00    -0.079 N 
ATOM     39  H43 UNL     1       8.183  -0.351  -1.121  1.00  0.00     0.274 HD
ATOM     40  H42 UNL     1       7.966   1.149  -0.846  1.00  0.00     0.274 HD
ATOM     41  H41 UNL     1       8.530   0.204   0.442  1.00  0.00     0.274 HD
ENDBRANCH  37  38
ENDBRANCH  36  37
ENDBRANCH  35  36
ENDBRANCH  34  35
ENDBRANCH  25  34
BRANCH  28  42
HETATM   42  O4  UNL     1       0.674  -2.319   2.514  1.00  0.00    -0.348 OA
ATOM     43  H4  UNL     1      -0.088  -2.886   2.496  1.00  0.00     0.219 HD
ENDBRANCH  28  42
BRANCH  29  44
HETATM   44  C25 UNL     1       0.354  -2.273  -0.928  1.00  0.00     0.037 C 
BRANCH  44  45
HETATM   45  C26 UNL     1       1.011  -3.581  -1.044  1.00  0.00    -0.020 C 
HETATM   46  C27 UNL     1       0.065  -4.700  -0.567  1.00  0.00     0.009 C 
HETATM   47  C28 UNL     1       2.327  -3.821  -0.437  1.00  0.00     0.009 C 
ENDBRANCH  44  45
ENDBRANCH  29  44
BRANCH   1  48
HETATM   48  C2  UNL     1      -4.263  -2.075  -0.928  1.00  0.00     0.030 C 
HETATM   49  C1  UNL     1      -3.505  -2.934  -1.890  1.00  0.00     0.007 C 
ENDBRANCH   1  48
TORSDOF 9
