REMARK  7 active torsions:
REMARK  status: ('A' for Active; 'I' for Inactive)
REMARK    1  A    between atoms: C2_2  and  C3_3 
REMARK    2  A    between atoms: C3_3  and  C5_5 
REMARK    3  A    between atoms: C7_10  and  C8_11 
REMARK    4  A    between atoms: C12_17  and  C13_18 
REMARK    5  A    between atoms: C13_18  and  C14_19 
REMARK    6  A    between atoms: C18_27  and  C19_28 
REMARK    7  A    between atoms: C19_28  and  C20_29 
ROOT
HETATM    1  C5  UNL     1      -1.591  -2.735   0.095  1.00  0.00     0.084 C 
HETATM    2  N1  UNL     1      -2.402  -1.832  -0.662  1.00  0.00    -0.323 N 
ATOM      3  H1  UNL     1      -3.234  -2.278  -1.048  1.00  0.00     0.169 HD
HETATM    4  C6  UNL     1      -2.312  -0.487  -0.990  1.00  0.00     0.252 C 
HETATM    5  O1  UNL     1      -2.064  -0.153  -2.213  1.00  0.00    -0.270 OA
HETATM    6  C7  UNL     1      -2.457   0.736  -0.150  1.00  0.00     0.227 C 
HETATM    7  O2  UNL     1      -1.377   1.537  -0.324  1.00  0.00    -0.304 OA
HETATM    8  C11 UNL     1      -0.894   2.642  -0.828  1.00  0.00     0.282 C 
HETATM    9  O3  UNL     1      -0.695   2.846  -2.058  1.00  0.00    -0.263 OA
HETATM   10  C12 UNL     1      -0.515   3.809   0.022  1.00  0.00     0.185 C 
HETATM   11  N2  UNL     1       0.720   4.386  -0.529  1.00  0.00    -0.347 N 
ATOM     12  H2  UNL     1       0.736   5.397  -0.664  1.00  0.00     0.163 HD
HETATM   13  C15 UNL     1       1.871   3.685  -0.885  1.00  0.00     0.218 C 
HETATM   14  O4  UNL     1       2.710   4.237  -1.681  1.00  0.00    -0.274 OA
HETATM   15  C16 UNL     1       2.291   2.330  -0.459  1.00  0.00     0.105 C 
HETATM   16  C17 UNL     1       3.172   1.645  -1.478  1.00  0.00     0.034 C 
HETATM   17  C18 UNL     1       3.154   0.128  -1.290  1.00  0.00     0.085 C 
HETATM   18  N3  UNL     1       1.853  -0.417  -1.566  1.00  0.00    -0.355 N 
ATOM     19  H3  UNL     1       1.094   0.265  -1.558  1.00  0.00     0.162 HD
HETATM   20  C23 UNL     1       1.456  -1.733  -1.844  1.00  0.00     0.240 C 
HETATM   21  O5  UNL     1       0.914  -1.938  -2.992  1.00  0.00    -0.271 OA
HETATM   22  C24 UNL     1       1.573  -2.931  -0.986  1.00  0.00     0.172 C 
HETATM   23  C25 UNL     1       1.052  -4.177  -1.672  1.00  0.00     0.042 C 
HETATM   24  N4  UNL     1       0.983  -2.746   0.325  1.00  0.00    -0.343 N 
ATOM     25  H4  UNL     1       1.570  -2.983   1.125  1.00  0.00     0.163 HD
HETATM   26  C26 UNL     1      -0.316  -2.273   0.616  1.00  0.00     0.265 C 
HETATM   27  O6  UNL     1      -0.364  -1.301   1.460  1.00  0.00    -0.266 OA
ENDROOT
BRANCH   1  28
HETATM   28  C3  UNL     1      -2.393  -3.564   1.049  1.00  0.00     0.037 C 
HETATM   29  C4  UNL     1      -3.291  -4.541   0.326  1.00  0.00     0.016 C 
BRANCH  28  30
HETATM   30  C2  UNL     1      -3.190  -2.912   2.099  1.00  0.00     0.006 C 
HETATM   31  C1  UNL     1      -4.397  -2.148   1.677  1.00  0.00     0.006 C 
ENDBRANCH  28  30
ENDBRANCH   1  28
BRANCH   6  32
HETATM   32  C8  UNL     1      -3.824   1.374  -0.448  1.00  0.00     0.016 C 
HETATM   33  C9  UNL     1      -4.077   2.615   0.334  1.00  0.00     0.012 C 
HETATM   34  C10 UNL     1      -4.119   1.507  -1.898  1.00  0.00     0.012 C 
ENDBRANCH   6  32
BRANCH  10  35
HETATM   35  C13 UNL     1      -0.374   3.461   1.473  1.00  0.00     0.046 C 
BRANCH  35  36
HETATM   36  C14 UNL     1       0.021   4.695   2.300  1.00  0.00     0.088 C 
HETATM   37 BR1  UNL     1       0.209   4.271   4.155  1.00  0.00    -0.096 Br
ENDBRANCH  35  36
ENDBRANCH  10  35
BRANCH  17  38
HETATM   38  C19 UNL     1       3.563  -0.230   0.112  1.00  0.00     0.029 C 
BRANCH  38  39
HETATM   39  C20 UNL     1       4.961   0.265   0.436  1.00  0.00    -0.021 C 
HETATM   40  C21 UNL     1       5.267  -0.146   1.860  1.00  0.00     0.009 C 
HETATM   41  C22 UNL     1       6.002  -0.381  -0.453  1.00  0.00     0.009 C 
ENDBRANCH  38  39
ENDBRANCH  17  38
TORSDOF 7
