REMARK  10 active torsions:
REMARK  status: ('A' for Active; 'I' for Inactive)
REMARK    1  A    between atoms: C1_2  and  C2_4 
REMARK    2  A    between atoms: C8_10  and  O2_11 
REMARK    3  A    between atoms: O2_11  and  C9_12 
REMARK       I    between atoms: C9_12  and  N2_14 
REMARK    4  A    between atoms: N2_14  and  C10_16 
REMARK    5  A    between atoms: C10_16  and  C11_17 
REMARK    6  A    between atoms: C11_17  and  C12_18 
REMARK    7  A    between atoms: C12_18  and  C13_19 
REMARK       I    between atoms: C13_19  and  N3_21 
REMARK    8  A    between atoms: C16_24  and  N4_25 
REMARK    9  A    between atoms: C19_28  and  O5_29 
REMARK   10  A    between atoms: C20_31  and  O6_32 
ROOT
HETATM    1  C11 UNL     1      -0.076  -1.438  -3.155  1.00  0.00     0.029 C 
ENDROOT
BRANCH   1   2
HETATM    2  C10 UNL     1      -0.778  -2.653  -2.601  1.00  0.00     0.125 C 
BRANCH   2   3
HETATM    3  N2  UNL     1      -1.591  -2.248  -1.488  1.00  0.00    -0.337 N 
HETATM    4  C9  UNL     1      -2.654  -1.344  -1.653  1.00  0.00     0.360 C 
HETATM    5  O3  UNL     1      -2.991  -0.827  -2.744  1.00  0.00    -0.239 OA
ATOM      6  H2  UNL     1      -1.393  -2.624  -0.561  1.00  0.00     0.164 HD
BRANCH   4   7
HETATM    7  O2  UNL     1      -3.452  -0.936  -0.568  1.00  0.00    -0.298 OA
BRANCH   7   8
HETATM    8  C8  UNL     1      -4.523  -0.028  -0.715  1.00  0.00     0.142 C 
HETATM    9  C6  UNL     1      -4.404   1.155   0.208  1.00  0.00     0.017 C 
HETATM   10  C5  UNL     1      -4.292   0.653   1.625  1.00  0.00     0.012 C 
HETATM   11  C7  UNL     1      -5.644   1.997   0.061  1.00  0.00     0.026 C 
HETATM   12  C4  UNL     1      -5.564  -0.059   2.012  1.00  0.00    -0.013 C 
HETATM   13  C3  UNL     1      -6.780   0.794   1.859  1.00  0.00     0.023 C 
HETATM   14  C25 UNL     1      -5.714  -1.261   1.113  1.00  0.00     0.012 C 
HETATM   15  C2  UNL     1      -6.893   1.265   0.424  1.00  0.00     0.040 C 
HETATM   16  C26 UNL     1      -7.016   0.061  -0.485  1.00  0.00     0.026 C 
HETATM   17  C24 UNL     1      -5.785  -0.786  -0.328  1.00  0.00     0.017 C 
BRANCH  15  18
HETATM   18  C1  UNL     1      -8.066   2.114   0.209  1.00  0.00     0.239 C 
HETATM   19  N1  UNL     1      -9.405   1.689   0.437  1.00  0.00    -0.061 NA
HETATM   20  O1  UNL     1      -7.900   3.293  -0.201  1.00  0.00    -0.276 OA
ENDBRANCH  15  18
ENDBRANCH   7   8
ENDBRANCH   4   7
ENDBRANCH   2   3
ENDBRANCH   1   2
BRANCH   1  21
HETATM   21  C12 UNL     1       0.763  -0.830  -2.072  1.00  0.00     0.104 C 
BRANCH  21  22
HETATM   22  C13 UNL     1       1.829  -1.723  -1.588  1.00  0.00     0.219 C 
HETATM   23  O4  UNL     1       2.154  -2.786  -2.167  1.00  0.00    -0.273 OA
HETATM   24  N3  UNL     1       2.547  -1.375  -0.397  1.00  0.00    -0.352 N 
HETATM   25  C14 UNL     1       3.596  -2.245   0.082  1.00  0.00     0.127 C 
HETATM   26  C23 UNL     1       2.247  -0.173   0.335  1.00  0.00     0.127 C 
HETATM   27  C15 UNL     1       4.649  -1.385   0.784  1.00  0.00     0.045 C 
HETATM   28  C16 UNL     1       4.708  -0.086   0.017  1.00  0.00     0.082 C 
HETATM   29  C22 UNL     1       3.485   0.730   0.377  1.00  0.00     0.045 C 
BRANCH  28  30
HETATM   30  N4  UNL     1       5.878   0.680   0.188  1.00  0.00    -0.405 N 
HETATM   31  C17 UNL     1       7.099   0.098  -0.231  1.00  0.00     0.120 C 
HETATM   32  C18 UNL     1       8.084  -0.136   0.889  1.00  0.00     0.053 C 
HETATM   33  C19 UNL     1       8.313   1.059   1.752  1.00  0.00     0.150 C 
HETATM   34  C20 UNL     1       7.302   2.141   1.536  1.00  0.00     0.164 C 
HETATM   35  C21 UNL     1       5.933   1.533   1.319  1.00  0.00     0.151 C 
BRANCH  33  36
HETATM   36  O5  UNL     1       9.599   1.605   1.539  1.00  0.00    -0.393 OA
ATOM     37  H5  UNL     1       9.745   2.366   2.089  1.00  0.00     0.210 HD
ENDBRANCH  33  36
BRANCH  34  38
HETATM   38  O6  UNL     1       7.632   2.961   0.458  1.00  0.00    -0.391 OA
ATOM     39  H6  UNL     1       6.990   3.648   0.321  1.00  0.00     0.210 HD
ENDBRANCH  34  38
ENDBRANCH  28  30
ENDBRANCH  21  22
ENDBRANCH   1  21
TORSDOF 10
