REMARK  10 active torsions:
REMARK  status: ('A' for Active; 'I' for Inactive)
REMARK    1  A    between atoms: C2_2  and  N1_3 
REMARK    2  A    between atoms: C2_2  and  C3_7 
REMARK       I    between atoms: C3_7  and  N2_9 
REMARK    3  A    between atoms: N2_9  and  C4_11 
REMARK    4  A    between atoms: C7_14  and  S1_15 
REMARK    5  A    between atoms: S1_15  and  C8_16 
REMARK    6  A    between atoms: C20_31  and  C21_32 
REMARK    7  A    between atoms: C21_32  and  C22_33 
REMARK    8  A    between atoms: C22_33  and  N4_34 
REMARK    9  A    between atoms: N4_34  and  N5_36 
REMARK   10  A    between atoms: N5_36  and  N6_37 
ROOT
HETATM    1  C4  UNL     1       1.407   1.408   1.235  1.00  0.00     0.104 C 
HETATM    2  C5  UNL     1      -0.079   1.330   0.843  1.00  0.00     0.021 C 
HETATM    3  C6  UNL     1      -0.641   2.687   0.573  1.00  0.00     0.013 C 
HETATM    4  C7  UNL     1       0.050   0.494  -0.446  1.00  0.00     0.077 C 
HETATM    5  C18 UNL     1       1.183  -0.437  -0.271  1.00  0.00     0.113 C 
HETATM    6  N3  UNL     1       0.923  -1.825  -0.211  1.00  0.00    -0.353 N 
ATOM      7  H3  UNL     1       0.039  -2.134  -0.614  1.00  0.00     0.163 HD
HETATM    8  C19 UNL     1       1.742  -2.834   0.341  1.00  0.00     0.240 C 
HETATM    9  O2  UNL     1       1.260  -4.012   0.194  1.00  0.00    -0.271 OA
HETATM   10  C20 UNL     1       3.033  -2.896   1.058  1.00  0.00     0.178 C 
HETATM   11  N7  UNL     1       3.756  -1.632   1.051  1.00  0.00    -0.347 N 
ATOM     12  H7  UNL     1       4.773  -1.697   1.087  1.00  0.00     0.163 HD
HETATM   13  C23 UNL     1       3.211  -0.307   1.000  1.00  0.00     0.226 C 
HETATM   14  O3  UNL     1       4.085   0.578   0.889  1.00  0.00    -0.273 OA
HETATM   15  C24 UNL     1       1.785  -0.009   1.070  1.00  0.00     0.125 C 
ENDROOT
BRANCH   4  16
HETATM   16  S1  UNL     1      -1.419   0.027  -1.198  1.00  0.00    -0.156 SA
BRANCH  16  17
HETATM   17  C8  UNL     1      -2.632  -1.017  -0.585  1.00  0.00     0.056 C 
HETATM   18  C9  UNL     1      -3.412  -0.589   0.629  1.00  0.00     0.000 C 
HETATM   19  C10 UNL     1      -4.271   0.609   0.425  1.00  0.00     0.010 C 
HETATM   20  C14 UNL     1      -4.339  -1.742   0.974  1.00  0.00     0.010 C 
HETATM   21  C11 UNL     1      -5.224   0.421  -0.729  1.00  0.00    -0.013 C 
HETATM   22  C12 UNL     1      -6.175  -0.687  -0.365  1.00  0.00     0.009 C 
HETATM   23  C17 UNL     1      -4.396   0.104  -1.950  1.00  0.00     0.010 C 
HETATM   24  C13 UNL     1      -5.379  -1.937  -0.103  1.00  0.00    -0.013 C 
HETATM   25  C15 UNL     1      -4.641  -2.290  -1.368  1.00  0.00     0.010 C 
HETATM   26  C16 UNL     1      -3.695  -1.194  -1.696  1.00  0.00     0.000 C 
ENDBRANCH  16  17
ENDBRANCH   4  16
BRANCH   1  27
HETATM   27  N2  UNL     1       2.110   2.362   0.450  1.00  0.00    -0.353 N 
HETATM   28  C3  UNL     1       2.745   3.490   1.038  1.00  0.00     0.248 C 
HETATM   29  O1  UNL     1       2.690   3.655   2.281  1.00  0.00    -0.271 OA
ATOM     30  H2  UNL     1       2.160   2.234  -0.561  1.00  0.00     0.163 HD
BRANCH  28  31
HETATM   31  C2  UNL     1       3.476   4.487   0.233  1.00  0.00     0.270 C 
HETATM   32  C1  UNL     1       2.522   5.084  -0.778  1.00  0.00     0.050 C 
BRANCH  31  33
HETATM   33  N1  UNL     1       4.026   5.522   1.052  1.00  0.00    -0.067 N 
ATOM     34  H13 UNL     1       4.466   6.256   0.497  1.00  0.00     0.275 HD
ATOM     35  H12 UNL     1       3.301   6.086   1.496  1.00  0.00     0.275 HD
ATOM     36  H11 UNL     1       4.669   5.119   1.734  1.00  0.00     0.275 HD
ENDBRANCH  31  33
ENDBRANCH  28  31
ENDBRANCH   1  27
BRANCH  10  37
HETATM   37  C21 UNL     1       3.898  -4.022   0.627  1.00  0.00     0.057 C 
BRANCH  37  38
HETATM   38  C22 UNL     1       4.293  -4.039  -0.811  1.00  0.00     0.158 C 
BRANCH  38  39
HETATM   39  N4  UNL     1       5.038  -2.860  -1.186  1.00  0.00    -0.253 N 
ATOM     40  H4  UNL     1       4.546  -1.986  -1.373  1.00  0.00     0.196 HD
BRANCH  39  41
HETATM   41  N5  UNL     1       6.259  -2.905  -1.281  1.00  0.00    -0.249 NA
BRANCH  41  42
HETATM   42  N6  UNL     1       7.484  -2.836  -1.501  1.00  0.00    -0.261 N 
ATOM     43  H62 UNL     1       7.238  -2.153  -2.218  1.00  0.00     0.193 HD
ATOM     44  H61 UNL     1       8.500  -2.873  -1.580  1.00  0.00     0.193 HD
ENDBRANCH  41  42
ENDBRANCH  39  41
ENDBRANCH  38  39
ENDBRANCH  37  38
ENDBRANCH  10  37
TORSDOF 10
