REMARK  8 active torsions:
REMARK  status: ('A' for Active; 'I' for Inactive)
REMARK    1  A    between atoms: C2_2  and  N1_3 
REMARK       I    between atoms: N1_3  and  C3_5 
REMARK       I    between atoms: C3_5  and  N2_7 
REMARK    2  A    between atoms: N3_10  and  S1_11 
REMARK    3  A    between atoms: S1_11  and  C6_14 
REMARK    4  A    between atoms: C6_14  and  C7_15 
REMARK    5  A    between atoms: C12_20  and  O4_21 
REMARK    6  A    between atoms: C14_27  and  C15_28 
REMARK    7  A    between atoms: C18_31  and  O5_32 
REMARK    8  A    between atoms: C18_31  and  C19_34 
ROOT
HETATM    1  C7  UNL     1      -1.092  -0.608   0.871  1.00  0.00     0.015 C 
HETATM    2  C8  UNL     1      -1.263   0.859   0.434  1.00  0.00     0.020 C 
HETATM    3  C9  UNL     1      -2.315   1.023   1.395  1.00  0.00    -0.004 C 
HETATM    4  C10 UNL     1      -3.720   0.949   1.287  1.00  0.00     0.014 C 
HETATM    5  C11 UNL     1      -4.521   0.475   0.175  1.00  0.00     0.048 C 
HETATM    6  C12 UNL     1      -4.441  -1.015  -0.108  1.00  0.00     0.158 C 
HETATM    7  C13 UNL     1      -3.117  -1.047  -0.742  1.00  0.00     0.250 C 
HETATM    8  N4  UNL     1      -3.169   0.120  -1.605  1.00  0.00    -0.060 N 
ATOM      9  H41 UNL     1      -3.222  -0.129  -2.593  1.00  0.00     0.278 HD
ATOM     10  H42 UNL     1      -2.282   0.623  -1.632  1.00  0.00     0.278 HD
HETATM   11  C14 UNL     1      -4.248   0.948  -1.198  1.00  0.00     0.196 C 
HETATM   12  C18 UNL     1      -1.906  -1.414  -0.071  1.00  0.00     0.097 C 
HETATM   13  C21 UNL     1      -1.603  -0.165   2.132  1.00  0.00    -0.033 C 
HETATM   14  C22 UNL     1      -2.511  -0.952   3.011  1.00  0.00     0.016 C 
HETATM   15  C23 UNL     1      -0.744   0.558   3.169  1.00  0.00     0.016 C 
ENDROOT
BRANCH   1  16
HETATM   16  C6  UNL     1       0.313  -1.091   0.735  1.00  0.00     0.171 C 
BRANCH  16  17
HETATM   17  S1  UNL     1       1.703  -0.448   1.500  1.00  0.00     0.212 S 
HETATM   18  O2  UNL     1       1.937  -0.726   2.943  1.00  0.00    -0.211 OA
HETATM   19  O3  UNL     1       2.062   0.898   1.026  1.00  0.00    -0.211 OA
BRANCH  17  20
HETATM   20  N3  UNL     1       3.061  -1.450   0.825  1.00  0.00    -0.207 NA
HETATM   21  C5  UNL     1       3.098  -1.248  -0.585  1.00  0.00     0.127 C 
HETATM   22  C4  UNL     1       4.524  -1.453  -1.058  1.00  0.00     0.143 C 
HETATM   23  N2  UNL     1       5.379  -0.442  -0.472  1.00  0.00    -0.332 N 
HETATM   24  C3  UNL     1       6.538   0.042  -1.163  1.00  0.00     0.318 C 
HETATM   25  C25 UNL     1       5.019   0.067   0.835  1.00  0.00     0.143 C 
HETATM   26  N1  UNL     1       7.367   1.026  -0.580  1.00  0.00    -0.343 N 
HETATM   27  O1  UNL     1       6.788  -0.438  -2.302  1.00  0.00    -0.247 OA
ATOM     28  H1  UNL     1       7.135   1.392   0.343  1.00  0.00     0.164 HD
HETATM   29  C24 UNL     1       4.218  -0.991   1.550  1.00  0.00     0.127 C 
BRANCH  26  30
HETATM   30  C2  UNL     1       8.540   1.525  -1.267  1.00  0.00     0.120 C 
HETATM   31  C1  UNL     1       8.212   2.171  -2.579  1.00  0.00     0.026 C 
ENDBRANCH  26  30
ENDBRANCH  17  20
ENDBRANCH  16  17
ENDBRANCH   1  16
BRANCH  12  32
HETATM   32  O5  UNL     1      -1.018  -1.504  -1.214  1.00  0.00    -0.387 OA
ATOM     33  H5  UNL     1      -1.539  -2.020  -1.817  1.00  0.00     0.210 HD
ENDBRANCH  12  32
BRANCH  12  34
HETATM   34  C19 UNL     1      -1.982  -2.855   0.358  1.00  0.00     0.036 C 
HETATM   35  C20 UNL     1      -2.809  -3.735  -0.608  1.00  0.00     0.008 C 
ENDBRANCH  12  34
BRANCH   6  36
HETATM   36  O4  UNL     1      -5.465  -1.242  -1.063  1.00  0.00    -0.393 OA
ATOM     37  H4  UNL     1      -5.415  -2.174  -1.240  1.00  0.00     0.210 HD
ENDBRANCH   6  36
BRANCH  11  38
HETATM   38  C15 UNL     1      -4.139   2.392  -1.428  1.00  0.00     0.008 C 
HETATM   39  C16 UNL     1      -5.430   3.101  -1.048  1.00  0.00     0.011 C 
HETATM   40  C17 UNL     1      -3.807   2.770  -2.851  1.00  0.00     0.011 C 
ENDBRANCH  11  38
TORSDOF 8
