REMARK  9 active torsions:
REMARK  status: ('A' for Active; 'I' for Inactive)
REMARK    1  A    between atoms: C2_2  and  C3_3 
REMARK    2  A    between atoms: C3_3  and  C4_4 
REMARK    3  A    between atoms: C4_4  and  N1_5 
REMARK       I    between atoms: N1_5  and  C5_7 
REMARK    4  A    between atoms: C5_7  and  C6_9 
REMARK    5  A    between atoms: C12_15  and  O2_16 
REMARK    6  A    between atoms: C13_18  and  O3_19 
REMARK    7  A    between atoms: C21_29  and  N2_30 
REMARK    8  A    between atoms: N2_30  and  S1_32 
REMARK    9  A    between atoms: S1_32  and  C22_35 
ROOT
HETATM    1  C6  UNL     1      -2.225  -0.259  -0.985  1.00  0.00     0.117 C 
HETATM    2  C7  UNL     1      -2.065  -1.535  -0.222  1.00  0.00     0.009 C 
HETATM    3  C8  UNL     1      -1.595  -1.639   1.112  1.00  0.00     0.007 C 
HETATM    4  C9  UNL     1      -0.710  -0.723   1.807  1.00  0.00     0.013 C 
HETATM    5  C10 UNL     1       0.583  -0.359   0.994  1.00  0.00    -0.007 C 
HETATM    6  C11 UNL     1       1.061   0.796   1.939  1.00  0.00     0.018 C 
HETATM    7  C12 UNL     1       1.480  -1.465   1.078  1.00  0.00     0.156 C 
HETATM    8  C13 UNL     1       2.339  -2.070   0.112  1.00  0.00     0.151 C 
HETATM    9  C14 UNL     1       2.297  -2.068  -1.348  1.00  0.00     0.019 C 
HETATM   10  C15 UNL     1       1.114  -2.615  -2.068  1.00  0.00     0.008 C 
HETATM   11  C16 UNL     1      -0.123  -2.844  -1.274  1.00  0.00     0.009 C 
HETATM   12  C17 UNL     1      -1.028  -1.734  -1.344  1.00  0.00     0.026 C 
HETATM   13  C18 UNL     1      -0.751  -0.334  -1.154  1.00  0.00     0.085 A 
HETATM   14  O4  UNL     1      -0.090   0.327  -2.117  1.00  0.00    -0.372 OA
HETATM   15  C19 UNL     1       0.644   1.084  -1.165  1.00  0.00     0.132 A 
HETATM   16  C20 UNL     1       2.037   1.315  -1.339  1.00  0.00     0.058 C 
HETATM   17  C21 UNL     1       3.121   0.341  -1.272  1.00  0.00     0.095 C 
HETATM   18  C24 UNL     1       2.794  -0.854  -2.085  1.00  0.00     0.033 C 
HETATM   19  C25 UNL     1      -0.016   0.315  -0.129  1.00  0.00     0.061 A 
ENDROOT
BRANCH   1  20
HETATM   20  C5  UNL     1      -2.953   0.843  -0.472  1.00  0.00     0.225 C 
HETATM   21  N1  UNL     1      -4.193   0.647   0.210  1.00  0.00    -0.361 N 
ATOM     22  H1  UNL     1      -4.550  -0.301   0.328  1.00  0.00     0.162 HD
HETATM   23  O1  UNL     1      -2.567   2.025  -0.586  1.00  0.00    -0.273 OA
BRANCH  21  24
HETATM   24  C4  UNL     1      -4.962   1.768   0.742  1.00  0.00     0.122 C 
BRANCH  24  25
HETATM   25  C3  UNL     1      -6.209   1.287   1.401  1.00  0.00     0.019 C 
BRANCH  25  26
HETATM   26  C2  UNL     1      -7.060   0.551   0.395  1.00  0.00    -0.003 C 
HETATM   27  C1  UNL     1      -7.438   1.450  -0.756  1.00  0.00     0.005 C 
ENDBRANCH  25  26
ENDBRANCH  24  25
ENDBRANCH  21  24
ENDBRANCH   1  20
BRANCH   7  28
HETATM   28  O2  UNL     1       2.331  -1.206   2.232  1.00  0.00    -0.392 OA
ATOM     29  H2  UNL     1       2.928  -1.943   2.288  1.00  0.00     0.210 HD
ENDBRANCH   7  28
BRANCH  17  30
HETATM   30  N2  UNL     1       4.312   0.970  -1.821  1.00  0.00    -0.315 N 
ATOM     31  H2  UNL     1       4.371   1.264  -2.796  1.00  0.00     0.172 HD
BRANCH  30  32
HETATM   32  S1  UNL     1       5.589   1.182  -0.740  1.00  0.00     0.226 S 
HETATM   33  O5  UNL     1       6.789   1.851  -1.376  1.00  0.00    -0.206 OA
HETATM   34  O6  UNL     1       6.070  -0.105  -0.128  1.00  0.00    -0.206 OA
BRANCH  32  35
HETATM   35  C22 UNL     1       5.078   2.249   0.585  1.00  0.00     0.158 C 
HETATM   36  C23 UNL     1       6.244   2.444   1.567  1.00  0.00     0.023 C 
ENDBRANCH  32  35
ENDBRANCH  30  32
ENDBRANCH  17  30
BRANCH   8  37
HETATM   37  O3  UNL     1       2.484  -3.464   0.470  1.00  0.00    -0.393 OA
ATOM     38  H3  UNL     1       3.056  -3.867  -0.173  1.00  0.00     0.210 HD
ENDBRANCH   8  37
TORSDOF 9
