REMARK  5 active torsions:
REMARK  status: ('A' for Active; 'I' for Inactive)
REMARK    1  A    between atoms: C2_2  and  C3_3 
REMARK    2  A    between atoms: C3_3  and  N1_4 
REMARK    3  A    between atoms: N1_4  and  N2_6 
REMARK    4  A    between atoms: C5_8  and  C6_9 
REMARK    5  A    between atoms: C6_9  and  N3_10 
ROOT
HETATM    1  N2  UNL     1       0.746  -0.349  -0.070  1.00  0.00    -0.249 N 
HETATM    2  C4  UNL     1       0.045  -1.502   0.163  1.00  0.00     0.127 A 
HETATM    3  C5  UNL     1      -1.312  -1.547   0.352  1.00  0.00    -0.013 A 
HETATM    4  C7  UNL     1      -2.011  -0.379   0.307  1.00  0.00     0.044 A 
HETATM    5  C8  UNL     1      -1.364   0.808   0.077  1.00  0.00     0.082 A 
HETATM    6  C9  UNL     1       0.022   0.781  -0.108  1.00  0.00     0.154 A 
HETATM    7  N4  UNL     1       0.347   2.060  -0.304  1.00  0.00    -0.335 N 
ATOM      8  H4  UNL     1       1.294   2.400  -0.473  1.00  0.00     0.168 HD
HETATM    9  C10 UNL     1      -0.769   2.853  -0.247  1.00  0.00     0.184 A 
HETATM   10  N5  UNL     1      -1.821   2.075  -0.012  1.00  0.00    -0.344 N 
HETATM   11  C11 UNL     1      -3.190   2.481   0.124  1.00  0.00     0.157 C 
ENDROOT
BRANCH   1  12
HETATM   12  N1  UNL     1       2.106  -0.422  -0.243  1.00  0.00    -0.304 N 
ATOM     13  H1  UNL     1       2.479  -1.368  -0.169  1.00  0.00     0.186 HD
BRANCH  12  14
HETATM   14  C3  UNL     1       3.085   0.555  -0.503  1.00  0.00     0.107 C 
BRANCH  14  15
HETATM   15  C2  UNL     1       4.485   0.112  -0.593  1.00  0.00     0.008 C 
HETATM   16  C1  UNL     1       4.914  -1.100  -0.454  1.00  0.00     0.013 C 
ENDBRANCH  14  15
ENDBRANCH  12  14
ENDBRANCH   1  12
BRANCH   3  17
HETATM   17  C6  UNL     1      -2.039  -2.810   0.603  1.00  0.00     0.269 C 
BRANCH  17  18
HETATM   18  N3  UNL     1      -3.440  -2.577   0.764  1.00  0.00    -0.075 N 
ATOM     19  H33 UNL     1      -3.624  -1.887   1.493  1.00  0.00     0.274 HD
ATOM     20  H32 UNL     1      -3.830  -2.072  -0.032  1.00  0.00     0.274 HD
ATOM     21  H31 UNL     1      -3.941  -3.448   0.937  1.00  0.00     0.274 HD
ENDBRANCH  17  18
ENDBRANCH   3  17
TORSDOF 5
