REMARK  7 active torsions:
REMARK  status: ('A' for Active; 'I' for Inactive)
REMARK    1  A    between atoms: N1_1  and  N2_4 
REMARK    2  A    between atoms: N2_4  and  C1_5 
REMARK    3  A    between atoms: C4_8  and  C5_9 
REMARK    4  A    between atoms: C8_16  and  C9_17 
REMARK    5  A    between atoms: C9_17  and  C10_18 
REMARK    6  A    between atoms: C10_18  and  C11_19 
REMARK    7  A    between atoms: C11_19  and  N5_20 
ROOT
HETATM    1  C1  UNL     1       0.026  -1.072  -0.808  1.00  0.00     0.137 C 
HETATM    2  C2  UNL     1       1.327  -1.529  -0.938  1.00  0.00     0.048 C 
HETATM    3  C3  UNL     1       2.341  -1.356  -0.001  1.00  0.00     0.018 C 
HETATM    4  C4  UNL     1       2.435  -0.469   1.057  1.00  0.00     0.005 C 
HETATM    5  C6  UNL     1       1.581   0.593   1.262  1.00  0.00     0.015 C 
HETATM    6  C7  UNL     1       0.223   0.646   0.939  1.00  0.00     0.011 C 
HETATM    7  C8  UNL     1      -0.500  -0.072  -0.009  1.00  0.00    -0.015 C 
ENDROOT
BRANCH   7   8
HETATM    8  C9  UNL     1      -1.937   0.283  -0.155  1.00  0.00     0.044 C 
BRANCH   8   9
HETATM    9  C10 UNL     1      -2.171   1.127  -1.384  1.00  0.00     0.032 C 
BRANCH   9  10
HETATM   10  C11 UNL     1      -3.652   1.434  -1.446  1.00  0.00     0.230 C 
BRANCH  10  11
HETATM   11  N5  UNL     1      -4.037   2.148  -0.253  1.00  0.00    -0.079 N 
ATOM     12  H53 UNL     1      -3.780   1.648   0.598  1.00  0.00     0.274 HD
ATOM     13  H52 UNL     1      -3.474   2.985  -0.103  1.00  0.00     0.274 HD
ATOM     14  H51 UNL     1      -5.035   2.355  -0.295  1.00  0.00     0.274 HD
ENDBRANCH  10  11
ENDBRANCH   9  10
ENDBRANCH   8   9
ENDBRANCH   7   8
BRANCH   1  15
HETATM   15  N2  UNL     1      -0.815  -1.664  -1.534  1.00  0.00    -0.333 NA
BRANCH  15  16
HETATM   16  N1  UNL     1      -1.682  -2.423  -1.969  1.00  0.00    -0.280 N 
ATOM     17  H12 UNL     1      -1.766  -2.934  -1.090  1.00  0.00     0.191 HD
ATOM     18  H11 UNL     1      -2.363  -2.903  -2.557  1.00  0.00     0.191 HD
ENDBRANCH  15  16
ENDBRANCH   1  15
BRANCH   4  19
HETATM   19  C5  UNL     1       3.510  -0.696   1.994  1.00  0.00     0.120 C 
HETATM   20  N3  UNL     1       3.731   0.021   3.021  1.00  0.00    -0.387 N 
ATOM     21  H32 UNL     1       3.097   0.804   3.181  1.00  0.00     0.157 HD
ATOM     22  H31 UNL     1       4.490  -0.139   3.683  1.00  0.00     0.157 HD
HETATM   23  N4  UNL     1       4.395  -1.790   1.770  1.00  0.00    -0.082 NA
ENDBRANCH   4  19
TORSDOF 7
