REMARK  5 active torsions:
REMARK  status: ('A' for Active; 'I' for Inactive)
REMARK    1  A    between atoms: C8_13  and  C9_14 
REMARK    2  A    between atoms: C9_14  and  C10_15 
REMARK    3  A    between atoms: C10_15  and  C11_16 
REMARK    4  A    between atoms: C11_16  and  C12_17 
REMARK    5  A    between atoms: C12_17  and  O1_18 
ROOT
HETATM    1  N1  UNL     1      -0.358  -1.096  -3.162  1.00  0.00    -0.385 N 
ATOM      2  H11 UNL     1       0.645  -1.275  -3.198  1.00  0.00     0.157 HD
ATOM      3  H12 UNL     1      -0.724  -1.297  -4.093  1.00  0.00     0.157 HD
HETATM    4  C1  UNL     1      -1.086  -0.695  -2.171  1.00  0.00     0.106 A 
HETATM    5  N2  UNL     1      -2.464  -0.449  -2.121  1.00  0.00    -0.342 N 
ATOM      6  H2  UNL     1      -3.129  -0.553  -2.887  1.00  0.00     0.167 HD
HETATM    7  C2  UNL     1      -2.732  -0.061  -0.902  1.00  0.00     0.044 A 
HETATM    8  C3  UNL     1      -3.944   0.292  -0.368  1.00  0.00     0.030 A 
HETATM    9  C4  UNL     1      -4.085   0.683   0.939  1.00  0.00     0.002 A 
HETATM   10  C5  UNL     1      -2.969   0.720   1.740  1.00  0.00     0.001 A 
HETATM   11  C6  UNL     1      -1.733   0.359   1.191  1.00  0.00     0.014 A 
HETATM   12  C7  UNL     1      -1.598  -0.033  -0.123  1.00  0.00     0.001 A 
HETATM   13  C8  UNL     1      -0.549  -0.401  -0.807  1.00  0.00    -0.002 A 
ENDROOT
BRANCH  13  14
HETATM   14  C9  UNL     1       0.873  -0.558  -0.508  1.00  0.00     0.043 C 
BRANCH  14  15
HETATM   15  C10 UNL     1       1.390  -0.246   0.827  1.00  0.00     0.007 C 
BRANCH  15  16
HETATM   16  C11 UNL     1       2.906  -0.529   0.861  1.00  0.00     0.026 C 
BRANCH  16  17
HETATM   17  C12 UNL     1       3.683   0.284  -0.114  1.00  0.00     0.164 C 
BRANCH  17  18
HETATM   18  O1  UNL     1       3.493   1.649   0.146  1.00  0.00    -0.401 OA
ATOM     19  H1  UNL     1       3.989   2.168  -0.476  1.00  0.00     0.209 HD
ENDBRANCH  17  18
ENDBRANCH  16  17
ENDBRANCH  15  16
ENDBRANCH  14  15
ENDBRANCH  13  14
TORSDOF 5
