REMARK  4 active torsions:
REMARK  status: ('A' for Active; 'I' for Inactive)
REMARK    1  A    between atoms: N1_1  and  C1_4 
REMARK    2  A    between atoms: N3_10  and  C4_11 
REMARK    3  A    between atoms: C4_11  and  C5_12 
REMARK    4  A    between atoms: C5_12  and  C6_13 
ROOT
HETATM    1  C1  UNL     1       2.152  -0.349   1.243  1.00  0.00     0.693 A 
HETATM    2  N2  UNL     1       3.021   0.677   1.200  1.00  0.00    -0.154 N 
ATOM      3  H2  UNL     1       3.617   0.895   1.998  1.00  0.00     0.187 HD
HETATM    4  C2  UNL     1       3.079   1.402   0.079  1.00  0.00     0.276 A 
HETATM    5  O1  UNL     1       3.887   2.358   0.034  1.00  0.00    -0.266 OA
HETATM    6  C3  UNL     1       2.251   1.067  -0.971  1.00  0.00     0.185 A 
HETATM    7  N3  UNL     1       1.382   0.043  -0.931  1.00  0.00    -0.283 N 
HETATM    8  N4  UNL     1       1.347  -0.658   0.194  1.00  0.00    -0.130 N 
ATOM      9  H4  UNL     1       0.703  -1.445   0.273  1.00  0.00     0.206 HD
ENDROOT
BRANCH   7  10
HETATM   10  C4  UNL     1       0.503  -0.360  -1.966  1.00  0.00     0.153 C 
BRANCH  10  11
HETATM   11  C5  UNL     1      -0.850   0.263  -1.978  1.00  0.00     0.060 C 
BRANCH  11  12
HETATM   12  C6  UNL     1      -1.629  -0.004  -0.741  1.00  0.00    -0.057 A 
HETATM   13  C7  UNL     1      -1.541   0.860   0.332  1.00  0.00     0.007 A 
HETATM   14  C8  UNL     1      -2.254   0.635   1.493  1.00  0.00     0.001 A 
HETATM   15  C9  UNL     1      -3.081  -0.468   1.616  1.00  0.00     0.000 A 
HETATM   16  C10 UNL     1      -3.177  -1.333   0.561  1.00  0.00     0.001 A 
HETATM   17  C11 UNL     1      -2.460  -1.095  -0.591  1.00  0.00     0.007 A 
ENDBRANCH  11  12
ENDBRANCH  10  11
ENDBRANCH   7  10
BRANCH   1  18
HETATM   18  N1  UNL     1       2.086  -1.062   2.327  1.00  0.00    -0.233 N 
ATOM     19  H12 UNL     1       2.691  -0.830   3.115  1.00  0.00     0.174 HD
ATOM     20  H11 UNL     1       1.427  -1.840   2.360  1.00  0.00     0.174 HD
ENDBRANCH   1  18
TORSDOF 4
