REMARK  6 active torsions:
REMARK  status: ('A' for Active; 'I' for Inactive)
REMARK    1  A    between atoms: C2_2  and  C3_3 
REMARK    2  A    between atoms: C3_3  and  N1_4 
REMARK    3  A    between atoms: N1_4  and  C4_6 
REMARK    4  A    between atoms: C4_6  and  N2_8 
REMARK       I    between atoms: N3_11  and  C7_12 
REMARK       I    between atoms: C7_12  and  N5_16 
REMARK    5  A    between atoms: N5_16  and  C8_18 
REMARK    6  A    between atoms: C8_18  and  C9_19 
ROOT
HETATM    1  N2  UNL     1       2.451   0.978  -0.482  1.00  0.00    -0.355 N 
HETATM    2  C5  UNL     1       1.846  -0.087  -1.208  1.00  0.00     0.145 C 
HETATM    3  C6  UNL     1       0.625  -0.510  -0.372  1.00  0.00     0.161 C 
HETATM    4  N3  UNL     1      -0.141   0.666  -0.041  1.00  0.00    -0.215 N 
HETATM    5  C7  UNL     1      -1.189   0.578   0.887  1.00  0.00     0.669 C 
HETATM    6  N4  UNL     1      -1.101  -0.221   1.881  1.00  0.00    -0.235 N 
ATOM      7  H41 UNL     1      -1.863  -0.285   2.556  1.00  0.00     0.174 HD
ATOM      8  H42 UNL     1      -0.267  -0.799   1.982  1.00  0.00     0.174 HD
HETATM    9  N5  UNL     1      -2.343   1.378   0.747  1.00  0.00    -0.226 N 
ATOM     10  H5  UNL     1      -2.231   2.360   0.495  1.00  0.00     0.177 HD
HETATM   11  C13 UNL     1       0.186   1.915  -0.678  1.00  0.00     0.161 C 
HETATM   12  C14 UNL     1       1.655   2.237  -0.540  1.00  0.00     0.145 C 
ENDROOT
BRANCH   9  13
HETATM   13  C8  UNL     1      -3.661   0.866   0.945  1.00  0.00     0.146 C 
BRANCH  13  14
HETATM   14  C9  UNL     1      -4.173  -0.090  -0.073  1.00  0.00    -0.035 C 
HETATM   15  C10 UNL     1      -3.374  -1.345  -0.213  1.00  0.00     0.016 C 
HETATM   16  C11 UNL     1      -4.320   0.601  -1.418  1.00  0.00     0.016 C 
HETATM   17  C12 UNL     1      -5.575  -0.518   0.390  1.00  0.00     0.016 C 
ENDBRANCH  13  14
ENDBRANCH   9  13
BRANCH   1  18
HETATM   18  C4  UNL     1       3.644   0.929   0.235  1.00  0.00     0.170 C 
HETATM   19  S1  UNL     1       4.017   2.420   0.963  1.00  0.00    -0.041 SA
BRANCH  18  20
HETATM   20  N1  UNL     1       4.560  -0.104   0.451  1.00  0.00    -0.364 N 
ATOM     21  H1  UNL     1       5.362   0.136   1.034  1.00  0.00     0.162 HD
BRANCH  20  22
HETATM   22  C3  UNL     1       4.531  -1.450  -0.030  1.00  0.00     0.148 C 
BRANCH  22  23
HETATM   23  C2  UNL     1       5.608  -2.298   0.477  1.00  0.00    -0.018 C 
HETATM   24  C1  UNL     1       6.544  -1.937   1.297  1.00  0.00     0.008 C 
ENDBRANCH  22  23
ENDBRANCH  20  22
ENDBRANCH  18  20
ENDBRANCH   1  18
TORSDOF 6
