REMARK  2 active torsions:
REMARK  status: ('A' for Active; 'I' for Inactive)
REMARK    1  A    between atoms: C2_2  and  N1_3 
REMARK    2  A    between atoms: C2_2  and  N4_8 
ROOT
HETATM    1  N4  UNL     1       1.282  -0.114   0.196  1.00  0.00    -0.205 NA
HETATM    2  C4  UNL     1       1.878  -1.378   0.477  1.00  0.00     0.117 C 
HETATM    3  C5  UNL     1       0.920  -2.531   0.513  1.00  0.00     0.026 C 
HETATM    4  C6  UNL     1      -0.121  -2.535  -0.556  1.00  0.00     0.028 C 
HETATM    5  C7  UNL     1      -1.479  -2.588   0.088  1.00  0.00     0.038 C 
HETATM    6  C8  UNL     1      -1.758  -1.452   1.009  1.00  0.00     0.240 C 
HETATM    7  N5  UNL     1      -2.126  -0.222   0.371  1.00  0.00    -0.045 N 
HETATM    8  C9  UNL     1      -3.175  -0.465  -0.592  1.00  0.00     0.240 C 
HETATM    9  C10 UNL     1      -3.924   0.823  -0.971  1.00  0.00     0.032 C 
HETATM   10  C11 UNL     1      -2.909   1.937  -0.669  1.00  0.00    -0.008 C 
HETATM   11  C12 UNL     1      -2.847   2.010   0.850  1.00  0.00     0.032 C 
HETATM   12  C13 UNL     1      -2.778   0.593   1.412  1.00  0.00     0.240 C 
HETATM   13  C14 UNL     1      -1.611   1.400  -1.262  1.00  0.00     0.061 C 
HETATM   14  C15 UNL     1      -1.006   0.519  -0.153  1.00  0.00     0.306 C 
HETATM   15  N6  UNL     1       0.114  -0.188  -0.541  1.00  0.00    -0.292 N 
HETATM   16  C16 UNL     1       0.054  -1.288  -1.403  1.00  0.00     0.085 C 
ENDROOT
BRANCH   1  17
HETATM   17  C2  UNL     1       2.260   0.686  -0.530  1.00  0.00     0.174 C 
HETATM   18  C1  UNL     1       2.159   2.148  -0.174  1.00  0.00     0.051 C 
BRANCH  17  19
HETATM   19  N1  UNL     1       3.563   0.214  -0.302  1.00  0.00    -0.349 N 
HETATM   20  C3  UNL     1       4.605   0.615   0.239  1.00  0.00     0.198 C 
HETATM   21  N2  UNL     1       5.754  -0.254   0.231  1.00  0.00    -0.067 NA
HETATM   22  N3  UNL     1       4.757   1.856   0.862  1.00  0.00    -0.067 NA
ATOM     23  H1  UNL     1       3.688  -0.721  -0.690  1.00  0.00     0.163 HD
ENDBRANCH  17  19
ENDBRANCH   1  17
TORSDOF 2
