REMARK  3 active torsions:
REMARK  status: ('A' for Active; 'I' for Inactive)
REMARK       I    between atoms: C1_4  and  N3_6 
REMARK    1  A    between atoms: N4_9  and  C4_10 
REMARK    2  A    between atoms: C4_10  and  C5_11 
REMARK    3  A    between atoms: C15_21  and  N5_22 
ROOT
HETATM    1  N1  UNL     1       5.812  -1.444  -0.495  1.00  0.00    -0.374 N 
ATOM      2  H11 UNL     1       5.150  -2.183  -0.730  1.00  0.00     0.158 HD
ATOM      3  H12 UNL     1       6.813  -1.638  -0.511  1.00  0.00     0.158 HD
HETATM    4  C1  UNL     1       5.302  -0.302  -0.200  1.00  0.00     0.184 C 
HETATM    5  N2  UNL     1       6.242   0.747   0.133  1.00  0.00    -0.064 NA
HETATM    6  N3  UNL     1       3.925  -0.035  -0.178  1.00  0.00    -0.350 N 
HETATM    7  C2  UNL     1       3.364   1.192   0.390  1.00  0.00     0.156 C 
HETATM    8  C3  UNL     1       2.128   0.700   1.125  1.00  0.00     0.295 C 
HETATM    9  N4  UNL     1       1.055   0.432   0.127  1.00  0.00     0.123 N 
HETATM   10  C15 UNL     1       1.576  -0.381  -0.891  1.00  0.00     0.434 C 
HETATM   11  C16 UNL     1       2.967  -0.964  -0.691  1.00  0.00     0.190 C 
ENDROOT
BRANCH   9  12
HETATM   12  C4  UNL     1      -0.037  -0.023   0.887  1.00  0.00     0.284 C 
BRANCH  12  13
HETATM   13  C5  UNL     1      -1.406  -0.026   0.327  1.00  0.00    -0.013 C 
HETATM   14  C6  UNL     1      -2.310  -0.548   1.469  1.00  0.00     0.016 C 
HETATM   15  C7  UNL     1      -3.744  -0.582   1.063  1.00  0.00    -0.013 C 
HETATM   16  C8  UNL     1      -3.868  -1.557  -0.089  1.00  0.00     0.009 C 
HETATM   17  C12 UNL     1      -4.215   0.791   0.719  1.00  0.00     0.009 C 
HETATM   18  C9  UNL     1      -3.099  -0.982  -1.237  1.00  0.00    -0.013 C 
HETATM   19  C10 UNL     1      -3.551   0.412  -1.594  1.00  0.00     0.009 C 
HETATM   20  C14 UNL     1      -1.600  -0.878  -0.888  1.00  0.00     0.016 C 
HETATM   21  C11 UNL     1      -3.330   1.317  -0.393  1.00  0.00    -0.013 C 
HETATM   22  C13 UNL     1      -1.892   1.373   0.007  1.00  0.00     0.016 C 
ENDBRANCH  12  13
ENDBRANCH   9  12
BRANCH  10  23
HETATM   23  N5  UNL     1       1.710   0.474  -2.102  1.00  0.00    -0.046 N 
ATOM     24  H53 UNL     1       0.840   0.937  -2.364  1.00  0.00     0.277 HD
ATOM     25  H52 UNL     1       2.262   1.316  -1.939  1.00  0.00     0.277 HD
ATOM     26  H51 UNL     1       2.089  -0.117  -2.842  1.00  0.00     0.277 HD
ENDBRANCH  10  23
TORSDOF 3
