REMARK  3 active torsions:
REMARK  status: ('A' for Active; 'I' for Inactive)
REMARK    1  A    between atoms: N3_4  and  C2_6 
REMARK    2  A    between atoms: C2_6  and  C3_7 
REMARK    3  A    between atoms: C2_6  and  C9_13 
ROOT
HETATM    1  C2  UNL     1      -0.027  -0.786   0.342  1.00  0.00     0.093 C 
ENDROOT
BRANCH   1   2
HETATM    2  N3  UNL     1      -0.401  -1.546  -0.899  1.00  0.00    -0.361 N 
HETATM    3  C1  UNL     1      -0.759  -2.796  -0.777  1.00  0.00     0.197 C 
HETATM    4  N1  UNL     1      -1.124  -3.568  -1.911  1.00  0.00    -0.067 NA
HETATM    5  N2  UNL     1      -0.805  -3.455   0.485  1.00  0.00    -0.067 NA
ATOM      6  H3  UNL     1      -0.376  -1.097  -1.814  1.00  0.00     0.162 HD
ENDBRANCH   1   2
BRANCH   1   7
HETATM    7  C3  UNL     1       1.124   0.088   0.023  1.00  0.00     0.009 C 
HETATM    8  C4  UNL     1       1.695   0.906   1.117  1.00  0.00     0.007 C 
HETATM    9  C5  UNL     1       3.152   1.260   0.865  1.00  0.00     0.000 C 
HETATM   10  C6  UNL     1       3.458   1.439  -0.584  1.00  0.00     0.000 C 
HETATM   11  C7  UNL     1       2.993   0.377  -1.504  1.00  0.00     0.000 C 
HETATM   12  C8  UNL     1       2.224  -0.671  -0.740  1.00  0.00     0.007 C 
ENDBRANCH   1   7
BRANCH   1  13
HETATM   13  C9  UNL     1      -1.309  -0.140   0.735  1.00  0.00     0.026 C 
HETATM   14  C10 UNL     1      -1.370   0.695   1.943  1.00  0.00     0.028 C 
HETATM   15  C11 UNL     1      -1.895   2.111   1.690  1.00  0.00     0.132 C 
HETATM   16  N4  UNL     1      -3.332   2.037   1.496  1.00  0.00    -0.320 N 
HETATM   17  S1  UNL     1      -3.558   1.091   0.054  1.00  0.00     0.226 S 
ATOM     18  H4  UNL     1      -4.056   2.452   2.082  1.00  0.00     0.172 HD
HETATM   19  O1  UNL     1      -4.286   1.848  -0.997  1.00  0.00    -0.206 OA
HETATM   20  O2  UNL     1      -4.296  -0.158   0.470  1.00  0.00    -0.206 OA
HETATM   21  C12 UNL     1      -1.940   0.597  -0.471  1.00  0.00     0.169 C 
ENDBRANCH   1  13
TORSDOF 3
