REMARK  4 active torsions:
REMARK  status: ('A' for Active; 'I' for Inactive)
REMARK    1  A    between atoms: N1_1  and  C1_5 
REMARK    2  A    between atoms: C1_5  and  C2_6 
REMARK    3  A    between atoms: C2_6  and  C3_7 
REMARK       I    between atoms: C3_7  and  N2_9 
REMARK    4  A    between atoms: N5_18  and  C9_19 
ROOT
HETATM    1  C2  UNL     1      -1.092  -0.576   0.284  1.00  0.00     0.134 C 
HETATM    2  C5  UNL     1      -1.588  -1.429   1.464  1.00  0.00     0.042 C 
HETATM    3  C6  UNL     1      -1.164  -2.841   1.385  1.00  0.00     0.004 C 
HETATM    4  C7  UNL     1       0.215  -3.057   0.896  1.00  0.00     0.020 C 
HETATM    5  C8  UNL     1       0.793  -2.033  -0.010  1.00  0.00     0.118 C 
HETATM    6  N5  UNL     1       0.259  -0.722   0.099  1.00  0.00    -0.389 N 
ENDROOT
BRANCH   1   7
HETATM    7  C1  UNL     1      -1.989  -0.966  -0.924  1.00  0.00     0.270 C 
BRANCH   7   8
HETATM    8  N1  UNL     1      -1.751  -2.241  -1.468  1.00  0.00    -0.076 N 
ATOM      9  H13 UNL     1      -0.767  -2.335  -1.719  1.00  0.00     0.274 HD
ATOM     10  H12 UNL     1      -1.820  -2.950  -0.738  1.00  0.00     0.274 HD
ATOM     11  H11 UNL     1      -2.340  -2.497  -2.261  1.00  0.00     0.274 HD
ENDBRANCH   7   8
ENDBRANCH   1   7
BRANCH   1  12
HETATM   12  C3  UNL     1      -1.605   0.776   0.613  1.00  0.00     0.253 C 
HETATM   13  O1  UNL     1      -0.978   1.817   0.603  1.00  0.00    -0.270 OA
HETATM   14  N2  UNL     1      -3.012   0.918   0.996  1.00  0.00    -0.301 N 
HETATM   15  C4  UNL     1      -3.818   1.672   0.340  1.00  0.00     0.203 C 
ATOM     16  H2  UNL     1      -3.361   0.404   1.805  1.00  0.00     0.171 HD
HETATM   17  N3  UNL     1      -5.188   1.811   0.713  1.00  0.00    -0.066 NA
HETATM   18  N4  UNL     1      -3.320   2.380  -0.788  1.00  0.00    -0.066 NA
ENDBRANCH   1  12
BRANCH   6  19
HETATM   19  C9  UNL     1       1.128   0.344  -0.249  1.00  0.00     0.089 C 
HETATM   20  C10 UNL     1       2.450  -0.037  -0.898  1.00  0.00     0.013 C 
HETATM   21  C11 UNL     1       2.942   1.148  -1.763  1.00  0.00     0.011 C 
HETATM   22  C14 UNL     1       3.156   0.189   0.388  1.00  0.00    -0.002 C 
HETATM   23  C12 UNL     1       3.433   2.124  -0.743  1.00  0.00    -0.013 C 
HETATM   24  C13 UNL     1       4.305   1.179   0.107  1.00  0.00     0.010 C 
HETATM   25  C16 UNL     1       2.401   2.418   0.326  1.00  0.00     0.011 C 
HETATM   26  C15 UNL     1       1.958   1.032   0.782  1.00  0.00     0.013 C 
ENDBRANCH   6  19
TORSDOF 4
