REMARK  4 active torsions:
REMARK  status: ('A' for Active; 'I' for Inactive)
REMARK       I    between atoms: N2_5  and  C4_6 
REMARK       I    between atoms: C4_6  and  N6_19 
REMARK       I    between atoms: N3_7  and  C5_9 
REMARK       I    between atoms: C5_9  and  N5_13 
REMARK    1  A    between atoms: N6_19  and  C11_21 
REMARK    2  A    between atoms: C11_21  and  C12_22 
REMARK    3  A    between atoms: C12_22  and  C13_23 
REMARK    4  A    between atoms: C13_23  and  N7_24 
ROOT
HETATM    1  C1  UNL     1      -0.991  -4.173   1.437  1.00  0.00     0.312 C 
HETATM    2  N1  UNL     1      -1.591  -2.993   0.860  1.00  0.00     0.103 N 
HETATM    3  C2  UNL     1      -1.819  -3.121  -0.558  1.00  0.00     0.294 C 
HETATM    4  C3  UNL     1      -0.945  -2.031  -1.210  1.00  0.00     0.173 C 
HETATM    5  N2  UNL     1      -0.969  -1.053  -0.149  1.00  0.00    -0.189 N 
HETATM    6  C4  UNL     1      -1.135   0.345  -0.286  1.00  0.00     0.692 C 
HETATM    7  N3  UNL     1      -0.233   1.026  -0.890  1.00  0.00    -0.023 N 
ATOM      8  H3  UNL     1      -0.365   2.033  -0.981  1.00  0.00     0.203 HD
HETATM    9  C5  UNL     1       0.928   0.452  -1.432  1.00  0.00     0.688 C 
HETATM   10  N4  UNL     1       0.948   0.137  -2.675  1.00  0.00    -0.234 N 
ATOM     11  H41 UNL     1       1.791  -0.280  -3.069  1.00  0.00     0.174 HD
ATOM     12  H42 UNL     1       0.122   0.302  -3.250  1.00  0.00     0.174 HD
HETATM   13  N5  UNL     1       2.062   0.225  -0.643  1.00  0.00    -0.218 N 
HETATM   14  C6  UNL     1       2.779  -1.005  -0.633  1.00  0.00     0.141 C 
HETATM   15  C7  UNL     1       4.212  -0.899  -0.183  1.00  0.00     0.020 C 
HETATM   16  C8  UNL     1       4.439   0.079   0.914  1.00  0.00     0.003 C 
HETATM   17  C9  UNL     1       3.147   0.706   1.418  1.00  0.00     0.020 C 
HETATM   18  C10 UNL     1       2.501   1.345   0.205  1.00  0.00     0.141 C 
HETATM   19  N6  UNL     1      -2.298   0.993   0.244  1.00  0.00    -0.226 N 
ATOM     20  H6  UNL     1      -3.194   0.528   0.098  1.00  0.00     0.177 HD
HETATM   21  C14 UNL     1      -0.802  -1.797   1.078  1.00  0.00     0.413 C 
ENDROOT
BRANCH  19  22
HETATM   22  C11 UNL     1      -2.317   2.226   0.955  1.00  0.00     0.139 C 
BRANCH  22  23
HETATM   23  C12 UNL     1      -1.981   3.430   0.110  1.00  0.00     0.047 C 
BRANCH  23  24
HETATM   24  C13 UNL     1      -2.964   3.584  -1.040  1.00  0.00     0.231 C 
BRANCH  24  25
HETATM   25  N7  UNL     1      -4.282   3.743  -0.456  1.00  0.00    -0.079 N 
ATOM     26  H73 UNL     1      -4.530   2.988   0.184  1.00  0.00     0.274 HD
ATOM     27  H72 UNL     1      -4.332   4.507   0.218  1.00  0.00     0.274 HD
ATOM     28  H71 UNL     1      -4.941   3.846  -1.227  1.00  0.00     0.274 HD
ENDBRANCH  24  25
ENDBRANCH  23  24
ENDBRANCH  22  23
ENDBRANCH  19  22
TORSDOF 4
