REMARK  8 active torsions:
REMARK  status: ('A' for Active; 'I' for Inactive)
REMARK    1  A    between atoms: O1_1  and  C1_3 
REMARK    2  A    between atoms: C1_3  and  N1_4 
REMARK    3  A    between atoms: C1_3  and  N2_19 
REMARK    4  A    between atoms: N1_4  and  C2_6 
REMARK    5  A    between atoms: C2_6  and  O2_7 
REMARK    6  A    between atoms: C2_6  and  C3_9 
REMARK    7  A    between atoms: C9_15  and  C10_16 
REMARK    8  A    between atoms: N2_19  and  C11_21 
ROOT
HETATM    1  C2  UNL     1      -1.421  -1.486  -0.592  1.00  0.00     0.123 C 
ENDROOT
BRANCH   1   2
HETATM    2  N1  UNL     1      -0.481  -2.131  -1.351  1.00  0.00    -0.306 N 
ATOM      3  H1  UNL     1      -0.764  -3.079  -1.598  1.00  0.00     0.171 HD
BRANCH   2   4
HETATM    4  C1  UNL     1       0.775  -1.797  -1.867  1.00  0.00     0.218 C 
BRANCH   4   5
HETATM    5  O1  UNL     1       1.357  -2.687  -2.622  1.00  0.00    -0.332 OA
ATOM      6  H1  UNL     1       2.210  -2.460  -2.973  1.00  0.00     0.220 HD
ENDBRANCH   4   5
BRANCH   4   7
HETATM    7  N2  UNL     1       1.480  -0.601  -1.651  1.00  0.00    -0.351 N 
ATOM      8  H2  UNL     1       1.054   0.128  -1.078  1.00  0.00     0.163 HD
BRANCH   7   9
HETATM    9  C11 UNL     1       2.808  -0.370  -2.224  1.00  0.00     0.089 C 
HETATM   10  C12 UNL     1       3.273   1.031  -2.285  1.00  0.00     0.030 C 
HETATM   11  C13 UNL     1       4.498   0.705  -1.449  1.00  0.00    -0.006 A 
HETATM   12  C14 UNL     1       5.277  -0.548  -1.675  1.00  0.00     0.012 A 
HETATM   13  C15 UNL     1       3.904  -0.652  -1.187  1.00  0.00     0.013 A 
ENDBRANCH   7   9
ENDBRANCH   4   7
ENDBRANCH   2   4
ENDBRANCH   1   2
BRANCH   1  14
HETATM   14  O2  UNL     1      -2.545  -2.136  -0.421  1.00  0.00    -0.349 OA
ATOM     15  H2  UNL     1      -3.197  -1.689   0.105  1.00  0.00     0.219 HD
ENDBRANCH   1  14
BRANCH   1  16
HETATM   16  C3  UNL     1      -1.430  -0.180   0.095  1.00  0.00     0.075 C 
HETATM   17  C4  UNL     1      -0.601  -0.188   1.370  1.00  0.00     0.018 C 
HETATM   18  C5  UNL     1      -1.207   0.904   2.201  1.00  0.00    -0.009 C 
HETATM   19  C6  UNL     1      -2.059   0.382   3.361  1.00  0.00     0.005 C 
HETATM   20  C8  UNL     1      -2.505   1.320   1.543  1.00  0.00     0.005 C 
HETATM   21  C7  UNL     1      -3.167   1.317   2.905  1.00  0.00     0.006 C 
HETATM   22  C9  UNL     1      -2.807   0.137   0.670  1.00  0.00     0.103 C 
BRANCH  22  23
HETATM   23  C10 UNL     1      -3.770   0.467  -0.417  1.00  0.00     0.178 C 
HETATM   24  O3  UNL     1      -4.810  -0.237  -0.478  1.00  0.00    -0.648 OA
HETATM   25  O4  UNL     1      -3.585   1.470  -1.325  1.00  0.00    -0.648 OA
ENDBRANCH  22  23
ENDBRANCH   1  16
TORSDOF 8
