REMARK  11 active torsions:
REMARK  status: ('A' for Active; 'I' for Inactive)
REMARK    1  A    between atoms: O1_2  and  C2_3 
REMARK    2  A    between atoms: C2_3  and  N2_7 
REMARK    3  A    between atoms: N2_7  and  C3_9 
REMARK    4  A    between atoms: C3_9  and  C4_10 
REMARK    5  A    between atoms: C4_10  and  C5_11 
REMARK    6  A    between atoms: C5_11  and  C6_12 
REMARK    7  A    between atoms: C6_12  and  N3_13 
REMARK       I    between atoms: N3_13  and  C7_15 
REMARK       I    between atoms: C7_15  and  N4_17 
REMARK    8  A    between atoms: C11_21  and  C12_22 
REMARK    9  A    between atoms: C12_22  and  C13_23 
REMARK   10  A    between atoms: C13_23  and  N5_24 
REMARK       I    between atoms: N5_24  and  C14_26 
REMARK   11  A    between atoms: C14_26  and  C15_28 
ROOT
HETATM    1  N3  UNL     1       2.554   0.772   0.633  1.00  0.00    -0.343 N 
ATOM      2  H3  UNL     1       2.537   0.966   1.634  1.00  0.00     0.164 HD
HETATM    3  C7  UNL     1       1.339   0.518  -0.062  1.00  0.00     0.318 C 
HETATM    4  O2  UNL     1       1.389   0.280  -1.292  1.00  0.00    -0.247 OA
HETATM    5  N4  UNL     1       0.122   0.538   0.627  1.00  0.00    -0.326 N 
HETATM    6  C8  UNL     1      -0.111   0.789   2.010  1.00  0.00     0.128 C 
HETATM    7  C9  UNL     1      -1.399   1.609   1.989  1.00  0.00     0.022 C 
HETATM    8  C10 UNL     1      -2.186   0.946   0.909  1.00  0.00     0.031 C 
HETATM    9  C11 UNL     1      -1.188   0.285  -0.039  1.00  0.00     0.113 C 
ENDROOT
BRANCH   9  10
HETATM   10  C12 UNL     1      -1.407  -1.180  -0.064  1.00  0.00     0.015 C 
BRANCH  10  11
HETATM   11  C13 UNL     1      -2.501  -1.856  -0.742  1.00  0.00     0.089 C 
BRANCH  11  12
HETATM   12  N5  UNL     1      -3.863  -1.540  -0.596  1.00  0.00    -0.337 N 
HETATM   13  C14 UNL     1      -4.587  -0.460  -1.105  1.00  0.00     0.225 C 
HETATM   14  O3  UNL     1      -4.047   0.398  -1.839  1.00  0.00    -0.273 OA
ATOM     15  H5  UNL     1      -4.403  -2.198  -0.034  1.00  0.00     0.168 HD
BRANCH  13  16
HETATM   16  C15 UNL     1      -6.032  -0.246  -0.819  1.00  0.00     0.078 C 
HETATM   17  C16 UNL     1      -6.901  -1.379  -1.281  1.00  0.00     0.014 C 
HETATM   18  C17 UNL     1      -8.333  -1.001  -1.063  1.00  0.00     0.001 C 
HETATM   19  C18 UNL     1      -8.645  -0.445   0.276  1.00  0.00     0.000 C 
HETATM   20  C19 UNL     1      -7.590   0.378   0.920  1.00  0.00     0.001 C 
HETATM   21  C20 UNL     1      -6.178  -0.179   0.700  1.00  0.00     0.014 C 
ENDBRANCH  13  16
ENDBRANCH  11  12
ENDBRANCH  10  11
ENDBRANCH   9  10
BRANCH   1  22
HETATM   22  C6  UNL     1       3.818   0.755  -0.081  1.00  0.00     0.124 C 
BRANCH  22  23
HETATM   23  C5  UNL     1       4.940   1.048   0.868  1.00  0.00     0.021 C 
BRANCH  23  24
HETATM   24  C4  UNL     1       6.224   1.019   0.063  1.00  0.00     0.021 C 
BRANCH  24  25
HETATM   25  C3  UNL     1       7.443   1.297   0.892  1.00  0.00     0.123 C 
BRANCH  25  26
HETATM   26  N2  UNL     1       8.586   1.241  -0.004  1.00  0.00    -0.357 N 
ATOM     27  H2  UNL     1       9.098   2.100  -0.206  1.00  0.00     0.163 HD
BRANCH  26  28
HETATM   28  C2  UNL     1       9.012   0.026  -0.607  1.00  0.00     0.212 C 
HETATM   29  N1  UNL     1       9.591  -0.928   0.006  1.00  0.00    -0.366 N 
ATOM     30  H12 UNL     1       9.897  -1.800  -0.427  1.00  0.00     0.159 HD
ATOM     31  H11 UNL     1       9.775  -0.837   1.005  1.00  0.00     0.159 HD
BRANCH  28  32
HETATM   32  O1  UNL     1       8.761  -0.099  -1.973  1.00  0.00    -0.328 OA
HETATM   33  C1  UNL     1       9.348  -1.163  -2.699  1.00  0.00     0.213 C 
ENDBRANCH  28  32
ENDBRANCH  26  28
ENDBRANCH  25  26
ENDBRANCH  24  25
ENDBRANCH  23  24
ENDBRANCH  22  23
ENDBRANCH   1  22
TORSDOF 11
