REMARK  14 active torsions:
REMARK  status: ('A' for Active; 'I' for Inactive)
REMARK    1  A    between atoms: C6_6  and  C7_7 
REMARK    2  A    between atoms: C7_7  and  C10_10 
REMARK    3  A    between atoms: C12_15  and  C13_16 
REMARK    4  A    between atoms: N1_17  and  N2_19 
REMARK       I    between atoms: N2_19  and  C14_21 
REMARK    5  A    between atoms: C14_21  and  C15_23 
REMARK    6  A    between atoms: C15_23  and  S1_24 
REMARK    7  A    between atoms: S1_24  and  C16_25 
REMARK    8  A    between atoms: C17_30  and  C18_31 
REMARK    9  A    between atoms: C18_31  and  O2_32 
REMARK   10  A    between atoms: N5_34  and  C19_35 
REMARK   11  A    between atoms: C19_35  and  C20_36 
REMARK   12  A    between atoms: C20_36  and  C21_37 
REMARK   13  A    between atoms: C21_37  and  C22_38 
REMARK   14  A    between atoms: C22_38  and  C23_39 
REMARK       I    between atoms: C23_39  and  N6_41 
ROOT
HETATM    1  C15 UNL     1      -0.786  -1.816  -0.951  1.00  0.00     0.186 C 
ENDROOT
BRANCH   1   2
HETATM    2  C14 UNL     1       0.693  -1.704  -0.801  1.00  0.00     0.245 C 
HETATM    3  N2  UNL     1       1.277  -2.119   0.423  1.00  0.00    -0.270 N 
ATOM      4  H2  UNL     1       0.664  -2.479   1.154  1.00  0.00     0.190 HD
HETATM    5  O1  UNL     1       1.423  -1.260  -1.715  1.00  0.00    -0.271 OA
BRANCH   3   6
HETATM    6  N1  UNL     1       2.638  -2.061   0.676  1.00  0.00    -0.308 N 
HETATM    7  C13 UNL     1       3.298  -1.014   0.910  1.00  0.00     0.119 C 
ATOM      8  H1  UNL     1       3.150  -2.943   0.672  1.00  0.00     0.186 HD
BRANCH   7   9
HETATM    9  C12 UNL     1       4.731  -1.028   1.169  1.00  0.00    -0.013 A 
HETATM   10  C2  UNL     1       5.416  -2.218   1.166  1.00  0.00    -0.050 A 
HETATM   11  C1  UNL     1       4.792  -3.545   0.896  1.00  0.00     0.049 C 
HETATM   12  C3  UNL     1       6.763  -2.148   1.424  1.00  0.00     0.015 A 
HETATM   13  C4  UNL     1       7.453  -0.945   1.684  1.00  0.00    -0.054 A 
HETATM   14  C5  UNL     1       8.868  -1.021   2.005  1.00  0.00     0.049 C 
HETATM   15  C6  UNL     1       6.787   0.241   1.688  1.00  0.00    -0.035 A 
HETATM   16  C11 UNL     1       5.406   0.165   1.425  1.00  0.00     0.022 A 
BRANCH  15  17
HETATM   17  C7  UNL     1       7.340   1.537   1.860  1.00  0.00     0.078 C 
HETATM   18  C8  UNL     1       6.145   2.563   1.867  1.00  0.00     0.029 C 
HETATM   19  C9  UNL     1       8.211   1.958   2.931  1.00  0.00     0.029 C 
BRANCH  17  20
HETATM   20  C10 UNL     1       8.006   1.995   0.538  1.00  0.00     0.398 C 
HETATM   21  F1  UNL     1       7.070   2.025  -0.481  1.00  0.00    -0.170 F 
HETATM   22  F2  UNL     1       9.030   1.230   0.164  1.00  0.00    -0.170 F 
HETATM   23  F3  UNL     1       8.431   3.320   0.702  1.00  0.00    -0.170 F 
ENDBRANCH  17  20
ENDBRANCH  15  17
ENDBRANCH   7   9
ENDBRANCH   3   6
ENDBRANCH   1   2
BRANCH   1  24
HETATM   24  S1  UNL     1      -1.319  -1.298  -2.581  1.00  0.00    -0.083 SA
BRANCH  24  25
HETATM   25  C16 UNL     1      -1.047   0.438  -2.903  1.00  0.00     0.163 A 
HETATM   26  N3  UNL     1       0.082   0.924  -3.429  1.00  0.00    -0.278 N 
HETATM   27  N4  UNL     1      -0.056   2.230  -3.545  1.00  0.00    -0.285 N 
ATOM     28  H3  UNL     1       0.904   0.381  -3.694  1.00  0.00     0.189 HD
HETATM   29  C17 UNL     1      -1.271   2.581  -3.093  1.00  0.00     0.124 A 
ATOM     30  H4  UNL     1       0.646   2.870  -3.917  1.00  0.00     0.188 HD
HETATM   31  N5  UNL     1      -1.876   1.460  -2.696  1.00  0.00    -0.313 N 
BRANCH  29  32
HETATM   32  C18 UNL     1      -1.828   3.985  -3.044  1.00  0.00     0.242 C 
BRANCH  32  33
HETATM   33  O2  UNL     1      -1.541   4.571  -1.827  1.00  0.00    -0.393 OA
ATOM     34  H2  UNL     1      -1.891   5.454  -1.796  1.00  0.00     0.209 HD
ENDBRANCH  32  33
ENDBRANCH  29  32
BRANCH  31  35
HETATM   35  C19 UNL     1      -3.207   1.370  -2.124  1.00  0.00     0.133 C 
BRANCH  35  36
HETATM   36  C20 UNL     1      -4.247   1.095  -3.195  1.00  0.00     0.021 C 
BRANCH  36  37
HETATM   37  C21 UNL     1      -5.643   1.003  -2.630  1.00  0.00     0.011 C 
BRANCH  37  38
HETATM   38  C22 UNL     1      -5.729  -0.092  -1.586  1.00  0.00     0.103 C 
BRANCH  38  39
HETATM   39  C23 UNL     1      -7.096  -0.205  -1.049  1.00  0.00     0.219 C 
HETATM   40  O3  UNL     1      -8.025   0.464  -1.630  1.00  0.00    -0.273 OA
HETATM   41  N6  UNL     1      -7.474  -0.998   0.060  1.00  0.00    -0.352 N 
HETATM   42  C24 UNL     1      -6.452  -1.748   0.753  1.00  0.00     0.125 C 
HETATM   43  C28 UNL     1      -8.868  -1.026   0.454  1.00  0.00     0.125 C 
HETATM   44  C25 UNL     1      -6.649  -1.731   2.252  1.00  0.00     0.020 C 
HETATM   45  C26 UNL     1      -8.111  -1.824   2.627  1.00  0.00     0.003 C 
HETATM   46  C27 UNL     1      -8.930  -0.752   1.932  1.00  0.00     0.020 C 
ENDBRANCH  38  39
ENDBRANCH  37  38
ENDBRANCH  36  37
ENDBRANCH  35  36
ENDBRANCH  31  35
ENDBRANCH  24  25
ENDBRANCH   1  24
TORSDOF 14
