REMARK  15 active torsions:
REMARK  status: ('A' for Active; 'I' for Inactive)
REMARK    1  A    between atoms: C2_2  and  O1_3 
REMARK    2  A    between atoms: O1_3  and  C3_4 
REMARK    3  A    between atoms: C3_4  and  C4_6 
REMARK    4  A    between atoms: C4_6  and  N1_8 
REMARK    5  A    between atoms: N1_8  and  C6_9 
REMARK    6  A    between atoms: N1_8  and  C13_17 
REMARK    7  A    between atoms: C6_9  and  C7_10 
REMARK    8  A    between atoms: C7_10  and  C8_11 
REMARK    9  A    between atoms: C8_11  and  N2_12 
REMARK   10  A    between atoms: N2_12  and  C9_13 
REMARK   11  A    between atoms: N2_12  and  C11_15 
REMARK   12  A    between atoms: C13_17  and  O3_18 
REMARK   13  A    between atoms: C13_17  and  C14_20 
REMARK   14  A    between atoms: C17_25  and  N4_26 
REMARK   15  A    between atoms: N4_26  and  C18_28 
ROOT
HETATM    1  C14 UNL     1      -0.221   0.204  -0.480  1.00  0.00     0.043 C 
HETATM    2  C15 UNL     1       0.462  -0.992  -0.602  1.00  0.00     0.035 C 
HETATM    3  C16 UNL     1      -0.225  -2.240  -1.093  1.00  0.00     0.069 C 
HETATM    4  N3  UNL     1       1.776  -1.220  -0.106  1.00  0.00    -0.196 N 
ATOM      5  H3  UNL     1       2.200  -2.136  -0.254  1.00  0.00     0.184 HD
HETATM    6  C17 UNL     1       2.443  -0.340   0.510  1.00  0.00     0.675 C 
HETATM    7  N5  UNL     1       1.759   0.881   0.727  1.00  0.00    -0.213 N 
ATOM      8  H5  UNL     1       1.971   1.470   1.532  1.00  0.00     0.178 HD
HETATM    9  C27 UNL     1       0.735   1.267  -0.249  1.00  0.00     0.073 C 
HETATM   10  C28 UNL     1       1.562   1.327  -1.613  1.00  0.00     0.044 C 
HETATM   11  C29 UNL     1       0.466   2.667   0.011  1.00  0.00     0.044 C 
ENDROOT
BRANCH   1  12
HETATM   12  C13 UNL     1      -1.607   0.193  -0.818  1.00  0.00     0.149 C 
BRANCH  12  13
HETATM   13  N1  UNL     1      -2.760   0.968  -0.791  1.00  0.00    -0.348 N 
BRANCH  13  14
HETATM   14  C4  UNL     1      -2.922   2.255  -0.208  1.00  0.00     0.182 C 
HETATM   15  C5  UNL     1      -4.059   2.362   0.801  1.00  0.00     0.043 C 
BRANCH  14  16
HETATM   16  C3  UNL     1      -3.118   3.326  -1.267  1.00  0.00     0.281 C 
HETATM   17  O2  UNL     1      -2.979   2.992  -2.451  1.00  0.00    -0.263 OA
BRANCH  16  18
HETATM   18  O1  UNL     1      -3.433   4.606  -0.934  1.00  0.00    -0.320 OA
BRANCH  18  19
HETATM   19  C2  UNL     1      -3.631   5.660  -1.855  1.00  0.00     0.174 C 
HETATM   20  C1  UNL     1      -4.746   5.404  -2.824  1.00  0.00     0.034 C 
ENDBRANCH  18  19
ENDBRANCH  16  18
ENDBRANCH  14  16
ENDBRANCH  13  14
BRANCH  13  21
HETATM   21  C6  UNL     1      -3.989   0.379  -1.409  1.00  0.00     0.127 C 
BRANCH  21  22
HETATM   22  C7  UNL     1      -4.906  -0.329  -0.527  1.00  0.00     0.050 C 
BRANCH  22  23
HETATM   23  C8  UNL     1      -4.462  -1.509   0.253  1.00  0.00     0.274 C 
BRANCH  23  24
HETATM   24  N2  UNL     1      -5.545  -2.027   1.074  1.00  0.00     0.087 N 
BRANCH  24  25
HETATM   25  C9  UNL     1      -5.943  -1.201   2.157  1.00  0.00     0.268 C 
HETATM   26  C10 UNL     1      -7.051  -1.944   2.903  1.00  0.00     0.037 C 
ENDBRANCH  24  25
BRANCH  24  27
HETATM   27  C11 UNL     1      -5.390  -3.413   1.381  1.00  0.00     0.268 C 
HETATM   28  C12 UNL     1      -4.234  -3.720   2.301  1.00  0.00     0.037 C 
ENDBRANCH  24  27
ENDBRANCH  23  24
ENDBRANCH  22  23
ENDBRANCH  21  22
ENDBRANCH  13  21
ENDBRANCH  12  13
BRANCH  12  29
HETATM   29  O3  UNL     1      -2.004  -0.980  -1.369  1.00  0.00    -0.346 OA
ATOM     30  H3  UNL     1      -1.216  -1.510  -1.387  1.00  0.00     0.219 HD
ENDBRANCH  12  29
ENDBRANCH   1  12
BRANCH   6  31
HETATM   31  N4  UNL     1       3.756  -0.490   1.031  1.00  0.00    -0.222 N 
ATOM     32  H4  UNL     1       4.114   0.194   1.698  1.00  0.00     0.178 HD
BRANCH  31  33
HETATM   33  C18 UNL     1       4.589  -1.594   0.630  1.00  0.00     0.103 C 
HETATM   34  C19 UNL     1       4.847  -1.570  -0.853  1.00  0.00     0.069 C 
HETATM   35  C20 UNL     1       6.294  -1.987  -1.032  1.00  0.00     0.122 C 
HETATM   36 CL1  UNL     1       6.915  -1.315  -2.538  1.00  0.00    -0.101 Cl
HETATM   37 CL2  UNL     1       6.457  -3.761  -1.029  1.00  0.00    -0.101 Cl
HETATM   38  C21 UNL     1       6.942  -1.390   0.190  1.00  0.00    -0.003 C 
HETATM   39  C22 UNL     1       8.215  -2.078   0.591  1.00  0.00     0.012 C 
HETATM   40  C25 UNL     1       7.285   0.043  -0.067  1.00  0.00     0.012 C 
HETATM   41  C26 UNL     1       5.929  -1.550   1.307  1.00  0.00     0.038 C 
HETATM   42  C23 UNL     1       9.305  -1.007   0.539  1.00  0.00     0.001 C 
HETATM   43  C24 UNL     1       8.768   0.094  -0.329  1.00  0.00     0.001 C 
ENDBRANCH  31  33
ENDBRANCH   6  31
TORSDOF 15
