REMARK  1 active torsions:
REMARK  status: ('A' for Active; 'I' for Inactive)
REMARK    1  A    between atoms: C4_7  and  N4_8 
REMARK       I    between atoms: N4_8  and  C5_10 
REMARK       I    between atoms: C5_10  and  N5_11 
REMARK       I    between atoms: C5_10  and  N6_15 
ROOT
HETATM    1  C1  UNL     1      -3.451   1.023   0.700  1.00  0.00     0.162 C 
HETATM    2  N1  UNL     1      -2.079   0.591   0.440  1.00  0.00    -0.290 N 
HETATM    3  C2  UNL     1      -1.840  -0.581  -0.190  1.00  0.00     0.150 A 
HETATM    4  N2  UNL     1      -2.915  -1.417  -0.611  1.00  0.00    -0.080 NA
HETATM    5  C3  UNL     1      -0.538  -0.989  -0.436  1.00  0.00     0.131 A 
HETATM    6  N3  UNL     1      -0.324  -2.226  -1.099  1.00  0.00    -0.095 NA
HETATM    7  C4  UNL     1       0.528  -0.204  -0.041  1.00  0.00     0.136 A 
HETATM    8  N7  UNL     1       0.253   0.959   0.584  1.00  0.00    -0.293 N 
ATOM      9  H7  UNL     1       1.020   1.560   0.887  1.00  0.00     0.172 HD
HETATM   10  C6  UNL     1      -1.015   1.338   0.814  1.00  0.00     0.329 A 
HETATM   11  O1  UNL     1      -1.243   2.416   1.393  1.00  0.00    -0.246 OA
ENDROOT
BRANCH   7  12
HETATM   12  N4  UNL     1       1.725  -0.610  -0.284  1.00  0.00    -0.325 N 
HETATM   13  C5  UNL     1       2.847   0.202   0.124  1.00  0.00     0.481 C 
HETATM   14  N5  UNL     1       4.094  -0.544   0.033  1.00  0.00    -0.033 N 
HETATM   15  N6  UNL     1       2.956   1.304  -0.824  1.00  0.00    -0.033 N 
ATOM     16  H53 UNL     1       4.050  -1.416   0.561  1.00  0.00     0.278 HD
ATOM     17  H52 UNL     1       4.232  -0.934  -0.900  1.00  0.00     0.278 HD
ATOM     18  H51 UNL     1       4.887   0.030   0.321  1.00  0.00     0.278 HD
ATOM     19  H63 UNL     1       3.022   0.991  -1.792  1.00  0.00     0.278 HD
ATOM     20  H62 UNL     1       2.091   1.837  -0.916  1.00  0.00     0.278 HD
ATOM     21  H61 UNL     1       3.749   1.878  -0.536  1.00  0.00     0.278 HD
ATOM     22  H4  UNL     1       1.880  -1.498  -0.761  1.00  0.00     0.165 HD
ENDBRANCH   7  12
TORSDOF 1
