REMARK  3 active torsions:
REMARK  status: ('A' for Active; 'I' for Inactive)
REMARK    1  A    between atoms: N1_1  and  C1_4 
REMARK    2  A    between atoms: N5_16  and  C6_17 
REMARK    3  A    between atoms: C6_17  and  O2_19 
ROOT
HETATM    1  C1  UNL     1      -1.080  -1.590   0.307  1.00  0.00     0.687 A 
HETATM    2  N2  UNL     1       0.130  -2.133   0.312  1.00  0.00    -0.174 N 
ATOM      3  H2  UNL     1       0.334  -3.131   0.369  1.00  0.00     0.186 HD
HETATM    4  C2  UNL     1       1.040  -1.153   0.229  1.00  0.00     0.155 A 
HETATM    5  N3  UNL     1       2.372  -1.105   0.194  1.00  0.00    -0.336 N 
ATOM      6  H3  UNL     1       2.891  -1.982   0.236  1.00  0.00     0.168 HD
HETATM    7  C3  UNL     1       3.058   0.038   0.106  1.00  0.00     0.185 A 
HETATM    8  N4  UNL     1       2.431   1.217   0.047  1.00  0.00    -0.318 N 
ATOM      9  H4  UNL     1       2.948   2.094  -0.020  1.00  0.00     0.169 HD
HETATM   10  C4  UNL     1       1.068   1.194   0.081  1.00  0.00     0.278 A 
HETATM   11  O1  UNL     1       0.500   2.308   0.026  1.00  0.00    -0.265 OA
HETATM   12  C5  UNL     1       0.325   0.036   0.172  1.00  0.00     0.172 A 
HETATM   13  N5  UNL     1      -0.979  -0.219   0.219  1.00  0.00    -0.104 N 
ENDROOT
BRANCH  13  14
HETATM   14  C6  UNL     1      -2.082   0.640   0.192  1.00  0.00     0.251 C 
HETATM   15  N6  UNL     1      -2.171   2.029   0.108  1.00  0.00    -0.055 NA
BRANCH  14  16
HETATM   16  O2  UNL     1      -3.268   0.097   0.255  1.00  0.00    -0.334 OA
ATOM     17  H2  UNL     1      -4.017   0.681   0.237  1.00  0.00     0.220 HD
ENDBRANCH  14  16
ENDBRANCH  13  14
BRANCH   1  18
HETATM   18  N1  UNL     1      -2.197  -2.244   0.375  1.00  0.00    -0.234 N 
ATOM     19  H12 UNL     1      -2.272  -3.259   0.440  1.00  0.00     0.174 HD
ATOM     20  H11 UNL     1      -3.128  -1.826   0.371  1.00  0.00     0.174 HD
ENDBRANCH   1  18
TORSDOF 3
