REMARK  5 active torsions:
REMARK  status: ('A' for Active; 'I' for Inactive)
REMARK    1  A    between atoms: C1_2  and  C2_4 
REMARK    2  A    between atoms: N2_13  and  C9_14 
REMARK    3  A    between atoms: C13_20  and  C14_21 
REMARK    4  A    between atoms: C14_21  and  C15_22 
REMARK    5  A    between atoms: C15_22  and  C16_23 
ROOT
HETATM    1  C9  UNL     1      -2.626   0.466   0.492  1.00  0.00     0.115 A 
HETATM    2  C10 UNL     1      -2.338   0.946   1.754  1.00  0.00     0.051 A 
HETATM    3  C11 UNL     1      -1.067   0.941   2.292  1.00  0.00     0.037 A 
HETATM    4  C12 UNL     1      -0.045   0.427   1.519  1.00  0.00     0.078 A 
HETATM    5  N3  UNL     1       1.279   0.265   1.710  1.00  0.00    -0.343 N 
ATOM      6  H3  UNL     1       1.785   0.529   2.555  1.00  0.00     0.167 HD
HETATM    7  C13 UNL     1       1.836  -0.297   0.621  1.00  0.00     0.083 A 
HETATM    8  N4  UNL     1       0.858  -0.489  -0.260  1.00  0.00    -0.330 N 
ATOM      9  H4  UNL     1       0.977  -0.901  -1.186  1.00  0.00     0.168 HD
HETATM   10  C22 UNL     1      -0.326  -0.055   0.256  1.00  0.00     0.135 A 
HETATM   11  N5  UNL     1      -1.584  -0.024  -0.217  1.00  0.00    -0.326 N 
ATOM     12  H5  UNL     1      -1.761  -0.387  -1.154  1.00  0.00     0.169 HD
ENDROOT
BRANCH   1  13
HETATM   13  N2  UNL     1      -3.932   0.473  -0.059  1.00  0.00    -0.280 N 
HETATM   14  C2  UNL     1      -4.440   1.385  -0.899  1.00  0.00     0.156 A 
HETATM   15  N1  UNL     1      -5.712   1.072  -1.214  1.00  0.00    -0.339 N 
HETATM   16  C3  UNL     1      -6.050  -0.061  -0.575  1.00  0.00     0.061 A 
ATOM     17  H1  UNL     1      -6.319   1.607  -1.835  1.00  0.00     0.167 HD
HETATM   18  C4  UNL     1      -7.196  -0.820  -0.530  1.00  0.00     0.032 A 
HETATM   19  C8  UNL     1      -4.909  -0.421   0.150  1.00  0.00     0.069 A 
HETATM   20  C5  UNL     1      -7.198  -1.940   0.240  1.00  0.00     0.002 A 
HETATM   21  C6  UNL     1      -6.100  -2.347   0.980  1.00  0.00     0.002 A 
HETATM   22  C7  UNL     1      -4.960  -1.581   0.928  1.00  0.00     0.032 A 
BRANCH  14  23
HETATM   23  C1  UNL     1      -3.680   2.564  -1.394  1.00  0.00     0.420 C 
HETATM   24  F1  UNL     1      -3.586   2.495  -2.778  1.00  0.00    -0.206 F 
HETATM   25  F2  UNL     1      -4.370   3.739  -1.094  1.00  0.00    -0.206 F 
ENDBRANCH  14  23
ENDBRANCH   1  13
BRANCH   7  26
HETATM   26  C14 UNL     1       3.287  -0.648   0.419  1.00  0.00     0.081 C 
BRANCH  26  27
HETATM   27  C15 UNL     1       3.990   0.562  -0.203  1.00  0.00     0.046 C 
BRANCH  27  28
HETATM   28  C16 UNL     1       5.407   0.171  -0.382  1.00  0.00    -0.058 A 
HETATM   29  C17 UNL     1       6.328   0.404   0.634  1.00  0.00     0.007 A 
HETATM   30  C18 UNL     1       7.645   0.043   0.474  1.00  0.00     0.001 A 
HETATM   31  C19 UNL     1       8.044  -0.549  -0.694  1.00  0.00     0.000 A 
HETATM   32  C20 UNL     1       7.154  -0.792  -1.716  1.00  0.00     0.001 A 
HETATM   33  C21 UNL     1       5.838  -0.425  -1.543  1.00  0.00     0.007 A 
ENDBRANCH  27  28
ENDBRANCH  26  27
ENDBRANCH   7  26
TORSDOF 5
