REMARK  6 active torsions:
REMARK  status: ('A' for Active; 'I' for Inactive)
REMARK    1  A    between atoms: C2_2  and  C3_3 
REMARK    2  A    between atoms: C3_3  and  C4_4 
REMARK    3  A    between atoms: C3_3  and  N1_6 
REMARK    4  A    between atoms: N1_6  and  C6_8 
REMARK    5  A    between atoms: C9_16  and  C10_17 
REMARK    6  A    between atoms: C16_24  and  C17_25 
ROOT
HETATM    1  C6  UNL     1      -1.265  -1.325  -0.692  1.00  0.00     0.118 A 
HETATM    2  N2  UNL     1      -1.916  -2.326  -1.320  1.00  0.00    -0.338 N 
ATOM      3  H2  UNL     1      -2.930  -2.321  -1.432  1.00  0.00     0.168 HD
HETATM    4  C7  UNL     1      -1.158  -3.328  -1.789  1.00  0.00     0.184 A 
HETATM    5  N3  UNL     1       0.175  -3.403  -1.682  1.00  0.00    -0.332 N 
ATOM      6  H3  UNL     1       0.686  -4.198  -2.066  1.00  0.00     0.168 HD
HETATM    7  C8  UNL     1       0.821  -2.409  -1.058  1.00  0.00     0.164 A 
HETATM    8  O1  UNL     1       2.082  -2.203  -0.803  1.00  0.00    -0.291 OA
HETATM    9  C9  UNL     1       2.264  -1.067  -0.153  1.00  0.00     0.102 A 
HETATM   10  C16 UNL     1       1.018  -0.484   0.030  1.00  0.00     0.051 A 
HETATM   11  C21 UNL     1       0.115  -1.348  -0.550  1.00  0.00     0.075 A 
ENDROOT
BRANCH   1  12
HETATM   12  N1  UNL     1      -1.879  -0.310  -0.199  1.00  0.00    -0.368 N 
ATOM     13  H1  UNL     1      -1.316   0.406   0.260  1.00  0.00     0.161 HD
BRANCH  12  14
HETATM   14  C3  UNL     1      -3.304  -0.108  -0.247  1.00  0.00     0.105 C 
BRANCH  14  15
HETATM   15  C2  UNL     1      -3.607   1.068   0.626  1.00  0.00    -0.012 C 
HETATM   16  C1  UNL     1      -3.722   0.873   1.937  1.00  0.00     0.009 C 
ENDBRANCH  14  15
BRANCH  14  17
HETATM   17  C4  UNL     1      -3.785   0.194  -1.633  1.00  0.00     0.024 C 
HETATM   18  C5  UNL     1      -5.282   0.445  -1.589  1.00  0.00     0.007 C 
ENDBRANCH  14  17
ENDBRANCH  12  14
ENDBRANCH   1  12
BRANCH  10  19
HETATM   19  C17 UNL     1       0.699   0.781   0.696  1.00  0.00     0.092 A 
HETATM   20  C18 UNL     1       1.149   2.012   0.246  1.00  0.00     0.043 A 
HETATM   21  C19 UNL     1       0.653   2.946   1.116  1.00  0.00     0.072 A 
HETATM   22  C20 UNL     1      -0.083   2.276   2.069  1.00  0.00     0.230 A 
HETATM   23  F2  UNL     1      -0.723   2.891   3.092  1.00  0.00    -0.178 F 
HETATM   24  O2  UNL     1      -0.008   1.007   1.754  1.00  0.00    -0.283 OA
ENDBRANCH  10  19
BRANCH   9  25
HETATM   25  C10 UNL     1       3.530  -0.517   0.293  1.00  0.00    -0.001 A 
HETATM   26  C11 UNL     1       3.853  -0.313   1.616  1.00  0.00     0.017 A 
HETATM   27  C12 UNL     1       5.074   0.216   1.988  1.00  0.00     0.043 A 
HETATM   28  C13 UNL     1       6.018   0.560   1.037  1.00  0.00     0.116 A 
HETATM   29  F1  UNL     1       7.230   1.085   1.414  1.00  0.00    -0.206 F 
HETATM   30  C14 UNL     1       5.707   0.361  -0.289  1.00  0.00     0.043 A 
HETATM   31  C15 UNL     1       4.489  -0.165  -0.627  1.00  0.00     0.017 A 
ENDBRANCH   9  25
TORSDOF 6
