REMARK  8 active torsions:
REMARK  status: ('A' for Active; 'I' for Inactive)
REMARK    1  A    between atoms: O1_1  and  C1_3 
REMARK    2  A    between atoms: C1_3  and  C2_4 
REMARK    3  A    between atoms: C3_5  and  C4_6 
REMARK    4  A    between atoms: C6_12  and  S1_13 
REMARK    5  A    between atoms: S1_13  and  C7_14 
REMARK    6  A    between atoms: C7_14  and  C8_15 
REMARK    7  A    between atoms: C14_21  and  C15_22 
REMARK    8  A    between atoms: C18_25  and  C19_26 
ROOT
HETATM    1  C4  UNL     1      -1.000  -1.253   1.740  1.00  0.00     0.101 A 
HETATM    2  N1  UNL     1      -0.276  -1.847   2.725  1.00  0.00    -0.345 N 
ATOM      3  H1  UNL     1      -0.642  -2.667   3.209  1.00  0.00     0.167 HD
HETATM    4  C5  UNL     1       0.932  -1.344   3.059  1.00  0.00     0.182 A 
HETATM    5  N2  UNL     1       1.387  -0.271   2.412  1.00  0.00    -0.346 N 
ATOM      6  H2  UNL     1       2.302   0.090   2.682  1.00  0.00     0.167 HD
HETATM    7  C6  UNL     1       0.729   0.371   1.429  1.00  0.00     0.085 A 
HETATM    8  C14 UNL     1      -0.510  -0.142   1.083  1.00  0.00     0.043 A 
ENDROOT
BRANCH   8   9
HETATM    9  C15 UNL     1      -1.334   0.469   0.059  1.00  0.00    -0.020 A 
HETATM   10  C16 UNL     1      -2.308   1.404   0.337  1.00  0.00     0.013 A 
HETATM   11  C17 UNL     1      -3.081   1.945  -0.687  1.00  0.00     0.013 A 
HETATM   12  C18 UNL     1      -2.886   1.555  -1.992  1.00  0.00     0.006 A 
HETATM   13  C20 UNL     1      -1.898   0.607  -2.277  1.00  0.00     0.013 A 
HETATM   14  C21 UNL     1      -1.155   0.094  -1.249  1.00  0.00     0.013 A 
BRANCH  12  15
HETATM   15  C19 UNL     1      -3.678   2.099  -3.122  1.00  0.00     0.386 C 
HETATM   16  F1  UNL     1      -3.300   3.438  -3.284  1.00  0.00    -0.209 F 
HETATM   17  F2  UNL     1      -5.037   2.002  -2.915  1.00  0.00    -0.209 F 
ENDBRANCH  12  15
ENDBRANCH   8   9
BRANCH   1  18
HETATM   18  C3  UNL     1      -2.309  -1.758   1.354  1.00  0.00    -0.046 C 
HETATM   19  C2  UNL     1      -3.410  -2.157   1.032  1.00  0.00    -0.074 C 
BRANCH  19  20
HETATM   20  C1  UNL     1      -4.755  -2.617   0.655  1.00  0.00     0.258 C 
BRANCH  20  21
HETATM   21  O1  UNL     1      -5.423  -3.157   1.779  1.00  0.00    -0.389 OA
ATOM     22  H1  UNL     1      -6.292  -3.454   1.535  1.00  0.00     0.210 HD
ENDBRANCH  20  21
ENDBRANCH  19  20
ENDBRANCH   1  18
BRANCH   7  23
HETATM   23  S1  UNL     1       1.404   1.820   0.636  1.00  0.00    -0.107 SA
BRANCH  23  24
HETATM   24  C7  UNL     1       2.468   1.344  -0.745  1.00  0.00     0.119 C 
BRANCH  24  25
HETATM   25  C8  UNL     1       3.716   0.687  -0.290  1.00  0.00    -0.049 A 
HETATM   26  C9  UNL     1       3.775  -0.675  -0.095  1.00  0.00     0.008 A 
HETATM   27  C10 UNL     1       4.912  -1.326   0.320  1.00  0.00     0.001 A 
HETATM   28  C11 UNL     1       6.057  -0.606   0.555  1.00  0.00     0.000 A 
HETATM   29  C12 UNL     1       6.027   0.764   0.367  1.00  0.00     0.001 A 
HETATM   30  C13 UNL     1       4.876   1.396  -0.048  1.00  0.00     0.008 A 
ENDBRANCH  24  25
ENDBRANCH  23  24
ENDBRANCH   7  23
TORSDOF 8
