REMARK  7 active torsions:
REMARK  status: ('A' for Active; 'I' for Inactive)
REMARK    1  A    between atoms: C2_2  and  C3_3 
REMARK    2  A    between atoms: C3_3  and  C4_4 
REMARK       I    between atoms: C4_4  and  N1_6 
REMARK    3  A    between atoms: C7_9  and  C8_10 
REMARK    4  A    between atoms: C7_9  and  C11_13 
REMARK    5  A    between atoms: C8_10  and  C9_11 
REMARK    6  A    between atoms: C11_13  and  N3_18 
REMARK    7  A    between atoms: N2_14  and  O2_16 
ROOT
HETATM    1  C4  UNL     1       3.440  -0.519   0.887  1.00  0.00     0.219 C 
HETATM    2  O1  UNL     1       3.804  -0.600   2.093  1.00  0.00    -0.273 OA
HETATM    3  N1  UNL     1       2.121  -0.108   0.544  1.00  0.00    -0.348 N 
HETATM    4  C5  UNL     1       1.216   0.212   1.593  1.00  0.00     0.127 C 
HETATM    5  C6  UNL     1      -0.247   0.127   1.234  1.00  0.00     0.042 C 
HETATM    6  C7  UNL     1      -0.522   0.696  -0.135  1.00  0.00     0.073 C 
HETATM    7  C17 UNL     1       0.316  -0.093  -1.131  1.00  0.00     0.209 C 
HETATM    8  F1  UNL     1      -0.044  -1.422  -1.195  1.00  0.00    -0.222 F 
HETATM    9 CL1  UNL     1       0.043   0.615  -2.734  1.00  0.00    -0.079 Cl
HETATM   10  C18 UNL     1       1.779  -0.040  -0.837  1.00  0.00     0.187 C 
ENDROOT
BRANCH   6  11
HETATM   11  C8  UNL     1      -0.005   2.109  -0.259  1.00  0.00     0.022 C 
BRANCH  11  12
HETATM   12  C9  UNL     1      -0.534   3.101   0.685  1.00  0.00    -0.003 C 
HETATM   13  C10 UNL     1       0.137   4.449   0.364  1.00  0.00     0.005 C 
ENDBRANCH  11  12
ENDBRANCH   6  11
BRANCH   6  14
HETATM   14  C11 UNL     1      -1.922   0.643  -0.522  1.00  0.00     0.113 C 
HETATM   15  N2  UNL     1      -2.506   1.740  -0.939  1.00  0.00    -0.256 N 
ATOM     16  H2  UNL     1      -1.971   2.607  -0.985  1.00  0.00     0.195 HD
BRANCH  15  17
HETATM   17  O2  UNL     1      -3.798   1.739  -1.306  1.00  0.00    -0.288 OA
ATOM     18  H2  UNL     1      -4.221   2.534  -1.608  1.00  0.00     0.244 HD
ENDBRANCH  15  17
BRANCH  14  19
HETATM   19  N3  UNL     1      -2.761  -0.498  -0.526  1.00  0.00    -0.369 N 
HETATM   20  C12 UNL     1      -3.263  -1.060  -1.747  1.00  0.00     0.124 C 
HETATM   21  C13 UNL     1      -3.780  -2.476  -1.435  1.00  0.00     0.020 C 
HETATM   22  C14 UNL     1      -5.005  -2.244  -0.566  1.00  0.00     0.003 C 
HETATM   23  C15 UNL     1      -4.605  -1.550   0.710  1.00  0.00     0.020 C 
HETATM   24  C16 UNL     1      -3.152  -1.124   0.699  1.00  0.00     0.124 C 
ENDBRANCH  14  19
ENDBRANCH   6  14
BRANCH   1  25
HETATM   25  C3  UNL     1       4.454  -0.873  -0.139  1.00  0.00     0.103 C 
BRANCH  25  26
HETATM   26  C2  UNL     1       5.764  -1.273   0.499  1.00  0.00     0.005 C 
HETATM   27  C1  UNL     1       6.725  -1.613  -0.625  1.00  0.00     0.005 C 
ENDBRANCH  25  26
ENDBRANCH   1  25
TORSDOF 7
