REMARK  6 active torsions:
REMARK  status: ('A' for Active; 'I' for Inactive)
REMARK    1  A    between atoms: O1_1  and  C1_3 
REMARK    2  A    between atoms: C1_3  and  C2_4 
REMARK    3  A    between atoms: C1_3  and  C16_23 
REMARK    4  A    between atoms: C2_4  and  N1_5 
REMARK    5  A    between atoms: C4_9  and  C5_10 
REMARK    6  A    between atoms: C11_17  and  C12_18 
ROOT
HETATM    1  N1  UNL     1       0.558   0.101   1.100  1.00  0.00    -0.288 N 
HETATM    2  N2  UNL     1       0.678  -1.221   1.223  1.00  0.00    -0.308 N 
ATOM      3  H2  UNL     1       1.510  -1.706   1.560  1.00  0.00     0.186 HD
HETATM    4  C3  UNL     1      -0.450  -1.812   0.840  1.00  0.00     0.122 A 
HETATM    5  C4  UNL     1      -1.336  -0.810   0.451  1.00  0.00     0.020 A 
HETATM    6  C11 UNL     1      -0.648   0.361   0.637  1.00  0.00     0.074 A 
ENDROOT
BRANCH   1   7
HETATM    7  C2  UNL     1       1.613   1.012   1.443  1.00  0.00     0.185 C 
BRANCH   7   8
HETATM    8  C1  UNL     1       2.555   1.328   0.317  1.00  0.00     0.171 C 
BRANCH   8   9
HETATM    9  O1  UNL     1       1.940   1.911  -0.783  1.00  0.00    -0.389 OA
ATOM     10  H1  UNL     1       2.536   2.111  -1.495  1.00  0.00     0.210 HD
ENDBRANCH   8   9
BRANCH   8  11
HETATM   11  C16 UNL     1       3.371   0.162  -0.107  1.00  0.00    -0.028 A 
HETATM   12  C17 UNL     1       2.854  -0.692  -1.054  1.00  0.00     0.013 A 
HETATM   13  C18 UNL     1       3.636  -1.776  -1.434  1.00  0.00     0.043 A 
HETATM   14  C19 UNL     1       4.886  -2.018  -0.903  1.00  0.00     0.116 A 
HETATM   15  F2  UNL     1       5.575  -3.109  -1.342  1.00  0.00    -0.206 F 
HETATM   16  C20 UNL     1       5.403  -1.160   0.046  1.00  0.00     0.043 A 
HETATM   17  C21 UNL     1       4.633  -0.082   0.428  1.00  0.00     0.013 A 
ENDBRANCH   8  11
ENDBRANCH   7   8
ENDBRANCH   1   7
BRANCH   6  18
HETATM   18  C12 UNL     1      -1.234   1.702   0.352  1.00  0.00     0.000 A 
HETATM   19  C13 UNL     1      -1.667   2.106  -0.848  1.00  0.00     0.021 A 
HETATM   20  C14 UNL     1      -2.185   3.362  -0.959  1.00  0.00     0.050 A 
HETATM   21  S1  UNL     1      -2.056   3.964   0.631  1.00  0.00    -0.113 SA
HETATM   22  C15 UNL     1      -1.352   2.606   1.384  1.00  0.00     0.063 A 
ENDBRANCH   6  18
BRANCH   5  23
HETATM   23  C5  UNL     1      -2.686  -1.039  -0.036  1.00  0.00    -0.022 A 
HETATM   24  C6  UNL     1      -3.786  -0.564   0.637  1.00  0.00     0.015 A 
HETATM   25  C7  UNL     1      -5.080  -0.776   0.183  1.00  0.00     0.043 A 
HETATM   26  C8  UNL     1      -5.294  -1.480  -0.976  1.00  0.00     0.116 A 
HETATM   27  F1  UNL     1      -6.571  -1.695  -1.434  1.00  0.00    -0.206 F 
HETATM   28  C9  UNL     1      -4.212  -1.965  -1.668  1.00  0.00     0.043 A 
HETATM   29  C10 UNL     1      -2.912  -1.744  -1.199  1.00  0.00     0.015 A 
ENDBRANCH   5  23
TORSDOF 6
