REMARK  7 active torsions:
REMARK  status: ('A' for Active; 'I' for Inactive)
REMARK    1  A    between atoms: C2_2  and  C3_3 
REMARK    2  A    between atoms: C3_3  and  C4_4 
REMARK    3  A    between atoms: C4_4  and  C5_5 
REMARK    4  A    between atoms: C5_5  and  C6_6 
REMARK    5  A    between atoms: C7_9  and  S1_10 
REMARK    6  A    between atoms: C10_16  and  S2_17 
REMARK    7  A    between atoms: S2_17  and  C11_18 
ROOT
HETATM    1  C6  UNL     1       1.730   0.184  -0.474  1.00  0.00     0.056 A 
HETATM    2  N1  UNL     1       2.199   1.475  -0.411  1.00  0.00    -0.336 N 
ATOM      3  H1  UNL     1       1.836   2.145  -1.089  1.00  0.00     0.168 HD
HETATM    4  C7  UNL     1       3.089   1.910   0.468  1.00  0.00     0.147 A 
HETATM    5  N2  UNL     1       3.611   1.083   1.390  1.00  0.00    -0.303 N 
ATOM      6  H2  UNL     1       4.296   1.417   2.068  1.00  0.00     0.171 HD
HETATM    7  C9  UNL     1       3.198  -0.212   1.392  1.00  0.00     0.266 A 
HETATM    8  O1  UNL     1       3.661  -1.019   2.237  1.00  0.00    -0.267 OA
HETATM    9  C10 UNL     1       2.257  -0.661   0.457  1.00  0.00     0.100 A 
ENDROOT
BRANCH   1  10
HETATM   10  C5  UNL     1       0.719  -0.130  -1.470  1.00  0.00     0.028 C 
BRANCH  10  11
HETATM   11  C4  UNL     1      -0.693   0.049  -1.291  1.00  0.00    -0.015 C 
BRANCH  11  12
HETATM   12  C3  UNL     1      -1.664  -0.537  -0.400  1.00  0.00    -0.018 C 
HETATM   13  C12 UNL     1      -1.522  -0.145   1.041  1.00  0.00     0.014 C 
HETATM   14  C13 UNL     1      -1.910   1.309   1.268  1.00  0.00     0.007 C 
HETATM   15  C14 UNL     1      -3.380   1.503   1.081  1.00  0.00     0.079 C 
HETATM   16  C15 UNL     1      -3.961   0.371   0.257  1.00  0.00     0.244 C 
HETATM   17  F3  UNL     1      -4.492  -0.635   1.008  1.00  0.00    -0.206 F 
HETATM   18  F4  UNL     1      -5.092   0.961  -0.368  1.00  0.00    -0.206 F 
HETATM   19  C16 UNL     1      -3.073  -0.011  -0.855  1.00  0.00     0.092 C 
BRANCH  12  20
HETATM   20  C2  UNL     1      -1.879  -2.034  -0.449  1.00  0.00     0.009 C 
HETATM   21  C1  UNL     1      -2.332  -2.533  -1.802  1.00  0.00     0.006 C 
ENDBRANCH  12  20
ENDBRANCH  11  12
ENDBRANCH  10  11
ENDBRANCH   1  10
BRANCH   9  22
HETATM   22  S2  UNL     1       1.866  -2.392   0.546  1.00  0.00    -0.053 SA
BRANCH  22  23
HETATM   23  C11 UNL     1       2.945  -3.436  -0.426  1.00  0.00     0.420 C 
HETATM   24  F1  UNL     1       4.220  -3.426   0.083  1.00  0.00    -0.202 F 
HETATM   25  F2  UNL     1       2.393  -4.697  -0.501  1.00  0.00    -0.202 F 
ENDBRANCH  22  23
ENDBRANCH   9  22
BRANCH   4  26
HETATM   26  S1  UNL     1       3.637   3.610   0.470  1.00  0.00    -0.098 SA
HETATM   27  C8  UNL     1       4.861   3.916   1.744  1.00  0.00     0.099 C 
ENDBRANCH   4  26
TORSDOF 7
