REMARK  9 active torsions:
REMARK  status: ('A' for Active; 'I' for Inactive)
REMARK    1  A    between atoms: C2_2  and  C3_3 
REMARK    2  A    between atoms: C3_3  and  C4_4 
REMARK    3  A    between atoms: C4_4  and  N1_5 
REMARK    4  A    between atoms: C5_10  and  C6_11 
REMARK    5  A    between atoms: C8_13  and  C9_14 
REMARK    6  A    between atoms: C9_14  and  O1_15 
REMARK    7  A    between atoms: C9_14  and  C10_17 
REMARK    8  A    between atoms: C9_14  and  C19_27 
REMARK    9  A    between atoms: C10_17  and  C11_18 
ROOT
HETATM    1  C9  UNL     1       0.713  -1.123   0.628  1.00  0.00     0.205 C 
ENDROOT
BRANCH   1   2
HETATM    2  C8  UNL     1       2.156  -0.821   0.741  1.00  0.00     0.097 A 
HETATM    3  N1  UNL     1       2.808   0.268   1.128  1.00  0.00    -0.277 N 
HETATM    4  N2  UNL     1       4.146  -0.082   1.270  1.00  0.00    -0.240 N 
HETATM    5  N3  UNL     1       4.333  -1.295   0.989  1.00  0.00    -0.288 N 
ATOM      6  H2  UNL     1       4.881   0.561   1.564  1.00  0.00     0.208 HD
HETATM    7  C5  UNL     1       3.126  -1.833   0.640  1.00  0.00     0.054 A 
ATOM      8  H3  UNL     1       5.226  -1.788   1.017  1.00  0.00     0.188 HD
BRANCH   3   9
HETATM    9  C4  UNL     1       2.465   1.623   1.371  1.00  0.00     0.154 C 
BRANCH   9  10
HETATM   10  C3  UNL     1       2.703   2.472   0.134  1.00  0.00     0.048 C 
BRANCH  10  11
HETATM   11  C2  UNL     1       4.119   2.474  -0.310  1.00  0.00    -0.035 C 
HETATM   12  C1  UNL     1       4.788   3.600  -0.341  1.00  0.00     0.007 C 
ENDBRANCH  10  11
ENDBRANCH   9  10
ENDBRANCH   3   9
BRANCH   7  13
HETATM   13  C6  UNL     1       3.025  -3.191   0.058  1.00  0.00     0.056 C 
HETATM   14  C7  UNL     1       3.320  -3.029  -1.464  1.00  0.00     0.011 C 
ENDBRANCH   7  13
ENDBRANCH   1   2
BRANCH   1  15
HETATM   15  O1  UNL     1       0.492  -1.830  -0.528  1.00  0.00    -0.375 OA
ATOM     16  H1  UNL     1      -0.435  -2.024  -0.601  1.00  0.00     0.211 HD
ENDBRANCH   1  15
BRANCH   1  17
HETATM   17  C10 UNL     1      -0.115   0.163   0.355  1.00  0.00     0.089 C 
BRANCH  17  18
HETATM   18  C11 UNL     1      -1.557  -0.080   0.145  1.00  0.00    -0.059 C 
HETATM   19  C12 UNL     1      -2.457   0.523   0.953  1.00  0.00     0.015 C 
HETATM   20 CL1  UNL     1      -2.049   1.597   2.258  1.00  0.00    -0.089 Cl
HETATM   21  C13 UNL     1      -3.888   0.227   0.684  1.00  0.00     0.060 C 
HETATM   22  C14 UNL     1      -4.228   0.545  -0.753  1.00  0.00    -0.043 C 
HETATM   23  C15 UNL     1      -5.451  -0.255  -1.220  1.00  0.00     0.015 C 
HETATM   24  C16 UNL     1      -4.519   2.029  -0.834  1.00  0.00     0.015 C 
HETATM   25  C17 UNL     1      -3.095   0.129  -1.665  1.00  0.00     0.013 C 
HETATM   26  C18 UNL     1      -2.197  -0.894  -0.914  1.00  0.00     0.036 C 
ENDBRANCH  17  18
ENDBRANCH   1  17
BRANCH   1  27
HETATM   27  C19 UNL     1       0.154  -1.801   1.827  1.00  0.00     0.424 C 
HETATM   28  F1  UNL     1       0.770  -2.979   2.109  1.00  0.00    -0.167 F 
HETATM   29  F2  UNL     1      -1.193  -2.130   1.726  1.00  0.00    -0.167 F 
HETATM   30  F3  UNL     1       0.344  -1.032   2.986  1.00  0.00    -0.167 F 
ENDBRANCH   1  27
TORSDOF 9
