REMARK  9 active torsions:
REMARK  status: ('A' for Active; 'I' for Inactive)
REMARK    1  A    between atoms: O1_1  and  C1_3 
REMARK    2  A    between atoms: C1_3  and  C2_4 
REMARK    3  A    between atoms: C1_3  and  C6_11 
REMARK    4  A    between atoms: C1_3  and  C12_18 
REMARK    5  A    between atoms: C2_4  and  N1_5 
REMARK    6  A    between atoms: C12_18  and  C13_19 
REMARK    7  A    between atoms: C12_18  and  S1_24 
REMARK    8  A    between atoms: C13_19  and  C14_20 
REMARK    9  A    between atoms: S1_24  and  C15_25 
ROOT
HETATM    1  C1  UNL     1      -0.702   0.145   0.526  1.00  0.00     0.114 C 
ENDROOT
BRANCH   1   2
HETATM    2  O1  UNL     1      -1.451   0.947   1.431  1.00  0.00    -0.382 OA
ATOM      3  H1  UNL     1      -1.730   0.324   2.092  1.00  0.00     0.211 HD
ENDBRANCH   1   2
BRANCH   1   4
HETATM    4  C2  UNL     1      -0.256   1.139  -0.529  1.00  0.00     0.173 C 
BRANCH   4   5
HETATM    5  N1  UNL     1      -1.446   1.777  -1.135  1.00  0.00    -0.348 N 
HETATM    6  C3  UNL     1      -2.026   2.890  -0.630  1.00  0.00     0.108 A 
HETATM    7  C4  UNL     1      -3.091   3.222  -1.436  1.00  0.00     0.106 A 
HETATM    8  N2  UNL     1      -3.106   2.288  -2.396  1.00  0.00    -0.361 N 
HETATM    9  C5  UNL     1      -2.105   1.402  -2.222  1.00  0.00     0.182 A 
ATOM     10  H2  UNL     1      -3.784   2.252  -3.157  1.00  0.00     0.166 HD
ENDBRANCH   4   5
ENDBRANCH   1   4
BRANCH   1  11
HETATM   11  C6  UNL     1      -1.645  -0.835  -0.047  1.00  0.00    -0.021 A 
HETATM   12  C7  UNL     1      -1.165  -1.777  -0.939  1.00  0.00     0.013 A 
HETATM   13  C8  UNL     1      -1.934  -2.733  -1.552  1.00  0.00     0.043 A 
HETATM   14  C9  UNL     1      -3.277  -2.775  -1.273  1.00  0.00     0.116 A 
HETATM   15  F1  UNL     1      -4.002  -3.721  -1.894  1.00  0.00    -0.206 F 
HETATM   16  C10 UNL     1      -3.798  -1.863  -0.396  1.00  0.00     0.043 A 
HETATM   17  C11 UNL     1      -2.995  -0.897   0.218  1.00  0.00     0.013 A 
ENDBRANCH   1  11
BRANCH   1  18
HETATM   18  C12 UNL     1       0.392  -0.565   1.254  1.00  0.00     0.101 C 
BRANCH  18  19
HETATM   19  C13 UNL     1      -0.225  -1.424   2.337  1.00  0.00     0.136 C 
BRANCH  19  20
HETATM   20  C14 UNL     1       0.841  -2.186   3.100  1.00  0.00     0.389 C 
HETATM   21  F2  UNL     1       0.155  -2.938   4.059  1.00  0.00    -0.171 F 
HETATM   22  F3  UNL     1       1.521  -3.054   2.306  1.00  0.00    -0.171 F 
HETATM   23  F4  UNL     1       1.632  -1.303   3.788  1.00  0.00    -0.171 F 
ENDBRANCH  19  20
ENDBRANCH  18  19
BRANCH  18  24
HETATM   24  S1  UNL     1       1.805   0.367   1.768  1.00  0.00    -0.121 SA
BRANCH  24  25
HETATM   25  C15 UNL     1       3.021   0.727   0.556  1.00  0.00     0.001 A 
HETATM   26  C16 UNL     1       3.108   0.209  -0.716  1.00  0.00     0.018 A 
HETATM   27  C17 UNL     1       4.066   0.512  -1.630  1.00  0.00     0.001 A 
HETATM   28  C18 UNL     1       5.046   1.419  -1.266  1.00  0.00     0.000 A 
HETATM   29  C19 UNL     1       5.018   1.977  -0.006  1.00  0.00     0.001 A 
HETATM   30  C20 UNL     1       4.024   1.632   0.878  1.00  0.00     0.018 A 
ENDBRANCH  24  25
ENDBRANCH  18  24
ENDBRANCH   1  18
TORSDOF 9
