REMARK  4 active torsions:
REMARK  status: ('A' for Active; 'I' for Inactive)
REMARK    1  A    between atoms: C1_2  and  C2_3 
REMARK       I    between atoms: C1_2  and  N1_13 
REMARK    2  A    between atoms: C2_3  and  S1_4 
REMARK    3  A    between atoms: S1_4  and  C3_7 
REMARK    4  A    between atoms: N1_13  and  C9_15 
ROOT
HETATM    1  O1  UNL     1      -1.321  -0.285  -1.928  1.00  0.00    -0.272 OA
HETATM    2  C1  UNL     1      -0.920  -0.561  -0.801  1.00  0.00     0.236 C 
HETATM    3  N1  UNL     1      -1.724  -0.591   0.335  1.00  0.00    -0.326 N 
ATOM      4  H1  UNL     1      -1.286  -0.840   1.222  1.00  0.00     0.169 HD
ENDROOT
BRANCH   2   5
HETATM    5  C2  UNL     1       0.547  -0.883  -0.678  1.00  0.00     0.248 C 
BRANCH   5   6
HETATM    6  S1  UNL     1       1.367   0.672  -0.384  1.00  0.00     0.183 S 
HETATM    7  O2  UNL     1       1.004   1.583  -1.519  1.00  0.00    -0.222 OA
HETATM    8  O3  UNL     1       0.788   1.236   0.890  1.00  0.00    -0.222 OA
BRANCH   6   9
HETATM    9  C3  UNL     1       3.083   0.473  -0.216  1.00  0.00     0.059 A 
HETATM   10  C4  UNL     1       3.726   0.247   0.967  1.00  0.00     0.023 A 
HETATM   11  C5  UNL     1       5.102   0.101   0.988  1.00  0.00     0.002 A 
HETATM   12  C6  UNL     1       5.878   0.172  -0.147  1.00  0.00     0.000 A 
HETATM   13  C7  UNL     1       5.221   0.400  -1.338  1.00  0.00     0.002 A 
HETATM   14  C8  UNL     1       3.851   0.548  -1.374  1.00  0.00     0.023 A 
ENDBRANCH   6   9
ENDBRANCH   5   6
ENDBRANCH   2   5
BRANCH   3  15
HETATM   15  C9  UNL     1      -3.108  -0.299   0.342  1.00  0.00     0.034 A 
HETATM   16  C10 UNL     1      -3.779   0.420  -0.611  1.00  0.00     0.029 A 
HETATM   17  C11 UNL     1      -5.149   0.616  -0.509  1.00  0.00     0.002 A 
HETATM   18  C12 UNL     1      -5.903   0.115   0.529  1.00  0.00     0.000 A 
HETATM   19  C13 UNL     1      -5.201  -0.603   1.472  1.00  0.00     0.002 A 
HETATM   20  C14 UNL     1      -3.855  -0.821   1.411  1.00  0.00     0.029 A 
ENDBRANCH   3  15
TORSDOF 4
