REMARK  5 active torsions:
REMARK  status: ('A' for Active; 'I' for Inactive)
REMARK       I    between atoms: C1_2  and  N1_3 
REMARK    1  A    between atoms: C1_2  and  O3_13 
REMARK       I    between atoms: N1_3  and  C2_5 
REMARK    2  A    between atoms: C2_5  and  C3_7 
REMARK    3  A    between atoms: O3_13  and  C9_14 
REMARK    4  A    between atoms: C9_14  and  C10_15 
REMARK    5  A    between atoms: C10_15  and  C11_17 
ROOT
HETATM    1  O1  UNL     1       0.411   1.557   0.442  1.00  0.00    -0.238 OA
HETATM    2  C1  UNL     1       0.577   0.357   0.103  1.00  0.00     0.367 C 
HETATM    3  N1  UNL     1       1.903  -0.205  -0.018  1.00  0.00    -0.269 N 
ATOM      4  H1  UNL     1       2.038  -1.178  -0.292  1.00  0.00     0.174 HD
HETATM    5  C2  UNL     1       3.012   0.636   0.256  1.00  0.00     0.260 C 
HETATM    6  O2  UNL     1       2.828   1.843   0.596  1.00  0.00    -0.267 OA
ENDROOT
BRANCH   2   7
HETATM    7  O3  UNL     1      -0.555  -0.396  -0.147  1.00  0.00    -0.296 OA
BRANCH   7   8
HETATM    8  C9  UNL     1      -1.838   0.182  -0.020  1.00  0.00     0.264 C 
BRANCH   8   9
HETATM    9  C10 UNL     1      -2.921  -0.787  -0.330  1.00  0.00     0.183 C 
HETATM   10  O4  UNL     1      -2.704  -1.970  -0.663  1.00  0.00    -0.290 OA
BRANCH   9  11
HETATM   11  C11 UNL     1      -4.279  -0.287  -0.228  1.00  0.00     0.012 A 
HETATM   12  C12 UNL     1      -4.611   1.006   0.133  1.00  0.00     0.015 A 
HETATM   13  C13 UNL     1      -5.922   1.426   0.214  1.00  0.00     0.001 A 
HETATM   14  C14 UNL     1      -6.945   0.557  -0.066  1.00  0.00     0.000 A 
HETATM   15  C15 UNL     1      -6.647  -0.719  -0.423  1.00  0.00     0.001 A 
HETATM   16  C16 UNL     1      -5.325  -1.135  -0.502  1.00  0.00     0.015 A 
ENDBRANCH   9  11
ENDBRANCH   8   9
ENDBRANCH   7   8
ENDBRANCH   2   7
BRANCH   5  17
HETATM   17  C3  UNL     1       4.381   0.146   0.157  1.00  0.00     0.032 A 
HETATM   18  C4  UNL     1       5.453   1.001   0.435  1.00  0.00     0.017 A 
HETATM   19  C5  UNL     1       6.752   0.575   0.352  1.00  0.00     0.001 A 
HETATM   20  C6  UNL     1       7.069  -0.724  -0.010  1.00  0.00     0.000 A 
HETATM   21  C7  UNL     1       6.024  -1.574  -0.285  1.00  0.00     0.001 A 
HETATM   22  C8  UNL     1       4.713  -1.142  -0.201  1.00  0.00     0.017 A 
ENDBRANCH   5  17
TORSDOF 5
