REMARK  5 active torsions:
REMARK  status: ('A' for Active; 'I' for Inactive)
REMARK    1  A    between atoms: C9_9  and  C10_10 
REMARK    2  A    between atoms: C10_10  and  C11_11 
REMARK    3  A    between atoms: C11_11  and  C12_12 
REMARK    4  A    between atoms: C12_12  and  C13_13 
REMARK    5  A    between atoms: C13_13  and  O1_14 
ROOT
HETATM    1  C1  UNL     1      -1.958  -1.233   1.792  1.00  0.00     0.016 C 
HETATM    2  C2  UNL     1      -2.573  -1.156   0.447  1.00  0.00    -0.033 C 
HETATM    3  C3  UNL     1      -3.972  -1.734   0.453  1.00  0.00     0.016 C 
HETATM    4  C4  UNL     1      -1.785  -1.638  -0.721  1.00  0.00     0.064 C 
HETATM    5  C5  UNL     1      -2.318  -0.421  -1.479  1.00  0.00     0.018 C 
HETATM    6  C6  UNL     1      -2.506   0.235  -0.208  1.00  0.00    -0.000 C 
HETATM    7  C7  UNL     1      -1.459   0.986   0.459  1.00  0.00     0.004 A 
HETATM    8  C8  UNL     1      -0.068   0.778   0.265  1.00  0.00     0.010 A 
HETATM    9  C9  UNL     1       0.480  -0.246  -0.644  1.00  0.00     0.061 C 
HETATM   10  C14 UNL     1      -0.308  -1.494  -0.579  1.00  0.00     0.136 C 
HETATM   11  O2  UNL     1       0.273  -2.554  -0.389  1.00  0.00    -0.297 OA
HETATM   12  C15 UNL     1      -0.633   2.075  -0.187  1.00  0.00    -0.038 A 
HETATM   13  C16 UNL     1      -0.303   3.325   0.652  1.00  0.00     0.015 C 
HETATM   14  C17 UNL     1      -0.867   2.416  -1.625  1.00  0.00     0.015 C 
ENDROOT
BRANCH   9  15
HETATM   15  C10 UNL     1       1.933  -0.523  -0.444  1.00  0.00     0.013 C 
BRANCH  15  16
HETATM   16  C11 UNL     1       2.372  -0.989   0.882  1.00  0.00     0.003 C 
BRANCH  16  17
HETATM   17  C12 UNL     1       3.886  -1.207   0.831  1.00  0.00     0.026 C 
BRANCH  17  18
HETATM   18  C13 UNL     1       4.649   0.038   0.494  1.00  0.00     0.164 C 
BRANCH  18  19
HETATM   19  O1  UNL     1       6.015  -0.339   0.497  1.00  0.00    -0.401 OA
ATOM     20  H1  UNL     1       6.499   0.450   0.283  1.00  0.00     0.209 HD
ENDBRANCH  18  19
ENDBRANCH  17  18
ENDBRANCH  16  17
ENDBRANCH  15  16
ENDBRANCH   9  15
TORSDOF 5
