REMARK  3 active torsions:
REMARK  status: ('A' for Active; 'I' for Inactive)
REMARK    1  A    between atoms: C5_7  and  C6_8 
REMARK    2  A    between atoms: C6_8  and  C7_9 
REMARK    3  A    between atoms: C7_9  and  C8_10 
ROOT
HETATM    1  C6  UNL     1      -0.173  -0.767   0.288  1.00  0.00    -0.061 C 
ENDROOT
BRANCH   1   2
HETATM    2  C5  UNL     1       1.220  -0.660  -0.098  1.00  0.00     0.020 A 
HETATM    3  C4  UNL     1       2.029   0.331   0.402  1.00  0.00     0.052 A 
HETATM    4  C3  UNL     1       3.347   0.407   0.017  1.00  0.00     0.061 A 
HETATM    5  N1  UNL     1       4.336   1.238   0.333  1.00  0.00    -0.344 N 
HETATM    6  C19 UNL     1       3.885  -0.511  -0.881  1.00  0.00     0.060 A 
HETATM    7  C2  UNL     1       5.437   0.885  -0.314  1.00  0.00     0.078 A 
ATOM      8  H1  UNL     1       4.259   2.027   0.975  1.00  0.00     0.167 HD
HETATM    9  C1  UNL     1       6.777   1.565  -0.235  1.00  0.00     0.089 C 
HETATM   10  N3  UNL     1       5.176  -0.184  -1.060  1.00  0.00    -0.344 N 
ATOM     11  H3  UNL     1       5.840  -0.671  -1.663  1.00  0.00     0.167 HD
HETATM   12  C18 UNL     1       3.086  -1.504  -1.387  1.00  0.00     0.033 A 
HETATM   13  C17 UNL     1       1.772  -1.566  -0.992  1.00  0.00     0.023 A 
ENDBRANCH   1   2
BRANCH   1  14
HETATM   14  C7  UNL     1      -1.342  -0.837   0.603  1.00  0.00    -0.060 C 
BRANCH  14  15
HETATM   15  C8  UNL     1      -2.715  -0.937   0.992  1.00  0.00     0.032 A 
HETATM   16  C9  UNL     1      -3.195  -1.873   1.892  1.00  0.00     0.038 A 
HETATM   17  C10 UNL     1      -4.525  -1.922   2.228  1.00  0.00     0.090 A 
HETATM   18  N2  UNL     1      -5.379  -1.058   1.685  1.00  0.00    -0.365 N 
HETATM   19  C11 UNL     1      -4.943  -0.138   0.809  1.00  0.00     0.043 A 
ATOM     20  H2  UNL     1      -6.367  -1.094   1.935  1.00  0.00     0.165 HD
HETATM   21  C12 UNL     1      -5.817   0.774   0.229  1.00  0.00     0.030 A 
HETATM   22  C16 UNL     1      -3.609  -0.049   0.438  1.00  0.00     0.009 A 
HETATM   23  C13 UNL     1      -5.387   1.720  -0.667  1.00  0.00     0.002 A 
HETATM   24  C14 UNL     1      -4.045   1.769  -1.007  1.00  0.00     0.001 A 
HETATM   25  C15 UNL     1      -3.145   0.882  -0.454  1.00  0.00     0.015 A 
ENDBRANCH  14  15
ENDBRANCH   1  14
TORSDOF 3
