REMARK  5 active torsions:
REMARK  status: ('A' for Active; 'I' for Inactive)
REMARK    1  A    between atoms: C2_4  and  N2_5 
REMARK    2  A    between atoms: C2_4  and  S1_16 
REMARK    3  A    between atoms: N2_5  and  C3_7 
REMARK    4  A    between atoms: S1_16  and  C10_17 
REMARK    5  A    between atoms: C10_17  and  C12_19 
ROOT
HETATM    1  C1  UNL     1       0.866  -0.697   3.073  1.00  0.00     0.148 C 
HETATM    2  N1  UNL     1      -0.147  -0.504   2.066  1.00  0.00    -0.375 N 
ATOM      3  H1  UNL     1      -0.915  -1.172   2.005  1.00  0.00     0.161 HD
HETATM    4  C2  UNL     1      -0.114   0.494   1.232  1.00  0.00     0.141 C 
ENDROOT
BRANCH   4   5
HETATM    5  N2  UNL     1       0.935   1.446   1.281  1.00  0.00    -0.323 N 
ATOM      6  H2  UNL     1       0.807   2.321   1.790  1.00  0.00     0.169 HD
BRANCH   5   7
HETATM    7  C3  UNL     1       2.045   1.206   0.685  1.00  0.00     0.107 A 
HETATM    8  C4  UNL     1       3.087   2.113   0.714  1.00  0.00     0.055 A 
HETATM    9  C5  UNL     1       4.281   1.847   0.069  1.00  0.00    -0.057 A 
HETATM   10  C6  UNL     1       5.390   2.835   0.112  1.00  0.00     0.048 C 
HETATM   11  C7  UNL     1       4.357   0.638  -0.592  1.00  0.00     0.031 A 
HETATM   12  C8  UNL     1       3.341  -0.274  -0.634  1.00  0.00     0.007 A 
HETATM   13  C9  UNL     1       3.441  -1.575  -1.350  1.00  0.00     0.068 C 
HETATM   14  N3  UNL     1       2.193   0.050   0.022  1.00  0.00    -0.346 N 
ATOM     15  H3  UNL     1       1.417  -0.611   0.009  1.00  0.00     0.167 HD
ENDBRANCH   5   7
ENDBRANCH   4   5
BRANCH   4  16
HETATM   16  S1  UNL     1      -1.396   0.672   0.021  1.00  0.00    -0.089 SA
BRANCH  16  17
HETATM   17  C10 UNL     1      -2.622  -0.652   0.127  1.00  0.00     0.058 C 
HETATM   18  C11 UNL     1      -2.003  -1.978  -0.251  1.00  0.00     0.022 C 
BRANCH  17  19
HETATM   19  C12 UNL     1      -3.843  -0.310  -0.688  1.00  0.00    -0.039 C 
HETATM   20  C13 UNL     1      -4.411   0.975  -0.118  1.00  0.00     0.015 C 
HETATM   21  C14 UNL     1      -3.446  -0.065  -2.128  1.00  0.00     0.015 C 
HETATM   22  C15 UNL     1      -4.879  -1.390  -0.665  1.00  0.00     0.015 C 
ENDBRANCH  17  19
ENDBRANCH  16  17
ENDBRANCH   4  16
TORSDOF 5
