REMARK  4 active torsions:
REMARK  status: ('A' for Active; 'I' for Inactive)
REMARK    1  A    between atoms: O1_1  and  C1_3 
REMARK    2  A    between atoms: C6_8  and  C7_9 
REMARK    3  A    between atoms: C12_14  and  N1_15 
REMARK    4  A    between atoms: C17_20  and  N2_21 
ROOT
HETATM    1  C1  UNL     1       3.642  -1.339  -0.022  1.00  0.00     0.078 A 
HETATM    2  C2  UNL     1       4.605  -0.369  -0.188  1.00  0.00     0.037 A 
HETATM    3  C3  UNL     1       4.248   0.945  -0.328  1.00  0.00     0.004 A 
HETATM    4  C4  UNL     1       2.886   1.253  -0.297  1.00  0.00     0.015 A 
HETATM    5  C5  UNL     1       1.893   0.318  -0.134  1.00  0.00     0.006 A 
HETATM    6  C6  UNL     1       0.519   0.302  -0.063  1.00  0.00     0.064 A 
HETATM    7  N2  UNL     1       0.090  -1.040   0.121  1.00  0.00    -0.305 N 
HETATM    8  C18 UNL     1       1.194  -1.814   0.159  1.00  0.00     0.114 A 
HETATM    9  C19 UNL     1       2.292  -0.995   0.005  1.00  0.00     0.026 A 
ENDROOT
BRANCH   1  10
HETATM   10  O1  UNL     1       4.036  -2.663   0.118  1.00  0.00    -0.360 OA
ATOM     11  H1  UNL     1       3.372  -3.332   0.233  1.00  0.00     0.217 HD
ENDBRANCH   1  10
BRANCH   6  12
HETATM   12  C7  UNL     1      -0.403   1.326  -0.140  1.00  0.00     0.019 A 
HETATM   13  C8  UNL     1      -0.060   2.621  -0.313  1.00  0.00     0.016 A 
HETATM   14  C9  UNL     1      -1.039   3.620  -0.384  1.00  0.00     0.001 A 
HETATM   15  C10 UNL     1      -2.343   3.301  -0.280  1.00  0.00     0.002 A 
HETATM   16  C11 UNL     1      -2.731   1.975  -0.100  1.00  0.00     0.031 A 
HETATM   17  C12 UNL     1      -1.766   0.991  -0.031  1.00  0.00     0.053 A 
BRANCH  17  18
HETATM   18  N1  UNL     1      -2.141  -0.306   0.145  1.00  0.00    -0.307 N 
HETATM   19  C13 UNL     1      -3.436  -0.584   0.244  1.00  0.00     0.099 A 
HETATM   20  C14 UNL     1      -3.824  -1.918   0.424  1.00  0.00     0.018 A 
HETATM   21  C15 UNL     1      -2.914  -2.908   0.498  1.00  0.00     0.005 A 
HETATM   22  C16 UNL     1      -1.573  -2.627   0.396  1.00  0.00     0.050 A 
HETATM   23  C17 UNL     1      -1.214  -1.292   0.217  1.00  0.00     0.118 A 
ENDBRANCH  17  18
ENDBRANCH   6  12
TORSDOF 4
