REMARK  8 active torsions:
REMARK  status: ('A' for Active; 'I' for Inactive)
REMARK    1  A    between atoms: S1_2  and  C2_3 
REMARK       I    between atoms: N3_9  and  C4_11 
REMARK    2  A    between atoms: C4_11  and  C5_13 
REMARK    3  A    between atoms: C5_13  and  O2_14 
REMARK    4  A    between atoms: O2_14  and  C6_15 
REMARK    5  A    between atoms: C6_15  and  C7_17 
REMARK    6  A    between atoms: C7_17  and  S2_18 
REMARK    7  A    between atoms: S2_18  and  C8_19 
REMARK    8  A    between atoms: C8_19  and  C9_21 
ROOT
HETATM    1  C2  UNL     1       5.172  -1.437  -0.238  1.00  0.00     0.129 A 
HETATM    2  N1  UNL     1       5.386  -0.477   0.649  1.00  0.00    -0.286 N 
ATOM      3  H1  UNL     1       6.114  -0.593   1.354  1.00  0.00     0.188 HD
HETATM    4  N2  UNL     1       4.695   0.584   0.629  1.00  0.00    -0.278 N 
ATOM      5  H2  UNL     1       4.861   1.323   1.312  1.00  0.00     0.189 HD
HETATM    6  C3  UNL     1       3.746   0.719  -0.300  1.00  0.00     0.168 A 
HETATM    7  N3  UNL     1       2.924   1.722  -0.500  1.00  0.00    -0.304 N 
ATOM      8  H3  UNL     1       2.238   1.698  -1.255  1.00  0.00     0.171 HD
HETATM    9  C4  UNL     1       3.019   2.823   0.354  1.00  0.00     0.247 C 
HETATM   10  O1  UNL     1       4.063   3.557   0.346  1.00  0.00    -0.271 OA
HETATM   11  S3  UNL     1       3.888  -0.758  -1.157  1.00  0.00    -0.026 SA
ENDROOT
BRANCH   9  12
HETATM   12  C5  UNL     1       1.915   3.148   1.279  1.00  0.00     0.281 C 
BRANCH  12  13
HETATM   13  O2  UNL     1       0.821   2.294   1.093  1.00  0.00    -0.311 OA
BRANCH  13  14
HETATM   14  C6  UNL     1       0.085   2.237  -0.055  1.00  0.00     0.269 C 
HETATM   15  O3  UNL     1       0.330   2.964  -1.053  1.00  0.00    -0.264 OA
BRANCH  14  16
HETATM   16  C7  UNL     1      -1.065   1.307  -0.215  1.00  0.00     0.193 C 
BRANCH  16  17
HETATM   17  S2  UNL     1      -1.338   0.309   1.265  1.00  0.00    -0.082 SA
BRANCH  17  18
HETATM   18  C8  UNL     1      -2.750  -0.760   0.928  1.00  0.00     0.191 C 
HETATM   19  O4  UNL     1      -3.084  -1.518   1.834  1.00  0.00    -0.285 OA
BRANCH  18  20
HETATM   20  C9  UNL     1      -3.477  -0.740  -0.358  1.00  0.00     0.075 A 
HETATM   21  C10 UNL     1      -4.027  -1.953  -0.978  1.00  0.00     0.023 A 
HETATM   22  C11 UNL     1      -4.952  -0.904  -0.413  1.00  0.00    -0.036 A 
HETATM   23  C12 UNL     1      -5.730  -1.368   0.796  1.00  0.00     0.015 C 
HETATM   24  C13 UNL     1      -5.720  -0.009  -1.376  1.00  0.00     0.015 C 
ENDBRANCH  18  20
ENDBRANCH  17  18
ENDBRANCH  16  17
ENDBRANCH  14  16
ENDBRANCH  13  14
ENDBRANCH  12  13
ENDBRANCH   9  12
BRANCH   1  25
HETATM   25  S1  UNL     1       6.007  -3.022  -0.421  1.00  0.00    -0.108 SA
HETATM   26  C1  UNL     1       7.423  -2.801  -1.532  1.00  0.00     0.097 C 
ENDBRANCH   1  25
TORSDOF 8
