REMARK  10 active torsions:
REMARK  status: ('A' for Active; 'I' for Inactive)
REMARK    1  A    between atoms: C3_3  and  C5_5 
REMARK    2  A    between atoms: C5_5  and  O2_7 
REMARK    3  A    between atoms: O2_7  and  C6_8 
REMARK    4  A    between atoms: C6_8  and  C8_10 
REMARK    5  A    between atoms: C8_10  and  O4_12 
REMARK    6  A    between atoms: O4_12  and  C9_13 
REMARK    7  A    between atoms: C9_13  and  C10_14 
REMARK    8  A    between atoms: C16_20  and  O5_21 
REMARK    9  A    between atoms: O5_21  and  C17_22 
REMARK   10  A    between atoms: C19_25  and  O7_26 
ROOT
HETATM    1  C10 UNL     1      -1.970   0.512   0.431  1.00  0.00     0.010 C 
HETATM    2  C11 UNL     1      -1.857   1.679   1.386  1.00  0.00     0.020 C 
HETATM    3  C12 UNL     1      -2.187  -0.723   1.238  1.00  0.00    -0.006 C 
HETATM    4  C13 UNL     1      -1.812  -1.991   0.484  1.00  0.00     0.011 C 
HETATM    5  C14 UNL     1      -3.561  -0.897   1.778  1.00  0.00     0.008 C 
HETATM    6  C15 UNL     1      -4.505   0.212   1.407  1.00  0.00     0.035 C 
HETATM    7  C16 UNL     1      -4.445   0.540  -0.079  1.00  0.00     0.161 C 
HETATM    8  C19 UNL     1      -3.058   0.825  -0.554  1.00  0.00     0.158 C 
ENDROOT
BRANCH   1   9
HETATM    9  C9  UNL     1      -0.675   0.417  -0.350  1.00  0.00     0.191 C 
BRANCH   9  10
HETATM   10  O4  UNL     1       0.431   0.212   0.519  1.00  0.00    -0.319 OA
BRANCH  10  11
HETATM   11  C8  UNL     1       1.702   0.095   0.053  1.00  0.00     0.288 C 
HETATM   12  O3  UNL     1       1.899   0.173  -1.191  1.00  0.00    -0.262 OA
BRANCH  11  13
HETATM   13  C6  UNL     1       2.846  -0.122   1.007  1.00  0.00     0.227 C 
HETATM   14  C7  UNL     1       2.610  -1.409   1.768  1.00  0.00     0.051 C 
BRANCH  13  15
HETATM   15  O2  UNL     1       4.070  -0.215   0.335  1.00  0.00    -0.302 OA
BRANCH  15  16
HETATM   16  C5  UNL     1       5.165   0.604   0.596  1.00  0.00     0.289 C 
HETATM   17  O1  UNL     1       4.999   1.465   1.496  1.00  0.00    -0.260 OA
BRANCH  16  18
HETATM   18  C3  UNL     1       6.424   0.490  -0.114  1.00  0.00     0.009 C 
HETATM   19  C2  UNL     1       6.614  -0.403  -1.057  1.00  0.00    -0.018 C 
HETATM   20  C1  UNL     1       7.902  -0.513  -1.775  1.00  0.00     0.036 C 
HETATM   21  C4  UNL     1       7.527   1.408   0.238  1.00  0.00     0.054 C 
ENDBRANCH  16  18
ENDBRANCH  15  16
ENDBRANCH  13  15
ENDBRANCH  11  13
ENDBRANCH  10  11
ENDBRANCH   9  10
ENDBRANCH   1   9
BRANCH   8  22
HETATM   22  O7  UNL     1      -2.884   2.169  -0.907  1.00  0.00    -0.392 OA
ATOM     23  H7  UNL     1      -3.573   2.367  -1.531  1.00  0.00     0.210 HD
ENDBRANCH   8  22
BRANCH   7  24
HETATM   24  O5  UNL     1      -5.165  -0.371  -0.845  1.00  0.00    -0.314 OA
BRANCH  24  25
HETATM   25  C17 UNL     1      -6.305  -0.051  -1.502  1.00  0.00     0.255 C 
HETATM   26  C18 UNL     1      -7.120  -0.971  -2.334  1.00  0.00     0.126 C 
HETATM   27  O6  UNL     1      -6.689   1.122  -1.388  1.00  0.00    -0.266 OA
ENDBRANCH  24  25
ENDBRANCH   7  24
TORSDOF 10
