REMARK  6 active torsions:
REMARK  status: ('A' for Active; 'I' for Inactive)
REMARK    1  A    between atoms: C2_2  and  N1_3 
REMARK    2  A    between atoms: C3_4  and  S1_5 
REMARK    3  A    between atoms: S1_5  and  C4_6 
REMARK    4  A    between atoms: C4_6  and  C5_7 
REMARK       I    between atoms: C5_7  and  N2_9 
REMARK    5  A    between atoms: N2_9  and  C6_11 
REMARK    6  A    between atoms: C13_22  and  N5_23 
ROOT
HETATM    1  N1  UNL     1      -3.058  -0.762  -0.002  1.00  0.00    -0.160 N 
HETATM    2  C3  UNL     1      -2.258  -1.764  -0.305  1.00  0.00     0.177 A 
HETATM    3  N3  UNL     1      -3.092  -2.798  -0.660  1.00  0.00    -0.265 N 
ATOM      4  H3  UNL     1      -2.793  -3.729  -0.952  1.00  0.00     0.189 HD
HETATM    5  N4  UNL     1      -4.336  -2.390  -0.561  1.00  0.00    -0.130 N 
ATOM      6  H4  UNL     1      -5.155  -2.962  -0.767  1.00  0.00     0.205 HD
HETATM    7  C13 UNL     1      -4.376  -1.114  -0.150  1.00  0.00     0.699 A 
ENDROOT
BRANCH   2   8
HETATM    8  S1  UNL     1      -0.528  -1.979  -0.321  1.00  0.00    -0.083 SA
BRANCH   8   9
HETATM    9  C4  UNL     1       0.486  -0.626   0.170  1.00  0.00     0.185 C 
BRANCH   9  10
HETATM   10  C5  UNL     1       1.932  -1.042   0.032  1.00  0.00     0.227 C 
HETATM   11  O1  UNL     1       2.267  -2.182  -0.373  1.00  0.00    -0.273 OA
HETATM   12  N2  UNL     1       2.959  -0.121   0.367  1.00  0.00    -0.356 N 
ATOM     13  H2  UNL     1       2.699   0.809   0.695  1.00  0.00     0.162 HD
BRANCH  12  14
HETATM   14  C6  UNL     1       4.366  -0.459   0.258  1.00  0.00     0.084 C 
HETATM   15  C7  UNL     1       5.016  -0.286   1.616  1.00  0.00     0.025 C 
HETATM   16  C8  UNL     1       5.810   1.025   1.644  1.00  0.00     0.002 C 
HETATM   17  C9  UNL     1       6.985   0.823   0.715  1.00  0.00     0.004 C 
HETATM   18  C10 UNL     1       6.459   0.562  -0.670  1.00  0.00    -0.017 C 
HETATM   19  C11 UNL     1       7.155  -0.626  -1.301  1.00  0.00     0.010 C 
HETATM   20  C12 UNL     1       4.976   0.480  -0.762  1.00  0.00     0.029 C 
ENDBRANCH  12  14
ENDBRANCH   9  10
ENDBRANCH   8   9
ENDBRANCH   2   8
BRANCH   1  21
HETATM   21  C2  UNL     1      -2.659   0.549   0.421  1.00  0.00     0.145 C 
HETATM   22  C1  UNL     1      -2.485   1.484  -0.783  1.00  0.00     0.027 C 
ENDBRANCH   1  21
BRANCH   7  23
HETATM   23  N5  UNL     1      -5.490  -0.278   0.094  1.00  0.00    -0.212 N 
HETATM   24  C14 UNL     1      -6.092  -0.262   1.404  1.00  0.00     0.167 C 
HETATM   25  C15 UNL     1      -7.565  -0.549   1.252  1.00  0.00     0.188 C 
HETATM   26  O2  UNL     1      -7.961  -0.540  -0.080  1.00  0.00    -0.388 OA
HETATM   27  C16 UNL     1      -7.567   0.600  -0.748  1.00  0.00     0.188 C 
HETATM   28  C17 UNL     1      -6.046   0.565  -0.936  1.00  0.00     0.167 C 
ENDBRANCH   7  23
TORSDOF 6
