REMARK  8 active torsions:
REMARK  status: ('A' for Active; 'I' for Inactive)
REMARK    1  A    between atoms: C8_9  and  C9_11 
REMARK    2  A    between atoms: C9_11  and  C11_14 
REMARK       I    between atoms: C11_14  and  N2_16 
REMARK    3  A    between atoms: C13_18  and  C14_19 
REMARK    4  A    between atoms: C14_19  and  N3_20 
REMARK    5  A    between atoms: N4_23  and  C17_24 
REMARK    6  A    between atoms: C17_24  and  C18_25 
REMARK    7  A    between atoms: C18_25  and  C19_26 
REMARK    8  A    between atoms: C19_26  and  O3_27 
ROOT
HETATM    1  C9  UNL     1      -3.742   0.848   0.757  1.00  0.00     0.229 C 
HETATM    2  C10 UNL     1      -3.391   1.292   2.139  1.00  0.00     0.077 C 
HETATM    3  N1  UNL     1      -3.126   1.627   3.212  1.00  0.00    -0.196 NA
ENDROOT
BRANCH   1   4
HETATM    4  C8  UNL     1      -4.682  -0.263   0.893  1.00  0.00     0.158 C 
HETATM    5  C5  UNL     1      -5.237  -0.971  -0.301  1.00  0.00     0.035 C 
HETATM    6  C4  UNL     1      -5.713  -0.106  -1.413  1.00  0.00     0.045 C 
HETATM    7  C6  UNL     1      -6.425  -1.258   0.634  1.00  0.00     0.043 C 
HETATM    8  C2  UNL     1      -6.766   0.884  -0.970  1.00  0.00     0.055 C 
HETATM    9  C1  UNL     1      -8.169   0.481  -1.356  1.00  0.00     0.045 C 
HETATM   10  C3  UNL     1      -6.524   2.192  -1.740  1.00  0.00     0.045 C 
HETATM   11  O1  UNL     1      -6.594   1.155   0.367  1.00  0.00    -0.372 OA
HETATM   12  C7  UNL     1      -6.155   0.136   1.140  1.00  0.00     0.165 C 
HETATM   13  F1  UNL     1      -4.395  -1.199   1.897  1.00  0.00    -0.238 F 
ENDBRANCH   1   4
BRANCH   1  14
HETATM   14  C11 UNL     1      -2.476   0.563   0.082  1.00  0.00     0.264 C 
HETATM   15  O2  UNL     1      -2.265   1.143  -1.044  1.00  0.00    -0.270 OA
HETATM   16  N2  UNL     1      -1.463  -0.288   0.551  1.00  0.00    -0.218 N 
HETATM   17  C12 UNL     1      -0.305  -0.547  -0.073  1.00  0.00     0.149 A 
HETATM   18  N6  UNL     1      -1.422  -0.986   1.659  1.00  0.00    -0.234 N 
HETATM   19  C13 UNL     1       0.444  -1.421   0.686  1.00  0.00     0.073 A 
HETATM   20  N5  UNL     1      -0.299  -1.675   1.774  1.00  0.00    -0.287 N 
ATOM     21  H5  UNL     1      -0.044  -2.288   2.549  1.00  0.00     0.188 HD
ATOM     22  H6  UNL     1      -2.170  -0.997   2.353  1.00  0.00     0.209 HD
BRANCH  19  23
HETATM   23  C14 UNL     1       1.783  -1.973   0.393  1.00  0.00     0.332 C 
BRANCH  23  24
HETATM   24  N3  UNL     1       2.709  -1.813   1.463  1.00  0.00     0.100 N 
HETATM   25  C15 UNL     1       3.996  -2.358   1.115  1.00  0.00     0.317 C 
HETATM   26  C16 UNL     1       4.629  -1.506   0.034  1.00  0.00     0.093 C 
HETATM   27  N4  UNL     1       4.733  -0.142   0.364  1.00  0.00    -0.370 N 
HETATM   28  C22 UNL     1       3.648   0.438   1.063  1.00  0.00     0.157 C 
HETATM   29  C23 UNL     1       2.889  -0.482   1.950  1.00  0.00     0.293 C 
BRANCH  27  30
HETATM   30  C17 UNL     1       6.004   0.445   0.502  1.00  0.00     0.075 C 
BRANCH  30  31
HETATM   31  C18 UNL     1       6.801   0.618  -0.761  1.00  0.00     0.013 A 
HETATM   32  C20 UNL     1       6.112   1.214  -1.963  1.00  0.00     0.018 A 
HETATM   33  C21 UNL     1       6.701  -0.193  -1.961  1.00  0.00     0.018 A 
BRANCH  31  34
HETATM   34  C19 UNL     1       8.177   1.261  -0.495  1.00  0.00     0.178 C 
BRANCH  34  35
HETATM   35  O3  UNL     1       8.012   2.507   0.078  1.00  0.00    -0.400 OA
ATOM     36  H3  UNL     1       8.860   2.903   0.242  1.00  0.00     0.209 HD
ENDBRANCH  34  35
ENDBRANCH  31  34
ENDBRANCH  30  31
ENDBRANCH  27  30
ENDBRANCH  23  24
ENDBRANCH  19  23
ENDBRANCH   1  14
TORSDOF 8
