REMARK  7 active torsions:
REMARK  status: ('A' for Active; 'I' for Inactive)
REMARK    1  A    between atoms: O1_2  and  C2_3 
REMARK    2  A    between atoms: C3_6  and  N2_7 
REMARK    3  A    between atoms: C5_9  and  C6_10 
REMARK    4  A    between atoms: C6_10  and  C7_11 
REMARK    5  A    between atoms: C7_11  and  N3_13 
REMARK    6  A    between atoms: N3_13  and  C8_15 
REMARK    7  A    between atoms: C20_30  and  N5_31 
ROOT
HETATM    1  N2  UNL     1       1.711  -1.051   0.201  1.00  0.00    -0.212 N 
HETATM    2  C4  UNL     1       0.528  -0.252   0.353  1.00  0.00     0.146 C 
HETATM    3  C5  UNL     1      -0.500  -0.530  -0.757  1.00  0.00     0.011 C 
HETATM    4  C13 UNL     1      -0.830  -1.995  -0.572  1.00  0.00     0.013 C 
HETATM    5  C14 UNL     1       0.366  -2.874  -0.809  1.00  0.00     0.009 C 
HETATM    6  C15 UNL     1       0.989  -2.809  -2.148  1.00  0.00     0.009 C 
HETATM    7  C16 UNL     1       2.335  -2.643  -1.497  1.00  0.00     0.027 C 
HETATM    8  C17 UNL     1       1.630  -2.443  -0.173  1.00  0.00     0.106 C 
ENDROOT
BRANCH   1   9
HETATM    9  C3  UNL     1       2.997  -0.490   0.421  1.00  0.00     0.683 A 
HETATM   10  N1  UNL     1       3.148   0.813   0.784  1.00  0.00    -0.168 N 
HETATM   11  C2  UNL     1       4.314   1.405   1.006  1.00  0.00     0.192 A 
ATOM     12  H1  UNL     1       2.304   1.375   0.893  1.00  0.00     0.186 HD
HETATM   13  C20 UNL     1       5.477   0.657   0.862  1.00  0.00     0.176 A 
HETATM   14  C18 UNL     1       5.352  -0.665   0.496  1.00  0.00     0.060 A 
HETATM   15  N4  UNL     1       4.148  -1.183   0.293  1.00  0.00    -0.193 N 
HETATM   16  C19 UNL     1       6.595  -1.464   0.342  1.00  0.00     0.071 C 
ATOM     17  H4  UNL     1       4.088  -2.165   0.024  1.00  0.00     0.184 HD
BRANCH  11  18
HETATM   18  O1  UNL     1       4.460   2.731   1.374  1.00  0.00    -0.339 OA
HETATM   19  C1  UNL     1       3.372   3.603   1.556  1.00  0.00     0.211 C 
ENDBRANCH  11  18
BRANCH  13  20
HETATM   20  N5  UNL     1       6.764   1.210   1.079  1.00  0.00    -0.109 N 
HETATM   21  O3  UNL     1       7.183   1.463   2.217  1.00  0.00    -0.532 OA
HETATM   22  O4  UNL     1       7.565   1.471   0.006  1.00  0.00    -0.532 OA
ENDBRANCH  13  20
ENDBRANCH   1   9
BRANCH   3  23
HETATM   23  C6  UNL     1      -1.717   0.281  -0.368  1.00  0.00     0.075 C 
BRANCH  23  24
HETATM   24  C7  UNL     1      -2.830   0.207  -1.322  1.00  0.00     0.074 C 
HETATM   25  S1  UNL     1      -2.687  -0.597  -2.768  1.00  0.00    -0.066 SA
BRANCH  24  26
HETATM   26  N3  UNL     1      -4.069   0.839  -1.083  1.00  0.00    -0.380 N 
ATOM     27  H3  UNL     1      -4.782   0.739  -1.806  1.00  0.00     0.160 HD
BRANCH  26  28
HETATM   28  C8  UNL     1      -4.427   1.609   0.077  1.00  0.00     0.086 C 
HETATM   29  C9  UNL     1      -5.692   2.422  -0.224  1.00  0.00     0.051 C 
HETATM   30  C10 UNL     1      -6.887   1.512  -0.344  1.00  0.00     0.169 C 
HETATM   31  O2  UNL     1      -7.070   0.711   0.758  1.00  0.00    -0.391 OA
HETATM   32  C11 UNL     1      -5.948  -0.146   0.852  1.00  0.00     0.169 C 
HETATM   33  C12 UNL     1      -4.806   0.768   1.277  1.00  0.00     0.051 C 
ENDBRANCH  26  28
ENDBRANCH  24  26
ENDBRANCH  23  24
ENDBRANCH   3  23
TORSDOF 7
