REMARK  6 active torsions:
REMARK  status: ('A' for Active; 'I' for Inactive)
REMARK    1  A    between atoms: C2_2  and  O1_3 
REMARK    2  A    between atoms: O1_3  and  C3_4 
REMARK       I    between atoms: C3_4  and  N1_6 
REMARK    3  A    between atoms: N2_10  and  C7_11 
REMARK    4  A    between atoms: C8_14  and  C9_15 
REMARK    5  A    between atoms: C15_23  and  S1_24 
REMARK    6  A    between atoms: S1_24  and  N4_27 
REMARK       I    between atoms: N4_27  and  C17_29 
ROOT
HETATM    1  C3  UNL     1       0.058   2.533   0.618  1.00  0.00     0.364 C 
HETATM    2  O2  UNL     1      -0.768   2.809   1.523  1.00  0.00    -0.238 OA
HETATM    3  N1  UNL     1       0.195   1.169   0.238  1.00  0.00    -0.300 N 
HETATM    4  C4  UNL     1       1.091   0.622  -0.792  1.00  0.00     0.110 C 
HETATM    5  C5  UNL     1       0.330   0.067  -1.946  1.00  0.00     0.047 C 
HETATM    6  C6  UNL     1      -1.124  -0.184  -1.652  1.00  0.00     0.131 C 
HETATM    7  N2  UNL     1      -1.403  -0.434  -0.283  1.00  0.00    -0.325 N 
HETATM    8  C13 UNL     1      -0.480  -0.011   0.742  1.00  0.00     0.196 C 
HETATM    9  C14 UNL     1       0.619  -1.046   0.773  1.00  0.00     0.068 C 
HETATM   10  C15 UNL     1       1.802  -0.458   0.037  1.00  0.00     0.113 C 
ENDROOT
BRANCH   7  11
HETATM   11  C7  UNL     1      -2.587  -1.104   0.097  1.00  0.00     0.229 A 
HETATM   12  N3  UNL     1      -3.797  -0.568   0.388  1.00  0.00    -0.322 N 
HETATM   13  C8  UNL     1      -4.670  -1.537   0.706  1.00  0.00     0.062 A 
ATOM     14  H3  UNL     1      -4.013   0.429   0.368  1.00  0.00     0.169 HD
HETATM   15  C12 UNL     1      -3.963  -2.709   0.605  1.00  0.00     0.171 A 
HETATM   16 CL1  UNL     1      -4.516  -4.352   0.889  1.00  0.00    -0.054 Cl
HETATM   17  O3  UNL     1      -2.760  -2.411   0.249  1.00  0.00    -0.265 OA
BRANCH  13  18
HETATM   18  C9  UNL     1      -6.099  -1.464   1.094  1.00  0.00     0.039 A 
HETATM   19  C10 UNL     1      -6.737  -0.144   1.160  1.00  0.00     0.011 A 
HETATM   20  C11 UNL     1      -7.115  -1.147   0.057  1.00  0.00     0.011 A 
ENDBRANCH  13  18
ENDBRANCH   7  11
BRANCH   1  21
HETATM   21  O1  UNL     1       0.782   3.544   0.042  1.00  0.00    -0.304 OA
BRANCH  21  22
HETATM   22  C2  UNL     1       0.660   4.903   0.407  1.00  0.00     0.176 C 
HETATM   23  C1  UNL     1      -0.734   5.445   0.196  1.00  0.00     0.034 C 
ENDBRANCH  21  22
ENDBRANCH   1  21
BRANCH  10  24
HETATM   24  S1  UNL     1       3.037  -1.554  -0.827  1.00  0.00     0.029 S 
HETATM   25  C16 UNL     1       3.771  -0.147  -1.841  1.00  0.00     0.137 C 
HETATM   26  O4  UNL     1       2.870  -2.546  -2.187  1.00  0.00    -0.249 OA
BRANCH  24  27
HETATM   27  N4  UNL     1       4.842  -1.607   0.139  1.00  0.00    -0.287 N 
HETATM   28  C17 UNL     1       5.788  -2.488  -0.354  1.00  0.00     0.224 C 
HETATM   29  C18 UNL     1       7.146  -2.639   0.245  1.00  0.00     0.118 C 
HETATM   30  O5  UNL     1       5.501  -3.198  -1.349  1.00  0.00    -0.273 OA
ATOM     31  H4  UNL     1       5.034  -1.012   0.945  1.00  0.00     0.178 HD
ENDBRANCH  24  27
ENDBRANCH  10  24
TORSDOF 6
