REMARK  7 active torsions:
REMARK  status: ('A' for Active; 'I' for Inactive)
REMARK    1  A    between atoms: N2_5  and  C4_6 
REMARK    2  A    between atoms: C4_6  and  C5_7 
REMARK    3  A    between atoms: C6_12  and  S1_13 
REMARK    4  A    between atoms: S1_13  and  C7_14 
REMARK    5  A    between atoms: C7_14  and  C8_15 
REMARK       I    between atoms: C8_15  and  N5_17 
REMARK    6  A    between atoms: N5_17  and  C9_19 
REMARK    7  A    between atoms: N7_25  and  C12_26 
ROOT
HETATM    1  C5  UNL     1      -0.738  -0.434   0.165  1.00  0.00     0.118 A 
HETATM    2  N3  UNL     1      -0.460  -1.767   0.033  1.00  0.00    -0.285 N 
ATOM      3  H3  UNL     1      -1.104  -2.465  -0.340  1.00  0.00     0.188 HD
HETATM    4  N4  UNL     1       0.763  -2.016   0.459  1.00  0.00    -0.278 N 
ATOM      5  H4  UNL     1       1.224  -2.926   0.473  1.00  0.00     0.189 HD
HETATM    6  C6  UNL     1       1.290  -0.852   0.870  1.00  0.00     0.163 A 
HETATM    7  N7  UNL     1       0.350   0.131   0.684  1.00  0.00    -0.309 N 
ENDROOT
BRANCH   6   8
HETATM    8  S1  UNL     1       2.942  -0.715   1.529  1.00  0.00    -0.083 SA
BRANCH   8   9
HETATM    9  C7  UNL     1       4.178  -0.392   0.248  1.00  0.00     0.185 C 
BRANCH   9  10
HETATM   10  C8  UNL     1       5.484  -0.284   0.932  1.00  0.00     0.233 C 
HETATM   11  O1  UNL     1       5.872   0.817   1.371  1.00  0.00    -0.272 OA
HETATM   12  N5  UNL     1       6.291  -1.423   1.087  1.00  0.00    -0.306 N 
ATOM     13  H5  UNL     1       5.995  -2.210   1.665  1.00  0.00     0.171 HD
BRANCH  12  14
HETATM   14  C9  UNL     1       7.446  -1.432   0.455  1.00  0.00     0.150 A 
HETATM   15  N6  UNL     1       7.972  -0.493  -0.331  1.00  0.00    -0.346 N 
HETATM   16  C10 UNL     1       9.141  -0.701  -0.862  1.00  0.00     0.097 A 
ATOM     17  H6  UNL     1       7.466   0.374  -0.513  1.00  0.00     0.167 HD
HETATM   18  C11 UNL     1       9.774  -1.881  -0.585  1.00  0.00     0.070 A 
HETATM   19  S2  UNL     1       8.650  -2.654   0.441  1.00  0.00    -0.064 SA
ENDBRANCH  12  14
ENDBRANCH   9  10
ENDBRANCH   8   9
ENDBRANCH   6   8
BRANCH   7  20
HETATM   20  C12 UNL     1       0.647   1.476   1.035  1.00  0.00     0.093 C 
HETATM   21  C13 UNL     1       1.145   2.189  -0.202  1.00  0.00     0.026 C 
HETATM   22  C14 UNL     1       0.137   3.247  -0.571  1.00  0.00     0.002 C 
HETATM   23  C15 UNL     1      -0.799   3.388   0.580  1.00  0.00     0.002 C 
HETATM   24  C16 UNL     1      -0.344   2.362   1.586  1.00  0.00     0.026 C 
ENDBRANCH   7  20
BRANCH   1  25
HETATM   25  C4  UNL     1      -1.987   0.234  -0.200  1.00  0.00     0.203 C 
BRANCH  25  26
HETATM   26  N2  UNL     1      -2.931  -0.784  -0.656  1.00  0.00    -0.348 N 
HETATM   27  C3  UNL     1      -3.256  -1.768   0.295  1.00  0.00     0.092 C 
HETATM   28  C2  UNL     1      -4.710  -1.861   0.666  1.00  0.00     0.316 C 
HETATM   29  N1  UNL     1      -5.424  -0.625   0.425  1.00  0.00     0.093 N 
HETATM   30  C1  UNL     1      -6.822  -0.869   0.732  1.00  0.00     0.310 C 
HETATM   31  C19 UNL     1      -5.339  -0.327  -0.992  1.00  0.00     0.338 C 
HETATM   32  C17 UNL     1      -3.936  -0.308  -1.520  1.00  0.00     0.200 C 
HETATM   33  C18 UNL     1      -3.932  -1.211  -2.764  1.00  0.00     0.078 C 
HETATM   34  F1  UNL     1      -3.713   0.969  -2.002  1.00  0.00    -0.218 F 
ENDBRANCH  25  26
ENDBRANCH   1  25
TORSDOF 7
