REMARK  17 active torsions:
REMARK  status: ('A' for Active; 'I' for Inactive)
REMARK    1  A    between atoms: O1_2  and  C2_3 
REMARK    2  A    between atoms: C2_3  and  C3_5 
REMARK    3  A    between atoms: C4_6  and  C5_7 
REMARK    4  A    between atoms: C5_7  and  S1_8 
REMARK    5  A    between atoms: S1_8  and  C6_9 
REMARK    6  A    between atoms: N4_16  and  C7_17 
REMARK    7  A    between atoms: C7_17  and  C8_18 
REMARK    8  A    between atoms: C8_18  and  C9_19 
REMARK    9  A    between atoms: C9_19  and  N5_20 
REMARK   10  A    between atoms: C16_28  and  O3_29 
REMARK   11  A    between atoms: C17_31  and  N6_32 
REMARK   12  A    between atoms: C20_35  and  C21_36 
REMARK   13  A    between atoms: C22_42  and  N9_43 
REMARK   14  A    between atoms: C23_46  and  O4_47 
REMARK   15  A    between atoms: C24_49  and  C25_50 
REMARK       I    between atoms: C25_50  and  N10_52 
REMARK   16  A    between atoms: N10_52  and  N11_54 
REMARK   17  A    between atoms: N11_54  and  N12_55 
ROOT
HETATM    1  C3  UNL     1      -1.322  -0.607  -1.311  1.00  0.00     0.043 C 
HETATM    2  C4  UNL     1      -0.118  -0.160  -1.310  1.00  0.00    -0.047 C 
HETATM    3  C14 UNL     1       0.313   1.284  -1.029  1.00  0.00     0.110 C 
HETATM    4  S2  UNL     1      -1.031   2.403  -0.930  1.00  0.00    -0.155 SA
HETATM    5  C15 UNL     1      -2.577   1.566  -0.802  1.00  0.00     0.103 C 
HETATM    6  C16 UNL     1      -3.159   1.735   0.644  1.00  0.00     0.159 C 
HETATM    7  C17 UNL     1      -4.203   0.701   0.533  1.00  0.00     0.152 C 
HETATM    8  C23 UNL     1      -3.461  -0.481  -0.012  1.00  0.00     0.168 C 
HETATM    9  C24 UNL     1      -2.600   0.142  -1.082  1.00  0.00     0.118 C 
ENDROOT
BRANCH   2  10
HETATM   10  C5  UNL     1       1.132  -0.935  -1.574  1.00  0.00     0.118 C 
BRANCH  10  11
HETATM   11  S1  UNL     1       2.240  -0.829  -0.114  1.00  0.00    -0.087 SA
BRANCH  11  12
HETATM   12  C6  UNL     1       3.722  -1.748  -0.534  1.00  0.00     0.178 A 
HETATM   13  N1  UNL     1       3.996  -2.420  -1.688  1.00  0.00    -0.263 N 
HETATM   14  N2  UNL     1       5.186  -2.963  -1.637  1.00  0.00    -0.226 N 
ATOM     15  H1  UNL     1       3.360  -2.490  -2.483  1.00  0.00     0.190 HD
HETATM   16  N3  UNL     1       5.689  -2.653  -0.465  1.00  0.00    -0.224 N 
ATOM     17  H2  UNL     1       5.635  -3.518  -2.366  1.00  0.00     0.210 HD
HETATM   18  N4  UNL     1       4.829  -1.922   0.220  1.00  0.00    -0.254 N 
ATOM     19  H3  UNL     1       6.611  -2.936  -0.132  1.00  0.00     0.210 HD
BRANCH  18  20
HETATM   20  C7  UNL     1       5.050  -1.396   1.550  1.00  0.00     0.154 C 
BRANCH  20  21
HETATM   21  C8  UNL     1       5.690  -0.019   1.535  1.00  0.00     0.052 C 
BRANCH  21  22
HETATM   22  C9  UNL     1       7.026  -0.081   0.833  1.00  0.00     0.274 C 
BRANCH  22  23
HETATM   23  N5  UNL     1       7.636   1.246   0.830  1.00  0.00     0.088 N 
HETATM   24  C10 UNL     1       8.913   1.187   0.148  1.00  0.00     0.272 C 
HETATM   25  C11 UNL     1       9.974   1.245   1.215  1.00  0.00     0.032 C 
HETATM   26  C12 UNL     1       9.329   2.177   2.232  1.00  0.00     0.032 C 
HETATM   27  C13 UNL     1       7.879   1.751   2.147  1.00  0.00     0.272 C 
ENDBRANCH  22  23
ENDBRANCH  21  22
ENDBRANCH  20  21
ENDBRANCH  18  20
ENDBRANCH  11  12
ENDBRANCH  10  11
ENDBRANCH   2  10
BRANCH   1  28
HETATM   28  C2  UNL     1      -1.609  -2.013  -1.590  1.00  0.00     0.290 C 
HETATM   29  O2  UNL     1      -2.784  -2.504  -1.602  1.00  0.00    -0.260 OA
BRANCH  28  30
HETATM   30  O1  UNL     1      -0.615  -2.928  -1.864  1.00  0.00    -0.323 OA
HETATM   31  C1  UNL     1      -0.921  -4.295  -2.135  1.00  0.00     0.213 C 
ENDBRANCH  28  30
ENDBRANCH   1  28
BRANCH   9  32
HETATM   32  C25 UNL     1      -3.325  -0.019  -2.415  1.00  0.00     0.252 C 
HETATM   33  O5  UNL     1      -4.481  -0.463  -2.456  1.00  0.00    -0.271 OA
HETATM   34  N10 UNL     1      -2.672   0.342  -3.616  1.00  0.00    -0.253 N 
ATOM     35  H10 UNL     1      -1.720   0.703  -3.557  1.00  0.00     0.187 HD
BRANCH  34  36
HETATM   36  N11 UNL     1      -3.249   0.233  -4.860  1.00  0.00    -0.027 NA
BRANCH  36  37
HETATM   37  N12 UNL     1      -2.392   0.741  -5.848  1.00  0.00    -0.329 N 
ATOM     38 2H12 UNL     1      -1.471   1.134  -5.654  1.00  0.00     0.174 HD
ATOM     39 1H12 UNL     1      -2.820   0.660  -6.770  1.00  0.00     0.174 HD
ENDBRANCH  36  37
ENDBRANCH  34  36
ENDBRANCH   9  32
BRANCH   8  40
HETATM   40  O4  UNL     1      -2.599  -1.074   0.898  1.00  0.00    -0.392 OA
ATOM     41  H4  UNL     1      -2.129  -1.823   0.552  1.00  0.00     0.210 HD
ENDBRANCH   8  40
BRANCH   6  42
HETATM   42  O3  UNL     1      -3.612   3.039   0.809  1.00  0.00    -0.392 OA
ATOM     43  H3  UNL     1      -3.965   3.141   1.685  1.00  0.00     0.210 HD
ENDBRANCH   6  42
BRANCH   7  44
HETATM   44  N6  UNL     1      -5.038   0.460   1.695  1.00  0.00    -0.321 N 
HETATM   45  C18 UNL     1      -6.350   0.288   1.592  1.00  0.00     0.031 A 
HETATM   46  C19 UNL     1      -7.139   0.273   0.286  1.00  0.00     0.070 C 
HETATM   47  C20 UNL     1      -7.067   0.092   2.740  1.00  0.00     0.071 A 
HETATM   48  S3  UNL     1      -5.829   0.160   3.947  1.00  0.00    -0.049 SA
HETATM   49  C22 UNL     1      -4.511   0.429   2.915  1.00  0.00     0.146 A 
BRANCH  47  50
HETATM   50  C21 UNL     1      -8.493  -0.109   2.982  1.00  0.00     0.129 C 
HETATM   51  N7  UNL     1      -8.894  -0.280   4.186  1.00  0.00    -0.387 N 
ATOM     52  H72 UNL     1      -8.226  -0.281   4.957  1.00  0.00     0.157 HD
ATOM     53  H71 UNL     1      -9.890  -0.420   4.355  1.00  0.00     0.157 HD
HETATM   54  N8  UNL     1      -9.407  -0.107   1.926  1.00  0.00    -0.082 NA
ENDBRANCH  47  50
BRANCH  49  55
HETATM   55  N9  UNL     1      -3.296   0.556   3.330  1.00  0.00    -0.379 N 
ATOM     56  H92 UNL     1      -2.503   0.718   2.709  1.00  0.00     0.158 HD
ATOM     57  H91 UNL     1      -2.892   0.532   4.266  1.00  0.00     0.158 HD
ENDBRANCH  49  55
ENDBRANCH   7  44
TORSDOF 17
