REMARK  17 active torsions:
REMARK  status: ('A' for Active; 'I' for Inactive)
REMARK    1  A    between atoms: C2_2  and  O1_3 
REMARK    2  A    between atoms: O1_3  and  C3_4 
REMARK    3  A    between atoms: C3_4  and  O2_5 
REMARK    4  A    between atoms: C3_4  and  C4_7 
REMARK    5  A    between atoms: C6_9  and  O3_10 
REMARK       I    between atoms: N1_12  and  C7_13 
REMARK    6  A    between atoms: C7_13  and  O5_15 
REMARK    7  A    between atoms: O5_15  and  C8_16 
REMARK    8  A    between atoms: C8_16  and  C9_17 
REMARK    9  A    between atoms: C10_18  and  C11_19 
REMARK   10  A    between atoms: C13_25  and  N3_26 
REMARK       I    between atoms: N3_26  and  C14_28 
REMARK   11  A    between atoms: C14_28  and  C15_30 
REMARK   12  A    between atoms: C15_30  and  C16_31 
REMARK   13  A    between atoms: C15_30  and  N4_35 
REMARK   14  A    between atoms: C16_31  and  O10_33 
REMARK   15  A    between atoms: C19_41  and  N6_42 
REMARK       I    between atoms: N6_42  and  C20_44 
REMARK   16  A    between atoms: C20_44  and  O14_46 
REMARK   17  A    between atoms: C24_51  and  O15_52 
ROOT
HETATM    1  C9  UNL     1      -0.833   1.030  -0.692  1.00  0.00     0.008 C 
HETATM    2  C10 UNL     1      -0.335   2.166  -0.288  1.00  0.00     0.124 C 
HETATM    3  N2  UNL     1       1.049   2.507  -0.590  1.00  0.00    -0.293 N 
HETATM    4  C12 UNL     1       2.299   2.929  -0.009  1.00  0.00     0.251 C 
HETATM    5  O8  UNL     1       2.749   3.455   1.028  1.00  0.00    -0.271 OA
HETATM    6  C13 UNL     1       2.936   2.443  -1.263  1.00  0.00     0.210 C 
HETATM    7  C22 UNL     1       1.568   2.473  -1.934  1.00  0.00     0.187 C 
HETATM    8  S1  UNL     1       1.072   0.911  -2.684  1.00  0.00    -0.136 SA
HETATM    9  C23 UNL     1       0.144   0.056  -1.416  1.00  0.00     0.119 C 
ENDROOT
BRANCH   6  10
HETATM   10  N3  UNL     1       3.525   1.152  -1.096  1.00  0.00    -0.343 N 
HETATM   11  C14 UNL     1       4.847   0.929  -1.570  1.00  0.00     0.247 C 
HETATM   12  O9  UNL     1       5.493   1.860  -2.136  1.00  0.00    -0.271 OA
ATOM     13  H3  UNL     1       3.004   0.401  -0.643  1.00  0.00     0.163 HD
BRANCH  11  14
HETATM   14  C15 UNL     1       5.437  -0.425  -1.379  1.00  0.00     0.254 C 
BRANCH  14  15
HETATM   15  C16 UNL     1       4.516  -1.421  -2.045  1.00  0.00     0.149 C 
HETATM   16  C17 UNL     1       5.022  -2.829  -1.908  1.00  0.00     0.042 C 
BRANCH  15  17
HETATM   17  O10 UNL     1       4.502  -1.114  -3.410  1.00  0.00    -0.393 OA
ATOM     18  H10 UNL     1       3.923  -1.740  -3.829  1.00  0.00     0.210 HD
ENDBRANCH  15  17
ENDBRANCH  14  15
BRANCH  14  19
HETATM   19  N4  UNL     1       5.694  -0.722   0.005  1.00  0.00    -0.061 N 
HETATM   20  O11 UNL     1       4.958  -1.277   0.905  1.00  0.00    -0.162 OA
HETATM   21  C18 UNL     1       5.594  -1.354   2.052  1.00  0.00     0.401 A 
HETATM   22  O12 UNL     1       5.188  -1.836   3.156  1.00  0.00    -0.236 OA
HETATM   23  N5  UNL     1       6.819  -0.820   1.901  1.00  0.00    -0.131 N 
HETATM   24  C19 UNL     1       6.876  -0.426   0.618  1.00  0.00     0.714 A 
ATOM     25  H5  UNL     1       7.548  -0.733   2.609  1.00  0.00     0.190 HD
BRANCH  24  26
HETATM   26  N6  UNL     1       7.892   0.140   0.070  1.00  0.00    -0.133 N 
HETATM   27  C20 UNL     1       9.067   0.396   0.816  1.00  0.00     0.378 C 
HETATM   28  O13 UNL     1       9.293   1.570   1.267  1.00  0.00    -0.238 OA
ATOM     29  H6  UNL     1       7.851   0.408  -0.913  1.00  0.00     0.190 HD
BRANCH  27  30
HETATM   30  O14 UNL     1      10.027  -0.561   1.106  1.00  0.00    -0.308 OA
HETATM   31  C21 UNL     1      11.192  -0.266   1.856  1.00  0.00     0.215 C 
ENDBRANCH  27  30
ENDBRANCH  24  26
ENDBRANCH  14  19
ENDBRANCH  11  14
ENDBRANCH   6  10
BRANCH   2  32
HETATM   32  C11 UNL     1      -1.041   3.171   0.452  1.00  0.00     0.227 C 
HETATM   33  O6  UNL     1      -0.470   4.263   0.833  1.00  0.00    -0.643 OA
HETATM   34  O7  UNL     1      -2.339   3.101   0.826  1.00  0.00    -0.643 OA
ENDBRANCH   2  32
BRANCH   1  35
HETATM   35  C8  UNL     1      -2.111   0.480  -0.546  1.00  0.00     0.158 C 
BRANCH  35  36
HETATM   36  O5  UNL     1      -3.242   0.952   0.064  1.00  0.00    -0.272 OA
BRANCH  36  37
HETATM   37  C7  UNL     1      -4.344   0.094  -0.020  1.00  0.00     0.379 C 
HETATM   38  N1  UNL     1      -5.622   0.325   0.515  1.00  0.00    -0.216 N 
HETATM   39  C6  UNL     1      -6.080   1.370   1.217  1.00  0.00     0.153 A 
HETATM   40  C24 UNL     1      -6.672  -0.553   0.382  1.00  0.00     0.164 A 
HETATM   41  C5  UNL     1      -7.403   1.172   1.532  1.00  0.00     0.073 A 
HETATM   42  C4  UNL     1      -7.785  -0.073   0.992  1.00  0.00     0.052 A 
HETATM   43  O4  UNL     1      -4.136  -1.001  -0.653  1.00  0.00    -0.237 OA
BRANCH  39  44
HETATM   44  O3  UNL     1      -5.413   2.516   1.613  1.00  0.00    -0.346 OA
ATOM     45  H3  UNL     1      -4.498   2.653   1.395  1.00  0.00     0.219 HD
ENDBRANCH  39  44
BRANCH  42  46
HETATM   46  C3  UNL     1      -9.142  -0.646   1.133  1.00  0.00     0.295 C 
BRANCH  46  47
HETATM   47  O1  UNL     1      -9.601  -1.204  -0.032  1.00  0.00    -0.357 OA
BRANCH  47  48
HETATM   48  C2  UNL     1     -10.240  -2.409   0.075  1.00  0.00     0.167 C 
HETATM   49  C1  UNL     1      -9.469  -3.529   0.684  1.00  0.00     0.033 C 
ENDBRANCH  47  48
ENDBRANCH  46  47
BRANCH  46  50
HETATM   50  O2  UNL     1     -10.029   0.477   1.427  1.00  0.00    -0.367 OA
ATOM     51  H2  UNL     1      -9.711   0.864   2.234  1.00  0.00     0.213 HD
ENDBRANCH  46  50
ENDBRANCH  42  46
BRANCH  40  52
HETATM   52  O15 UNL     1      -6.578  -1.763  -0.292  1.00  0.00    -0.345 OA
ATOM     53  H15 UNL     1      -5.799  -2.099  -0.719  1.00  0.00     0.219 HD
ENDBRANCH  40  52
ENDBRANCH  36  37
ENDBRANCH  35  36
ENDBRANCH   1  35
TORSDOF 17
