REMARK  15 active torsions:
REMARK  status: ('A' for Active; 'I' for Inactive)
REMARK    1  A    between atoms: O1_2  and  C2_3 
REMARK    2  A    between atoms: C2_3  and  N1_4 
REMARK    3  A    between atoms: C3_9  and  S1_10 
REMARK    4  A    between atoms: S1_10  and  C4_11 
REMARK    5  A    between atoms: C5_12  and  C6_13 
REMARK    6  A    between atoms: C6_13  and  C7_14 
REMARK    7  A    between atoms: C7_14  and  C8_15 
REMARK    8  A    between atoms: C8_15  and  N5_16 
REMARK    9  A    between atoms: C12_25  and  N8_26 
REMARK   10  A    between atoms: C13_31  and  N10_32 
REMARK   11  A    between atoms: N11_36  and  C15_37 
REMARK   12  A    between atoms: C15_37  and  C16_38 
REMARK   13  A    between atoms: C17_42  and  N14_43 
REMARK       I    between atoms: N14_43  and  C18_45 
REMARK   14  A    between atoms: C18_45  and  C19_47 
REMARK       I    between atoms: C19_47  and  N15_49 
REMARK   15  A    between atoms: C22_54  and  N17_55 
ROOT
HETATM    1  N5  UNL     1       1.909  -0.690  -0.943  1.00  0.00    -0.283 N 
HETATM    2  C9  UNL     1       2.744   0.177  -1.497  1.00  0.00     0.328 A 
HETATM    3  O2  UNL     1       3.813   0.614  -1.048  1.00  0.00    -0.246 OA
HETATM    4  N6  UNL     1       2.290   0.578  -2.708  1.00  0.00    -0.303 N 
ATOM      5  H6  UNL     1       2.741   1.239  -3.340  1.00  0.00     0.171 HD
HETATM    6  C10 UNL     1       1.126  -0.068  -2.914  1.00  0.00     0.111 A 
HETATM    7  C11 UNL     1       0.113  -0.245  -3.804  1.00  0.00     0.111 A 
HETATM    8  N7  UNL     1      -0.098   0.298  -5.024  1.00  0.00    -0.187 N 
ATOM      9  H7  UNL     1       0.570   0.971  -5.400  1.00  0.00     0.184 HD
HETATM   10  C12 UNL     1      -1.176  -0.040  -5.742  1.00  0.00     0.678 A 
HETATM   11  N9  UNL     1      -2.020  -0.919  -5.219  1.00  0.00    -0.175 N 
ATOM     12  H9  UNL     1      -2.844  -1.185  -5.758  1.00  0.00     0.186 HD
HETATM   13  C13 UNL     1      -1.833  -1.482  -3.993  1.00  0.00     0.144 A 
HETATM   14  C14 UNL     1      -0.754  -1.164  -3.236  1.00  0.00     0.115 A 
HETATM   15  N11 UNL     1      -0.297  -1.546  -2.025  1.00  0.00    -0.297 N 
HETATM   16  C24 UNL     1       0.850  -0.888  -1.810  1.00  0.00     0.148 A 
ENDROOT
BRANCH  15  17
HETATM   17  C15 UNL     1      -0.934  -2.483  -1.187  1.00  0.00     0.149 C 
BRANCH  17  18
HETATM   18  C16 UNL     1      -1.894  -1.968  -0.179  1.00  0.00     0.153 A 
HETATM   19  N12 UNL     1      -2.962  -1.156  -0.313  1.00  0.00    -0.248 N 
HETATM   20  N13 UNL     1      -3.600  -0.969   0.821  1.00  0.00     0.093 N 
ATOM     21  H12 UNL     1      -3.244  -0.733  -1.197  1.00  0.00     0.190 HD
HETATM   22  C17 UNL     1      -4.695  -0.254   1.159  1.00  0.00     0.736 A 
HETATM   23  C23 UNL     1      -2.949  -1.675   1.762  1.00  0.00     0.735 A 
HETATM   24  N16 UNL     1      -5.111  -0.266   2.428  1.00  0.00    -0.020 N 
HETATM   25  C22 UNL     1      -4.456  -0.980   3.387  1.00  0.00     0.705 A 
ATOM     26  H16 UNL     1      -5.938   0.272   2.686  1.00  0.00     0.203 HD
HETATM   27  N18 UNL     1      -3.369  -1.690   3.058  1.00  0.00    -0.020 N 
ATOM     28  H18 UNL     1      -2.867  -2.230   3.762  1.00  0.00     0.203 HD
HETATM   29  N19 UNL     1      -1.933  -2.268   1.159  1.00  0.00    -0.171 N 
ATOM     30  H19 UNL     1      -1.261  -2.874   1.630  1.00  0.00     0.186 HD
BRANCH  22  31
HETATM   31  N14 UNL     1      -5.312   0.422   0.263  1.00  0.00    -0.148 N 
HETATM   32  C18 UNL     1      -6.464   1.199   0.515  1.00  0.00     0.327 C 
HETATM   33  O3  UNL     1      -6.329   2.447   0.556  1.00  0.00    -0.261 OA
ATOM     34  H14 UNL     1      -4.949   0.398  -0.690  1.00  0.00     0.188 HD
BRANCH  32  35
HETATM   35  C19 UNL     1      -7.777   0.594   0.723  1.00  0.00     0.312 C 
HETATM   36  O4  UNL     1      -7.856  -0.654   0.674  1.00  0.00    -0.262 OA
HETATM   37  N15 UNL     1      -8.901   1.414   0.969  1.00  0.00    -0.341 N 
HETATM   38  C20 UNL     1     -10.330   1.468   1.233  1.00  0.00     0.146 A 
HETATM   39  C21 UNL     1      -9.513   2.710   1.141  1.00  0.00     0.146 A 
ENDBRANCH  32  35
ENDBRANCH  22  31
BRANCH  25  40
HETATM   40  N17 UNL     1      -4.892  -0.965   4.607  1.00  0.00    -0.234 N 
ATOM     41 2H17 UNL     1      -5.720  -0.424   4.858  1.00  0.00     0.174 HD
ATOM     42 1H17 UNL     1      -4.402  -1.499   5.325  1.00  0.00     0.174 HD
ENDBRANCH  25  40
ENDBRANCH  17  18
ENDBRANCH  15  17
BRANCH  13  43
HETATM   43  N10 UNL     1      -2.701  -2.320  -3.634  1.00  0.00    -0.383 N 
ATOM     44 2H10 UNL     1      -3.513  -2.559  -4.203  1.00  0.00     0.157 HD
ATOM     45 1H10 UNL     1      -2.561  -2.742  -2.716  1.00  0.00     0.157 HD
ENDBRANCH  13  43
BRANCH   1  46
HETATM   46  C8  UNL     1       2.024  -1.338   0.305  1.00  0.00     0.135 C 
BRANCH  46  47
HETATM   47  C7  UNL     1       1.459  -0.667   1.506  1.00  0.00     0.024 C 
BRANCH  47  48
HETATM   48  C6  UNL     1       2.134   0.571   2.021  1.00  0.00     0.029 C 
BRANCH  48  49
HETATM   49  C5  UNL     1       3.490   0.343   2.561  1.00  0.00    -0.019 C 
HETATM   50  C4  UNL     1       4.616   0.931   2.267  1.00  0.00     0.049 C 
BRANCH  50  51
HETATM   51  S1  UNL     1       6.168   0.518   3.031  1.00  0.00    -0.064 SA
BRANCH  51  52
HETATM   52  C3  UNL     1       7.308   0.002   1.763  1.00  0.00     0.178 A 
HETATM   53  N1  UNL     1       8.154   0.781   1.064  1.00  0.00    -0.232 N 
HETATM   54  N2  UNL     1       8.811  -0.001   0.227  1.00  0.00    -0.002 NA
HETATM   55  N3  UNL     1       8.419  -1.266   0.359  1.00  0.00    -0.007 NA
HETATM   56  N4  UNL     1       7.492  -1.248   1.310  1.00  0.00    -0.264 N 
ATOM     57  H4  UNL     1       6.990  -2.069   1.649  1.00  0.00     0.186 HD
BRANCH  53  58
HETATM   58  C2  UNL     1       8.358   2.212   1.162  1.00  0.00     0.316 C 
BRANCH  58  59
HETATM   59  O1  UNL     1       9.328   2.562   2.074  1.00  0.00    -0.375 OA
HETATM   60  C1  UNL     1      10.578   2.047   1.809  1.00  0.00     0.203 C 
ENDBRANCH  58  59
ENDBRANCH  53  58
ENDBRANCH  51  52
ENDBRANCH  50  51
ENDBRANCH  48  49
ENDBRANCH  47  48
ENDBRANCH  46  47
ENDBRANCH   1  46
BRANCH  10  61
HETATM   61  N8  UNL     1      -1.379   0.488  -6.923  1.00  0.00    -0.234 N 
ATOM     62  H82 UNL     1      -0.730   1.164  -7.325  1.00  0.00     0.174 HD
ATOM     63  H81 UNL     1      -2.200   0.230  -7.470  1.00  0.00     0.174 HD
ENDBRANCH  10  61
TORSDOF 15
