REMARK  15 active torsions:
REMARK  status: ('A' for Active; 'I' for Inactive)
REMARK    1  A    between atoms: N1_2  and  C3_4 
REMARK    2  A    between atoms: C3_4  and  C4_5 
REMARK    3  A    between atoms: C6_7  and  C7_8 
REMARK    4  A    between atoms: C7_8  and  C8_9 
REMARK    5  A    between atoms: C8_9  and  N2_10 
REMARK    6  A    between atoms: C8_9  and  C9_14 
REMARK       I    between atoms: C9_14  and  N3_16 
REMARK    7  A    between atoms: N3_16  and  C10_18 
REMARK    8  A    between atoms: C13_25  and  S2_26 
REMARK    9  A    between atoms: S2_26  and  C14_27 
REMARK   10  A    between atoms: C15_32  and  S3_33 
REMARK   11  A    between atoms: S3_33  and  C16_34 
REMARK   12  A    between atoms: C20_43  and  C21_44 
REMARK   13  A    between atoms: C23_50  and  N11_51 
REMARK   14  A    between atoms: N11_51  and  N12_53 
REMARK   15  A    between atoms: C25_57  and  O5_58 
ROOT
HETATM    1  C10 UNL     1       0.323   2.333  -0.993  1.00  0.00     0.383 C 
HETATM    2  N4  UNL     1      -0.530   2.101  -2.145  1.00  0.00    -0.015 N 
ATOM      3  H41 UNL     1      -0.021   1.730  -2.947  1.00  0.00     0.283 HD
ATOM      4  H42 UNL     1      -0.854   2.965  -2.579  1.00  0.00     0.283 HD
HETATM    5  C11 UNL     1      -1.593   1.261  -1.731  1.00  0.00     0.360 C 
HETATM    6  S1  UNL     1      -3.225   1.981  -2.180  1.00  0.00    -0.110 SA
HETATM    7  C12 UNL     1      -4.430   1.049  -1.227  1.00  0.00     0.126 C 
HETATM    8  C13 UNL     1      -3.859   0.357  -0.041  1.00  0.00     0.029 C 
HETATM    9  C20 UNL     1      -2.615   0.446   0.366  1.00  0.00     0.131 C 
HETATM   10  N10 UNL     1      -1.599   1.224  -0.286  1.00  0.00    -0.269 N 
HETATM   11  C22 UNL     1      -0.530   2.022   0.153  1.00  0.00     0.277 C 
HETATM   12  O4  UNL     1      -0.390   2.377   1.362  1.00  0.00    -0.269 OA
ENDROOT
BRANCH   1  13
HETATM   13  N3  UNL     1       1.445   1.389  -0.992  1.00  0.00    -0.324 N 
HETATM   14  C9  UNL     1       2.748   1.792  -1.346  1.00  0.00     0.250 C 
HETATM   15  O1  UNL     1       2.950   2.984  -1.674  1.00  0.00    -0.271 OA
ATOM     16  H3  UNL     1       1.278   0.418  -0.729  1.00  0.00     0.165 HD
BRANCH  14  17
HETATM   17  C8  UNL     1       3.861   0.844  -1.339  1.00  0.00     0.279 C 
BRANCH  17  18
HETATM   18  C7  UNL     1       5.117   1.410  -0.717  1.00  0.00     0.083 C 
BRANCH  18  19
HETATM   19  C6  UNL     1       6.232   0.487  -0.955  1.00  0.00    -0.027 A 
HETATM   20  C5  UNL     1       6.634  -0.352   0.090  1.00  0.00     0.021 A 
HETATM   21  C4  UNL     1       7.675  -1.219  -0.123  1.00  0.00     0.004 A 
HETATM   22  C25 UNL     1       8.305  -1.248  -1.373  1.00  0.00     0.075 A 
HETATM   23  C24 UNL     1       7.925  -0.438  -2.399  1.00  0.00     0.068 A 
HETATM   24  C23 UNL     1       6.869   0.433  -2.155  1.00  0.00     0.056 A 
BRANCH  21  25
HETATM   25  C3  UNL     1       8.114  -2.130   0.950  1.00  0.00     0.312 C 
BRANCH  25  26
HETATM   26  N1  UNL     1       7.423  -1.966   2.196  1.00  0.00     0.084 N 
HETATM   27  C1  UNL     1       7.917  -3.075   3.055  1.00  0.00     0.309 C 
HETATM   28  C2  UNL     1       7.835  -0.741   2.885  1.00  0.00     0.309 C 
ENDBRANCH  25  26
ENDBRANCH  21  25
BRANCH  22  29
HETATM   29  O5  UNL     1       9.366  -2.156  -1.533  1.00  0.00    -0.360 OA
ATOM     30  H5  UNL     1       9.793  -2.176  -2.381  1.00  0.00     0.217 HD
ENDBRANCH  22  29
BRANCH  24  31
HETATM   31  N11 UNL     1       6.493   1.281  -3.218  1.00  0.00    -0.307 N 
ATOM     32  H11 UNL     1       5.817   0.968  -3.914  1.00  0.00     0.186 HD
BRANCH  31  33
HETATM   33  N12 UNL     1       7.058   2.553  -3.304  1.00  0.00    -0.345 N 
ATOM     34 2H12 UNL     1       7.733   2.851  -2.600  1.00  0.00     0.176 HD
ATOM     35 1H12 UNL     1       6.786   3.166  -4.073  1.00  0.00     0.176 HD
ENDBRANCH  31  33
ENDBRANCH  24  31
ENDBRANCH  18  19
ENDBRANCH  17  18
BRANCH  17  36
HETATM   36  N2  UNL     1       3.540  -0.447  -0.742  1.00  0.00    -0.066 N 
ATOM     37  H23 UNL     1       4.322  -1.099  -0.802  1.00  0.00     0.275 HD
ATOM     38  H22 UNL     1       3.469  -0.390   0.274  1.00  0.00     0.275 HD
ATOM     39  H21 UNL     1       2.692  -0.829  -1.162  1.00  0.00     0.275 HD
ENDBRANCH  17  36
ENDBRANCH  14  17
ENDBRANCH   1  13
BRANCH   9  40
HETATM   40  C21 UNL     1      -2.214  -0.299   1.560  1.00  0.00     0.228 C 
HETATM   41  O2  UNL     1      -1.041  -0.248   1.979  1.00  0.00    -0.643 OA
HETATM   42  O3  UNL     1      -3.136  -1.087   2.264  1.00  0.00    -0.643 OA
ENDBRANCH   9  40
BRANCH   8  43
HETATM   43  S2  UNL     1      -4.964  -0.734   0.918  1.00  0.00    -0.054 SA
BRANCH  43  44
HETATM   44  C14 UNL     1      -6.568  -0.765   0.144  1.00  0.00     0.167 A 
HETATM   45  N5  UNL     1      -6.926  -1.637  -0.817  1.00  0.00    -0.277 N 
HETATM   46  N6  UNL     1      -8.170  -1.389  -1.207  1.00  0.00    -0.277 N 
ATOM     47  H5  UNL     1      -6.331  -2.377  -1.189  1.00  0.00     0.189 HD
HETATM   48  C15 UNL     1      -8.616  -0.337  -0.480  1.00  0.00     0.170 A 
ATOM     49  H6  UNL     1      -8.693  -1.896  -1.921  1.00  0.00     0.189 HD
HETATM   50  N9  UNL     1      -7.628   0.032   0.339  1.00  0.00    -0.310 N 
HETATM   51  C19 UNL     1      -7.701   1.116   1.299  1.00  0.00     0.160 C 
BRANCH  48  52
HETATM   52  S3  UNL     1     -10.240   0.363  -0.699  1.00  0.00    -0.017 SA
BRANCH  52  53
HETATM   53  C16 UNL     1     -11.475  -0.419   0.314  1.00  0.00     0.143 A 
HETATM   54  N7  UNL     1     -11.313  -1.392   1.141  1.00  0.00    -0.369 N 
HETATM   55  C17 UNL     1     -12.581  -1.741   1.774  1.00  0.00     0.141 A 
ATOM     56  H7  UNL     1     -10.423  -1.854   1.328  1.00  0.00     0.161 HD
HETATM   57  C18 UNL     1     -13.576  -0.738   1.290  1.00  0.00     0.141 A 
HETATM   58  N8  UNL     1     -12.838  -0.006   0.299  1.00  0.00    -0.369 N 
ATOM     59  H8  UNL     1     -13.230   0.702  -0.321  1.00  0.00     0.161 HD
ENDBRANCH  52  53
ENDBRANCH  48  52
ENDBRANCH  43  44
ENDBRANCH   8  43
TORSDOF 15
