REMARK  14 active torsions:
REMARK  status: ('A' for Active; 'I' for Inactive)
REMARK    1  A    between atoms: C3_3  and  N1_4 
REMARK       I    between atoms: N1_4  and  C4_6 
REMARK    2  A    between atoms: C4_6  and  C5_8 
REMARK    3  A    between atoms: C7_14  and  C8_15 
REMARK    4  A    between atoms: C9_19  and  N5_20 
REMARK    5  A    between atoms: C10_23  and  N7_24 
REMARK    6  A    between atoms: C16_32  and  C17_33 
REMARK    7  A    between atoms: C17_33  and  C18_34 
REMARK    8  A    between atoms: C18_34  and  C19_35 
REMARK    9  A    between atoms: C19_35  and  S1_36 
REMARK   10  A    between atoms: S1_36  and  C20_37 
REMARK   11  A    between atoms: N12_44  and  C21_45 
REMARK   12  A    between atoms: C22_48  and  N14_49 
REMARK   13  A    between atoms: C23_54  and  N16_55 
REMARK   14  A    between atoms: C25_61  and  O4_62 
ROOT
HETATM    1  C1  UNL     1      -5.760   0.402   0.996  1.00  0.00     0.017 C 
HETATM    2  C2  UNL     1      -4.660  -0.083   0.972  1.00  0.00    -0.054 C 
HETATM    3  C3  UNL     1      -3.300  -0.674   0.965  1.00  0.00     0.231 C 
HETATM    4  O3  UNL     1      -2.603  -0.001  -0.031  1.00  0.00    -0.321 OA
HETATM    5  C9  UNL     1      -2.118   1.098   0.606  1.00  0.00     0.253 C 
HETATM    6  C24 UNL     1      -1.514   0.547   1.864  1.00  0.00     0.093 C 
HETATM    7  C25 UNL     1      -2.581  -0.480   2.255  1.00  0.00     0.191 C 
ENDROOT
BRANCH   3   8
HETATM    8  N1  UNL     1      -3.378  -2.103   0.687  1.00  0.00    -0.311 N 
HETATM    9  C4  UNL     1      -3.935  -2.539  -0.513  1.00  0.00     0.273 C 
HETATM   10  O1  UNL     1      -4.328  -1.595  -1.310  1.00  0.00    -0.266 OA
ATOM     11  H1  UNL     1      -3.027  -2.778   1.366  1.00  0.00     0.167 HD
BRANCH   9  12
HETATM   12  C5  UNL     1      -4.121  -3.893  -0.980  1.00  0.00     0.132 A 
HETATM   13  N2  UNL     1      -3.971  -4.217  -2.311  1.00  0.00    -0.295 N 
HETATM   14  N3  UNL     1      -4.204  -5.492  -2.500  1.00  0.00    -0.310 N 
ATOM     15  H2  UNL     1      -3.715  -3.557  -3.045  1.00  0.00     0.187 HD
HETATM   16  C6  UNL     1      -4.511  -6.053  -1.329  1.00  0.00     0.126 A 
ATOM     17  H3  UNL     1      -4.158  -5.977  -3.396  1.00  0.00     0.186 HD
HETATM   18  C7  UNL     1      -4.463  -5.043  -0.364  1.00  0.00     0.079 A 
BRANCH  18  19
HETATM   19  C8  UNL     1      -4.844  -5.286   0.995  1.00  0.00     0.268 C 
HETATM   20  N4  UNL     1      -5.266  -4.298   1.904  1.00  0.00    -0.057 NA
HETATM   21  O2  UNL     1      -4.820  -6.474   1.459  1.00  0.00    -0.271 OA
ENDBRANCH  18  19
ENDBRANCH   9  12
ENDBRANCH   3   8
BRANCH   7  22
HETATM   22  O4  UNL     1      -3.448   0.179   3.131  1.00  0.00    -0.389 OA
ATOM     23  H4  UNL     1      -2.989   0.303   3.954  1.00  0.00     0.210 HD
ENDBRANCH   7  22
BRANCH   5  24
HETATM   24  N5  UNL     1      -1.237   1.947  -0.150  1.00  0.00    -0.236 N 
HETATM   25  N6  UNL     1      -1.110   3.233   0.140  1.00  0.00    -0.126 N 
HETATM   26  C10 UNL     1      -0.240   3.826  -0.688  1.00  0.00     0.696 A 
ATOM     27  H6  UNL     1      -1.608   3.708   0.893  1.00  0.00     0.206 HD
HETATM   28  N8  UNL     1       0.170   2.855  -1.508  1.00  0.00    -0.178 N 
HETATM   29  C16 UNL     1      -0.440   1.711  -1.177  1.00  0.00     0.117 A 
ATOM     30  H8  UNL     1       0.842   2.968  -2.267  1.00  0.00     0.185 HD
BRANCH  26  31
HETATM   31  N7  UNL     1       0.127   5.198  -0.654  1.00  0.00    -0.216 N 
HETATM   32  C11 UNL     1      -0.470   6.026   0.359  1.00  0.00     0.141 C 
HETATM   33  C12 UNL     1      -0.063   7.447   0.328  1.00  0.00     0.020 C 
HETATM   34  C13 UNL     1       1.143   7.773  -0.474  1.00  0.00     0.003 C 
HETATM   35  C14 UNL     1       0.998   7.154  -1.848  1.00  0.00     0.020 C 
HETATM   36  C15 UNL     1       1.078   5.650  -1.649  1.00  0.00     0.141 C 
ENDBRANCH  26  31
BRANCH  29  37
HETATM   37  C17 UNL     1      -0.243   0.423  -1.853  1.00  0.00     0.080 C 
BRANCH  37  38
HETATM   38  C18 UNL     1       0.878  -0.410  -1.244  1.00  0.00     0.018 C 
BRANCH  38  39
HETATM   39  C19 UNL     1       2.201   0.309  -1.305  1.00  0.00     0.083 C 
BRANCH  39  40
HETATM   40  S1  UNL     1       3.456  -0.765  -0.557  1.00  0.00    -0.090 SA
BRANCH  40  41
HETATM   41  C20 UNL     1       3.684  -2.225  -1.573  1.00  0.00     0.201 A 
HETATM   42  N9  UNL     1       3.064  -2.539  -2.716  1.00  0.00    -0.262 N 
HETATM   43  N10 UNL     1       3.507  -3.693  -3.153  1.00  0.00    -0.225 N 
ATOM     44  H9  UNL     1       2.355  -1.968  -3.177  1.00  0.00     0.190 HD
HETATM   45  N11 UNL     1       4.411  -4.124  -2.298  1.00  0.00    -0.205 N 
ATOM     46  H10 UNL     1       3.206  -4.171  -4.002  1.00  0.00     0.210 HD
HETATM   47  N12 UNL     1       4.529  -3.242  -1.332  1.00  0.00    -0.045 N 
ATOM     48  H11 UNL     1       4.933  -4.997  -2.373  1.00  0.00     0.211 HD
BRANCH  47  49
HETATM   49  C21 UNL     1       5.387  -3.303  -0.200  1.00  0.00     0.736 A 
HETATM   50  N13 UNL     1       5.406  -4.356   0.635  1.00  0.00    -0.020 N 
HETATM   51  C22 UNL     1       6.224  -4.407   1.709  1.00  0.00     0.705 A 
ATOM     52  H13 UNL     1       4.783  -5.142   0.452  1.00  0.00     0.203 HD
HETATM   53  N15 UNL     1       7.043  -3.358   1.937  1.00  0.00    -0.022 N 
HETATM   54  C23 UNL     1       7.041  -2.297   1.117  1.00  0.00     0.705 A 
ATOM     55  H15 UNL     1       7.670  -3.373   2.742  1.00  0.00     0.203 HD
HETATM   56  N17 UNL     1       6.207  -2.271   0.042  1.00  0.00    -0.020 N 
ATOM     57  H17 UNL     1       6.206  -1.464  -0.581  1.00  0.00     0.203 HD
BRANCH  51  58
HETATM   58  N14 UNL     1       6.231  -5.424   2.500  1.00  0.00    -0.234 N 
ATOM     59 2H14 UNL     1       5.612  -6.216   2.328  1.00  0.00     0.174 HD
ATOM     60 1H14 UNL     1       6.849  -5.463   3.311  1.00  0.00     0.174 HD
ENDBRANCH  51  58
BRANCH  54  61
HETATM   61  N16 UNL     1       7.819  -1.307   1.339  1.00  0.00    -0.234 N 
ATOM     62 2H16 UNL     1       8.444  -1.326   2.145  1.00  0.00     0.174 HD
ATOM     63 1H16 UNL     1       7.817  -0.500   0.715  1.00  0.00     0.174 HD
ENDBRANCH  54  61
ENDBRANCH  47  49
ENDBRANCH  40  41
ENDBRANCH  39  40
ENDBRANCH  38  39
ENDBRANCH  37  38
ENDBRANCH  29  37
ENDBRANCH   5  24
TORSDOF 14
