REMARK  7 active torsions:
REMARK  status: ('A' for Active; 'I' for Inactive)
REMARK    1  A    between atoms: N1_2  and  C2_5 
REMARK    2  A    between atoms: C2_5  and  C3_6 
REMARK    3  A    between atoms: C3_6  and  C4_7 
REMARK    4  A    between atoms: C4_7  and  C5_8 
REMARK    5  A    between atoms: C5_8  and  N2_9 
REMARK    6  A    between atoms: N2_9  and  N3_10 
REMARK    7  A    between atoms: N3_10  and  C6_12 
ROOT
HETATM    1  N2  UNL     1       1.025  -0.234   0.860  1.00  0.00    -0.139 NA
ENDROOT
BRANCH   1   2
HETATM    2  C5  UNL     1      -0.197  -0.050   0.019  1.00  0.00     0.135 C 
BRANCH   2   3
HETATM    3  C4  UNL     1      -1.241  -0.731   0.815  1.00  0.00     0.019 C 
BRANCH   3   4
HETATM    4  C3  UNL     1      -2.618  -0.795   0.343  1.00  0.00     0.029 C 
BRANCH   4   5
HETATM    5  C2  UNL     1      -3.343   0.492   0.161  1.00  0.00     0.231 C 
BRANCH   5   6
HETATM    6  N1  UNL     1      -4.689   0.099  -0.287  1.00  0.00    -0.079 N 
HETATM    7  C1  UNL     1      -5.506   1.242  -0.661  1.00  0.00     0.266 C 
ATOM      8  H12 UNL     1      -5.157  -0.473   0.416  1.00  0.00     0.276 HD
ATOM      9  H11 UNL     1      -4.640  -0.581  -1.046  1.00  0.00     0.276 HD
ENDBRANCH   5   6
ENDBRANCH   4   5
ENDBRANCH   3   4
ENDBRANCH   2   3
ENDBRANCH   1   2
BRANCH   1  10
HETATM   10  N3  UNL     1       2.021  -0.752   0.138  1.00  0.00    -0.275 N 
ATOM     11  H3  UNL     1       1.717  -1.524  -0.455  1.00  0.00     0.185 HD
BRANCH  10  12
HETATM   12  C6  UNL     1       3.396  -0.475   0.009  1.00  0.00     0.187 C 
HETATM   13  N4  UNL     1       4.328  -0.563   0.894  1.00  0.00    -0.360 N 
HETATM   14  C7  UNL     1       5.617  -0.190   0.277  1.00  0.00     0.142 C 
ATOM     15  H4  UNL     1       4.197  -0.845   1.865  1.00  0.00     0.162 HD
HETATM   16  C8  UNL     1       5.138   0.705  -0.856  1.00  0.00     0.142 C 
HETATM   17  N5  UNL     1       3.942   0.006  -1.244  1.00  0.00    -0.360 N 
ATOM     18  H5  UNL     1       3.566  -0.121  -2.183  1.00  0.00     0.162 HD
ENDBRANCH  10  12
ENDBRANCH   1  10
TORSDOF 7
