REMARK  5 active torsions:
REMARK  status: ('A' for Active; 'I' for Inactive)
REMARK    1  A    between atoms: N1_2  and  C2_5 
REMARK    2  A    between atoms: C2_5  and  C3_6 
REMARK    3  A    between atoms: C5_11  and  N3_12 
REMARK    4  A    between atoms: N3_12  and  C6_14 
REMARK    5  A    between atoms: C6_14  and  C7_15 
ROOT
HETATM    1  C3  UNL     1       1.526   0.004   0.811  1.00  0.00     0.235 C 
HETATM    2  N2  UNL     1       2.262  -1.265   1.054  1.00  0.00    -0.065 N 
ATOM      3  H21 UNL     1       2.694  -1.476   1.954  1.00  0.00     0.277 HD
ATOM      4  H22 UNL     1       3.166  -1.457   0.623  1.00  0.00     0.277 HD
HETATM    5  C4  UNL     1       1.030  -1.927   0.607  1.00  0.00     0.260 C 
HETATM    6  C5  UNL     1       0.312  -0.745   1.234  1.00  0.00     0.139 C 
ENDROOT
BRANCH   6   7
HETATM    7  N3  UNL     1      -0.951  -0.407   0.799  1.00  0.00    -0.387 N 
ATOM      8  H3  UNL     1      -1.620  -0.098   1.504  1.00  0.00     0.159 HD
BRANCH   7   9
HETATM    9  C6  UNL     1      -1.390  -0.452  -0.518  1.00  0.00     0.134 C 
BRANCH   9  10
HETATM   10  C7  UNL     1      -2.864  -0.074  -0.595  1.00  0.00     0.136 A 
HETATM   11  N4  UNL     1      -3.377   1.147  -0.806  1.00  0.00    -0.335 N 
HETATM   12  C8  UNL     1      -4.726   1.077  -0.805  1.00  0.00     0.199 A 
ATOM     13  H4  UNL     1      -2.832   1.998  -0.946  1.00  0.00     0.168 HD
HETATM   14  N5  UNL     1      -5.045  -0.198  -0.592  1.00  0.00    -0.295 N 
HETATM   15  N6  UNL     1      -3.913  -0.903  -0.463  1.00  0.00    -0.283 N 
ATOM     16  H5  UNL     1      -5.991  -0.574  -0.536  1.00  0.00     0.187 HD
ATOM     17  H6  UNL     1      -3.857  -1.907  -0.292  1.00  0.00     0.188 HD
ENDBRANCH   9  10
ENDBRANCH   7   9
ENDBRANCH   6   7
BRANCH   1  18
HETATM   18  C2  UNL     1       1.675   0.393  -0.631  1.00  0.00     0.266 C 
BRANCH  18  19
HETATM   19  N1  UNL     1       3.079   0.593  -0.986  1.00  0.00    -0.077 N 
HETATM   20  C1  UNL     1       3.618   1.767  -0.317  1.00  0.00     0.267 C 
ATOM     21  H12 UNL     1       3.210   0.641  -1.996  1.00  0.00     0.276 HD
ATOM     22  H11 UNL     1       3.638  -0.239  -0.798  1.00  0.00     0.276 HD
ENDBRANCH  18  19
ENDBRANCH   1  18
TORSDOF 5
