REMARK  7 active torsions:
REMARK  status: ('A' for Active; 'I' for Inactive)
REMARK    1  A    between atoms: N1_2  and  C2_4 
REMARK    2  A    between atoms: C3_7  and  N3_8 
REMARK    3  A    between atoms: N5_13  and  C4_14 
REMARK    4  A    between atoms: C4_14  and  C5_15 
REMARK    5  A    between atoms: C5_15  and  C6_16 
REMARK    6  A    between atoms: C6_16  and  C7_17 
REMARK    7  A    between atoms: C7_17  and  N6_18 
ROOT
HETATM    1  C2  UNL     1      -2.385   0.023   0.172  1.00  0.00     0.709 A 
HETATM    2  N2  UNL     1      -2.803   1.121  -0.481  1.00  0.00    -0.020 N 
ATOM      3  H2  UNL     1      -3.642   1.189  -1.057  1.00  0.00     0.203 HD
HETATM    4  C3  UNL     1      -1.925   2.118  -0.246  1.00  0.00     0.705 A 
HETATM    5  N4  UNL     1      -0.958   1.637   0.558  1.00  0.00    -0.115 N 
ATOM      6  H4  UNL     1      -0.152   2.152   0.913  1.00  0.00     0.206 HD
HETATM    7  N5  UNL     1      -1.249   0.380   0.798  1.00  0.00    -0.109 N 
ENDROOT
BRANCH   7   8
HETATM    8  C4  UNL     1      -0.453  -0.502   1.631  1.00  0.00     0.168 C 
BRANCH   8   9
HETATM    9  C5  UNL     1       0.555  -1.200   0.769  1.00  0.00     0.024 C 
BRANCH   9  10
HETATM   10  C6  UNL     1       1.493  -0.275   0.062  1.00  0.00     0.029 C 
BRANCH  10  11
HETATM   11  C7  UNL     1       2.473  -1.076  -0.781  1.00  0.00     0.231 C 
BRANCH  11  12
HETATM   12  N6  UNL     1       3.398  -0.223  -1.483  1.00  0.00    -0.079 N 
HETATM   13  C8  UNL     1       4.287   0.419  -0.560  1.00  0.00     0.266 C 
ATOM     14  H62 UNL     1       3.905  -0.729  -2.209  1.00  0.00     0.276 HD
ATOM     15  H61 UNL     1       2.916   0.452  -2.077  1.00  0.00     0.276 HD
ENDBRANCH  11  12
ENDBRANCH  10  11
ENDBRANCH   9  10
ENDBRANCH   8   9
ENDBRANCH   7   8
BRANCH   1  16
HETATM   16  N1  UNL     1      -2.924  -1.145   0.218  1.00  0.00    -0.228 N 
HETATM   17  C1  UNL     1      -4.122  -1.550  -0.433  1.00  0.00     0.165 C 
ATOM     18  H1  UNL     1      -2.444  -1.850   0.777  1.00  0.00     0.177 HD
ENDBRANCH   1  16
BRANCH   4  19
HETATM   19  N3  UNL     1      -1.983   3.335  -0.702  1.00  0.00    -0.233 N 
ATOM     20  H32 UNL     1      -2.716   3.699  -1.311  1.00  0.00     0.174 HD
ATOM     21  H31 UNL     1      -1.319   4.089  -0.524  1.00  0.00     0.174 HD
ENDBRANCH   4  19
TORSDOF 7
