REMARK  6 active torsions:
REMARK  status: ('A' for Active; 'I' for Inactive)
REMARK    1  A    between atoms: N1_1  and  C1_5 
REMARK    2  A    between atoms: C4_11  and  N3_12 
REMARK    3  A    between atoms: N3_12  and  C5_14 
REMARK    4  A    between atoms: C5_14  and  C6_15 
REMARK    5  A    between atoms: C6_15  and  N4_16 
REMARK    6  A    between atoms: N4_16  and  C7_19 
ROOT
HETATM    1  C1  UNL     1      -2.719  -0.588   0.071  1.00  0.00     0.402 C 
HETATM    2  N2  UNL     1      -3.649   0.394  -0.460  1.00  0.00    -0.044 N 
ATOM      3  H21 UNL     1      -4.572   0.324  -0.032  1.00  0.00     0.279 HD
ATOM      4  H22 UNL     1      -3.920   0.189  -1.422  1.00  0.00     0.279 HD
HETATM    5  C2  UNL     1      -3.085   1.701  -0.322  1.00  0.00     0.237 C 
HETATM    6  C3  UNL     1      -2.087   1.575   0.786  1.00  0.00     0.056 C 
HETATM    7  C4  UNL     1      -1.666   0.131   0.827  1.00  0.00     0.136 C 
ENDROOT
BRANCH   7   8
HETATM    8  N3  UNL     1      -0.313  -0.100   0.482  1.00  0.00    -0.412 N 
ATOM      9  H3  UNL     1       0.346  -0.481   1.161  1.00  0.00     0.153 HD
BRANCH   8  10
HETATM   10  C5  UNL     1       0.096   0.213  -0.832  1.00  0.00     0.142 C 
BRANCH  10  11
HETATM   11  C6  UNL     1       1.568   0.238  -1.076  1.00  0.00     0.251 C 
BRANCH  11  12
HETATM   12  N4  UNL     1       2.170  -1.047  -0.726  1.00  0.00    -0.069 N 
ATOM     13  H42 UNL     1       1.936  -1.378   0.210  1.00  0.00     0.277 HD
ATOM     14  H41 UNL     1       1.777  -1.844  -1.227  1.00  0.00     0.277 HD
BRANCH  12  15
HETATM   15  C7  UNL     1       3.620  -0.840  -0.954  1.00  0.00     0.186 A 
HETATM   16  C8  UNL     1       4.285   0.205  -0.115  1.00  0.00     0.035 A 
HETATM   17  C9  UNL     1       4.498  -1.282   0.170  1.00  0.00     0.035 A 
ENDBRANCH  12  15
ENDBRANCH  11  12
ENDBRANCH  10  11
ENDBRANCH   8  10
ENDBRANCH   7   8
BRANCH   1  18
HETATM   18  N1  UNL     1      -3.512  -1.521   0.853  1.00  0.00    -0.048 N 
ATOM     19  H13 UNL     1      -4.077  -1.069   1.572  1.00  0.00     0.276 HD
ATOM     20  H12 UNL     1      -4.283  -1.935   0.329  1.00  0.00     0.276 HD
ATOM     21  H11 UNL     1      -2.859  -2.210   1.226  1.00  0.00     0.276 HD
ENDBRANCH   1  18
TORSDOF 6
