REMARK  4 active torsions:
REMARK  status: ('A' for Active; 'I' for Inactive)
REMARK    1  A    between atoms: C2_2  and  C5_5 
REMARK    2  A    between atoms: C5_5  and  N1_6 
REMARK    3  A    between atoms: C5_5  and  C13_22 
REMARK       I    between atoms: N1_6  and  C6_8 
REMARK       I    between atoms: C6_8  and  N2_10 
REMARK    4  A    between atoms: C10_14  and  C11_15 
REMARK       I    between atoms: C11_15  and  N3_17 
REMARK       I    between atoms: C13_22  and  N6_24 
ROOT
HETATM    1  N1  UNL     1       0.747  -0.294   0.149  1.00  0.00    -0.329 N 
ATOM      2  H1  UNL     1       1.116   0.191   0.967  1.00  0.00     0.165 HD
HETATM    3  C6  UNL     1      -0.643  -0.326  -0.029  1.00  0.00     0.319 C 
HETATM    4  O1  UNL     1      -1.101  -0.919  -1.040  1.00  0.00    -0.247 OA
HETATM    5  N2  UNL     1      -1.566   0.270   0.861  1.00  0.00    -0.321 N 
HETATM    6  C7  UNL     1      -1.208   0.969   2.075  1.00  0.00     0.129 C 
HETATM    7  C8  UNL     1      -2.289   0.381   3.003  1.00  0.00     0.022 C 
HETATM    8  C9  UNL     1      -3.496   0.773   2.128  1.00  0.00     0.037 C 
HETATM    9  C10 UNL     1      -3.025   0.314   0.754  1.00  0.00     0.181 C 
ENDROOT
BRANCH   1  10
HETATM   10  C5  UNL     1       1.693  -0.912  -0.765  1.00  0.00     0.186 C 
BRANCH  10  11
HETATM   11  C2  UNL     1       2.536  -1.858   0.039  1.00  0.00    -0.022 C 
HETATM   12  C1  UNL     1       1.639  -2.904   0.679  1.00  0.00     0.017 C 
HETATM   13  C3  UNL     1       3.560  -2.601  -0.790  1.00  0.00     0.017 C 
HETATM   14  C4  UNL     1       3.279  -1.173   1.158  1.00  0.00     0.017 C 
ENDBRANCH  10  11
BRANCH  10  15
HETATM   15  C13 UNL     1       2.486   0.173  -1.424  1.00  0.00     0.247 C 
HETATM   16  O3  UNL     1       2.258   1.369  -1.132  1.00  0.00    -0.271 OA
HETATM   17  N6  UNL     1       3.473  -0.131  -2.360  1.00  0.00    -0.302 N 
HETATM   18  C14 UNL     1       4.567   0.405  -2.638  1.00  0.00     0.203 C 
ATOM     19  H6  UNL     1       3.261  -0.951  -2.929  1.00  0.00     0.171 HD
HETATM   20  N7  UNL     1       5.386  -0.145  -3.675  1.00  0.00    -0.066 NA
HETATM   21  N8  UNL     1       5.048   1.550  -1.965  1.00  0.00    -0.066 NA
ENDBRANCH  10  15
ENDBRANCH   1  10
BRANCH   9  22
HETATM   22  C11 UNL     1      -3.445   1.276  -0.298  1.00  0.00     0.246 C 
HETATM   23  O2  UNL     1      -2.548   2.112  -0.671  1.00  0.00    -0.271 OA
HETATM   24  N3  UNL     1      -4.673   1.369  -0.916  1.00  0.00    -0.302 N 
HETATM   25  C12 UNL     1      -5.804   1.804  -0.579  1.00  0.00     0.203 C 
ATOM     26  H3  UNL     1      -4.662   1.000  -1.867  1.00  0.00     0.171 HD
HETATM   27  N4  UNL     1      -6.943   1.781  -1.438  1.00  0.00    -0.066 NA
HETATM   28  N5  UNL     1      -6.026   2.364   0.703  1.00  0.00    -0.066 NA
ENDBRANCH   9  22
TORSDOF 4
