REMARK  8 active torsions:
REMARK  status: ('A' for Active; 'I' for Inactive)
REMARK    1  A    between atoms: C1_2  and  N1_3 
REMARK    2  A    between atoms: N1_3  and  C2_5 
REMARK    3  A    between atoms: C2_5  and  C3_6 
REMARK    4  A    between atoms: C3_6  and  C4_7 
REMARK    5  A    between atoms: C4_7  and  N2_8 
REMARK    6  A    between atoms: N2_8  and  C5_10 
REMARK    7  A    between atoms: C5_10  and  C6_11 
REMARK    8  A    between atoms: C6_11  and  N3_12 
ROOT
HETATM    1  N3  UNL     1       0.057   0.200  -0.635  1.00  0.00    -0.349 N 
HETATM    2  C7  UNL     1      -1.001   0.732   0.120  1.00  0.00     0.095 C 
HETATM    3  C8  UNL     1      -0.958   2.160   0.505  1.00  0.00     0.277 C 
HETATM    4  N4  UNL     1      -2.175   2.859   0.102  1.00  0.00    -0.071 N 
ATOM      5  H41 UNL     1      -2.232   2.927  -0.914  1.00  0.00     0.277 HD
ATOM      6  H42 UNL     1      -2.116   3.850   0.336  1.00  0.00     0.277 HD
HETATM    7  C9  UNL     1      -3.377   2.279   0.642  1.00  0.00     0.234 C 
HETATM    8  C10 UNL     1      -4.443   2.012  -0.375  1.00  0.00     0.046 C 
HETATM    9  C11 UNL     1      -5.085   0.671  -0.307  1.00  0.00     0.115 C 
HETATM   10  N5  UNL     1      -4.625  -0.191   0.732  1.00  0.00    -0.420 N 
ATOM     11  H5  UNL     1      -4.302   0.167   1.631  1.00  0.00     0.153 HD
HETATM   12  C12 UNL     1      -4.646  -1.590   0.434  1.00  0.00     0.141 C 
HETATM   13  C13 UNL     1      -3.626  -2.035  -0.558  1.00  0.00     0.251 C 
HETATM   14  N6  UNL     1      -2.260  -1.916  -0.093  1.00  0.00    -0.069 N 
ATOM     15  H61 UNL     1      -1.978  -2.708   0.484  1.00  0.00     0.277 HD
ATOM     16  H62 UNL     1      -2.153  -1.181   0.606  1.00  0.00     0.277 HD
HETATM   17  C14 UNL     1      -1.368  -1.722  -1.245  1.00  0.00     0.277 C 
HETATM   18  C15 UNL     1      -0.026  -1.183  -0.841  1.00  0.00     0.095 C 
ENDROOT
BRANCH   1  19
HETATM   19  C6  UNL     1       1.275   0.868  -0.755  1.00  0.00     0.087 C 
BRANCH  19  20
HETATM   20  C5  UNL     1       2.027   0.874   0.551  1.00  0.00     0.159 C 
BRANCH  20  21
HETATM   21  N2  UNL     1       2.341  -0.459   0.954  1.00  0.00    -0.417 N 
ATOM     22  H2  UNL     1       1.891  -0.900   1.756  1.00  0.00     0.153 HD
BRANCH  21  23
HETATM   23  C4  UNL     1       3.325  -1.142   0.167  1.00  0.00     0.115 C 
BRANCH  23  24
HETATM   24  C3  UNL     1       4.714  -0.545   0.323  1.00  0.00     0.039 C 
BRANCH  24  25
HETATM   25  C2  UNL     1       5.704  -1.295  -0.540  1.00  0.00     0.123 C 
BRANCH  25  26
HETATM   26  N1  UNL     1       7.029  -0.757  -0.416  1.00  0.00    -0.368 N 
ATOM     27  H1  UNL     1       7.779  -1.350  -0.061  1.00  0.00     0.161 HD
BRANCH  26  28
HETATM   28  C1  UNL     1       7.311   0.576  -0.776  1.00  0.00     0.348 C 
HETATM   29  O1  UNL     1       6.497   1.397  -1.221  1.00  0.00    -0.284 OA
ENDBRANCH  26  28
ENDBRANCH  25  26
ENDBRANCH  24  25
ENDBRANCH  23  24
ENDBRANCH  21  23
ENDBRANCH  20  21
ENDBRANCH  19  20
ENDBRANCH   1  19
TORSDOF 8
