REMARK  15 active torsions:
REMARK  status: ('A' for Active; 'I' for Inactive)
REMARK    1  A    between atoms: N1_1  and  C1_5 
REMARK    2  A    between atoms: C1_5  and  C2_6 
REMARK    3  A    between atoms: C2_6  and  C3_7 
REMARK    4  A    between atoms: C3_7  and  C4_8 
REMARK    5  A    between atoms: N2_9  and  N3_11 
REMARK    6  A    between atoms: N3_11  and  C5_13 
REMARK    7  A    between atoms: C6_16  and  N5_17 
REMARK    8  A    between atoms: N5_17  and  C7_19 
REMARK    9  A    between atoms: C7_19  and  C8_20 
REMARK   10  A    between atoms: C8_20  and  O1_21 
REMARK   11  A    between atoms: C9_25  and  N7_26 
REMARK   12  A    between atoms: N7_26  and  C10_28 
REMARK   13  A    between atoms: C10_28  and  C11_29 
REMARK   14  A    between atoms: C11_29  and  C12_30 
REMARK   15  A    between atoms: C12_30  and  N8_31 
ROOT
HETATM    1  C5  UNL     1       0.886   1.666   0.100  1.00  0.00     0.725 A 
HETATM    2  N4  UNL     1       0.304   2.829   0.450  1.00  0.00    -0.020 N 
ATOM      3  H4  UNL     1       0.874   3.608   0.779  1.00  0.00     0.203 HD
HETATM    4  C6  UNL     1      -1.043   2.959   0.363  1.00  0.00     0.707 A 
HETATM    5  N6  UNL     1      -1.783   1.930  -0.070  1.00  0.00    -0.022 N 
ATOM      6  H6  UNL     1      -2.795   2.037  -0.133  1.00  0.00     0.203 HD
HETATM    7  C9  UNL     1      -1.225   0.762  -0.423  1.00  0.00     0.707 A 
HETATM    8  N9  UNL     1       0.109   0.651  -0.331  1.00  0.00    -0.020 N 
ATOM      9  H9  UNL     1       0.550  -0.230  -0.596  1.00  0.00     0.203 HD
ENDROOT
BRANCH   1  10
HETATM   10  N3  UNL     1       2.171   1.520   0.175  1.00  0.00    -0.132 N 
ATOM     11  H3  UNL     1       2.760   2.286   0.501  1.00  0.00     0.205 HD
BRANCH  10  12
HETATM   12  N2  UNL     1       2.738   0.300  -0.196  1.00  0.00    -0.301 N 
HETATM   13  C4  UNL     1       2.955  -0.570   0.728  1.00  0.00     0.080 C 
ATOM     14  H2  UNL     1       2.973   0.104  -1.169  1.00  0.00     0.186 HD
BRANCH  13  15
HETATM   15  C3  UNL     1       3.557  -1.867   0.334  1.00  0.00     0.048 C 
BRANCH  15  16
HETATM   16  C2  UNL     1       5.059  -1.700   0.368  1.00  0.00     0.032 C 
BRANCH  16  17
HETATM   17  C1  UNL     1       5.677  -3.017  -0.032  1.00  0.00     0.230 C 
BRANCH  17  18
HETATM   18  N1  UNL     1       5.238  -4.014   0.923  1.00  0.00    -0.079 N 
ATOM     19  H13 UNL     1       5.442  -3.756   1.889  1.00  0.00     0.274 HD
ATOM     20  H12 UNL     1       4.223  -4.062   1.009  1.00  0.00     0.274 HD
ATOM     21  H11 UNL     1       5.656  -4.904   0.653  1.00  0.00     0.274 HD
ENDBRANCH  17  18
ENDBRANCH  16  17
ENDBRANCH  15  16
ENDBRANCH  13  15
ENDBRANCH  10  12
ENDBRANCH   1  10
BRANCH   4  22
HETATM   22  N5  UNL     1      -1.596   4.057   0.693  1.00  0.00    -0.223 N 
ATOM     23  H5  UNL     1      -1.025   4.835   1.022  1.00  0.00     0.177 HD
BRANCH  22  24
HETATM   24  C7  UNL     1      -3.015   4.203   0.604  1.00  0.00     0.164 C 
BRANCH  24  25
HETATM   25  C8  UNL     1      -3.325   5.696   0.739  1.00  0.00     0.184 C 
BRANCH  25  26
HETATM   26  O1  UNL     1      -4.715   5.832   0.652  1.00  0.00    -0.399 OA
ATOM     27  H1  UNL     1      -4.907   6.759   0.736  1.00  0.00     0.209 HD
ENDBRANCH  25  26
ENDBRANCH  24  25
ENDBRANCH  22  24
ENDBRANCH   4  22
BRANCH   7  28
HETATM   28  N7  UNL     1      -1.938  -0.241  -0.844  1.00  0.00    -0.225 N 
ATOM     29  H7  UNL     1      -2.953  -0.167  -0.918  1.00  0.00     0.177 HD
BRANCH  28  30
HETATM   30  C10 UNL     1      -1.254  -1.464  -1.205  1.00  0.00     0.139 C 
BRANCH  30  31
HETATM   31  C11 UNL     1      -2.352  -2.440  -1.653  1.00  0.00     0.047 C 
BRANCH  31  32
HETATM   32  C12 UNL     1      -3.266  -2.599  -0.440  1.00  0.00     0.231 C 
BRANCH  32  33
HETATM   33  N8  UNL     1      -4.355  -3.507  -0.736  1.00  0.00    -0.079 N 
ATOM     34  H83 UNL     1      -4.874  -3.218  -1.565  1.00  0.00     0.274 HD
ATOM     35  H82 UNL     1      -4.015  -4.407  -1.074  1.00  0.00     0.274 HD
ATOM     36  H81 UNL     1      -4.965  -3.613   0.074  1.00  0.00     0.274 HD
ENDBRANCH  32  33
ENDBRANCH  31  32
ENDBRANCH  30  31
ENDBRANCH  28  30
ENDBRANCH   7  28
TORSDOF 15
