REMARK  12 active torsions:
REMARK  status: ('A' for Active; 'I' for Inactive)
REMARK    1  A    between atoms: N1_1  and  C1_5 
REMARK    2  A    between atoms: C1_5  and  C2_6 
REMARK    3  A    between atoms: C2_6  and  O1_7 
REMARK    4  A    between atoms: C2_6  and  C3_9 
REMARK    5  A    between atoms: C4_10  and  C5_11 
REMARK    6  A    between atoms: C6_12  and  C7_13 
REMARK    7  A    between atoms: C8_15  and  C9_16 
REMARK    8  A    between atoms: C10_20  and  C11_21 
REMARK    9  A    between atoms: C11_21  and  N3_22 
REMARK   10  A    between atoms: N3_22  and  C12_24 
REMARK   11  A    between atoms: C13_26  and  O4_27 
REMARK   12  A    between atoms: C14_29  and  O5_30 
ROOT
HETATM    1  C7  UNL     1       0.051  -0.464   0.108  1.00  0.00     0.176 C 
HETATM    2  O2  UNL     1      -1.288  -0.243   0.467  1.00  0.00    -0.369 OA
HETATM    3  C8  UNL     1      -1.944  -1.321  -0.088  1.00  0.00     0.186 C 
HETATM    4  C13 UNL     1      -1.250  -1.672  -1.386  1.00  0.00     0.180 C 
HETATM    5  C14 UNL     1      -0.094  -0.668  -1.376  1.00  0.00     0.182 C 
ENDROOT
BRANCH   1   6
HETATM    6  C6  UNL     1       0.907   0.685   0.463  1.00  0.00     0.007 C 
HETATM    7  C5  UNL     1       2.209   0.617   0.492  1.00  0.00    -0.002 C 
BRANCH   7   8
HETATM    8  C4  UNL     1       2.883  -0.630   0.167  1.00  0.00    -0.002 C 
HETATM    9  C3  UNL     1       4.197  -0.667   0.206  1.00  0.00     0.006 C 
BRANCH   9  10
HETATM   10  C2  UNL     1       4.965   0.539   0.574  1.00  0.00     0.166 C 
BRANCH  10  11
HETATM   11  C1  UNL     1       6.409   0.101   0.819  1.00  0.00     0.265 C 
BRANCH  11  12
HETATM   12  N1  UNL     1       7.153   1.261   1.231  1.00  0.00    -0.077 N 
ATOM     13  H13 UNL     1       7.080   2.034   0.570  1.00  0.00     0.274 HD
ATOM     14  H12 UNL     1       6.740   1.732   2.036  1.00  0.00     0.274 HD
ATOM     15  H11 UNL     1       8.116   0.969   1.394  1.00  0.00     0.274 HD
ENDBRANCH  11  12
ENDBRANCH  10  11
BRANCH  10  16
HETATM   16  O1  UNL     1       4.925   1.522  -0.432  1.00  0.00    -0.390 OA
ATOM     17  H1  UNL     1       4.028   1.794  -0.584  1.00  0.00     0.210 HD
ENDBRANCH  10  16
ENDBRANCH   9  10
ENDBRANCH   7   8
ENDBRANCH   1   6
BRANCH   5  18
HETATM   18  O5  UNL     1      -0.604   0.488  -1.995  1.00  0.00    -0.390 OA
ATOM     19  H5  UNL     1      -0.696   0.359  -2.932  1.00  0.00     0.210 HD
ENDBRANCH   5  18
BRANCH   3  20
HETATM   20  C9  UNL     1      -3.387  -1.031  -0.396  1.00  0.00     0.249 A 
HETATM   21  N2  UNL     1      -3.531   0.097  -1.361  1.00  0.00    -0.058 N 
HETATM   22  C10 UNL     1      -4.082   0.162  -0.014  1.00  0.00     0.237 A 
ATOM     23  H22 UNL     1      -2.900   0.666  -1.925  1.00  0.00     0.278 HD
ATOM     24  H21 UNL     1      -3.891   0.212  -2.308  1.00  0.00     0.278 HD
BRANCH  22  25
HETATM   25  C11 UNL     1      -5.593   0.124   0.003  1.00  0.00     0.157 C 
BRANCH  25  26
HETATM   26  N3  UNL     1      -6.149   1.389   0.407  1.00  0.00    -0.366 N 
ATOM     27  H3  UNL     1      -6.754   1.887  -0.246  1.00  0.00     0.161 HD
BRANCH  26  28
HETATM   28  C12 UNL     1      -5.893   1.971   1.668  1.00  0.00     0.348 C 
HETATM   29  O3  UNL     1      -5.158   1.413   2.522  1.00  0.00    -0.284 OA
ENDBRANCH  26  28
ENDBRANCH  25  26
ENDBRANCH  22  25
ENDBRANCH   3  20
BRANCH   4  30
HETATM   30  O4  UNL     1      -2.040  -1.529  -2.500  1.00  0.00    -0.390 OA
ATOM     31  H4  UNL     1      -1.604  -1.749  -3.315  1.00  0.00     0.210 HD
ENDBRANCH   4  30
TORSDOF 12
