REMARK  5 active torsions:
REMARK  status: ('A' for Active; 'I' for Inactive)
REMARK    1  A    between atoms: C2_2  and  C4_4 
REMARK    2  A    between atoms: C9_9  and  C10_10 
REMARK       I    between atoms: C10_10  and  N1_12 
REMARK    3  A    between atoms: N1_12  and  C11_14 
REMARK    4  A    between atoms: C18_21  and  C19_22 
REMARK    5  A    between atoms: C22_27  and  C23_28 
ROOT
HETATM    1  C10 UNL     1      -0.150  -0.737  -0.215  1.00  0.00     0.226 C 
HETATM    2  O1  UNL     1      -0.242  -0.322  -1.386  1.00  0.00    -0.273 OA
HETATM    3  N1  UNL     1       1.078  -0.754   0.506  1.00  0.00    -0.355 N 
ATOM      4  H1  UNL     1       1.072  -1.110   1.462  1.00  0.00     0.162 HD
ENDROOT
BRANCH   1   5
HETATM    5  C9  UNL     1      -1.385  -1.230   0.446  1.00  0.00     0.112 C 
HETATM    6  C8  UNL     1      -1.821  -0.336   1.554  1.00  0.00     0.024 C 
HETATM    7  C7  UNL     1      -3.322  -0.462   1.566  1.00  0.00    -0.005 C 
HETATM    8  C6  UNL     1      -3.981   0.825   2.009  1.00  0.00     0.006 C 
HETATM    9  C24 UNL     1      -3.715  -0.650   0.119  1.00  0.00     0.029 C 
HETATM   10  C5  UNL     1      -4.079   1.610   0.758  1.00  0.00     0.006 C 
HETATM   11  C4  UNL     1      -3.956   0.682  -0.421  1.00  0.00    -0.003 C 
HETATM   12  C22 UNL     1      -2.563  -1.456  -0.407  1.00  0.00     0.003 C 
BRANCH  11  13
HETATM   13  C2  UNL     1      -5.278   0.829  -1.172  1.00  0.00    -0.018 C 
HETATM   14  C1  UNL     1      -5.401   2.306  -1.572  1.00  0.00     0.010 C 
HETATM   15  C3  UNL     1      -6.455   0.420  -0.362  1.00  0.00     0.010 C 
ENDBRANCH  11  13
BRANCH  12  16
HETATM   16  C23 UNL     1      -2.390  -1.525  -1.847  1.00  0.00     0.258 C 
HETATM   17  N3  UNL     1      -1.727  -2.672  -2.432  1.00  0.00    -0.058 NA
HETATM   18  O3  UNL     1      -2.754  -0.682  -2.707  1.00  0.00    -0.272 OA
ENDBRANCH  12  16
ENDBRANCH   1   5
BRANCH   3  19
HETATM   19  C11 UNL     1       2.330  -0.294  -0.044  1.00  0.00     0.092 C 
HETATM   20  C12 UNL     1       3.339  -1.413  -0.189  1.00  0.00     0.010 C 
HETATM   21  C13 UNL     1       3.991  -1.778   1.118  1.00  0.00     0.011 C 
HETATM   22  C21 UNL     1       4.440  -0.880  -1.085  1.00  0.00     0.025 C 
HETATM   23  C14 UNL     1       4.520  -0.560   1.827  1.00  0.00    -0.013 C 
HETATM   24  C15 UNL     1       3.519   0.534   2.005  1.00  0.00     0.011 C 
HETATM   25  C20 UNL     1       5.637  -0.000   0.943  1.00  0.00     0.023 C 
HETATM   26  C16 UNL     1       2.895   0.895   0.677  1.00  0.00     0.010 C 
HETATM   27  C17 UNL     1       4.025   1.430  -0.195  1.00  0.00     0.025 C 
HETATM   28  C18 UNL     1       5.051   0.327  -0.409  1.00  0.00     0.040 C 
BRANCH  28  29
HETATM   29  C19 UNL     1       6.095   0.852  -1.304  1.00  0.00     0.239 C 
HETATM   30  N2  UNL     1       5.738   1.301  -2.596  1.00  0.00    -0.061 NA
HETATM   31  O2  UNL     1       7.281   0.898  -0.921  1.00  0.00    -0.276 OA
ENDBRANCH  28  29
ENDBRANCH   3  19
TORSDOF 5
