REMARK  6 active torsions:
REMARK  status: ('A' for Active; 'I' for Inactive)
REMARK    1  A    between atoms: C2_2  and  C4_4 
REMARK    2  A    between atoms: C4_4  and  N1_5 
REMARK    3  A    between atoms: C4_4  and  C18_25 
REMARK       I    between atoms: N1_5  and  C5_7 
REMARK    4  A    between atoms: C5_7  and  C6_9 
REMARK       I    between atoms: N2_15  and  C12_16 
REMARK       I    between atoms: C12_16  and  N3_18 
REMARK    5  A    between atoms: N3_18  and  C13_20 
REMARK       I    between atoms: C18_25  and  N4_27 
REMARK    6  A    between atoms: N4_27  and  C19_29 
ROOT
HETATM    1  N1  UNL     1      -1.217  -0.323  -0.650  1.00  0.00    -0.347 N 
ATOM      2  H1  UNL     1      -1.226   0.150  -1.554  1.00  0.00     0.163 HD
HETATM    3  C5  UNL     1      -0.040  -0.308   0.117  1.00  0.00     0.224 C 
HETATM    4  O1  UNL     1      -0.026  -0.896   1.254  1.00  0.00    -0.273 OA
ENDROOT
BRANCH   3   5
HETATM    5  C6  UNL     1       1.153   0.366  -0.373  1.00  0.00     0.103 C 
HETATM    6  C7  UNL     1       0.955   1.816  -0.770  1.00  0.00     0.041 C 
HETATM    7  C8  UNL     1       2.182   2.544  -0.257  1.00  0.00     0.090 C 
HETATM    8  C9  UNL     1       1.888   2.856   1.200  1.00  0.00     0.027 C 
HETATM    9  N2  UNL     1       3.100   1.442  -0.067  1.00  0.00    -0.324 N 
HETATM   10  C10 UNL     1       1.755   1.428   1.758  1.00  0.00     0.028 C 
HETATM   11  C11 UNL     1       2.248   0.521   0.665  1.00  0.00     0.102 C 
HETATM   12  C12 UNL     1       4.422   1.328  -0.482  1.00  0.00     0.319 C 
HETATM   13  O2  UNL     1       4.941   2.298  -1.127  1.00  0.00    -0.247 OA
HETATM   14  N3  UNL     1       5.227   0.171  -0.218  1.00  0.00    -0.338 N 
ATOM     15  H3  UNL     1       4.797  -0.596   0.299  1.00  0.00     0.164 HD
BRANCH  14  16
HETATM   16  C13 UNL     1       6.586   0.014  -0.626  1.00  0.00     0.086 C 
HETATM   17  C14 UNL     1       6.780  -1.251  -1.406  1.00  0.00     0.025 C 
HETATM   18  C15 UNL     1       7.639  -2.191  -0.638  1.00  0.00     0.002 C 
HETATM   19  C16 UNL     1       7.834  -1.541   0.695  1.00  0.00     0.002 C 
HETATM   20  C17 UNL     1       7.542  -0.070   0.546  1.00  0.00     0.025 C 
ENDBRANCH  14  16
ENDBRANCH   3   5
BRANCH   1  21
HETATM   21  C4  UNL     1      -2.443  -1.005  -0.184  1.00  0.00     0.180 C 
BRANCH  21  22
HETATM   22  C2  UNL     1      -2.848  -1.879  -1.353  1.00  0.00     0.009 C 
HETATM   23  C1  UNL     1      -1.735  -2.863  -1.686  1.00  0.00     0.012 C 
HETATM   24  C3  UNL     1      -4.081  -2.689  -1.129  1.00  0.00     0.012 C 
ENDBRANCH  21  22
BRANCH  21  25
HETATM   25  C18 UNL     1      -3.486   0.046  -0.025  1.00  0.00     0.241 C 
HETATM   26  O3  UNL     1      -3.190   1.230  -0.375  1.00  0.00    -0.271 OA
HETATM   27  N4  UNL     1      -4.783  -0.180   0.491  1.00  0.00    -0.355 N 
ATOM     28  H4  UNL     1      -5.061  -1.116   0.786  1.00  0.00     0.162 HD
BRANCH  27  29
HETATM   29  C19 UNL     1      -5.706   0.912   0.598  1.00  0.00     0.084 C 
HETATM   30  C20 UNL     1      -6.997   0.685  -0.174  1.00  0.00     0.025 C 
HETATM   31  C21 UNL     1      -7.873   1.796   0.391  1.00  0.00     0.002 C 
HETATM   32  C22 UNL     1      -7.430   1.950   1.821  1.00  0.00     0.002 C 
HETATM   33  C23 UNL     1      -6.221   1.091   2.013  1.00  0.00     0.025 C 
ENDBRANCH  27  29
ENDBRANCH  21  25
ENDBRANCH   1  21
TORSDOF 6
