REMARK  6 active torsions:
REMARK  status: ('A' for Active; 'I' for Inactive)
REMARK    1  A    between atoms: C2_2  and  C3_3 
REMARK    2  A    between atoms: C3_3  and  N1_6 
REMARK       I    between atoms: N1_6  and  C6_8 
REMARK       I    between atoms: C6_8  and  N2_10 
REMARK    3  A    between atoms: N2_10  and  C7_12 
REMARK    4  A    between atoms: C7_12  and  C8_13 
REMARK       I    between atoms: C8_13  and  N3_15 
REMARK    5  A    between atoms: N3_15  and  C9_17 
REMARK    6  A    between atoms: C9_17  and  C10_18 
REMARK       I    between atoms: C10_18  and  N4_20 
ROOT
HETATM    1  C8  UNL     1       1.002  -0.887  -0.229  1.00  0.00     0.246 C 
HETATM    2  O2  UNL     1       0.761  -0.420  -1.365  1.00  0.00    -0.271 OA
HETATM    3  N3  UNL     1       0.023  -1.434   0.610  1.00  0.00    -0.350 N 
ATOM      4  H3  UNL     1       0.289  -1.793   1.527  1.00  0.00     0.163 HD
ENDROOT
BRANCH   1   5
HETATM    5  C7  UNL     1       2.446  -0.830   0.206  1.00  0.00     0.115 C 
HETATM    6  C20 UNL     1       2.526  -0.560   1.697  1.00  0.00     0.041 C 
HETATM    7  C21 UNL     1       2.977  -1.813   2.371  1.00  0.00     0.003 C 
HETATM    8  C22 UNL     1       3.352  -2.791   1.305  1.00  0.00     0.003 C 
HETATM    9  C23 UNL     1       3.095  -2.150  -0.034  1.00  0.00     0.041 C 
BRANCH   5  10
HETATM   10  N2  UNL     1       3.063   0.285  -0.451  1.00  0.00    -0.325 N 
HETATM   11  C6  UNL     1       4.449   0.548  -0.296  1.00  0.00     0.318 C 
HETATM   12  N1  UNL     1       4.995   1.701  -0.929  1.00  0.00    -0.331 N 
HETATM   13  O1  UNL     1       5.196  -0.205   0.382  1.00  0.00    -0.247 OA
ATOM     14  H1  UNL     1       4.377   2.316  -1.459  1.00  0.00     0.165 HD
ATOM     15  H2  UNL     1       2.498   0.898  -1.038  1.00  0.00     0.165 HD
BRANCH  12  16
HETATM   16  C3  UNL     1       6.397   2.022  -0.841  1.00  0.00     0.044 C 
HETATM   17  C4  UNL     1       6.702   3.366  -1.454  1.00  0.00     0.042 C 
HETATM   18  C5  UNL     1       6.873   2.047   0.597  1.00  0.00     0.042 C 
BRANCH  16  19
HETATM   19  C2  UNL     1       7.127   0.930  -1.570  1.00  0.00    -0.007 C 
HETATM   20  C1  UNL     1       7.057   0.918  -2.917  1.00  0.00     0.009 C 
ENDBRANCH  16  19
ENDBRANCH  12  16
ENDBRANCH   5  10
ENDBRANCH   1   5
BRANCH   3  21
HETATM   21  C9  UNL     1      -1.351  -1.496   0.195  1.00  0.00     0.225 C 
BRANCH  21  22
HETATM   22  C10 UNL     1      -1.932  -0.174  -0.107  1.00  0.00     0.237 C 
HETATM   23  O3  UNL     1      -1.306   0.909  -0.011  1.00  0.00    -0.272 OA
HETATM   24  N4  UNL     1      -3.275  -0.095  -0.536  1.00  0.00    -0.351 N 
HETATM   25  C11 UNL     1      -3.940   1.127  -0.908  1.00  0.00     0.126 C 
HETATM   26  C19 UNL     1      -4.077  -1.309  -0.601  1.00  0.00     0.126 C 
HETATM   27  C12 UNL     1      -5.423   0.998  -1.018  1.00  0.00     0.029 C 
HETATM   28  C13 UNL     1      -6.054   0.099  -0.006  1.00  0.00    -0.037 C 
HETATM   29  C14 UNL     1      -6.411   0.894   1.230  1.00  0.00     0.010 C 
HETATM   30  C17 UNL     1      -7.402  -0.416  -0.457  1.00  0.00     0.010 C 
HETATM   31  C18 UNL     1      -5.211  -1.064   0.408  1.00  0.00     0.029 C 
HETATM   32  C15 UNL     1      -7.433   0.051   1.916  1.00  0.00     0.001 C 
HETATM   33  C16 UNL     1      -8.132  -0.700   0.832  1.00  0.00     0.001 C 
ENDBRANCH  21  22
ENDBRANCH   3  21
TORSDOF 6
