REMARK  6 active torsions:
REMARK  status: ('A' for Active; 'I' for Inactive)
REMARK    1  A    between atoms: O1_1  and  C1_3 
REMARK    2  A    between atoms: C1_3  and  C2_4 
REMARK    3  A    between atoms: C2_4  and  C3_5 
REMARK    4  A    between atoms: N1_6  and  O2_8 
REMARK    5  A    between atoms: O2_8  and  C4_9 
REMARK    6  A    between atoms: C4_9  and  C5_10 
ROOT
HETATM    1  C2  UNL     1      -2.658  -0.284   0.275  1.00  0.00     0.018 C 
HETATM    2  C11 UNL     1      -3.145   0.055  -1.090  1.00  0.00     0.044 C 
HETATM    3  C12 UNL     1      -4.634   0.129  -1.223  1.00  0.00     0.233 C 
HETATM    4  N2  UNL     1      -5.243   0.337   0.055  1.00  0.00    -0.075 N 
ATOM      5  H21 UNL     1      -5.342  -0.535   0.574  1.00  0.00     0.277 HD
ATOM      6  H22 UNL     1      -6.231   0.576  -0.030  1.00  0.00     0.277 HD
HETATM    7  C13 UNL     1      -4.522   1.319   0.799  1.00  0.00     0.233 C 
HETATM    8  C14 UNL     1      -3.218   0.686   1.262  1.00  0.00     0.044 C 
ENDROOT
BRANCH   1   9
HETATM    9  C1  UNL     1      -2.936  -1.706   0.681  1.00  0.00     0.179 C 
BRANCH   9  10
HETATM   10  O1  UNL     1      -2.394  -2.639  -0.160  1.00  0.00    -0.400 OA
ATOM     11  H1  UNL     1      -2.570  -3.537   0.096  1.00  0.00     0.209 HD
ENDBRANCH   9  10
ENDBRANCH   1   9
BRANCH   1  12
HETATM   12  C3  UNL     1      -1.162  -0.112   0.268  1.00  0.00     0.099 C 
HETATM   13  N1  UNL     1      -0.651   1.051   0.485  1.00  0.00    -0.281 N 
ATOM     14  H1  UNL     1      -1.248   1.859   0.662  1.00  0.00     0.193 HD
BRANCH  13  15
HETATM   15  O2  UNL     1       0.711   1.175   0.472  1.00  0.00    -0.281 OA
BRANCH  15  16
HETATM   16  C4  UNL     1       1.493   0.504  -0.488  1.00  0.00     0.205 C 
BRANCH  16  17
HETATM   17  C5  UNL     1       2.959   0.864  -0.212  1.00  0.00     0.012 C 
HETATM   18  C6  UNL     1       3.264   0.398   1.179  1.00  0.00     0.007 C 
HETATM   19  C7  UNL     1       4.744   0.299   1.458  1.00  0.00     0.000 C 
HETATM   20  C8  UNL     1       5.456  -0.595   0.481  1.00  0.00     0.000 C 
HETATM   21  C9  UNL     1       4.609  -0.967  -0.699  1.00  0.00     0.000 C 
HETATM   22  C10 UNL     1       3.835   0.209  -1.252  1.00  0.00     0.007 C 
ENDBRANCH  16  17
ENDBRANCH  15  16
ENDBRANCH  13  15
ENDBRANCH   1  12
TORSDOF 6
