REMARK  5 active torsions:
REMARK  status: ('A' for Active; 'I' for Inactive)
REMARK    1  A    between atoms: C2_2  and  O1_3 
REMARK    2  A    between atoms: O1_3  and  C3_4 
REMARK    3  A    between atoms: C5_10  and  N3_11 
REMARK    4  A    between atoms: N3_11  and  C6_13 
REMARK    5  A    between atoms: C8_16  and  C9_17 
ROOT
HETATM    1  N3  UNL     1      -1.269  -0.373   0.518  1.00  0.00    -0.366 N 
ATOM      2  H3  UNL     1      -1.088   0.562   0.884  1.00  0.00     0.161 HD
ENDROOT
BRANCH   1   3
HETATM    3  C5  UNL     1      -2.542  -0.681  -0.031  1.00  0.00     0.155 A 
HETATM    4  C3  UNL     1      -3.622   0.200  -0.131  1.00  0.00     0.192 A 
HETATM    5  N1  UNL     1      -4.634  -0.473  -0.703  1.00  0.00    -0.330 N 
HETATM    6  C4  UNL     1      -4.258  -1.732  -0.972  1.00  0.00     0.184 A 
ATOM      7  H1  UNL     1      -5.555  -0.083  -0.904  1.00  0.00     0.168 HD
HETATM    8  N2  UNL     1      -2.991  -1.832  -0.557  1.00  0.00    -0.335 N 
ATOM      9  H2  UNL     1      -2.432  -2.682  -0.631  1.00  0.00     0.168 HD
BRANCH   4  10
HETATM   10  O1  UNL     1      -3.574   1.523   0.308  1.00  0.00    -0.303 OA
BRANCH  10  11
HETATM   11  C2  UNL     1      -4.682   2.337   0.177  1.00  0.00     0.134 C 
HETATM   12  C1  UNL     1      -4.494   3.663   0.112  1.00  0.00     0.038 C 
ENDBRANCH  10  11
ENDBRANCH   4  10
ENDBRANCH   1   3
BRANCH   1  13
HETATM   13  C6  UNL     1      -0.239  -1.364   0.562  1.00  0.00     0.109 C 
HETATM   14  C7  UNL     1       0.138  -1.845  -0.813  1.00  0.00     0.193 C 
HETATM   15  O2  UNL     1       1.372  -1.293  -1.055  1.00  0.00    -0.379 OA
HETATM   16  C8  UNL     1       2.060  -1.334   0.148  1.00  0.00     0.156 C 
HETATM   17  C15 UNL     1       1.042  -0.831   1.150  1.00  0.00     0.064 C 
BRANCH  16  18
HETATM   18  C9  UNL     1       3.264  -0.463   0.113  1.00  0.00    -0.029 A 
HETATM   19  C10 UNL     1       3.189   0.814  -0.413  1.00  0.00     0.010 A 
HETATM   20  C11 UNL     1       4.272   1.658  -0.469  1.00  0.00     0.001 A 
HETATM   21  C12 UNL     1       5.474   1.177   0.030  1.00  0.00     0.000 A 
HETATM   22  C13 UNL     1       5.610  -0.083   0.565  1.00  0.00     0.001 A 
HETATM   23  C14 UNL     1       4.480  -0.889   0.594  1.00  0.00     0.010 A 
ENDBRANCH  16  18
ENDBRANCH   1  13
TORSDOF 5
