REMARK  2 active torsions:
REMARK  status: ('A' for Active; 'I' for Inactive)
REMARK    1  A    between atoms: N1_1  and  C1_5 
REMARK    2  A    between atoms: C1_5  and  N2_6 
ROOT
HETATM    1  N2  UNL     1      -0.319  -0.116  -0.243  1.00  0.00    -0.343 N 
HETATM    2  C2  UNL     1       0.546  -1.118   0.021  1.00  0.00     0.092 A 
HETATM    3  C3  UNL     1       1.899  -0.876   0.146  1.00  0.00     0.017 A 
HETATM    4  C4  UNL     1       2.423   0.393   0.006  1.00  0.00     0.003 A 
HETATM    5  C5  UNL     1       1.530   1.413  -0.264  1.00  0.00     0.017 A 
HETATM    6  C6  UNL     1       0.186   1.113  -0.378  1.00  0.00     0.092 A 
ENDROOT
BRANCH   1   7
HETATM    7  C1  UNL     1      -1.753  -0.360  -0.376  1.00  0.00     0.358 C 
BRANCH   7   8
HETATM    8  N1  UNL     1      -2.352  -0.219   0.933  1.00  0.00    -0.063 N 
ATOM      9  H13 UNL     1      -1.913  -0.816   1.634  1.00  0.00     0.276 HD
ATOM     10  H12 UNL     1      -2.143   0.679   1.368  1.00  0.00     0.276 HD
ATOM     11  H11 UNL     1      -3.353  -0.389   0.840  1.00  0.00     0.276 HD
ENDBRANCH   7   8
ENDBRANCH   1   7
TORSDOF 2
