REMARK  2 active torsions:
REMARK  status: ('A' for Active; 'I' for Inactive)
REMARK    1  A    between atoms: C5_7  and  C6_8 
REMARK    2  A    between atoms: C6_8  and  N2_9 
ROOT
HETATM    1  C1  UNL     1      -1.925   1.302   1.175  1.00  0.00     0.044 C 
HETATM    2  C2  UNL     1      -1.682   0.371   0.259  1.00  0.00     0.034 A 
HETATM    3  N1  UNL     1      -2.606  -0.359  -0.425  1.00  0.00    -0.366 N 
ATOM      4  H1  UNL     1      -3.616  -0.274  -0.311  1.00  0.00     0.165 HD
HETATM    5  C3  UNL     1      -1.999  -1.205  -1.270  1.00  0.00     0.089 A 
HETATM    6  C4  UNL     1      -0.646  -0.993  -1.105  1.00  0.00     0.032 A 
HETATM    7  C5  UNL     1      -0.423  -0.002  -0.144  1.00  0.00     0.006 A 
ENDROOT
BRANCH   7   8
HETATM    8  C6  UNL     1       0.755   0.449   0.259  1.00  0.00     0.096 C 
BRANCH   8   9
HETATM    9  N2  UNL     1       1.977  -0.047  -0.263  1.00  0.00    -0.402 N 
HETATM   10  C7  UNL     1       3.222  -0.021   0.485  1.00  0.00     0.145 C 
ATOM     11  H2  UNL     1       1.982  -0.439  -1.205  1.00  0.00     0.158 HD
ENDBRANCH   8   9
ENDBRANCH   7   8
TORSDOF 2
