REMARK  0 active torsions:
REMARK  status: ('A' for Active; 'I' for Inactive)
ROOT
HETATM    1  C1  UNL     1       2.324   0.310   0.041  1.00  0.00     0.179 C 
HETATM    2  N1  UNL     1       0.875   0.501  -0.049  1.00  0.00    -0.282 N 
HETATM    3  N2  UNL     1       0.226   1.633  -0.258  1.00  0.00    -0.307 N 
ATOM      4  H2  UNL     1       0.668   2.543  -0.387  1.00  0.00     0.186 HD
HETATM    5  C2  UNL     1      -1.102   1.414  -0.277  1.00  0.00     0.137 A 
HETATM    6  C3  UNL     1      -1.321   0.066  -0.070  1.00  0.00     0.105 A 
HETATM    7  N3  UNL     1      -2.553  -0.636  -0.009  1.00  0.00    -0.097 NA
HETATM    8  C4  UNL     1      -0.051  -0.479   0.069  1.00  0.00     0.158 A 
HETATM    9  N4  UNL     1       0.219  -1.873   0.304  1.00  0.00    -0.079 NA
ENDROOT
TORSDOF 0
