REMARK  0 active torsions:
REMARK  status: ('A' for Active; 'I' for Inactive)
ROOT
HETATM    1  C1  UNL     1      -0.293   1.682   0.787  1.00  0.00     0.047 C 
HETATM    2  C2  UNL     1       0.176   0.581   0.239  1.00  0.00     0.069 A 
HETATM    3  C3  UNL     1       1.600   0.298  -0.049  1.00  0.00     0.126 A 
HETATM    4  N1  UNL     1       2.614   1.064   0.182  1.00  0.00    -0.384 N 
ATOM      5  H11 UNL     1       3.595   0.869  -0.016  1.00  0.00     0.157 HD
ATOM      6  H12 UNL     1       2.625   1.994   0.600  1.00  0.00     0.157 HD
HETATM    7  N2  UNL     1       1.585  -1.001  -0.633  1.00  0.00    -0.337 N 
ATOM      8  H2  UNL     1       2.400  -1.520  -0.959  1.00  0.00     0.168 HD
HETATM    9  C4  UNL     1       0.242  -1.446  -0.682  1.00  0.00     0.184 A 
HETATM   10  N3  UNL     1      -0.566  -0.566  -0.195  1.00  0.00    -0.345 N 
HETATM   11  C5  UNL     1      -2.022  -0.690  -0.087  1.00  0.00     0.157 C 
ENDROOT
TORSDOF 0
