REMARK  2 active torsions:
REMARK  status: ('A' for Active; 'I' for Inactive)
REMARK    1  A    between atoms: N1_1  and  N2_4 
REMARK    2  A    between atoms: C1_6  and  N3_7 
ROOT
HETATM    1  N3  UNL     1      -0.314   0.024  -0.233  1.00  0.00    -0.312 N 
HETATM    2  C2  UNL     1      -1.026  -1.062   0.073  1.00  0.00     0.115 A 
HETATM    3  C3  UNL     1      -2.379  -0.708   0.156  1.00  0.00     0.106 A 
HETATM    4  N4  UNL     1      -2.437   0.592  -0.106  1.00  0.00    -0.360 N 
ATOM      5  H4  UNL     1      -3.284   1.160  -0.126  1.00  0.00     0.166 HD
HETATM    6  C4  UNL     1      -1.184   1.033  -0.341  1.00  0.00     0.188 A 
ENDROOT
BRANCH   1   7
HETATM    7  C1  UNL     1       1.078   0.084  -0.405  1.00  0.00     0.204 C 
HETATM    8  N2  UNL     1       1.922  -0.088   0.565  1.00  0.00    -0.302 N 
ATOM      9  H2  UNL     1       1.557  -0.275   1.499  1.00  0.00     0.187 HD
BRANCH   8  10
HETATM   10  N1  UNL     1       3.295  -0.029   0.392  1.00  0.00    -0.344 N 
ATOM     11  H12 UNL     1       3.642   0.159  -0.548  1.00  0.00     0.176 HD
ATOM     12  H11 UNL     1       3.959  -0.164   1.155  1.00  0.00     0.176 HD
ENDBRANCH   8  10
ENDBRANCH   1   7
TORSDOF 2
