REMARK  1 active torsions:
REMARK  status: ('A' for Active; 'I' for Inactive)
REMARK    1  A    between atoms: C2_2  and  N1_3 
ROOT
HETATM    1  N1  UNL     1       0.230   0.347   0.083  1.00  0.00    -0.288 N 
HETATM    2  C3  UNL     1       1.004  -0.627   0.604  1.00  0.00     0.130 A 
HETATM    3  C4  UNL     1       2.193  -0.628  -0.094  1.00  0.00     0.127 A 
HETATM    4  N2  UNL     1       2.095   0.353  -1.021  1.00  0.00    -0.296 N 
ATOM      5  H2  UNL     1       2.811   0.610  -1.700  1.00  0.00     0.187 HD
HETATM    6  N3  UNL     1       0.899   0.924  -0.890  1.00  0.00    -0.241 N 
ATOM      7  H3  UNL     1       0.553   1.695  -1.461  1.00  0.00     0.208 HD
ENDROOT
BRANCH   1   8
HETATM    8  C2  UNL     1      -1.112   0.645   0.573  1.00  0.00     0.145 C 
HETATM    9  C1  UNL     1      -2.161  -0.151  -0.146  1.00  0.00     0.028 C 
ENDBRANCH   1   8
TORSDOF 1
