REMARK  11 active torsions:
REMARK  status: ('A' for Active; 'I' for Inactive)
REMARK    1  A    between atoms: C2_2  and  O1_3 
REMARK    2  A    between atoms: C2_2  and  C3_5 
REMARK    3  A    between atoms: C3_5  and  O2_6 
REMARK    4  A    between atoms: C3_5  and  C4_8 
REMARK    5  A    between atoms: C4_8  and  O3_9 
REMARK    6  A    between atoms: C4_8  and  C5_11 
REMARK    7  A    between atoms: C5_11  and  O4_12 
REMARK    8  A    between atoms: C5_11  and  N1_14 
REMARK    9  A    between atoms: N1_14  and  C6_16 
REMARK   10  A    between atoms: C8_21  and  S1_22 
REMARK   11  A    between atoms: S1_22  and  N4_23 
ROOT
HETATM    1  C6  UNL     1       1.017  -0.779  -0.539  1.00  0.00     0.682 A 
HETATM    2  N2  UNL     1       1.407   0.262   0.189  1.00  0.00    -0.177 N 
ATOM      3  H2  UNL     1       0.696   0.869   0.596  1.00  0.00     0.185 HD
HETATM    4  C7  UNL     1       2.705   0.546   0.410  1.00  0.00     0.158 A 
HETATM    5  N3  UNL     1       3.116   1.661   1.189  1.00  0.00    -0.080 NA
HETATM    6  C8  UNL     1       3.642  -0.302  -0.160  1.00  0.00     0.159 A 
HETATM    7  C9  UNL     1       3.228  -1.371  -0.907  1.00  0.00     0.143 A 
HETATM    8  S2  UNL     1       4.329  -2.373  -1.580  1.00  0.00    -0.058 SA
HETATM    9  N5  UNL     1       1.918  -1.598  -1.089  1.00  0.00    -0.180 N 
ATOM     10  H5  UNL     1       1.610  -2.395  -1.647  1.00  0.00     0.185 HD
ENDROOT
BRANCH   1  11
HETATM   11  N1  UNL     1      -0.229  -1.049  -0.748  1.00  0.00    -0.197 N 
ATOM     12  H1  UNL     1      -0.479  -1.861  -1.313  1.00  0.00     0.180 HD
BRANCH  11  13
HETATM   13  C5  UNL     1      -1.302  -0.197  -0.179  1.00  0.00     0.266 C 
BRANCH  13  14
HETATM   14  C4  UNL     1      -2.553  -0.691  -0.853  1.00  0.00     0.198 C 
BRANCH  14  15
HETATM   15  C3  UNL     1      -3.777   0.183  -0.662  1.00  0.00     0.179 C 
BRANCH  15  16
HETATM   16  C2  UNL     1      -4.384   0.116   0.715  1.00  0.00     0.145 C 
HETATM   17  C1  UNL     1      -3.818   1.058   1.717  1.00  0.00     0.042 C 
BRANCH  16  18
HETATM   18  O1  UNL     1      -4.566  -1.185   1.140  1.00  0.00    -0.393 OA
ATOM     19  H1  UNL     1      -4.928  -1.787   0.500  1.00  0.00     0.210 HD
ENDBRANCH  16  18
ENDBRANCH  15  16
BRANCH  15  20
HETATM   20  O2  UNL     1      -4.718  -0.410  -1.576  1.00  0.00    -0.390 OA
ATOM     21  H2  UNL     1      -4.335  -0.368  -2.444  1.00  0.00     0.210 HD
ENDBRANCH  15  20
ENDBRANCH  14  15
BRANCH  14  22
HETATM   22  O3  UNL     1      -2.264  -0.518  -2.249  1.00  0.00    -0.389 OA
ATOM     23  H3  UNL     1      -1.497  -1.066  -2.369  1.00  0.00     0.210 HD
ENDBRANCH  14  22
ENDBRANCH  13  14
BRANCH  13  24
HETATM   24  O4  UNL     1      -1.244  -0.508   1.184  1.00  0.00    -0.373 OA
ATOM     25  H4  UNL     1      -0.454  -0.196   1.610  1.00  0.00     0.212 HD
ENDBRANCH  13  24
ENDBRANCH  11  13
ENDBRANCH   1  11
BRANCH   6  26
HETATM   26  S1  UNL     1       5.334  -0.016   0.069  1.00  0.00     0.263 S 
HETATM   27  O5  UNL     1       6.083  -1.325   0.060  1.00  0.00    -0.201 OA
HETATM   28  O6  UNL     1       5.563   0.615   1.418  1.00  0.00    -0.201 OA
BRANCH  26  29
HETATM   29  N4  UNL     1       6.000   0.989  -1.140  1.00  0.00    -0.324 N 
ATOM     30  H42 UNL     1       5.448   1.371  -1.907  1.00  0.00     0.169 HD
ATOM     31  H41 UNL     1       6.997   1.158  -1.005  1.00  0.00     0.169 HD
ENDBRANCH  26  29
ENDBRANCH   6  26
TORSDOF 11
