REMARK  10 active torsions:
REMARK  status: ('A' for Active; 'I' for Inactive)
REMARK    1  A    between atoms: C2_2  and  O1_3 
REMARK    2  A    between atoms: O1_3  and  C3_4 
REMARK    3  A    between atoms: C3_4  and  C4_5 
REMARK    4  A    between atoms: C5_6  and  C6_7 
REMARK    5  A    between atoms: C6_7  and  C7_8 
REMARK    6  A    between atoms: C7_8  and  N1_9 
REMARK    7  A    between atoms: C10_14  and  N3_15 
REMARK       I    between atoms: N3_15  and  C11_17 
REMARK       I    between atoms: C11_17  and  N5_21 
REMARK    8  A    between atoms: N5_21  and  C12_23 
REMARK    9  A    between atoms: C16_29  and  N7_30 
REMARK       I    between atoms: N7_30  and  C17_32 
REMARK   10  A    between atoms: C17_32  and  C18_34 
ROOT
HETATM    1  N1  UNL     1       0.945  -0.454  -1.026  1.00  0.00    -0.170 N 
HETATM    2  C8  UNL     1      -0.005  -1.395  -1.022  1.00  0.00     0.112 A 
HETATM    3  C9  UNL     1       0.025  -2.606  -1.885  1.00  0.00     0.090 C 
HETATM    4  N2  UNL     1      -1.078  -1.175  -0.200  1.00  0.00    -0.179 N 
ATOM      5  H2  UNL     1      -1.829  -1.864  -0.160  1.00  0.00     0.185 HD
HETATM    6  C10 UNL     1      -1.158  -0.068   0.554  1.00  0.00     0.712 A 
HETATM    7  N6  UNL     1      -0.201   0.876   0.545  1.00  0.00    -0.021 N 
ATOM      8  H6  UNL     1      -0.272   1.715   1.121  1.00  0.00     0.203 HD
HETATM    9  C16 UNL     1       0.845   0.663  -0.254  1.00  0.00     0.703 A 
ENDROOT
BRANCH   6  10
HETATM   10  N3  UNL     1      -2.171   0.155   1.340  1.00  0.00    -0.022 N 
HETATM   11  C11 UNL     1      -3.201  -0.821   1.376  1.00  0.00     0.686 C 
HETATM   12  N4  UNL     1      -2.888  -2.054   1.430  1.00  0.00    -0.234 N 
HETATM   13  N5  UNL     1      -4.542  -0.350   1.347  1.00  0.00    -0.218 N 
ATOM     14  H42 UNL     1      -1.926  -2.392   1.451  1.00  0.00     0.174 HD
ATOM     15  H41 UNL     1      -3.628  -2.755   1.456  1.00  0.00     0.174 HD
ATOM     16  H5  UNL     1      -4.971   0.049   2.182  1.00  0.00     0.178 HD
ATOM     17  H3  UNL     1      -2.223   1.000   1.909  1.00  0.00     0.203 HD
BRANCH  13  18
HETATM   18  C12 UNL     1      -5.280  -0.446   0.122  1.00  0.00     0.036 C 
HETATM   19  C13 UNL     1      -4.641   0.320  -1.011  1.00  0.00     0.038 C 
HETATM   20  C14 UNL     1      -6.647   0.186   0.369  1.00  0.00     0.038 C 
HETATM   21  C15 UNL     1      -5.465  -1.874  -0.329  1.00  0.00     0.038 C 
ENDBRANCH  13  18
ENDBRANCH   6  10
BRANCH   9  22
HETATM   22  N7  UNL     1       1.774   1.552  -0.279  1.00  0.00    -0.154 N 
HETATM   23  C17 UNL     1       1.761   2.733   0.478  1.00  0.00     0.271 C 
HETATM   24  O2  UNL     1       2.012   2.706   1.696  1.00  0.00    -0.267 OA
ATOM     25  H7  UNL     1       2.574   1.387  -0.890  1.00  0.00     0.187 HD
BRANCH  23  26
HETATM   26  C18 UNL     1       1.453   4.046  -0.129  1.00  0.00     0.048 A 
HETATM   27  C19 UNL     1       1.167   4.150  -1.468  1.00  0.00     0.020 A 
HETATM   28  C20 UNL     1       0.886   5.380  -2.000  1.00  0.00     0.018 A 
HETATM   29  C21 UNL     1       0.897   6.484  -1.179  1.00  0.00     0.090 A 
HETATM   30  N8  UNL     1       1.173   6.389   0.115  1.00  0.00    -0.370 N 
HETATM   31  C22 UNL     1       1.164   7.613   0.922  1.00  0.00     0.154 C 
HETATM   32  C23 UNL     1       1.447   5.192   0.635  1.00  0.00     0.107 A 
ENDBRANCH  23  26
ENDBRANCH   9  22
BRANCH   1  33
HETATM   33  C7  UNL     1       2.145  -0.586  -1.791  1.00  0.00     0.161 C 
BRANCH  33  34
HETATM   34  C6  UNL     1       3.308  -1.065  -0.975  1.00  0.00     0.115 C 
BRANCH  34  35
HETATM   35  C5  UNL     1       3.173  -2.345  -0.327  1.00  0.00    -0.103 C 
HETATM   36  C4  UNL     1       3.092  -3.411   0.231  1.00  0.00    -0.081 C 
BRANCH  36  37
HETATM   37  C3  UNL     1       2.987  -4.696   0.930  1.00  0.00     0.261 C 
BRANCH  37  38
HETATM   38  O1  UNL     1       3.526  -5.740   0.220  1.00  0.00    -0.380 OA
BRANCH  38  39
HETATM   39  C2  UNL     1       4.867  -5.592  -0.061  1.00  0.00     0.164 C 
HETATM   40  C1  UNL     1       5.688  -5.477   1.215  1.00  0.00     0.033 C 
ENDBRANCH  38  39
ENDBRANCH  37  38
ENDBRANCH  36  37
ENDBRANCH  34  35
ENDBRANCH  33  34
ENDBRANCH   1  33
TORSDOF 10
