REMARK  6 active torsions:
REMARK  status: ('A' for Active; 'I' for Inactive)
REMARK    1  A    between atoms: N1_2  and  C2_3 
REMARK    2  A    between atoms: C2_3  and  C3_4 
REMARK    3  A    between atoms: C3_4  and  N3_8 
REMARK       I    between atoms: N3_8  and  C4_10 
REMARK       I    between atoms: C4_10  and  N5_14 
REMARK    4  A    between atoms: C7_17  and  C8_18 
REMARK       I    between atoms: C8_18  and  N6_20 
REMARK    5  A    between atoms: N7_23  and  C12_25 
REMARK    6  A    between atoms: C12_25  and  C13_26 
ROOT
HETATM    1  N3  UNL     1      -3.487  -0.986   1.192  1.00  0.00    -0.180 N 
ATOM      2  H3  UNL     1      -3.079  -0.784   2.105  1.00  0.00     0.185 HD
HETATM    3  C4  UNL     1      -2.657  -1.061   0.045  1.00  0.00     0.675 C 
HETATM    4  N4  UNL     1      -3.132  -1.614  -1.047  1.00  0.00    -0.235 N 
ATOM      5  H41 UNL     1      -2.535  -1.668  -1.872  1.00  0.00     0.174 HD
ATOM      6  H42 UNL     1      -4.085  -1.977  -1.048  1.00  0.00     0.174 HD
HETATM    7  N5  UNL     1      -1.333  -0.557   0.047  1.00  0.00    -0.218 N 
HETATM    8  C5  UNL     1      -0.234  -1.315  -0.472  1.00  0.00     0.142 C 
HETATM    9  C6  UNL     1       0.374  -0.510  -1.607  1.00  0.00     0.034 C 
HETATM   10  C7  UNL     1       0.599   0.892  -1.152  1.00  0.00     0.081 C 
HETATM   11  C18 UNL     1       0.414   1.042   0.354  1.00  0.00     0.034 C 
HETATM   12  C19 UNL     1      -1.081   0.763   0.588  1.00  0.00     0.142 C 
ENDROOT
BRANCH   1  13
HETATM   13  C3  UNL     1      -4.870  -1.190   1.071  1.00  0.00     0.117 C 
HETATM   14  N2  UNL     1      -5.356  -2.367   1.191  1.00  0.00    -0.387 N 
ATOM     15  H22 UNL     1      -6.361  -2.515   1.103  1.00  0.00     0.157 HD
ATOM     16  H21 UNL     1      -4.741  -3.160   1.375  1.00  0.00     0.157 HD
BRANCH  13  17
HETATM   17  C2  UNL     1      -5.754  -0.049   0.807  1.00  0.00     0.313 C 
BRANCH  17  18
HETATM   18  N1  UNL     1      -7.144  -0.353   0.696  1.00  0.00    -0.064 N 
HETATM   19  C1  UNL     1      -7.673  -1.126   1.774  1.00  0.00     0.273 C 
HETATM   20  C20 UNL     1      -7.486  -0.964  -0.553  1.00  0.00     0.237 C 
HETATM   21  C21 UNL     1      -7.642   0.176  -1.552  1.00  0.00     0.029 C 
HETATM   22  C22 UNL     1      -8.253   1.244  -0.686  1.00  0.00     0.029 C 
HETATM   23  C23 UNL     1      -7.851   0.939   0.718  1.00  0.00     0.237 C 
ENDBRANCH  17  18
ENDBRANCH  13  17
ENDBRANCH   1  13
BRANCH  10  24
HETATM   24  C8  UNL     1       1.863   1.506  -1.609  1.00  0.00     0.224 C 
HETATM   25  O1  UNL     1       1.817   2.432  -2.501  1.00  0.00    -0.273 OA
HETATM   26  N6  UNL     1       3.153   1.164  -1.152  1.00  0.00    -0.349 N 
HETATM   27  C9  UNL     1       4.344   1.826  -1.701  1.00  0.00     0.154 C 
HETATM   28  C17 UNL     1       3.439   0.187  -0.132  1.00  0.00     0.154 C 
HETATM   29  C10 UNL     1       5.276   2.060  -0.531  1.00  0.00     0.257 C 
HETATM   30  N7  UNL     1       5.810   0.801  -0.038  1.00  0.00    -0.063 N 
HETATM   31  C11 UNL     1       6.094   0.852   1.368  1.00  0.00     0.273 C 
HETATM   32  C16 UNL     1       4.893  -0.296  -0.289  1.00  0.00     0.257 C 
BRANCH  30  33
HETATM   33  C12 UNL     1       7.030   0.527  -0.758  1.00  0.00     0.295 C 
BRANCH  33  34
HETATM   34  C13 UNL     1       7.986  -0.269   0.014  1.00  0.00     0.051 A 
HETATM   35  C14 UNL     1       8.090  -1.638   0.062  1.00  0.00     0.115 A 
HETATM   36  N8  UNL     1       9.101  -1.978   0.892  1.00  0.00    -0.360 N 
HETATM   37  C15 UNL     1       9.624  -0.831   1.357  1.00  0.00     0.180 A 
ATOM     38  H8  UNL     1       9.408  -2.923   1.121  1.00  0.00     0.166 HD
HETATM   39  N9  UNL     1       8.942   0.211   0.820  1.00  0.00    -0.353 N 
ATOM     40  H9  UNL     1       9.127   1.198   1.000  1.00  0.00     0.166 HD
ENDBRANCH  33  34
ENDBRANCH  30  33
ENDBRANCH  10  24
TORSDOF 6
