REMARK  5 active torsions:
REMARK  status: ('A' for Active; 'I' for Inactive)
REMARK    1  A    between atoms: N1_2  and  C2_3 
REMARK    2  A    between atoms: C2_3  and  C3_4 
REMARK       I    between atoms: C3_4  and  N2_6 
REMARK       I    between atoms: N3_9  and  C6_10 
REMARK       I    between atoms: C6_10  and  N4_12 
REMARK       I    between atoms: N4_12  and  C7_14 
REMARK       I    between atoms: C7_14  and  N6_23 
REMARK       I    between atoms: N5_15  and  C8_17 
REMARK    3  A    between atoms: C8_17  and  C9_19 
REMARK    4  A    between atoms: N6_23  and  C13_25 
REMARK    5  A    between atoms: C13_25  and  C14_26 
ROOT
HETATM    1  C3  UNL     1       3.887   0.657  -0.134  1.00  0.00     0.267 C 
HETATM    2  O1  UNL     1       4.422   1.564  -0.817  1.00  0.00    -0.267 OA
HETATM    3  N2  UNL     1       2.487   0.738   0.037  1.00  0.00    -0.344 N 
HETATM    4  C4  UNL     1       1.702   1.805  -0.540  1.00  0.00     0.146 C 
HETATM    5  C5  UNL     1       0.420   2.032   0.234  1.00  0.00     0.147 C 
HETATM    6  N3  UNL     1      -0.329   0.797   0.394  1.00  0.00    -0.330 N 
HETATM    7  C6  UNL     1      -1.725   0.855   0.529  1.00  0.00     0.336 C 
HETATM    8  O2  UNL     1      -2.309   1.959   0.515  1.00  0.00    -0.246 OA
HETATM    9  N4  UNL     1      -2.486  -0.329   0.683  1.00  0.00    -0.141 N 
ATOM     10  H4  UNL     1      -2.019  -1.236   0.695  1.00  0.00     0.189 HD
HETATM   11  C7  UNL     1      -3.893  -0.257   0.821  1.00  0.00     0.685 C 
HETATM   12  N5  UNL     1      -4.591  -1.297   0.962  1.00  0.00    -0.159 N 
ATOM     13  H5  UNL     1      -5.592  -1.122   1.052  1.00  0.00     0.187 HD
HETATM   14  C8  UNL     1      -4.237  -2.638   1.016  1.00  0.00     0.240 C 
HETATM   15  O3  UNL     1      -3.307  -3.031   1.758  1.00  0.00    -0.272 OA
HETATM   16  N6  UNL     1      -4.545   1.008   0.801  1.00  0.00    -0.222 N 
ATOM     17  H6  UNL     1      -4.524   1.600   1.631  1.00  0.00     0.178 HD
HETATM   18  C18 UNL     1       0.356  -0.457   0.414  1.00  0.00     0.147 C 
HETATM   19  C19 UNL     1       1.805  -0.257   0.807  1.00  0.00     0.146 C 
ENDROOT
BRANCH  16  20
HETATM   20  C13 UNL     1      -5.244   1.467  -0.398  1.00  0.00     0.178 C 
BRANCH  20  21
HETATM   21  C14 UNL     1      -5.817   2.818  -0.184  1.00  0.00    -0.023 A 
HETATM   22  C15 UNL     1      -7.099   3.087   0.233  1.00  0.00     0.027 A 
HETATM   23  C16 UNL     1      -7.246   4.451   0.313  1.00  0.00     0.088 A 
HETATM   24  N7  UNL     1      -6.074   4.999  -0.050  1.00  0.00    -0.375 N 
HETATM   25  C17 UNL     1      -5.196   4.041  -0.354  1.00  0.00     0.096 A 
ATOM     26  H7  UNL     1      -5.883   6.000  -0.088  1.00  0.00     0.164 HD
ENDBRANCH  20  21
ENDBRANCH  16  20
BRANCH  14  27
HETATM   27  C9  UNL     1      -4.962  -3.638   0.191  1.00  0.00     0.079 C 
HETATM   28  C10 UNL     1      -4.844  -3.295  -1.274  1.00  0.00     0.014 C 
HETATM   29  C11 UNL     1      -3.829  -4.403  -1.422  1.00  0.00     0.002 C 
HETATM   30  C12 UNL     1      -4.243  -4.925  -0.066  1.00  0.00     0.014 C 
ENDBRANCH  14  27
BRANCH   1  31
HETATM   31  C2  UNL     1       4.633  -0.432   0.466  1.00  0.00     0.275 C 
BRANCH  31  32
HETATM   32  N1  UNL     1       6.040  -0.476   0.269  1.00  0.00    -0.046 N 
HETATM   33  C1  UNL     1       6.615  -1.612   0.999  1.00  0.00     0.278 C 
HETATM   34  C20 UNL     1       6.638   0.700   0.870  1.00  0.00     0.243 C 
HETATM   35  C21 UNL     1       7.638   1.244  -0.122  1.00  0.00     0.030 C 
HETATM   36  C22 UNL     1       7.853   0.094  -1.048  1.00  0.00     0.030 C 
HETATM   37  C23 UNL     1       6.489  -0.567  -1.090  1.00  0.00     0.243 C 
ENDBRANCH  31  32
ENDBRANCH   1  31
TORSDOF 5
