REMARK  5 active torsions:
REMARK  status: ('A' for Active; 'I' for Inactive)
REMARK    1  A    between atoms: N2_5  and  C3_6 
REMARK    2  A    between atoms: C6_9  and  N3_10 
REMARK    3  A    between atoms: N3_10  and  C7_12 
REMARK    4  A    between atoms: C7_12  and  C8_16 
REMARK    5  A    between atoms: C8_16  and  N5_17 
REMARK       I    between atoms: N7_33  and  C23_35 
ROOT
HETATM    1  C3  UNL     1      -1.227  -0.597   0.260  1.00  0.00     0.089 C 
HETATM    2  C4  UNL     1      -0.607  -1.747   1.068  1.00  0.00     0.027 C 
HETATM    3  C5  UNL     1       0.867  -1.452   1.135  1.00  0.00     0.027 C 
HETATM    4  C6  UNL     1       1.530  -1.335  -0.185  1.00  0.00     0.083 C 
HETATM    5  C15 UNL     1       0.750  -0.573  -1.217  1.00  0.00     0.027 C 
HETATM    6  C16 UNL     1      -0.722  -0.796  -1.152  1.00  0.00     0.027 C 
ENDROOT
BRANCH   1   7
HETATM    7  N2  UNL     1      -2.646  -0.587   0.355  1.00  0.00    -0.327 N 
HETATM    8  C2  UNL     1      -3.190   0.622   0.927  1.00  0.00     0.327 C 
HETATM    9  N1  UNL     1      -4.598   0.896   1.122  1.00  0.00    -0.269 N 
HETATM   10  O1  UNL     1      -2.362   1.494   1.278  1.00  0.00    -0.247 OA
HETATM   11  C1  UNL     1      -4.853   1.947   2.111  1.00  0.00     0.164 C 
HETATM   12  C22 UNL     1      -5.699   0.276   0.492  1.00  0.00     0.293 C 
HETATM   13  N6  UNL     1      -5.825  -1.126   0.213  1.00  0.00    -0.004 N 
HETATM   14  N7  UNL     1      -6.655   0.992   0.121  1.00  0.00    -0.276 N 
HETATM   15  C18 UNL     1      -4.708  -1.865   0.680  1.00  0.00     0.267 C 
HETATM   16  C19 UNL     1      -6.217  -1.349  -1.163  1.00  0.00     0.249 C 
HETATM   17  C21 UNL     1      -7.131  -1.650   0.614  1.00  0.00     0.249 C 
HETATM   18  C17 UNL     1      -3.436  -1.719  -0.099  1.00  0.00     0.156 C 
HETATM   19  C20 UNL     1      -7.670  -1.514  -0.774  1.00  0.00     0.057 C 
HETATM   20  C23 UNL     1      -6.971   2.329   0.151  1.00  0.00     0.335 C 
ATOM     21  H7  UNL     1      -7.392   0.440  -0.318  1.00  0.00     0.173 HD
HETATM   22  N8  UNL     1      -6.229   3.320  -0.589  1.00  0.00    -0.040 NA
HETATM   23  O2  UNL     1      -7.937   2.765   0.832  1.00  0.00    -0.251 OA
ENDBRANCH   1   7
BRANCH   4  24
HETATM   24  N3  UNL     1       2.853  -0.798  -0.005  1.00  0.00    -0.374 N 
ATOM     25  H3  UNL     1       3.154  -0.576   0.944  1.00  0.00     0.161 HD
BRANCH  24  26
HETATM   26  C7  UNL     1       3.764  -0.559  -1.066  1.00  0.00     0.099 C 
HETATM   27  N4  UNL     1       3.966  -1.422  -2.015  1.00  0.00    -0.388 N 
ATOM     28  H42 UNL     1       3.436  -2.292  -1.966  1.00  0.00     0.157 HD
ATOM     29  H41 UNL     1       4.621  -1.250  -2.778  1.00  0.00     0.157 HD
BRANCH  26  30
HETATM   30  C8  UNL     1       4.534   0.704  -1.137  1.00  0.00     0.347 C 
BRANCH  30  31
HETATM   31  N5  UNL     1       5.387   0.923   0.000  1.00  0.00     0.095 N 
HETATM   32  C9  UNL     1       6.087   2.151  -0.157  1.00  0.00     0.273 C 
HETATM   33  C10 UNL     1       7.154   2.416   0.849  1.00  0.00     0.030 C 
HETATM   34  C11 UNL     1       8.509   1.879   0.442  1.00  0.00     0.002 C 
HETATM   35  C12 UNL     1       8.576   0.384   0.615  1.00  0.00     0.002 C 
HETATM   36  C13 UNL     1       7.529  -0.222  -0.311  1.00  0.00     0.030 C 
HETATM   37  C14 UNL     1       6.179  -0.190   0.376  1.00  0.00     0.273 C 
ENDBRANCH  30  31
ENDBRANCH  26  30
ENDBRANCH  24  26
ENDBRANCH   4  24
TORSDOF 5
