REMARK  7 active torsions:
REMARK  status: ('A' for Active; 'I' for Inactive)
REMARK    1  A    between atoms: N2_7  and  C6_8 
REMARK    2  A    between atoms: C6_8  and  C7_9 
REMARK    3  A    between atoms: C7_9  and  C8_10 
REMARK    4  A    between atoms: C8_10  and  N3_11 
REMARK       I    between atoms: N3_11  and  C9_13 
REMARK       I    between atoms: C9_13  and  N4_15 
REMARK       I    between atoms: N5_18  and  C12_19 
REMARK    5  A    between atoms: C12_19  and  C13_21 
REMARK    6  A    between atoms: C14_22  and  C15_23 
REMARK    7  A    between atoms: C18_26  and  N6_27 
ROOT
HETATM    1  N3  UNL     1      -0.028   0.768  -0.426  1.00  0.00    -0.343 N 
ATOM      2  H3  UNL     1       0.422   1.047   0.446  1.00  0.00     0.164 HD
HETATM    3  C9  UNL     1       0.724   0.162  -1.449  1.00  0.00     0.319 C 
HETATM    4  O1  UNL     1       0.178  -0.183  -2.522  1.00  0.00    -0.247 OA
HETATM    5  N4  UNL     1       2.114  -0.073  -1.293  1.00  0.00    -0.316 N 
HETATM    6  C10 UNL     1       2.896   0.271  -0.101  1.00  0.00     0.149 C 
HETATM    7  C11 UNL     1       4.271   0.465  -0.649  1.00  0.00     0.148 C 
HETATM    8  N5  UNL     1       4.309  -0.511  -1.730  1.00  0.00    -0.323 N 
HETATM    9  C12 UNL     1       5.490  -1.164  -2.151  1.00  0.00     0.300 C 
HETATM   10  O2  UNL     1       5.423  -1.987  -3.087  1.00  0.00    -0.258 OA
HETATM   11  C20 UNL     1       2.975  -0.682  -2.266  1.00  0.00     0.257 C 
ENDROOT
BRANCH   1  12
HETATM   12  C8  UNL     1      -1.440   0.992  -0.618  1.00  0.00     0.126 C 
BRANCH  12  13
HETATM   13  C7  UNL     1      -2.000   1.644   0.606  1.00  0.00     0.048 C 
BRANCH  13  14
HETATM   14  C6  UNL     1      -3.439   1.972   0.596  1.00  0.00     0.239 C 
BRANCH  14  15
HETATM   15  N2  UNL     1      -4.372   0.879   0.442  1.00  0.00    -0.064 N 
HETATM   16  C5  UNL     1      -4.687   0.705  -0.925  1.00  0.00     0.237 C 
HETATM   17  C4  UNL     1      -4.799  -0.657  -1.482  1.00  0.00     0.029 C 
HETATM   18  C3  UNL     1      -6.154  -1.259  -1.257  1.00  0.00     0.029 C 
HETATM   19  C2  UNL     1      -6.353  -1.834   0.102  1.00  0.00     0.237 C 
HETATM   20  N1  UNL     1      -6.383  -0.940   1.189  1.00  0.00    -0.068 N 
HETATM   21  C1  UNL     1      -7.381  -1.480   2.140  1.00  0.00     0.272 C 
HETATM   22  C22 UNL     1      -6.757   0.408   0.922  1.00  0.00     0.265 C 
HETATM   23  C24 UNL     1      -5.157  -0.934   1.931  1.00  0.00     0.265 C 
HETATM   24  C21 UNL     1      -5.610   1.376   1.097  1.00  0.00     0.265 C 
HETATM   25  C23 UNL     1      -3.999  -0.244   1.201  1.00  0.00     0.265 C 
ENDBRANCH  14  15
ENDBRANCH  13  14
ENDBRANCH  12  13
ENDBRANCH   1  12
BRANCH   9  26
HETATM   26  C13 UNL     1       6.754  -0.911  -1.540  1.00  0.00     0.000 C 
HETATM   27  C14 UNL     1       7.822  -0.712  -1.009  1.00  0.00    -0.055 C 
BRANCH  27  28
HETATM   28  C15 UNL     1       9.082  -0.488  -0.356  1.00  0.00     0.033 A 
HETATM   29  C16 UNL     1       9.801   0.676  -0.514  1.00  0.00     0.026 A 
HETATM   30  C17 UNL     1      10.994   0.820   0.137  1.00  0.00     0.049 A 
HETATM   31  C18 UNL     1      11.507  -0.166   0.953  1.00  0.00     0.098 A 
HETATM   32  N7  UNL     1      10.791  -1.292   1.094  1.00  0.00    -0.351 N 
HETATM   33  C19 UNL     1       9.612  -1.462   0.464  1.00  0.00     0.110 A 
ATOM     34  H7  UNL     1      11.148  -2.037   1.692  1.00  0.00     0.166 HD
BRANCH  31  35
HETATM   35  N6  UNL     1      12.622  -0.047   1.570  1.00  0.00    -0.385 N 
ATOM     36  H62 UNL     1      13.166   0.809   1.463  1.00  0.00     0.157 HD
ATOM     37  H61 UNL     1      13.001  -0.776   2.174  1.00  0.00     0.157 HD
ENDBRANCH  31  35
ENDBRANCH  27  28
ENDBRANCH   9  26
TORSDOF 7
