REMARK  12 active torsions:
REMARK  status: ('A' for Active; 'I' for Inactive)
REMARK       I    between atoms: C2_2  and  N1_4 
REMARK    1  A    between atoms: C8_12  and  N3_13 
REMARK    2  A    between atoms: N3_13  and  C9_15 
REMARK    3  A    between atoms: C9_15  and  C10_16 
REMARK    4  A    between atoms: C10_16  and  N4_17 
REMARK    5  A    between atoms: N4_17  and  C11_18 
REMARK    6  A    between atoms: C11_18  and  C12_19 
REMARK    7  A    between atoms: C13_20  and  C14_21 
REMARK    8  A    between atoms: C15_22  and  C16_23 
REMARK    9  A    between atoms: C17_24  and  C18_25 
REMARK   10  A    between atoms: C19_26  and  C20_27 
REMARK   11  A    between atoms: C21_28  and  C22_29 
REMARK   12  A    between atoms: C22_29  and  O2_30 
ROOT
HETATM    1  C9  UNL     1      -0.449  -0.276   2.143  1.00  0.00     0.149 C 
ENDROOT
BRANCH   1   2
HETATM    2  N3  UNL     1      -1.571  -1.015   1.678  1.00  0.00    -0.374 N 
ATOM      3  H3  UNL     1      -1.502  -2.028   1.775  1.00  0.00     0.161 HD
BRANCH   2   4
HETATM    4  C8  UNL     1      -2.646  -0.588   1.159  1.00  0.00     0.117 A 
HETATM    5  N2  UNL     1      -2.962   0.695   0.932  1.00  0.00    -0.342 N 
HETATM    6  C7  UNL     1      -4.135   1.041   0.374  1.00  0.00     0.055 A 
ATOM      7  H2  UNL     1      -2.297   1.425   1.188  1.00  0.00     0.167 HD
HETATM    8  C6  UNL     1      -4.207   2.522   0.245  1.00  0.00     0.061 C 
HETATM    9  C27 UNL     1      -5.040   0.089   0.023  1.00  0.00     0.133 A 
HETATM   10  C5  UNL     1      -5.549   2.918  -0.385  1.00  0.00     0.008 C 
HETATM   11  C4  UNL     1      -6.691   2.379   0.427  1.00  0.00     0.021 C 
HETATM   12  C3  UNL     1      -7.325   1.232  -0.321  1.00  0.00     0.133 C 
HETATM   13  N1  UNL     1      -6.316   0.212  -0.565  1.00  0.00    -0.303 N 
HETATM   14  C2  UNL     1      -6.701  -0.756  -1.530  1.00  0.00     0.221 C 
HETATM   15  C1  UNL     1      -5.862  -1.859  -2.029  1.00  0.00     0.117 C 
HETATM   16  O1  UNL     1      -7.879  -0.662  -2.012  1.00  0.00    -0.273 OA
HETATM   17  N5  UNL     1      -4.752  -1.202   0.239  1.00  0.00    -0.347 N 
HETATM   18  C26 UNL     1      -3.580  -1.564   0.797  1.00  0.00     0.138 A 
ATOM     19  H5  UNL     1      -5.428  -1.919  -0.022  1.00  0.00     0.167 HD
ENDBRANCH   2   4
ENDBRANCH   1   2
BRANCH   1  20
HETATM   20  C10 UNL     1       0.670  -0.073   1.200  1.00  0.00     0.258 C 
BRANCH  20  21
HETATM   21  N4  UNL     1       1.340  -1.222   0.698  1.00  0.00    -0.056 N 
HETATM   22  C23 UNL     1       1.109  -2.490   1.345  1.00  0.00     0.240 A 
HETATM   23  C24 UNL     1       0.523  -3.122   0.122  1.00  0.00     0.056 A 
HETATM   24  C25 UNL     1       0.666  -1.743  -0.477  1.00  0.00     0.240 A 
BRANCH  21  25
HETATM   25  C11 UNL     1       2.750  -1.004   0.357  1.00  0.00     0.331 C 
BRANCH  25  26
HETATM   26  C12 UNL     1       2.861   0.302  -0.294  1.00  0.00    -0.074 C 
HETATM   27  C13 UNL     1       2.955   1.404  -0.821  1.00  0.00    -0.076 C 
BRANCH  27  28
HETATM   28  C14 UNL     1       3.075   2.701  -1.415  1.00  0.00     0.073 C 
HETATM   29  C15 UNL     1       4.245   3.259  -1.662  1.00  0.00     0.074 C 
BRANCH  29  30
HETATM   30  C16 UNL     1       5.425   2.519  -1.312  1.00  0.00    -0.064 C 
HETATM   31  C17 UNL     1       6.413   1.891  -0.997  1.00  0.00    -0.009 C 
BRANCH  31  32
HETATM   32  C18 UNL     1       7.556   1.151  -0.608  1.00  0.00    -0.001 C 
HETATM   33  C19 UNL     1       8.519   0.505  -0.267  1.00  0.00    -0.001 C 
BRANCH  33  34
HETATM   34  C20 UNL     1       9.635  -0.273   0.131  1.00  0.00    -0.012 C 
HETATM   35  C21 UNL     1      10.574  -0.947   0.473  1.00  0.00    -0.067 C 
BRANCH  35  36
HETATM   36  C22 UNL     1      11.705  -1.788   0.889  1.00  0.00     0.258 C 
BRANCH  36  37
HETATM   37  O2  UNL     1      12.926  -1.253   0.468  1.00  0.00    -0.389 OA
ATOM     38  H2  UNL     1      13.657  -1.797   0.737  1.00  0.00     0.210 HD
ENDBRANCH  36  37
ENDBRANCH  35  36
ENDBRANCH  33  34
ENDBRANCH  31  32
ENDBRANCH  29  30
ENDBRANCH  27  28
ENDBRANCH  25  26
ENDBRANCH  21  25
ENDBRANCH  20  21
ENDBRANCH   1  20
TORSDOF 12
