REMARK  1 active torsions:
REMARK  status: ('A' for Active; 'I' for Inactive)
REMARK    1  A    between atoms: C8_9  and  C9_10 
ROOT
HETATM    1  C1  UNL     1       3.264   0.584  -0.185  1.00  0.00     0.015 C 
HETATM    2  C2  UNL     1       2.086   0.026  -0.107  1.00  0.00    -0.079 C 
HETATM    3  C3  UNL     1       1.785  -1.172  -0.907  1.00  0.00     0.037 C 
HETATM    4  C4  UNL     1       0.331  -1.496  -0.981  1.00  0.00     0.050 C 
HETATM    5  C5  UNL     1      -0.476  -1.231   0.233  1.00  0.00     0.129 C 
HETATM    6  F1  UNL     1      -1.071  -2.395   0.742  1.00  0.00    -0.240 F 
HETATM    7  C6  UNL     1       0.349  -0.667   1.369  1.00  0.00     0.061 C 
HETATM    8  C7  UNL     1       1.042   0.574   0.785  1.00  0.00     0.071 C 
HETATM    9  C8  UNL     1       0.054   1.442   0.144  1.00  0.00     0.098 C 
HETATM   10  N1  UNL     1      -1.093   1.052  -0.183  1.00  0.00    -0.377 N 
ATOM     11  H1  UNL     1      -1.710   1.733  -0.626  1.00  0.00     0.160 HD
HETATM   12  C10 UNL     1      -1.598  -0.246   0.011  1.00  0.00     0.059 C 
HETATM   13  C11 UNL     1      -2.478  -0.263   1.250  1.00  0.00     0.041 C 
HETATM   14  C12 UNL     1      -2.479  -0.625  -1.153  1.00  0.00     0.041 C 
ENDROOT
BRANCH   9  15
HETATM   15  C9  UNL     1       0.417   2.866  -0.138  1.00  0.00     0.429 C 
HETATM   16  F2  UNL     1       1.456   2.960  -1.020  1.00  0.00    -0.165 F 
HETATM   17  F3  UNL     1      -0.655   3.562  -0.687  1.00  0.00    -0.165 F 
HETATM   18  F4  UNL     1       0.713   3.489   1.055  1.00  0.00    -0.165 F 
ENDBRANCH   9  15
TORSDOF 1
