REMARK  1 active torsions:
REMARK  status: ('A' for Active; 'I' for Inactive)
REMARK    1  A    between atoms: C7_9  and  C9_12 
ROOT
HETATM    1  C1  UNL     1      -1.320   0.466   1.255  1.00  0.00     0.020 C 
HETATM    2  C2  UNL     1      -0.558   0.357  -0.025  1.00  0.00     0.017 C 
HETATM    3  C3  UNL     1      -0.899   1.587  -0.865  1.00  0.00     0.020 C 
HETATM    4  C4  UNL     1      -1.082  -0.841  -0.792  1.00  0.00     0.122 C 
HETATM    5 CL1  UNL     1      -2.714  -1.302  -0.303  1.00  0.00    -0.101 Cl
HETATM    6 CL2  UNL     1      -1.153  -0.468  -2.552  1.00  0.00    -0.101 Cl
HETATM    7  C5  UNL     1      -0.083  -1.962  -0.559  1.00  0.00     0.045 C 
HETATM    8  C6  UNL     1       1.002  -1.391   0.324  1.00  0.00     0.038 C 
HETATM    9  C7  UNL     1       0.878   0.091   0.082  1.00  0.00     0.156 C 
HETATM   10  C8  UNL     1       1.524   0.379  -1.209  1.00  0.00     0.079 C 
HETATM   11  N1  UNL     1       2.022   0.592  -2.235  1.00  0.00    -0.196 NA
ENDROOT
BRANCH   9  12
HETATM   12  C9  UNL     1       1.626   0.837   1.137  1.00  0.00     0.408 C 
HETATM   13  F1  UNL     1       1.170   0.599   2.408  1.00  0.00    -0.169 F 
HETATM   14  F2  UNL     1       2.935   0.326   1.105  1.00  0.00    -0.169 F 
HETATM   15  F3  UNL     1       1.760   2.180   0.852  1.00  0.00    -0.169 F 
ENDBRANCH   9  12
TORSDOF 1
