REMARK  1 active torsions:
REMARK  status: ('A' for Active; 'I' for Inactive)
REMARK    1  A    between atoms: C2_2  and  N1_3 
ROOT
HETATM    1  N1  UNL     1      -0.501  -0.288  -0.051  1.00  0.00    -0.396 N 
HETATM    2  C3  UNL     1       0.109  -1.439  -0.604  1.00  0.00     0.196 C 
HETATM    3  C4  UNL     1       1.427  -1.816   0.057  1.00  0.00     0.262 C 
HETATM    4  F1  UNL     1       1.955  -2.839  -0.736  1.00  0.00    -0.204 F 
HETATM    5  F2  UNL     1       1.249  -2.286   1.325  1.00  0.00    -0.204 F 
HETATM    6  C5  UNL     1       2.302  -0.577  -0.005  1.00  0.00     0.125 C 
HETATM    7  C6  UNL     1       1.605   0.509   0.766  1.00  0.00     0.142 C 
HETATM    8 CL1  UNL     1       2.622   1.956   0.775  1.00  0.00    -0.099 Cl
HETATM    9 CL2  UNL     1       1.324   0.041   2.455  1.00  0.00    -0.099 Cl
HETATM   10  C7  UNL     1       0.291   0.863   0.142  1.00  0.00     0.056 C 
HETATM   11  C8  UNL     1      -0.439   1.782   1.119  1.00  0.00     0.041 C 
HETATM   12  C9  UNL     1       0.475   1.672  -1.146  1.00  0.00     0.041 C 
ENDROOT
BRANCH   1  13
HETATM   13  C2  UNL     1      -1.831  -0.101  -0.498  1.00  0.00     0.113 C 
HETATM   14  C1  UNL     1      -2.733  -1.087   0.204  1.00  0.00     0.026 C 
ENDBRANCH   1  13
TORSDOF 1
