REMARK  6 active torsions:
REMARK  status: ('A' for Active; 'I' for Inactive)
REMARK    1  A    between atoms: C5_5  and  O1_6 
REMARK    2  A    between atoms: O1_6  and  C6_7 
REMARK    3  A    between atoms: C6_7  and  C7_8 
REMARK    4  A    between atoms: C7_8  and  N1_9 
REMARK       I    between atoms: N1_9  and  C8_11 
REMARK    5  A    between atoms: N3_13  and  C9_15 
REMARK    6  A    between atoms: C9_15  and  N4_18 
ROOT
HETATM    1  N1  UNL     1       1.526  -2.048   0.352  1.00  0.00    -0.363 N 
ATOM      2  H1  UNL     1       2.352  -2.636   0.458  1.00  0.00     0.162 HD
HETATM    3  C8  UNL     1       1.466  -0.947   1.216  1.00  0.00     0.186 C 
HETATM    4  N2  UNL     1       0.802  -1.144   2.471  1.00  0.00    -0.064 NA
HETATM    5  N3  UNL     1       1.962   0.164   0.998  1.00  0.00    -0.333 N 
ATOM      6  H3  UNL     1       1.786   0.801   1.775  1.00  0.00     0.164 HD
ENDROOT
BRANCH   1   7
HETATM    7  C7  UNL     1       0.609  -2.470  -0.651  1.00  0.00     0.149 C 
BRANCH   7   8
HETATM    8  C6  UNL     1      -0.716  -2.958  -0.152  1.00  0.00     0.195 C 
BRANCH   8   9
HETATM    9  O1  UNL     1      -1.511  -2.102   0.549  1.00  0.00    -0.350 OA
BRANCH   9  10
HETATM   10  C5  UNL     1      -2.131  -0.931   0.252  1.00  0.00     0.068 A 
HETATM   11  C4  UNL     1      -2.862  -0.359   1.306  1.00  0.00     0.037 A 
HETATM   12  C3  UNL     1      -3.538   0.824   1.139  1.00  0.00     0.009 A 
HETATM   13  C2  UNL     1      -3.535   1.507  -0.057  1.00  0.00    -0.062 A 
HETATM   14  C1  UNL     1      -4.267   2.792  -0.244  1.00  0.00     0.048 C 
HETATM   15  C13 UNL     1      -2.826   0.965  -1.100  1.00  0.00     0.009 A 
HETATM   16  C12 UNL     1      -2.139  -0.245  -0.922  1.00  0.00     0.037 A 
ENDBRANCH   9  10
ENDBRANCH   8   9
ENDBRANCH   7   8
ENDBRANCH   1   7
BRANCH   5  17
HETATM   17  C9  UNL     1       2.694   0.796  -0.008  1.00  0.00     0.190 C 
HETATM   18  C10 UNL     1       2.698   2.307   0.316  1.00  0.00     0.070 C 
HETATM   19  C11 UNL     1       4.163   0.376   0.149  1.00  0.00     0.070 C 
BRANCH  17  20
HETATM   20  N4  UNL     1       2.273   0.626  -1.365  1.00  0.00    -0.053 N 
ATOM     21  H43 UNL     1       2.216  -0.371  -1.572  1.00  0.00     0.277 HD
ATOM     22  H42 UNL     1       1.294   0.899  -1.445  1.00  0.00     0.277 HD
ATOM     23  H41 UNL     1       2.808   1.088  -2.100  1.00  0.00     0.277 HD
ENDBRANCH  17  20
ENDBRANCH   5  17
TORSDOF 6
