REMARK  5 active torsions:
REMARK  status: ('A' for Active; 'I' for Inactive)
REMARK    1  A    between atoms: C2_2  and  C3_3 
REMARK    2  A    between atoms: C3_3  and  O1_4 
REMARK    3  A    between atoms: O1_4  and  C4_5 
REMARK    4  A    between atoms: C9_10  and  N1_11 
REMARK       I    between atoms: C10_13  and  N3_15 
REMARK    5  A    between atoms: N3_15  and  C11_17 
ROOT
HETATM    1  C11 UNL     1      -3.676   1.822  -0.450  1.00  0.00     0.187 C 
HETATM    2  C12 UNL     1      -4.269   0.588  -1.135  1.00  0.00     0.048 C 
HETATM    3  C13 UNL     1      -4.177   2.005   0.890  1.00  0.00     0.084 C 
HETATM    4  N4  UNL     1      -4.589   2.155   1.961  1.00  0.00    -0.195 NA
ENDROOT
BRANCH   1   5
HETATM    5  N3  UNL     1      -2.216   1.739  -0.439  1.00  0.00    -0.348 N 
HETATM    6  C10 UNL     1      -1.577   0.655   0.210  1.00  0.00     0.189 C 
HETATM    7  N1  UNL     1      -0.819  -0.119  -0.478  1.00  0.00    -0.328 N 
HETATM    8  N2  UNL     1      -1.730   0.377   1.593  1.00  0.00    -0.063 NA
ATOM      9  H1  UNL     1      -0.715   0.090  -1.471  1.00  0.00     0.168 HD
ATOM     10  H3  UNL     1      -1.659   2.460  -0.898  1.00  0.00     0.163 HD
BRANCH   7  11
HETATM   11  C9  UNL     1      -0.119  -1.232   0.023  1.00  0.00     0.068 A 
HETATM   12  C4  UNL     1       1.269  -1.219  -0.027  1.00  0.00     0.095 A 
HETATM   13  C5  UNL     1       1.915  -2.335   0.476  1.00  0.00     0.039 A 
HETATM   14  C6  UNL     1       1.255  -3.424   1.007  1.00  0.00     0.003 A 
HETATM   15  C7  UNL     1      -0.124  -3.407   1.043  1.00  0.00     0.002 A 
HETATM   16  C8  UNL     1      -0.811  -2.304   0.547  1.00  0.00     0.032 A 
BRANCH  12  17
HETATM   17  O1  UNL     1       1.963  -0.132  -0.558  1.00  0.00    -0.349 OA
BRANCH  17  18
HETATM   18  C3  UNL     1       3.374  -0.206  -0.568  1.00  0.00     0.175 C 
BRANCH  18  19
HETATM   19  C2  UNL     1       4.007   1.025  -1.162  1.00  0.00     0.022 C 
HETATM   20  C1  UNL     1       3.645   2.272  -0.397  1.00  0.00     0.007 C 
ENDBRANCH  18  19
ENDBRANCH  17  18
ENDBRANCH  12  17
ENDBRANCH   7  11
ENDBRANCH   1   5
TORSDOF 5
