REMARK  5 active torsions:
REMARK  status: ('A' for Active; 'I' for Inactive)
REMARK    1  A    between atoms: C1_2  and  C2_4 
REMARK    2  A    between atoms: C2_4  and  C3_5 
REMARK    3  A    between atoms: C2_4  and  C5_13 
REMARK    4  A    between atoms: N2_6  and  N3_8 
REMARK    5  A    between atoms: N3_8  and  C4_10 
ROOT
HETATM    1  C2  UNL     1      -0.486   0.891  -1.085  1.00  0.00     0.147 C 
ENDROOT
BRANCH   1   2
HETATM    2  C1  UNL     1      -0.757   0.318  -2.421  1.00  0.00     0.244 C 
HETATM    3  N1  UNL     1       0.124   0.677  -3.467  1.00  0.00    -0.061 NA
HETATM    4  O1  UNL     1      -1.704  -0.459  -2.697  1.00  0.00    -0.276 OA
ENDBRANCH   1   2
BRANCH   1   5
HETATM    5  C3  UNL     1       0.927   0.547  -0.758  1.00  0.00     0.098 C 
HETATM    6  N2  UNL     1       1.321   0.166   0.397  1.00  0.00    -0.313 N 
ATOM      7  H2  UNL     1       0.662   0.079   1.170  1.00  0.00     0.185 HD
BRANCH   6   8
HETATM    8  N3  UNL     1       2.671  -0.127   0.576  1.00  0.00    -0.279 N 
ATOM      9  H3  UNL     1       3.356   0.493   0.143  1.00  0.00     0.189 HD
BRANCH   8  10
HETATM   10  C4  UNL     1       3.149  -1.224   1.316  1.00  0.00     0.199 C 
HETATM   11  N4  UNL     1       4.538  -1.438   1.440  1.00  0.00    -0.068 NA
HETATM   12  S1  UNL     1       2.081  -2.226   2.013  1.00  0.00    -0.043 SA
ENDBRANCH   8  10
ENDBRANCH   6   8
ENDBRANCH   1   5
BRANCH   1  13
HETATM   13  C5  UNL     1      -1.427   0.484  -0.056  1.00  0.00    -0.041 A 
HETATM   14  C6  UNL     1      -2.172   1.447   0.584  1.00  0.00     0.008 A 
HETATM   15  C7  UNL     1      -3.091   1.143   1.577  1.00  0.00     0.001 A 
HETATM   16  C8  UNL     1      -3.263  -0.178   1.935  1.00  0.00     0.000 A 
HETATM   17  C9  UNL     1      -2.511  -1.146   1.288  1.00  0.00     0.001 A 
HETATM   18  C10 UNL     1      -1.596  -0.846   0.300  1.00  0.00     0.008 A 
ENDBRANCH   1  13
TORSDOF 5
