REMARK  6 active torsions:
REMARK  status: ('A' for Active; 'I' for Inactive)
REMARK    1  A    between atoms: C6_7  and  C7_8 
REMARK    2  A    between atoms: C7_8  and  C8_9 
REMARK    3  A    between atoms: C8_9  and  N2_10 
REMARK    4  A    between atoms: N2_10  and  C9_12 
REMARK    5  A    between atoms: C9_12  and  C10_13 
REMARK    6  A    between atoms: C13_16  and  N3_17 
ROOT
HETATM    1  N2  UNL     1       0.913   0.453   0.637  1.00  0.00    -0.398 N 
ATOM      2  H2  UNL     1       1.430   1.282   0.930  1.00  0.00     0.158 HD
ENDROOT
BRANCH   1   3
HETATM    3  C8  UNL     1      -0.505   0.423   0.721  1.00  0.00     0.125 C 
BRANCH   3   4
HETATM    4  C7  UNL     1      -1.223   0.415  -0.586  1.00  0.00     0.076 C 
BRANCH   4   5
HETATM    5  C6  UNL     1      -2.673   0.417  -0.350  1.00  0.00     0.012 A 
HETATM    6  N1  UNL     1      -3.359  -0.705  -0.243  1.00  0.00    -0.364 N 
HETATM    7  C1  UNL     1      -2.829  -2.026  -0.337  1.00  0.00     0.155 C 
HETATM    8  C2  UNL     1      -4.705  -0.616  -0.024  1.00  0.00     0.090 A 
HETATM    9  C3  UNL     1      -5.355   0.599   0.087  1.00  0.00     0.017 A 
HETATM   10  C4  UNL     1      -4.628   1.763  -0.027  1.00  0.00     0.003 A 
HETATM   11  C5  UNL     1      -3.290   1.668  -0.245  1.00  0.00     0.025 A 
ENDBRANCH   4   5
ENDBRANCH   3   4
ENDBRANCH   1   3
BRANCH   1  12
HETATM   12  C9  UNL     1       1.596  -0.676   0.144  1.00  0.00     0.096 C 
BRANCH  12  13
HETATM   13  C10 UNL     1       3.063  -0.321   0.125  1.00  0.00     0.001 A 
HETATM   14  C11 UNL     1       4.060  -1.261   0.132  1.00  0.00     0.019 A 
HETATM   15  C12 UNL     1       5.410  -0.897   0.100  1.00  0.00     0.057 A 
HETATM   16  C13 UNL     1       5.671   0.456   0.062  1.00  0.00     0.140 A 
HETATM   17  O1  UNL     1       4.716   1.363   0.055  1.00  0.00    -0.305 OA
HETATM   18  C14 UNL     1       3.453   1.017   0.085  1.00  0.00     0.157 A 
BRANCH  16  19
HETATM   19  N3  UNL     1       6.905   0.846   0.031  1.00  0.00    -0.380 N 
ATOM     20  H32 UNL     1       7.645   0.144   0.036  1.00  0.00     0.158 HD
ATOM     21  H31 UNL     1       7.098   1.847   0.003  1.00  0.00     0.158 HD
ENDBRANCH  16  19
ENDBRANCH  12  13
ENDBRANCH   1  12
TORSDOF 6
