REMARK  6 active torsions:
REMARK  status: ('A' for Active; 'I' for Inactive)
REMARK    1  A    between atoms: N1_1  and  C1_5 
REMARK    2  A    between atoms: C1_5  and  N2_6 
REMARK    3  A    between atoms: C1_5  and  C9_16 
REMARK    4  A    between atoms: N2_6  and  C2_8 
REMARK    5  A    between atoms: C2_8  and  C3_9 
REMARK    6  A    between atoms: C3_9  and  N3_10 
ROOT
HETATM    1  C1  UNL     1      -0.877   0.428  -0.373  1.00  0.00     0.306 C 
ENDROOT
BRANCH   1   2
HETATM    2  N1  UNL     1      -0.966   1.006   0.946  1.00  0.00    -0.056 N 
ATOM      3  H13 UNL     1      -1.368   0.354   1.619  1.00  0.00     0.276 HD
ATOM      4  H12 UNL     1      -0.047   1.118   1.373  1.00  0.00     0.276 HD
ATOM      5  H11 UNL     1      -1.481   1.886   0.917  1.00  0.00     0.276 HD
ENDBRANCH   1   2
BRANCH   1   6
HETATM    6  N2  UNL     1      -0.159  -0.800  -0.333  1.00  0.00    -0.392 N 
ATOM      7  H2  UNL     1      -0.636  -1.691  -0.196  1.00  0.00     0.155 HD
BRANCH   6   8
HETATM    8  C2  UNL     1       1.253  -0.731  -0.492  1.00  0.00     0.136 C 
BRANCH   8   9
HETATM    9  C3  UNL     1       1.943  -0.088   0.673  1.00  0.00     0.147 C 
BRANCH   9  10
HETATM   10  N3  UNL     1       3.388  -0.063   0.434  1.00  0.00    -0.365 N 
HETATM   11  C4  UNL     1       3.991   0.964  -0.176  1.00  0.00     0.090 A 
HETATM   12  C5  UNL     1       5.357   0.975  -0.405  1.00  0.00     0.017 A 
HETATM   13  C6  UNL     1       6.110  -0.103   0.009  1.00  0.00     0.003 A 
HETATM   14  C7  UNL     1       5.453  -1.144   0.635  1.00  0.00     0.017 A 
HETATM   15  C8  UNL     1       4.095  -1.109   0.839  1.00  0.00     0.090 A 
ENDBRANCH   9  10
ENDBRANCH   8   9
ENDBRANCH   6   8
ENDBRANCH   1   6
BRANCH   1  16
HETATM   16  C9  UNL     1      -2.327   0.188  -0.827  1.00  0.00     0.170 C 
HETATM   17  C10 UNL     1      -2.887  -0.885   0.017  1.00  0.00     0.036 C 
HETATM   18  C11 UNL     1      -4.392  -0.975   0.019  1.00  0.00     0.005 C 
HETATM   19  C12 UNL     1      -5.064   0.254  -0.521  1.00  0.00     0.026 C 
HETATM   20  C13 UNL     1      -4.190   1.436  -0.238  1.00  0.00     0.168 C 
HETATM   21  O1  UNL     1      -2.957   1.386  -0.842  1.00  0.00    -0.382 OA
ENDBRANCH   1  16
TORSDOF 6
