REMARK  5 active torsions:
REMARK  status: ('A' for Active; 'I' for Inactive)
REMARK    1  A    between atoms: C2_2  and  C4_4 
REMARK    2  A    between atoms: C4_4  and  O1_5 
REMARK    3  A    between atoms: O1_5  and  C5_6 
REMARK    4  A    between atoms: C8_9  and  C9_10 
REMARK    5  A    between atoms: C12_16  and  C13_17 
ROOT
HETATM    1  C5  UNL     1       0.517  -0.082   0.175  1.00  0.00     0.082 A 
HETATM    2  C6  UNL     1      -0.111  -0.445   1.355  1.00  0.00     0.039 A 
HETATM    3  C7  UNL     1      -1.475  -0.506   1.393  1.00  0.00     0.017 A 
HETATM    4  C8  UNL     1      -2.276  -0.214   0.284  1.00  0.00     0.006 A 
HETATM    5  C11 UNL     1      -1.613   0.140  -0.860  1.00  0.00     0.032 A 
HETATM    6  C12 UNL     1      -0.222   0.215  -0.946  1.00  0.00     0.039 A 
ENDROOT
BRANCH   1   7
HETATM    7  O1  UNL     1       1.895  -0.012   0.106  1.00  0.00    -0.346 OA
BRANCH   7   8
HETATM    8  C4  UNL     1       2.736  -0.301   1.208  1.00  0.00     0.208 C 
BRANCH   8   9
HETATM    9  C2  UNL     1       4.145  -0.121   0.768  1.00  0.00    -0.069 C 
HETATM   10  C1  UNL     1       5.033  -1.100   0.797  1.00  0.00     0.016 C 
HETATM   11  C3  UNL     1       4.582   1.224   0.274  1.00  0.00     0.044 C 
ENDBRANCH   8   9
ENDBRANCH   7   8
ENDBRANCH   1   7
BRANCH   6  12
HETATM   12  C13 UNL     1       0.405   0.600  -2.206  1.00  0.00     0.123 C 
HETATM   13  N3  UNL     1      -0.314   0.875  -3.248  1.00  0.00    -0.387 N 
ATOM     14  H32 UNL     1      -1.332   0.830  -3.212  1.00  0.00     0.157 HD
ATOM     15  H31 UNL     1       0.124   1.144  -4.129  1.00  0.00     0.157 HD
HETATM   16  N4  UNL     1       1.812   0.662  -2.256  1.00  0.00    -0.082 NA
ENDBRANCH   6  12
BRANCH   4  17
HETATM   17  C9  UNL     1      -3.715  -0.298   0.395  1.00  0.00     0.122 C 
HETATM   18  N1  UNL     1      -4.319  -0.671   1.612  1.00  0.00    -0.082 NA
HETATM   19  N2  UNL     1      -4.452  -0.033  -0.615  1.00  0.00    -0.382 N 
HETATM   20  C10 UNL     1      -5.897  -0.093  -0.587  1.00  0.00     0.147 C 
ATOM     21  H2  UNL     1      -3.997   0.235  -1.488  1.00  0.00     0.160 HD
ENDBRANCH   4  17
TORSDOF 5
