REMARK  7 active torsions:
REMARK  status: ('A' for Active; 'I' for Inactive)
REMARK    1  A    between atoms: C2_2  and  O1_4 
REMARK    2  A    between atoms: C2_2  and  C4_6 
REMARK    3  A    between atoms: C4_6  and  O3_8 
REMARK    4  A    between atoms: O3_8  and  C5_9 
REMARK    5  A    between atoms: C5_9  and  C6_10 
REMARK       I    between atoms: C6_10  and  N1_12 
REMARK    6  A    between atoms: N1_12  and  N2_14 
REMARK       I    between atoms: N2_14  and  C7_16 
REMARK       I    between atoms: C7_16  and  N3_18 
REMARK    7  A    between atoms: N3_18  and  C8_20 
ROOT
HETATM    1  N2  UNL     1      -0.734  -1.340  -0.097  1.00  0.00    -0.249 N 
ATOM      2  H2  UNL     1      -0.749  -1.851   0.786  1.00  0.00     0.192 HD
HETATM    3  C7  UNL     1      -1.930  -0.729  -0.564  1.00  0.00     0.335 C 
HETATM    4  O5  UNL     1      -1.916  -0.101  -1.670  1.00  0.00    -0.246 OA
HETATM    5  N3  UNL     1      -3.131  -0.811   0.187  1.00  0.00    -0.337 N 
ATOM      6  H3  UNL     1      -3.138  -1.317   1.073  1.00  0.00     0.164 HD
ENDROOT
BRANCH   1   7
HETATM    7  N1  UNL     1       0.460  -1.259  -0.814  1.00  0.00    -0.264 N 
HETATM    8  C6  UNL     1       1.610  -0.758  -0.173  1.00  0.00     0.260 C 
HETATM    9  O4  UNL     1       1.556  -0.387   1.055  1.00  0.00    -0.269 OA
ATOM     10  H1  UNL     1       0.500  -1.558  -1.788  1.00  0.00     0.190 HD
BRANCH   8  11
HETATM   11  C5  UNL     1       2.879  -0.663  -0.937  1.00  0.00     0.283 C 
BRANCH  11  12
HETATM   12  O3  UNL     1       3.907  -0.130  -0.115  1.00  0.00    -0.310 OA
BRANCH  12  13
HETATM   13  C4  UNL     1       5.157   0.050  -0.676  1.00  0.00     0.293 C 
HETATM   14  O2  UNL     1       5.343  -0.256  -1.874  1.00  0.00    -0.262 OA
BRANCH  13  15
HETATM   15  C2  UNL     1       6.267   0.611   0.161  1.00  0.00     0.138 C 
HETATM   16  C1  UNL     1       6.704   1.912  -0.450  1.00  0.00     0.056 C 
HETATM   17  C3  UNL     1       7.381  -0.394   0.176  1.00  0.00     0.056 C 
BRANCH  15  18
HETATM   18  O1  UNL     1       5.821   0.800   1.475  1.00  0.00    -0.380 OA
ATOM     19  H1  UNL     1       5.545  -0.023   1.861  1.00  0.00     0.211 HD
ENDBRANCH  15  18
ENDBRANCH  13  15
ENDBRANCH  12  13
ENDBRANCH  11  12
ENDBRANCH   8  11
ENDBRANCH   1   7
BRANCH   5  20
HETATM   20  C8  UNL     1      -4.368  -0.175  -0.296  1.00  0.00     0.089 C 
HETATM   21  C9  UNL     1      -4.591   0.988   0.673  1.00  0.00     0.052 C 
HETATM   22  C10 UNL     1      -5.941   1.602   0.361  1.00  0.00     0.234 C 
HETATM   23  N4  UNL     1      -6.926   0.606   0.766  1.00  0.00    -0.075 N 
HETATM   24  C11 UNL     1      -6.851  -0.538  -0.085  1.00  0.00     0.234 C 
ATOM     25  H42 UNL     1      -6.831   0.355   1.750  1.00  0.00     0.277 HD
ATOM     26  H41 UNL     1      -7.869   0.994   0.800  1.00  0.00     0.277 HD
HETATM   27  C12 UNL     1      -5.479  -1.155  -0.199  1.00  0.00     0.052 C 
ENDBRANCH   5  20
TORSDOF 7
