REMARK  5 active torsions:
REMARK  status: ('A' for Active; 'I' for Inactive)
REMARK       I    between atoms: C1_2  and  N5_15 
REMARK       I    between atoms: N2_3  and  C2_5 
REMARK       I    between atoms: C2_5  and  N3_7 
REMARK    1  A    between atoms: N3_7  and  N4_9 
REMARK       I    between atoms: N4_9  and  C3_11 
REMARK    2  A    between atoms: C3_11  and  C4_13 
REMARK    3  A    between atoms: N5_15  and  N6_17 
REMARK    4  A    between atoms: C5_19  and  C6_20 
REMARK    5  A    between atoms: C9_23  and  O4_24 
ROOT
HETATM    1  N1  UNL     1       1.215  -0.152   1.709  1.00  0.00    -0.062 NA
HETATM    2  C1  UNL     1       1.047  -0.762   0.457  1.00  0.00     0.211 C 
HETATM    3  N2  UNL     1       1.938  -0.633  -0.450  1.00  0.00    -0.280 N 
ATOM      4  H2  UNL     1       1.794  -1.086  -1.352  1.00  0.00     0.173 HD
HETATM    5  C2  UNL     1       3.109   0.113  -0.244  1.00  0.00     0.341 C 
HETATM    6  O1  UNL     1       3.220   0.874   0.735  1.00  0.00    -0.245 OA
HETATM    7  N3  UNL     1       4.187   0.003  -1.156  1.00  0.00    -0.248 N 
ATOM      8  H3  UNL     1       4.082  -0.622  -1.955  1.00  0.00     0.192 HD
HETATM    9  N5  UNL     1      -0.131  -1.528   0.255  1.00  0.00    -0.274 N 
ATOM     10  H5  UNL     1      -0.052  -2.542   0.327  1.00  0.00     0.189 HD
ENDROOT
BRANCH   9  11
HETATM   11  N6  UNL     1      -1.363  -1.009  -0.029  1.00  0.00    -0.309 N 
HETATM   12  C5  UNL     1      -2.380  -0.990   0.742  1.00  0.00     0.118 C 
ATOM     13  H6  UNL     1      -1.482  -0.594  -0.953  1.00  0.00     0.186 HD
BRANCH  12  14
HETATM   14  C6  UNL     1      -3.646  -0.410   0.328  1.00  0.00    -0.019 A 
HETATM   15  C7  UNL     1      -3.821   0.154  -0.920  1.00  0.00     0.015 A 
HETATM   16  C8  UNL     1      -5.031   0.689  -1.308  1.00  0.00     0.037 A 
HETATM   17  C9  UNL     1      -6.147   0.693  -0.463  1.00  0.00     0.065 A 
HETATM   18  C10 UNL     1      -5.961   0.129   0.781  1.00  0.00     0.037 A 
HETATM   19  C11 UNL     1      -4.753  -0.405   1.166  1.00  0.00     0.015 A 
BRANCH  17  20
HETATM   20  O4  UNL     1      -7.354   1.235  -0.871  1.00  0.00    -0.361 OA
ATOM     21  H4  UNL     1      -8.111   1.238  -0.298  1.00  0.00     0.217 HD
ENDBRANCH  17  20
ENDBRANCH  12  14
ENDBRANCH   9  11
BRANCH   7  22
HETATM   22  N4  UNL     1       5.381   0.703  -1.019  1.00  0.00    -0.260 N 
HETATM   23  C3  UNL     1       6.615  -0.026  -1.032  1.00  0.00     0.297 C 
HETATM   24  O2  UNL     1       6.598  -1.285  -1.166  1.00  0.00    -0.263 OA
ATOM     25  H4  UNL     1       5.379   1.717  -0.911  1.00  0.00     0.190 HD
BRANCH  23  26
HETATM   26  C4  UNL     1       7.885   0.637  -0.898  1.00  0.00     0.334 C 
HETATM   27  O3  UNL     1       7.970   1.883  -0.768  1.00  0.00    -0.296 OA
ENDBRANCH  23  26
ENDBRANCH   7  22
TORSDOF 5
