REMARK  5 active torsions:
REMARK  status: ('A' for Active; 'I' for Inactive)
REMARK    1  A    between atoms: C2_2  and  N2_6 
REMARK    2  A    between atoms: N2_6  and  C3_8 
REMARK    3  A    between atoms: C5_11  and  C7_13 
REMARK    4  A    between atoms: C7_13  and  O2_15 
REMARK    5  A    between atoms: C10_18  and  N3_19 
ROOT
HETATM    1  C3  UNL     1       1.101  -0.284  -0.273  1.00  0.00     0.131 C 
HETATM    2  C4  UNL     1       0.415  -1.628  -0.522  1.00  0.00     0.196 C 
HETATM    3  O1  UNL     1      -0.716  -1.640   0.266  1.00  0.00    -0.376 OA
HETATM    4  C5  UNL     1      -1.596  -0.682  -0.140  1.00  0.00     0.085 C 
HETATM    5  C6  UNL     1      -2.061   0.138   1.051  1.00  0.00     0.049 C 
HETATM    6  C9  UNL     1      -1.116   0.268  -1.193  1.00  0.00     0.070 C 
HETATM    7  C10 UNL     1       0.276   0.768  -0.973  1.00  0.00     0.141 C 
ENDROOT
BRANCH   7   8
HETATM    8  N3  UNL     1       0.404   2.019  -0.311  1.00  0.00    -0.232 N 
HETATM    9  N4  UNL     1       1.262   2.277   0.657  1.00  0.00    -0.245 N 
HETATM   10  C11 UNL     1       1.116   3.549   1.052  1.00  0.00     0.343 A 
ATOM     11  H4  UNL     1       1.932   1.612   1.044  1.00  0.00     0.192 HD
HETATM   12  O3  UNL     1       1.780   4.115   1.957  1.00  0.00    -0.245 OA
HETATM   13  N5  UNL     1       0.156   4.109   0.329  1.00  0.00    -0.258 N 
HETATM   14  C12 UNL     1      -0.280   3.155  -0.512  1.00  0.00     0.345 A 
ATOM     15  H5  UNL     1      -0.183   5.069   0.397  1.00  0.00     0.175 HD
HETATM   16  O4  UNL     1      -1.208   3.383  -1.344  1.00  0.00    -0.245 OA
ENDBRANCH   7   8
BRANCH   1  17
HETATM   17  N2  UNL     1       2.463  -0.265  -0.704  1.00  0.00    -0.372 N 
ATOM     18  H2  UNL     1       2.759   0.404  -1.415  1.00  0.00     0.161 HD
BRANCH  17  19
HETATM   19  C2  UNL     1       3.409  -1.171  -0.150  1.00  0.00     0.066 C 
HETATM   20  C1  UNL     1       3.591  -1.368   1.310  1.00  0.00     0.088 C 
HETATM   21  N1  UNL     1       4.139  -1.850  -0.965  1.00  0.00    -0.389 N 
ATOM     22  H12 UNL     1       4.817  -2.500  -0.568  1.00  0.00     0.157 HD
ATOM     23  H11 UNL     1       4.014  -1.715  -1.968  1.00  0.00     0.157 HD
ENDBRANCH  17  19
ENDBRANCH   1  17
BRANCH   4  24
HETATM   24  C7  UNL     1      -2.843  -1.402  -0.671  1.00  0.00     0.148 C 
HETATM   25  C8  UNL     1      -3.406  -2.296   0.413  1.00  0.00     0.042 C 
BRANCH  24  26
HETATM   26  O2  UNL     1      -3.803  -0.530  -1.110  1.00  0.00    -0.393 OA
ATOM     27  H2  UNL     1      -4.575  -0.976  -1.439  1.00  0.00     0.210 HD
ENDBRANCH  24  26
ENDBRANCH   4  24
TORSDOF 5
