REMARK  4 active torsions:
REMARK  status: ('A' for Active; 'I' for Inactive)
REMARK       I    between atoms: C2_5  and  N4_7 
REMARK    1  A    between atoms: N4_7  and  C3_9 
REMARK    2  A    between atoms: C3_9  and  C4_10 
REMARK    3  A    between atoms: C3_9  and  C5_13 
REMARK    4  A    between atoms: C8_16  and  C9_17 
ROOT
HETATM    1  N1  UNL     1      -6.194   2.292   0.217  1.00  0.00    -0.172 NA
HETATM    2  C1  UNL     1      -5.056   2.061   0.138  1.00  0.00     0.184 C 
HETATM    3  N2  UNL     1      -3.704   1.807   0.036  1.00  0.00    -0.268 N 
ATOM      4  H2  UNL     1      -3.054   2.581   0.176  1.00  0.00     0.180 HD
HETATM    5  C2  UNL     1      -3.220   0.643  -0.227  1.00  0.00     0.198 C 
HETATM    6  N3  UNL     1      -4.151  -0.412  -0.417  1.00  0.00    -0.063 NA
HETATM    7  N4  UNL     1      -1.822   0.401  -0.328  1.00  0.00    -0.349 N 
ATOM      8  H4  UNL     1      -1.304   0.914  -1.041  1.00  0.00     0.163 HD
ENDROOT
BRANCH   7   9
HETATM    9  C3  UNL     1      -1.095  -0.503   0.491  1.00  0.00     0.192 C 
BRANCH   9  10
HETATM   10  C4  UNL     1      -1.213  -0.201   1.943  1.00  0.00     0.197 C 
HETATM   11  O1  UNL     1      -1.880   0.748   2.412  1.00  0.00    -0.646 OA
HETATM   12  O2  UNL     1      -0.538  -1.026   2.824  1.00  0.00    -0.646 OA
ENDBRANCH   9  10
BRANCH   9  13
HETATM   13  C5  UNL     1       0.357  -0.499   0.158  1.00  0.00     0.062 C 
HETATM   14  C6  UNL     1       0.674  -0.875  -1.277  1.00  0.00     0.014 C 
HETATM   15  C7  UNL     1       2.176  -1.205  -1.262  1.00  0.00     0.043 C 
HETATM   16  C8  UNL     1       2.887  -0.007  -0.687  1.00  0.00     0.224 C 
HETATM   17  O5  UNL     1       2.515   0.184   0.627  1.00  0.00    -0.355 OA
HETATM   18  C10 UNL     1       1.165   0.643   0.657  1.00  0.00     0.235 C 
HETATM   19  C11 UNL     1       1.054   1.828  -0.143  1.00  0.00     0.091 C 
HETATM   20  N5  UNL     1       0.989   2.798  -0.780  1.00  0.00    -0.195 NA
BRANCH  16  21
HETATM   21  C9  UNL     1       4.356  -0.222  -0.780  1.00  0.00     0.203 C 
HETATM   22  O3  UNL     1       4.909  -0.416  -1.883  1.00  0.00    -0.646 OA
HETATM   23  O4  UNL     1       5.109  -0.207   0.362  1.00  0.00    -0.646 OA
ENDBRANCH  16  21
ENDBRANCH   9  13
ENDBRANCH   7   9
TORSDOF 4
