REMARK  7 active torsions:
REMARK  status: ('A' for Active; 'I' for Inactive)
REMARK    1  A    between atoms: C2_2  and  N1_3 
REMARK    2  A    between atoms: N1_3  and  C3_4 
REMARK    3  A    between atoms: N1_3  and  C19_30 
REMARK    4  A    between atoms: C4_7  and  O1_8 
REMARK    5  A    between atoms: O1_8  and  C5_9 
REMARK    6  A    between atoms: C12_17  and  N4_18 
REMARK    7  A    between atoms: C16_23  and  O2_24 
ROOT
HETATM    1  C3  UNL     1      -0.716   2.156  -0.462  1.00  0.00     0.688 A 
HETATM    2  N2  UNL     1       0.564   1.809  -0.609  1.00  0.00    -0.170 N 
ATOM      3  H2  UNL     1       1.231   2.523  -0.900  1.00  0.00     0.186 HD
HETATM    4  C4  UNL     1       1.023   0.538  -0.387  1.00  0.00     0.161 A 
HETATM    5  C11 UNL     1       0.087  -0.382   0.001  1.00  0.00     0.105 A 
HETATM    6  C12 UNL     1      -1.256  -0.045   0.161  1.00  0.00     0.123 A 
HETATM    7  N5  UNL     1      -1.627   1.224  -0.076  1.00  0.00    -0.176 N 
ATOM      8  H5  UNL     1      -2.605   1.492   0.035  1.00  0.00     0.186 HD
ENDROOT
BRANCH   6   9
HETATM    9  N4  UNL     1      -2.196  -1.030   0.570  1.00  0.00    -0.360 N 
HETATM   10  C13 UNL     1      -1.837  -2.378   0.937  1.00  0.00     0.128 C 
HETATM   11  C14 UNL     1      -2.939  -2.976   1.756  1.00  0.00     0.060 C 
HETATM   12  C15 UNL     1      -4.201  -3.064   0.936  1.00  0.00     0.202 C 
HETATM   13  F1  UNL     1      -5.234  -3.421   1.806  1.00  0.00    -0.247 F 
HETATM   14  C16 UNL     1      -4.516  -1.797   0.215  1.00  0.00     0.174 C 
HETATM   15  C17 UNL     1      -3.597  -0.658   0.615  1.00  0.00     0.113 C 
HETATM   16  C18 UNL     1      -4.011  -0.058   1.922  1.00  0.00     0.035 C 
BRANCH  14  17
HETATM   17  O2  UNL     1      -4.475  -1.945  -1.169  1.00  0.00    -0.391 OA
ATOM     18  H2  UNL     1      -4.676  -1.138  -1.628  1.00  0.00     0.210 HD
ENDBRANCH  14  17
ENDBRANCH   6   9
BRANCH   4  19
HETATM   19  O1  UNL     1       2.332   0.218  -0.545  1.00  0.00    -0.330 OA
BRANCH  19  20
HETATM   20  C5  UNL     1       2.879  -1.022  -0.347  1.00  0.00     0.134 C 
HETATM   21  C6  UNL     1       3.622  -1.562  -1.562  1.00  0.00     0.062 C 
HETATM   22  C7  UNL     1       4.859  -2.300  -1.184  1.00  0.00     0.274 C 
HETATM   23  N3  UNL     1       4.732  -3.065   0.033  1.00  0.00     0.084 N 
HETATM   24  C8  UNL     1       6.078  -3.563   0.349  1.00  0.00     0.309 C 
HETATM   25  C9  UNL     1       4.327  -2.259   1.161  1.00  0.00     0.274 C 
HETATM   26  C10 UNL     1       3.985  -0.862   0.719  1.00  0.00     0.062 C 
ENDBRANCH  19  20
ENDBRANCH   4  19
BRANCH   1  27
HETATM   27  N1  UNL     1      -1.181   3.477  -0.695  1.00  0.00    -0.190 N 
BRANCH  27  28
HETATM   28  C2  UNL     1      -2.580   3.763  -0.531  1.00  0.00     0.099 C 
HETATM   29  C1  UNL     1      -2.991   4.246   0.607  1.00  0.00     0.030 C 
ENDBRANCH  27  28
BRANCH  27  30
HETATM   30  C19 UNL     1      -0.371   4.588  -1.091  1.00  0.00     0.099 C 
HETATM   31  C20 UNL     1      -0.780   5.150  -2.441  1.00  0.00     0.033 C 
HETATM   32  C21 UNL     1       1.099   4.401  -1.056  1.00  0.00     0.033 C 
ENDBRANCH  27  30
ENDBRANCH   1  27
TORSDOF 7
