REMARK  8 active torsions:
REMARK  status: ('A' for Active; 'I' for Inactive)
REMARK       I    between atoms: N2_5  and  C3_6 
REMARK    1  A    between atoms: C3_6  and  C4_8 
REMARK    2  A    between atoms: C4_8  and  C5_9 
REMARK    3  A    between atoms: C5_9  and  C6_10 
REMARK    4  A    between atoms: C11_15  and  C12_16 
REMARK    5  A    between atoms: C12_16  and  N3_18 
REMARK    6  A    between atoms: C13_23  and  C14_24 
REMARK    7  A    between atoms: C14_24  and  N6_25 
REMARK    8  A    between atoms: C14_24  and  O2_29 
ROOT
HETATM    1  C12 UNL     1       1.368   0.907   1.892  1.00  0.00     0.225 C 
HETATM    2 BR1  UNL     1       2.671   1.586   3.167  1.00  0.00    -0.062 Br
ENDROOT
BRANCH   1   3
HETATM    3  C11 UNL     1       1.334  -0.583   2.044  1.00  0.00     0.153 C 
HETATM    4  N2  UNL     1       0.399  -1.232   1.149  1.00  0.00    -0.253 N 
HETATM    5  N1  UNL     1       1.120  -1.702   0.071  1.00  0.00    -0.304 N 
HETATM    6  C3  UNL     1      -1.014  -1.386   1.307  1.00  0.00     0.238 C 
HETATM    7  C2  UNL     1       2.386  -1.712   0.308  1.00  0.00     0.002 C 
ATOM      8  H1  UNL     1       0.701  -2.005  -0.808  1.00  0.00     0.186 HD
HETATM    9  C1  UNL     1       3.394  -2.171  -0.684  1.00  0.00     0.065 C 
HETATM   10  C15 UNL     1       2.673  -1.205   1.692  1.00  0.00     0.084 C 
HETATM   11  O1  UNL     1      -1.537  -0.900   2.352  1.00  0.00    -0.272 OA
BRANCH   6  12
HETATM   12  C4  UNL     1      -1.809  -2.077   0.312  1.00  0.00     0.105 C 
BRANCH  12  13
HETATM   13  C5  UNL     1      -3.161  -1.616  -0.033  1.00  0.00     0.014 C 
BRANCH  13  14
HETATM   14  C6  UNL     1      -3.360  -0.321  -0.703  1.00  0.00    -0.014 C 
HETATM   15  C7  UNL     1      -2.920   0.920  -0.034  1.00  0.00     0.004 C 
HETATM   16  C8  UNL     1      -4.011   1.245   0.976  1.00  0.00     0.000 C 
HETATM   17  C9  UNL     1      -5.196   0.426   0.570  1.00  0.00     0.000 C 
HETATM   18  C10 UNL     1      -4.890  -0.110  -0.802  1.00  0.00     0.004 C 
ENDBRANCH  13  14
ENDBRANCH  12  13
ENDBRANCH   6  12
ENDBRANCH   1   3
BRANCH   1  19
HETATM   19  N3  UNL     1       1.758   1.344   0.569  1.00  0.00    -0.201 N 
HETATM   20  N4  UNL     1       0.970   1.505  -0.463  1.00  0.00    -0.223 N 
HETATM   21  N5  UNL     1       1.667   1.910  -1.490  1.00  0.00    -0.268 N 
ATOM     22  H4  UNL     1      -0.036   1.339  -0.465  1.00  0.00     0.210 HD
HETATM   23  C13 UNL     1       2.943   2.013  -1.113  1.00  0.00     0.170 A 
ATOM     24  H5  UNL     1       1.300   2.113  -2.420  1.00  0.00     0.190 HD
HETATM   25  N7  UNL     1       2.980   1.654   0.181  1.00  0.00    -0.265 N 
ATOM     26  H7  UNL     1       3.815   1.626   0.766  1.00  0.00     0.190 HD
BRANCH  23  27
HETATM   27  C14 UNL     1       4.115   2.440  -1.940  1.00  0.00     0.387 C 
BRANCH  27  28
HETATM   28  N6  UNL     1       5.186   1.506  -1.662  1.00  0.00    -0.046 N 
ATOM     29  H63 UNL     1       5.403   1.427  -0.668  1.00  0.00     0.277 HD
ATOM     30  H62 UNL     1       4.920   0.533  -1.814  1.00  0.00     0.277 HD
ATOM     31  H61 UNL     1       5.985   1.797  -2.226  1.00  0.00     0.277 HD
ENDBRANCH  27  28
BRANCH  27  32
HETATM   32  O2  UNL     1       3.786   2.480  -3.287  1.00  0.00    -0.364 OA
ATOM     33  H2  UNL     1       4.530   2.751  -3.812  1.00  0.00     0.212 HD
ENDBRANCH  27  32
ENDBRANCH  23  27
ENDBRANCH   1  19
TORSDOF 8
