REMARK  6 active torsions:
REMARK  status: ('A' for Active; 'I' for Inactive)
REMARK    1  A    between atoms: C2_2  and  N1_4 
REMARK    2  A    between atoms: N1_4  and  C4_5 
REMARK    3  A    between atoms: N1_4  and  C7_14 
REMARK    4  A    between atoms: C4_5  and  C5_6 
REMARK    5  A    between atoms: N4_18  and  C11_19 
REMARK    6  A    between atoms: C13_23  and  C14_24 
ROOT
HETATM    1  C7  UNL     1      -2.206   1.196   0.059  1.00  0.00     0.241 C 
HETATM    2  C8  UNL     1      -2.288   1.927  -1.210  1.00  0.00     0.039 C 
HETATM    3  C9  UNL     1      -1.315   1.606  -2.291  1.00  0.00     0.022 C 
HETATM    4  C10 UNL     1      -0.616   0.304  -2.128  1.00  0.00     0.124 C 
HETATM    5  N4  UNL     1      -0.119   0.196  -0.787  1.00  0.00    -0.363 N 
HETATM    6  C19 UNL     1      -1.039   0.310   0.311  1.00  0.00     0.160 C 
ENDROOT
BRANCH   5   7
HETATM    7  C11 UNL     1       1.285  -0.031  -0.600  1.00  0.00     0.133 A 
HETATM    8  C12 UNL     1       2.201   0.311  -1.559  1.00  0.00     0.139 A 
HETATM    9  N5  UNL     1       3.511   0.082  -1.418  1.00  0.00    -0.351 N 
HETATM   10  C13 UNL     1       4.009  -0.517  -0.283  1.00  0.00     0.100 A 
ATOM     11  H5  UNL     1       4.151   0.356  -2.163  1.00  0.00     0.166 HD
HETATM   12  N7  UNL     1       3.104  -0.843   0.643  1.00  0.00    -0.287 N 
HETATM   13  N8  UNL     1       1.787  -0.618   0.510  1.00  0.00    -0.283 N 
ATOM     14  H7  UNL     1       3.432  -1.288   1.500  1.00  0.00     0.188 HD
ATOM     15  H8  UNL     1       1.154  -0.895   1.260  1.00  0.00     0.188 HD
BRANCH  10  16
HETATM   16  C14 UNL     1       5.456  -0.758  -0.186  1.00  0.00     0.058 C 
HETATM   17  C15 UNL     1       6.133   0.295   0.668  1.00  0.00     0.040 C 
HETATM   18  C16 UNL     1       7.635  -0.013   0.728  1.00  0.00     0.233 C 
HETATM   19  N6  UNL     1       7.784  -1.296   1.381  1.00  0.00    -0.075 N 
HETATM   20  C17 UNL     1       7.258  -2.320   0.502  1.00  0.00     0.233 C 
ATOM     21  H62 UNL     1       8.745  -1.481   1.667  1.00  0.00     0.277 HD
ATOM     22  H61 UNL     1       7.357  -1.317   2.307  1.00  0.00     0.277 HD
HETATM   23  C18 UNL     1       5.759  -2.138   0.271  1.00  0.00     0.040 C 
ENDBRANCH  10  16
ENDBRANCH   5   7
BRANCH   1  24
HETATM   24  N1  UNL     1      -3.422   0.491   0.443  1.00  0.00     0.105 N 
BRANCH  24  25
HETATM   25  C2  UNL     1      -4.555   1.316   0.678  1.00  0.00     0.216 C 
HETATM   26  C1  UNL     1      -4.439   2.779   0.607  1.00  0.00     0.042 C 
HETATM   27  C3  UNL     1      -5.148   0.933   2.040  1.00  0.00     0.042 C 
ENDBRANCH  24  25
BRANCH  24  28
HETATM   28  C4  UNL     1      -3.693  -0.585  -0.501  1.00  0.00     0.351 C 
BRANCH  28  29
HETATM   29  C5  UNL     1      -4.790  -1.426   0.012  1.00  0.00     0.135 A 
HETATM   30  N2  UNL     1      -4.881  -2.250   1.071  1.00  0.00    -0.287 N 
HETATM   31  C6  UNL     1      -6.109  -2.809   1.100  1.00  0.00     0.388 A 
ATOM     32  H2  UNL     1      -4.138  -2.425   1.747  1.00  0.00     0.172 HD
HETATM   33  O1  UNL     1      -6.593  -3.644   1.937  1.00  0.00    -0.236 OA
HETATM   34  O2  UNL     1      -6.757  -2.335   0.079  1.00  0.00    -0.179 OA
HETATM   35  N3  UNL     1      -6.023  -1.528  -0.580  1.00  0.00    -0.242 N 
ATOM     36  H3  UNL     1      -6.310  -1.031  -1.423  1.00  0.00     0.196 HD
ENDBRANCH  28  29
ENDBRANCH  24  28
ENDBRANCH   1  24
TORSDOF 6
