REMARK  7 active torsions:
REMARK  status: ('A' for Active; 'I' for Inactive)
REMARK    1  A    between atoms: C2_2  and  C4_4 
REMARK    2  A    between atoms: C4_4  and  N1_5 
REMARK    3  A    between atoms: N1_5  and  C5_7 
REMARK    4  A    between atoms: C5_7  and  C6_12 
REMARK    5  A    between atoms: N2_8  and  O1_10 
REMARK    6  A    between atoms: C9_15  and  N3_16 
REMARK    7  A    between atoms: C16_25  and  N5_26 
ROOT
HETATM    1  C6  UNL     1       1.521  -0.190   0.011  1.00  0.00     0.053 A 
HETATM    2  C7  UNL     1       0.166   0.010   0.100  1.00  0.00     0.041 A 
HETATM    3  C8  UNL     1      -0.629  -1.078   0.082  1.00  0.00     0.044 A 
HETATM    4  C9  UNL     1      -2.033  -1.115   0.155  1.00  0.00     0.132 A 
HETATM    5  N4  UNL     1      -2.650  -2.315   0.121  1.00  0.00    -0.176 N 
ATOM      6  H4  UNL     1      -3.668  -2.315   0.177  1.00  0.00     0.186 HD
HETATM    7  C16 UNL     1      -2.053  -3.491   0.022  1.00  0.00     0.678 A 
HETATM    8  N6  UNL     1      -0.704  -3.474  -0.051  1.00  0.00    -0.185 N 
ATOM      9  H6  UNL     1      -0.194  -4.354  -0.129  1.00  0.00     0.185 HD
HETATM   10  C17 UNL     1      -0.010  -2.293  -0.022  1.00  0.00     0.105 A 
HETATM   11  S1  UNL     1       1.642  -1.887  -0.093  1.00  0.00    -0.067 SA
ENDROOT
BRANCH   1  12
HETATM   12  C5  UNL     1       2.566   0.846  -0.003  1.00  0.00     0.138 C 
HETATM   13  N2  UNL     1       2.316   1.971  -0.569  1.00  0.00    -0.252 N 
ATOM     14  H2  UNL     1       3.080   2.646  -0.538  1.00  0.00     0.196 HD
BRANCH  12  15
HETATM   15  N1  UNL     1       3.822   0.593   0.608  1.00  0.00    -0.373 N 
ATOM     16  H1  UNL     1       4.108   1.132   1.425  1.00  0.00     0.161 HD
BRANCH  15  17
HETATM   17  C4  UNL     1       4.690  -0.420   0.079  1.00  0.00     0.125 C 
BRANCH  17  18
HETATM   18  C2  UNL     1       6.026  -0.405   0.834  1.00  0.00    -0.005 C 
HETATM   19  C1  UNL     1       6.650   0.965   0.646  1.00  0.00     0.011 C 
HETATM   20  C3  UNL     1       6.964  -1.404   0.205  1.00  0.00     0.011 C 
ENDBRANCH  17  18
ENDBRANCH  15  17
ENDBRANCH  12  15
BRANCH  13  21
HETATM   21  O1  UNL     1       1.217   2.397  -1.191  1.00  0.00    -0.288 OA
ATOM     22  H1  UNL     1       1.032   3.229  -1.610  1.00  0.00     0.244 HD
ENDBRANCH  13  21
ENDBRANCH   1  12
BRANCH   4  23
HETATM   23  N3  UNL     1      -2.828   0.046   0.228  1.00  0.00    -0.366 N 
HETATM   24  C10 UNL     1      -2.672   1.135  -0.706  1.00  0.00     0.124 C 
HETATM   25  C11 UNL     1      -4.041   1.603  -1.207  1.00  0.00     0.020 C 
HETATM   26  C12 UNL     1      -4.700   2.392  -0.080  1.00  0.00     0.002 C 
HETATM   27  C13 UNL     1      -5.737   1.508   0.559  1.00  0.00     0.002 C 
HETATM   28  C14 UNL     1      -5.216   0.122   0.766  1.00  0.00     0.020 C 
HETATM   29  C15 UNL     1      -3.825   0.054   1.305  1.00  0.00     0.124 C 
ENDBRANCH   4  23
BRANCH   7  30
HETATM   30  N5  UNL     1      -2.725  -4.581  -0.007  1.00  0.00    -0.234 N 
ATOM     31  H52 UNL     1      -3.743  -4.594   0.048  1.00  0.00     0.174 HD
ATOM     32  H51 UNL     1      -2.265  -5.488  -0.083  1.00  0.00     0.174 HD
ENDBRANCH   7  30
TORSDOF 7
