REMARK  5 active torsions:
REMARK  status: ('A' for Active; 'I' for Inactive)
REMARK    1  A    between atoms: C1_4  and  C2_6 
REMARK    2  A    between atoms: N4_16  and  C9_17 
REMARK    3  A    between atoms: C16_27  and  C17_28 
REMARK    4  A    between atoms: C17_28  and  C18_29 
REMARK    5  A    between atoms: C18_29  and  O1_30 
ROOT
HETATM    1  C2  UNL     1       1.135   2.506   1.165  1.00  0.00     0.047 A 
HETATM    2  C3  UNL     1       2.130   1.960   0.407  1.00  0.00     0.033 A 
HETATM    3  C4  UNL     1       1.837   0.818  -0.269  1.00  0.00    -0.007 A 
HETATM    4  C5  UNL     1       0.570   0.322  -0.129  1.00  0.00     0.043 A 
HETATM    5  S1  UNL     1      -0.163   1.435   0.921  1.00  0.00    -0.084 SA
HETATM    6  C6  UNL     1      -0.113  -0.853  -0.677  1.00  0.00     0.078 A 
HETATM    7  C7  UNL     1       0.503  -1.928  -1.338  1.00  0.00     0.064 A 
HETATM    8  N3  UNL     1      -0.445  -2.769  -1.658  1.00  0.00    -0.352 N 
ATOM      9  H3  UNL     1      -0.322  -3.655  -2.149  1.00  0.00     0.166 HD
HETATM   10  C8  UNL     1      -1.608  -2.261  -1.227  1.00  0.00     0.184 A 
HETATM   11  N4  UNL     1      -1.414  -1.052  -0.606  1.00  0.00    -0.335 N 
HETATM   12  C15 UNL     1       1.965  -2.021  -1.606  1.00  0.00     0.292 C 
HETATM   13  N5  UNL     1       2.363  -0.721  -2.105  1.00  0.00    -0.061 N 
ATOM     14  H51 UNL     1       1.583  -0.273  -2.586  1.00  0.00     0.278 HD
ATOM     15  H52 UNL     1       3.014  -0.825  -2.883  1.00  0.00     0.278 HD
HETATM   16  C16 UNL     1       2.901   0.148  -1.128  1.00  0.00     0.222 C 
ENDROOT
BRANCH  11  17
HETATM   17  C9  UNL     1      -2.420  -0.216  -0.032  1.00  0.00     0.091 C 
HETATM   18  C10 UNL     1      -2.809  -0.519   1.373  1.00  0.00     0.026 C 
HETATM   19  C11 UNL     1      -4.116  -1.305   1.504  1.00  0.00     0.002 C 
HETATM   20  C12 UNL     1      -5.292  -0.555   0.979  1.00  0.00     0.000 C 
HETATM   21  C13 UNL     1      -4.807   0.313  -0.183  1.00  0.00     0.002 C 
HETATM   22  C14 UNL     1      -3.707  -0.533  -0.852  1.00  0.00     0.026 C 
ENDBRANCH  11  17
BRANCH  16  23
HETATM   23  C17 UNL     1       3.969  -0.458  -0.269  1.00  0.00     0.064 C 
BRANCH  23  24
HETATM   24  C18 UNL     1       4.993  -1.101  -1.137  1.00  0.00     0.166 C 
BRANCH  24  25
HETATM   25  O1  UNL     1       6.031  -1.694  -0.406  1.00  0.00    -0.401 OA
ATOM     26  H1  UNL     1       6.685  -2.104  -0.960  1.00  0.00     0.209 HD
ENDBRANCH  24  25
ENDBRANCH  23  24
ENDBRANCH  16  23
BRANCH   1  27
HETATM   27  C1  UNL     1       1.195   3.729   1.986  1.00  0.00     0.127 C 
HETATM   28  N1  UNL     1       0.140   4.090   2.637  1.00  0.00    -0.387 N 
ATOM     29  H12 UNL     1       0.182   4.936   3.205  1.00  0.00     0.157 HD
ATOM     30  H11 UNL     1      -0.740   3.574   2.617  1.00  0.00     0.157 HD
HETATM   31  N2  UNL     1       2.407   4.440   2.014  1.00  0.00    -0.082 NA
ENDBRANCH   1  27
TORSDOF 5
