REMARK  4 active torsions:
REMARK  status: ('A' for Active; 'I' for Inactive)
REMARK    1  A    between atoms: C1_4  and  C2_6 
REMARK    2  A    between atoms: C3_7  and  N3_8 
REMARK    3  A    between atoms: N3_8  and  C4_10 
REMARK    4  A    between atoms: C4_10  and  C5_11 
ROOT
HETATM    1  C2  UNL     1      -1.149  -0.855  -0.002  1.00  0.00     0.047 A 
HETATM    2  C3  UNL     1       0.062  -0.624   0.599  1.00  0.00     0.086 A 
HETATM    3  S1  UNL     1      -0.168   0.944   1.301  1.00  0.00    -0.054 SA
HETATM    4  C9  UNL     1      -1.759   1.232   0.812  1.00  0.00     0.079 A 
HETATM    5  C10 UNL     1      -2.098   0.102   0.102  1.00  0.00    -0.008 A 
HETATM    6  C11 UNL     1      -3.517   0.178  -0.456  1.00  0.00     0.044 C 
HETATM    7  C12 UNL     1      -3.711   1.609  -1.026  1.00  0.00     0.024 C 
HETATM    8  C13 UNL     1      -3.804   2.572   0.121  1.00  0.00     0.120 C 
HETATM    9  N4  UNL     1      -2.696   2.327   1.013  1.00  0.00    -0.384 N 
ATOM     10  H4  UNL     1      -2.565   2.945   1.814  1.00  0.00     0.160 HD
ENDROOT
BRANCH   2  11
HETATM   11  N3  UNL     1       1.261  -1.408   0.702  1.00  0.00    -0.383 N 
ATOM     12  H3  UNL     1       1.318  -2.343   0.299  1.00  0.00     0.160 HD
BRANCH  11  13
HETATM   13  C4  UNL     1       2.395  -0.815   1.406  1.00  0.00     0.125 C 
BRANCH  13  14
HETATM   14  C5  UNL     1       2.992   0.345   0.681  1.00  0.00     0.003 C 
HETATM   15  C6  UNL     1       4.160   0.912   1.469  1.00  0.00     0.006 C 
HETATM   16  C7  UNL     1       5.061  -0.059   0.733  1.00  0.00     0.001 C 
HETATM   17  C8  UNL     1       4.033  -0.055  -0.380  1.00  0.00     0.006 C 
ENDBRANCH  13  14
ENDBRANCH  11  13
ENDBRANCH   2  11
BRANCH   1  18
HETATM   18  C1  UNL     1      -1.393  -2.141  -0.726  1.00  0.00     0.123 C 
HETATM   19  N1  UNL     1      -0.484  -3.047  -0.810  1.00  0.00    -0.387 N 
ATOM     20  H12 UNL     1      -0.650  -3.924  -1.304  1.00  0.00     0.157 HD
ATOM     21  H11 UNL     1       0.400  -2.809  -0.361  1.00  0.00     0.157 HD
HETATM   22  N2  UNL     1      -2.617  -2.471  -1.348  1.00  0.00    -0.082 NA
ENDBRANCH   1  18
TORSDOF 4
