REMARK  8 active torsions:
REMARK  status: ('A' for Active; 'I' for Inactive)
REMARK    1  A    between atoms: C2_2  and  N2_6 
REMARK    2  A    between atoms: N2_6  and  N3_8 
REMARK    3  A    between atoms: N3_8  and  C3_10 
REMARK    4  A    between atoms: C3_10  and  N4_12 
REMARK    5  A    between atoms: N4_12  and  C4_14 
REMARK    6  A    between atoms: C7_17  and  N5_18 
REMARK    7  A    between atoms: N5_18  and  C8_20 
REMARK    8  A    between atoms: C8_20  and  C9_21 
ROOT
HETATM    1  N4  UNL     1       1.632   0.073  -0.110  1.00  0.00    -0.326 N 
ATOM      2  H4  UNL     1       2.089  -0.581   0.526  1.00  0.00     0.169 HD
ENDROOT
BRANCH   1   3
HETATM    3  C3  UNL     1       2.369   1.117  -0.676  1.00  0.00     0.191 C 
HETATM    4  S1  UNL     1       1.654   2.179  -1.702  1.00  0.00    -0.039 SA
BRANCH   3   5
HETATM    5  N3  UNL     1       3.756   1.250  -0.352  1.00  0.00    -0.275 N 
ATOM      6  H3  UNL     1       4.279   2.017  -0.774  1.00  0.00     0.189 HD
BRANCH   5   7
HETATM    7  N2  UNL     1       4.423   0.396   0.500  1.00  0.00    -0.288 N 
ATOM      8  H2  UNL     1       4.234   0.460   1.500  1.00  0.00     0.188 HD
BRANCH   7   9
HETATM    9  C2  UNL     1       5.362  -0.569   0.048  1.00  0.00     0.085 C 
HETATM   10  C1  UNL     1       6.820  -0.420   0.236  1.00  0.00     0.090 C 
HETATM   11  N1  UNL     1       4.943  -1.630  -0.557  1.00  0.00    -0.388 N 
ATOM     12  H12 UNL     1       5.617  -2.323  -0.882  1.00  0.00     0.157 HD
ATOM     13  H11 UNL     1       3.937  -1.733  -0.687  1.00  0.00     0.157 HD
ENDBRANCH   7   9
ENDBRANCH   5   7
ENDBRANCH   3   5
ENDBRANCH   1   3
BRANCH   1  14
HETATM   14  C4  UNL     1       0.239  -0.087  -0.415  1.00  0.00     0.078 A 
HETATM   15  C5  UNL     1      -0.618  -1.050   0.053  1.00  0.00     0.040 A 
HETATM   16  C6  UNL     1      -1.891  -1.000  -0.375  1.00  0.00     0.040 A 
HETATM   17  C7  UNL     1      -2.221   0.007  -1.241  1.00  0.00     0.082 A 
HETATM   18  S2  UNL     1      -0.759   0.850  -1.433  1.00  0.00    -0.054 SA
BRANCH  17  19
HETATM   19  N5  UNL     1      -3.537   0.213  -1.801  1.00  0.00    -0.320 N 
ATOM     20  H5  UNL     1      -3.706   0.296  -2.803  1.00  0.00     0.176 HD
BRANCH  19  21
HETATM   21  C8  UNL     1      -4.484   0.283  -0.919  1.00  0.00    -0.066 C 
BRANCH  21  22
HETATM   22  C9  UNL     1      -5.226   0.318   0.144  1.00  0.00     0.066 C 
HETATM   23  C10 UNL     1      -5.470   1.600   0.810  1.00  0.00     0.024 C 
HETATM   24  C11 UNL     1      -5.799  -0.926   0.663  1.00  0.00     0.024 C 
ENDBRANCH  21  22
ENDBRANCH  19  21
ENDBRANCH  17  19
ENDBRANCH   1  14
TORSDOF 8
