REMARK  4 active torsions:
REMARK  status: ('A' for Active; 'I' for Inactive)
REMARK       I    between atoms: C1_4  and  N2_5 
REMARK       I    between atoms: C1_4  and  N4_21 
REMARK    1  A    between atoms: N2_5  and  C2_7 
REMARK    2  A    between atoms: C7_12  and  N3_13 
REMARK    3  A    between atoms: N3_13  and  C8_15 
REMARK    4  A    between atoms: N4_21  and  N5_23 
ROOT
HETATM    1  C2  UNL     1      -1.210  -0.249   0.199  1.00  0.00     0.075 A 
HETATM    2  C3  UNL     1      -2.060  -1.298   0.475  1.00  0.00     0.032 A 
HETATM    3  C4  UNL     1      -1.645  -2.602   0.629  1.00  0.00     0.002 A 
HETATM    4  C5  UNL     1      -0.294  -2.822   0.490  1.00  0.00     0.002 A 
HETATM    5  C6  UNL     1       0.620  -1.826   0.214  1.00  0.00     0.032 A 
HETATM    6  C7  UNL     1       0.156  -0.514   0.066  1.00  0.00     0.060 A 
ENDROOT
BRANCH   1   7
HETATM    7  N2  UNL     1      -1.779   1.050   0.078  1.00  0.00    -0.189 N 
HETATM    8  C1  UNL     1      -3.185   1.249   0.211  1.00  0.00     0.695 C 
HETATM    9  N1  UNL     1      -3.640   1.779   1.286  1.00  0.00    -0.233 N 
HETATM   10  N4  UNL     1      -4.074   0.875  -0.814  1.00  0.00    -0.072 N 
ATOM     11  H12 UNL     1      -2.996   2.050   2.029  1.00  0.00     0.174 HD
ATOM     12  H11 UNL     1      -4.646   1.921   1.381  1.00  0.00     0.174 HD
ATOM     13  H4  UNL     1      -3.699   0.741  -1.753  1.00  0.00     0.212 HD
ATOM     14  H2  UNL     1      -1.173   1.849  -0.106  1.00  0.00     0.184 HD
BRANCH  10  15
HETATM   15  N5  UNL     1      -5.434   0.678  -0.617  1.00  0.00    -0.024 N 
HETATM   16  O1  UNL     1      -6.107   1.617  -0.169  1.00  0.00    -0.516 OA
HETATM   17  O2  UNL     1      -6.001  -0.529  -0.915  1.00  0.00    -0.516 OA
ENDBRANCH  10  15
ENDBRANCH   1   7
BRANCH   6  18
HETATM   18  N3  UNL     1       0.999   0.544  -0.261  1.00  0.00    -0.354 N 
ATOM     19  H3  UNL     1       0.554   1.406  -0.575  1.00  0.00     0.166 HD
BRANCH  18  20
HETATM   20  C8  UNL     1       2.412   0.541  -0.201  1.00  0.00     0.032 A 
HETATM   21  C9  UNL     1       3.158  -0.087   0.763  1.00  0.00     0.029 A 
HETATM   22  C10 UNL     1       4.556  -0.060   0.736  1.00  0.00     0.002 A 
HETATM   23  C11 UNL     1       5.252   0.595  -0.255  1.00  0.00     0.000 A 
HETATM   24  C12 UNL     1       4.516   1.231  -1.230  1.00  0.00     0.002 A 
HETATM   25  C13 UNL     1       3.141   1.201  -1.199  1.00  0.00     0.029 A 
ENDBRANCH  18  20
ENDBRANCH   6  18
TORSDOF 4
