REMARK  5 active torsions:
REMARK  status: ('A' for Active; 'I' for Inactive)
REMARK    1  A    between atoms: C3_4  and  C4_5 
REMARK    2  A    between atoms: C7_8  and  N2_9 
REMARK    3  A    between atoms: N2_9  and  C8_11 
REMARK    4  A    between atoms: C11_14  and  C12_15 
REMARK    5  A    between atoms: N4_17  and  N5_19 
ROOT
HETATM    1  N1  UNL     1       8.565   1.694   0.547  1.00  0.00    -0.192 NA
HETATM    2  C1  UNL     1       7.591   1.055   0.429  1.00  0.00     0.087 C 
HETATM    3  C2  UNL     1       6.395   0.286   0.305  1.00  0.00     0.094 C 
HETATM    4  C3  UNL     1       5.271   0.882   0.004  1.00  0.00     0.022 C 
ENDROOT
BRANCH   4   5
HETATM    5  C4  UNL     1       3.979   0.216  -0.153  1.00  0.00    -0.035 A 
HETATM    6  C5  UNL     1       2.851   0.942  -0.473  1.00  0.00     0.013 A 
HETATM    7  C6  UNL     1       1.593   0.381  -0.638  1.00  0.00     0.030 A 
HETATM    8  C7  UNL     1       1.420  -0.973  -0.481  1.00  0.00     0.032 A 
HETATM    9  C15 UNL     1       2.569  -1.718  -0.154  1.00  0.00     0.030 A 
HETATM   10  C16 UNL     1       3.808  -1.140   0.004  1.00  0.00     0.013 A 
BRANCH   8  11
HETATM   11  N2  UNL     1       0.195  -1.651  -0.598  1.00  0.00    -0.356 N 
ATOM     12  H2  UNL     1       0.216  -2.635  -0.864  1.00  0.00     0.166 HD
BRANCH  11  13
HETATM   13  C8  UNL     1      -1.059  -1.056  -0.371  1.00  0.00     0.032 A 
HETATM   14  C9  UNL     1      -2.182  -1.612  -1.020  1.00  0.00     0.030 A 
HETATM   15  C10 UNL     1      -3.433  -1.098  -0.813  1.00  0.00     0.017 A 
HETATM   16  C11 UNL     1      -3.664  -0.007   0.043  1.00  0.00     0.006 A 
HETATM   17  C13 UNL     1      -2.564   0.514   0.659  1.00  0.00     0.017 A 
HETATM   18  C14 UNL     1      -1.293   0.009   0.464  1.00  0.00     0.030 A 
BRANCH  16  19
HETATM   19  C12 UNL     1      -5.024   0.481   0.209  1.00  0.00     0.140 C 
HETATM   20  N3  UNL     1      -6.053  -0.214  -0.538  1.00  0.00    -0.080 NA
HETATM   21  N4  UNL     1      -5.424   1.433   0.921  1.00  0.00    -0.294 N 
ATOM     22  H4  UNL     1      -6.433   1.569   0.859  1.00  0.00     0.187 HD
BRANCH  21  23
HETATM   23  N5  UNL     1      -4.829   2.326   1.756  1.00  0.00    -0.344 N 
ATOM     24  H52 UNL     1      -3.822   2.171   1.802  1.00  0.00     0.176 HD
ATOM     25  H51 UNL     1      -5.154   3.100   2.335  1.00  0.00     0.176 HD
ENDBRANCH  21  23
ENDBRANCH  16  19
ENDBRANCH  11  13
ENDBRANCH   8  11
ENDBRANCH   4   5
TORSDOF 5
