REMARK  3 active torsions:
REMARK  status: ('A' for Active; 'I' for Inactive)
REMARK       I    between atoms: C1_4  and  N2_5 
REMARK       I    between atoms: C1_4  and  N4_15 
REMARK    1  A    between atoms: N2_5  and  N3_7 
REMARK    2  A    between atoms: N4_15  and  C8_17 
REMARK    3  A    between atoms: C11_20  and  N5_21 
ROOT
HETATM    1  N1  UNL     1       0.486   1.504   1.586  1.00  0.00    -0.233 N 
ATOM      2  H11 UNL     1       1.162   2.125   2.031  1.00  0.00     0.174 HD
ATOM      3  H12 UNL     1      -0.333   1.158   2.086  1.00  0.00     0.174 HD
HETATM    4  C1  UNL     1       0.615   1.105   0.353  1.00  0.00     0.690 C 
HETATM    5  N2  UNL     1      -0.319   0.246  -0.262  1.00  0.00    -0.133 N 
ATOM      6  H2  UNL     1      -0.371   0.180  -1.279  1.00  0.00     0.205 HD
HETATM    7  N4  UNL     1       1.756   1.587  -0.344  1.00  0.00    -0.191 N 
ATOM      8  H4  UNL     1       1.709   2.450  -0.885  1.00  0.00     0.184 HD
ENDROOT
BRANCH   5   9
HETATM    9  N3  UNL     1      -1.170  -0.512   0.540  1.00  0.00    -0.295 N 
HETATM   10  C2  UNL     1      -2.427  -0.351   0.448  1.00  0.00     0.004 C 
HETATM   11  C3  UNL     1      -3.355  -1.128   1.274  1.00  0.00     0.054 C 
HETATM   12  C7  UNL     1      -2.976   0.639  -0.509  1.00  0.00     0.054 C 
HETATM   13  C4  UNL     1      -4.713  -0.446   1.207  1.00  0.00     0.006 C 
HETATM   14  C5  UNL     1      -5.177  -0.508  -0.225  1.00  0.00     0.001 C 
HETATM   15  C6  UNL     1      -4.151  -0.038  -1.208  1.00  0.00     0.006 C 
ATOM     16  H3  UNL     1      -0.786  -1.192   1.197  1.00  0.00     0.186 HD
ENDBRANCH   5   9
BRANCH   7  17
HETATM   17  C8  UNL     1       2.961   0.844  -0.272  1.00  0.00     0.049 A 
HETATM   18  C9  UNL     1       4.076   1.310  -0.950  1.00  0.00     0.032 A 
HETATM   19  C10 UNL     1       5.278   0.635  -0.922  1.00  0.00     0.038 A 
HETATM   20  C11 UNL     1       5.380  -0.544  -0.195  1.00  0.00     0.103 A 
HETATM   21  C12 UNL     1       4.242  -0.997   0.482  1.00  0.00     0.038 A 
HETATM   22  C13 UNL     1       3.046  -0.324   0.452  1.00  0.00     0.032 A 
BRANCH  20  23
HETATM   23  N5  UNL     1       6.600  -1.249  -0.153  1.00  0.00    -0.116 N 
HETATM   24  O1  UNL     1       6.685  -2.294   0.492  1.00  0.00    -0.532 OA
HETATM   25  O2  UNL     1       7.678  -0.771  -0.826  1.00  0.00    -0.532 OA
ENDBRANCH  20  23
ENDBRANCH   7  17
TORSDOF 3
