REMARK  4 active torsions:
REMARK  status: ('A' for Active; 'I' for Inactive)
REMARK    1  A    between atoms: C4_5  and  C5_6 
REMARK    2  A    between atoms: C5_6  and  O2_7 
REMARK    3  A    between atoms: C6_10  and  N1_11 
REMARK    4  A    between atoms: C10_17  and  O4_18 
ROOT
HETATM    1  C1  UNL     1      -2.412  -3.779  -0.079  1.00  0.00     0.015 C 
HETATM    2  C2  UNL     1      -1.990  -2.687   0.148  1.00  0.00    -0.082 C 
HETATM    3  C3  UNL     1      -1.454  -1.369   0.428  1.00  0.00     0.235 C 
HETATM    4  O1  UNL     1      -2.182  -0.354  -0.233  1.00  0.00    -0.339 OA
HETATM    5  C4  UNL     1      -1.638   0.864   0.147  1.00  0.00     0.287 C 
HETATM    6  O3  UNL     1      -0.340   1.026  -0.361  1.00  0.00    -0.330 OA
HETATM    7  C6  UNL     1       0.459   0.085   0.278  1.00  0.00     0.278 C 
HETATM    8  C10 UNL     1      -0.040  -1.282  -0.131  1.00  0.00     0.209 C 
ENDROOT
BRANCH   8   9
HETATM    9  O4  UNL     1       0.763  -2.302   0.343  1.00  0.00    -0.388 OA
ATOM     10  H4  UNL     1       1.645  -2.248  -0.006  1.00  0.00     0.210 HD
ENDBRANCH   8   9
BRANCH   5  11
HETATM   11  C5  UNL     1      -2.537   1.996  -0.341  1.00  0.00     0.224 C 
BRANCH  11  12
HETATM   12  O2  UNL     1      -2.011   3.222   0.029  1.00  0.00    -0.396 OA
ATOM     13  H2  UNL     1      -2.571   3.927  -0.275  1.00  0.00     0.209 HD
ENDBRANCH  11  12
ENDBRANCH   5  11
BRANCH   7  14
HETATM   14  N1  UNL     1       1.844   0.291   0.016  1.00  0.00    -0.272 N 
HETATM   15  C7  UNL     1       2.415   1.501  -0.107  1.00  0.00     0.114 A 
HETATM   16  C8  UNL     1       3.768   1.283  -0.358  1.00  0.00     0.037 A 
HETATM   17  C9  UNL     1       3.959  -0.079  -0.377  1.00  0.00     0.108 A 
HETATM   18  N2  UNL     1       2.755  -0.640  -0.144  1.00  0.00    -0.308 N 
ATOM     19  H2  UNL     1       2.578  -1.643  -0.099  1.00  0.00     0.186 HD
ENDBRANCH   7  14
TORSDOF 4
