REMARK  4 active torsions:
REMARK  status: ('A' for Active; 'I' for Inactive)
REMARK    1  A    between atoms: O1_1  and  C1_3 
REMARK    2  A    between atoms: C1_3  and  C2_4 
REMARK    3  A    between atoms: C4_7  and  O3_8 
REMARK    4  A    between atoms: C7_12  and  N1_13 
ROOT
HETATM    1  C2  UNL     1      -1.578  -0.957  -0.289  1.00  0.00     0.286 C 
HETATM    2  O2  UNL     1      -2.010   0.324  -0.144  1.00  0.00    -0.351 OA
HETATM    3  C3  UNL     1      -1.304   1.127   0.692  1.00  0.00     0.162 C 
HETATM    4  C4  UNL     1      -1.219   2.540   0.112  1.00  0.00     0.148 C 
HETATM    5  C5  UNL     1       0.248   2.337  -0.201  1.00  0.00     0.046 C 
HETATM    6  C6  UNL     1       0.192   1.042   0.547  1.00  0.00     0.070 C 
HETATM    7  C7  UNL     1       0.514  -0.199  -0.239  1.00  0.00     0.253 C 
HETATM    8  O4  UNL     1      -0.329  -1.214   0.273  1.00  0.00    -0.333 OA
ENDROOT
BRANCH   7   9
HETATM    9  N1  UNL     1       1.895  -0.590  -0.118  1.00  0.00    -0.274 N 
HETATM   10  C8  UNL     1       2.376  -1.752  -0.591  1.00  0.00     0.114 A 
HETATM   11  C9  UNL     1       3.738  -1.833  -0.319  1.00  0.00     0.037 A 
HETATM   12  C10 UNL     1       4.035  -0.658   0.338  1.00  0.00     0.108 A 
HETATM   13  N2  UNL     1       2.901   0.079   0.448  1.00  0.00    -0.308 N 
ATOM     14  H2  UNL     1       2.829   0.995   0.891  1.00  0.00     0.186 HD
ENDBRANCH   7   9
BRANCH   1  15
HETATM   15  C1  UNL     1      -2.606  -1.974   0.174  1.00  0.00     0.224 C 
BRANCH  15  16
HETATM   16  O1  UNL     1      -2.898  -1.775   1.523  1.00  0.00    -0.396 OA
ATOM     17  H1  UNL     1      -3.541  -2.411   1.813  1.00  0.00     0.209 HD
ENDBRANCH  15  16
ENDBRANCH   1  15
BRANCH   4  18
HETATM   18  O3  UNL     1      -1.999   2.725  -1.029  1.00  0.00    -0.393 OA
ATOM     19  H3  UNL     1      -1.946   3.602  -1.389  1.00  0.00     0.210 HD
ENDBRANCH   4  18
TORSDOF 4
