REMARK  5 active torsions:
REMARK  status: ('A' for Active; 'I' for Inactive)
REMARK    1  A    between atoms: O1_2  and  C2_3 
REMARK    2  A    between atoms: C2_3  and  C3_4 
REMARK    3  A    between atoms: C5_6  and  O2_7 
REMARK    4  A    between atoms: C8_14  and  C9_15 
REMARK    5  A    between atoms: C9_15  and  O6_16 
ROOT
HETATM    1  C3  UNL     1       1.137  -0.603   0.039  1.00  0.00     0.027 C 
HETATM    2  C4  UNL     1       0.509  -1.983  -0.119  1.00  0.00     0.076 C 
HETATM    3  C5  UNL     1      -0.557  -1.345  -0.951  1.00  0.00     0.169 C 
HETATM    4  O3  UNL     1      -1.852  -1.641  -0.674  1.00  0.00    -0.352 OA
HETATM    5  C6  UNL     1      -2.319  -1.356   0.571  1.00  0.00     0.209 C 
HETATM    6  C7  UNL     1      -1.945  -0.042   1.142  1.00  0.00     0.224 C 
HETATM    7  O4  UNL     1      -1.003  -0.063   2.185  1.00  0.00    -0.229 OA
HETATM    8  O5  UNL     1      -0.477   1.022   1.627  1.00  0.00    -0.223 OA
HETATM    9  C8  UNL     1      -0.986   0.762   0.349  1.00  0.00     0.157 C 
HETATM   10  C10 UNL     1      -0.101   0.020  -0.563  1.00  0.00     0.097 C 
ENDROOT
BRANCH   1  11
HETATM   11  C2  UNL     1       2.400  -0.420  -0.760  1.00  0.00     0.172 C 
BRANCH  11  12
HETATM   12  O1  UNL     1       2.968   0.832  -0.617  1.00  0.00    -0.396 OA
HETATM   13  C1  UNL     1       3.322   1.139   0.672  1.00  0.00     0.201 C 
ENDBRANCH  11  12
ENDBRANCH   1  11
BRANCH   3  14
HETATM   14  O2  UNL     1      -0.294  -1.568  -2.306  1.00  0.00    -0.365 OA
ATOM     15  H2  UNL     1      -0.971  -1.163  -2.835  1.00  0.00     0.213 HD
ENDBRANCH   3  14
BRANCH   9  16
HETATM   16  C9  UNL     1      -1.672   1.949  -0.296  1.00  0.00     0.209 C 
BRANCH  16  17
HETATM   17  O6  UNL     1      -2.736   2.358   0.484  1.00  0.00    -0.398 OA
ATOM     18  H6  UNL     1      -3.166   3.102   0.080  1.00  0.00     0.209 HD
ENDBRANCH  16  17
ENDBRANCH   9  16
TORSDOF 5
