REMARK  3 active torsions:
REMARK  status: ('A' for Active; 'I' for Inactive)
REMARK    1  A    between atoms: C7_9  and  O3_10 
REMARK    2  A    between atoms: C8_12  and  C9_13 
REMARK    3  A    between atoms: C9_13  and  O4_14 
ROOT
HETATM    1  C1  UNL     1      -3.178  -1.620  -0.063  1.00  0.00     0.059 C 
HETATM    2  C2  UNL     1      -2.309  -0.401  -0.266  1.00  0.00     0.220 C 
HETATM    3  O1  UNL     1      -3.059   0.725  -0.560  1.00  0.00    -0.365 OA
HETATM    4  C3  UNL     1      -2.613   1.765   0.208  1.00  0.00     0.220 C 
HETATM    5  C4  UNL     1      -1.224   1.327   0.621  1.00  0.00     0.251 C 
HETATM    6  O2  UNL     1      -0.355   1.232  -0.450  1.00  0.00    -0.329 OA
HETATM    7  C5  UNL     1       0.439   0.150  -0.086  1.00  0.00     0.196 C 
HETATM    8  C6  UNL     1       0.989  -0.676  -1.198  1.00  0.00     0.103 C 
HETATM    9  C7  UNL     1       2.266   0.149  -1.126  1.00  0.00     0.134 C 
HETATM   10  C8  UNL     1       1.823   0.570   0.275  1.00  0.00     0.102 C 
HETATM   11  O5  UNL     1      -0.258  -0.604   0.819  1.00  0.00    -0.258 OA
HETATM   12  N1  UNL     1      -1.493  -0.098   0.883  1.00  0.00    -0.133 NA
ENDROOT
BRANCH  10  13
HETATM   13  C9  UNL     1       2.538  -0.233   1.308  1.00  0.00     0.176 C 
BRANCH  13  14
HETATM   14  O4  UNL     1       3.800   0.320   1.496  1.00  0.00    -0.400 OA
ATOM     15  H4  UNL     1       4.256  -0.192   2.154  1.00  0.00     0.209 HD
ENDBRANCH  13  14
ENDBRANCH  10  13
BRANCH   9  16
HETATM   16  O3  UNL     1       3.368  -0.672  -1.163  1.00  0.00    -0.395 OA
ATOM     17  H3  UNL     1       4.165  -0.157  -1.118  1.00  0.00     0.210 HD
ENDBRANCH   9  16
TORSDOF 3
