REMARK  4 active torsions:
REMARK  status: ('A' for Active; 'I' for Inactive)
REMARK    1  A    between atoms: O1_1  and  C1_3 
REMARK    2  A    between atoms: C1_3  and  C2_4 
REMARK    3  A    between atoms: C7_13  and  C8_14 
REMARK    4  A    between atoms: C8_14  and  O5_15 
ROOT
HETATM    1  C2  UNL     1      -1.299  -0.573   0.362  1.00  0.00     0.176 C 
HETATM    2  O2  UNL     1      -0.777  -1.491  -0.583  1.00  0.00    -0.376 OA
HETATM    3  C3  UNL     1       0.468  -1.857  -0.031  1.00  0.00     0.237 C 
HETATM    4  C4  UNL     1       1.385  -0.679  -0.072  1.00  0.00     0.195 C 
HETATM    5  C5  UNL     1       2.213  -0.754   1.227  1.00  0.00     0.147 C 
HETATM    6  S1  UNL     1       3.576   0.352   0.667  1.00  0.00    -0.138 SA
HETATM    7  C6  UNL     1       3.164   0.206  -1.122  1.00  0.00     0.245 C 
HETATM    8  O3  UNL     1       2.321  -0.902  -1.077  1.00  0.00    -0.342 OA
HETATM    9  O4  UNL     1       0.805   0.542  -0.108  1.00  0.00    -0.342 OA
HETATM   10  C7  UNL     1      -0.478   0.675   0.365  1.00  0.00     0.179 C 
ENDROOT
BRANCH  10  11
HETATM   11  C8  UNL     1      -1.213   1.845  -0.245  1.00  0.00     0.198 C 
BRANCH  11  12
HETATM   12  O5  UNL     1      -0.540   3.057   0.046  1.00  0.00    -0.398 OA
ATOM     13  H5  UNL     1      -1.002   3.793  -0.338  1.00  0.00     0.209 HD
ENDBRANCH  11  12
ENDBRANCH  10  11
BRANCH   1  14
HETATM   14  C1  UNL     1      -2.748  -0.371   0.108  1.00  0.00     0.198 C 
BRANCH  14  15
HETATM   15  O1  UNL     1      -2.999   0.101  -1.159  1.00  0.00    -0.398 OA
ATOM     16  H1  UNL     1      -3.926   0.230  -1.322  1.00  0.00     0.209 HD
ENDBRANCH  14  15
ENDBRANCH   1  14
TORSDOF 4
