REMARK  4 active torsions:
REMARK  status: ('A' for Active; 'I' for Inactive)
REMARK    1  A    between atoms: C2_3  and  C3_4 
REMARK    2  A    between atoms: C4_6  and  N2_7 
REMARK    3  A    between atoms: C8_13  and  O2_14 
REMARK    4  A    between atoms: C9_18  and  O3_19 
ROOT
HETATM    1  N1  UNL     1      -4.509   2.292   0.380  1.00  0.00    -0.197 NA
HETATM    2  C1  UNL     1      -3.385   2.195   0.131  1.00  0.00     0.061 C 
HETATM    3  C2  UNL     1      -1.982   2.078  -0.183  1.00  0.00     0.160 C 
ENDROOT
BRANCH   3   4
HETATM    4  C3  UNL     1      -1.382   0.766   0.325  1.00  0.00     0.185 C 
HETATM    5  O1  UNL     1      -0.029   0.800  -0.053  1.00  0.00    -0.350 OA
HETATM    6  C4  UNL     1       0.589  -0.266   0.548  1.00  0.00     0.291 C 
HETATM    7  C8  UNL     1       0.030  -1.594   0.172  1.00  0.00     0.266 C 
HETATM    8  N4  UNL     1      -1.291  -1.608  -0.311  1.00  0.00    -0.366 N 
HETATM    9  C9  UNL     1      -1.997  -0.396  -0.381  1.00  0.00     0.245 C 
ATOM     10  H4  UNL     1      -1.728  -2.482  -0.605  1.00  0.00     0.158 HD
BRANCH   6  11
HETATM   11  N2  UNL     1       2.021  -0.158   0.280  1.00  0.00    -0.270 N 
HETATM   12  C5  UNL     1       2.680   0.966  -0.061  1.00  0.00     0.114 A 
HETATM   13  C6  UNL     1       4.011   0.685  -0.233  1.00  0.00     0.037 A 
HETATM   14  C7  UNL     1       4.148  -0.660   0.016  1.00  0.00     0.108 A 
HETATM   15  N3  UNL     1       2.924  -1.132   0.323  1.00  0.00    -0.308 N 
ATOM     16  H3  UNL     1       2.719  -2.103   0.556  1.00  0.00     0.186 HD
ENDBRANCH   6  11
BRANCH   7  17
HETATM   17  O2  UNL     1       0.858  -2.205  -0.799  1.00  0.00    -0.372 OA
ATOM     18  H2  UNL     1       0.501  -3.052  -1.039  1.00  0.00     0.212 HD
ENDBRANCH   7  17
BRANCH   9  19
HETATM   19  O3  UNL     1      -3.285  -0.574   0.141  1.00  0.00    -0.374 OA
ATOM     20  H3  UNL     1      -3.677  -1.314  -0.308  1.00  0.00     0.212 HD
ENDBRANCH   9  19
ENDBRANCH   3   4
TORSDOF 4
