REMARK  4 active torsions:
REMARK  status: ('A' for Active; 'I' for Inactive)
REMARK    1  A    between atoms: O1_2  and  C2_3 
REMARK    2  A    between atoms: C5_7  and  S1_8 
REMARK    3  A    between atoms: C7_11  and  O3_12 
REMARK    4  A    between atoms: C8_14  and  O4_15 
ROOT
HETATM    1  S1  UNL     1      -1.240   1.260   1.822  1.00  0.00    -0.041 SA
HETATM    2  C6  UNL     1      -2.090   0.363   3.082  1.00  0.00     0.134 C 
HETATM    3  N1  UNL     1      -2.633  -0.231   3.915  1.00  0.00    -0.184 NA
ENDROOT
BRANCH   1   4
HETATM    4  C5  UNL     1      -1.285   0.222   0.320  1.00  0.00     0.122 C 
HETATM    5  C3  UNL     1      -0.571   0.952  -0.774  1.00  0.00     0.138 C 
HETATM    6  O2  UNL     1       0.403   0.190  -1.404  1.00  0.00    -0.352 OA
HETATM    7  C4  UNL     1      -1.518   1.466  -1.840  1.00  0.00     0.041 C 
HETATM    8  C2  UNL     1       1.293  -0.290  -0.443  1.00  0.00     0.290 C 
HETATM    9  C8  UNL     1       0.602  -1.437   0.245  1.00  0.00     0.203 C 
HETATM   10  C7  UNL     1      -0.809  -1.149   0.597  1.00  0.00     0.168 C 
BRANCH   8  11
HETATM   11  O1  UNL     1       1.612   0.702   0.466  1.00  0.00    -0.363 OA
HETATM   12  C1  UNL     1       2.997   0.874   0.528  1.00  0.00     0.204 C 
ENDBRANCH   8  11
BRANCH   9  13
HETATM   13  O4  UNL     1       0.745  -2.557  -0.596  1.00  0.00    -0.388 OA
ATOM     14  H4  UNL     1       0.309  -3.281  -0.162  1.00  0.00     0.210 HD
ENDBRANCH   9  13
BRANCH  10  15
HETATM   15  O3  UNL     1      -1.617  -2.088  -0.085  1.00  0.00    -0.392 OA
ATOM     16  H3  UNL     1      -1.311  -2.970   0.093  1.00  0.00     0.210 HD
ENDBRANCH  10  15
ENDBRANCH   1   4
TORSDOF 4
