REMARK  4 active torsions:
REMARK  status: ('A' for Active; 'I' for Inactive)
REMARK    1  A    between atoms: C2_2  and  O1_3 
REMARK    2  A    between atoms: O1_3  and  C3_4 
REMARK    3  A    between atoms: C8_12  and  O5_13 
REMARK    4  A    between atoms: C9_15  and  O6_16 
ROOT
HETATM    1  C3  UNL     1       0.844   0.303  -0.045  1.00  0.00     0.294 C 
HETATM    2  O2  UNL     1       0.423   1.618  -0.177  1.00  0.00    -0.327 OA
HETATM    3  C4  UNL     1      -0.737   1.917   0.470  1.00  0.00     0.290 C 
HETATM    4  C5  UNL     1      -1.818   2.134  -0.592  1.00  0.00     0.232 C 
HETATM    5  O3  UNL     1      -2.214   0.824  -0.837  1.00  0.00    -0.348 OA
HETATM    6  C6  UNL     1      -2.020   0.100   0.316  1.00  0.00     0.192 C 
HETATM    7  C7  UNL     1      -3.375  -0.290   0.856  1.00  0.00     0.082 C 
HETATM    8  O4  UNL     1      -1.285   0.872   1.197  1.00  0.00    -0.321 OA
HETATM    9  C8  UNL     1      -1.161  -1.134   0.027  1.00  0.00     0.213 C 
HETATM   10  C9  UNL     1      -0.024  -0.651  -0.857  1.00  0.00     0.207 C 
ENDROOT
BRANCH   1  11
HETATM   11  O1  UNL     1       2.124   0.228  -0.595  1.00  0.00    -0.359 OA
BRANCH  11  12
HETATM   12  C2  UNL     1       3.025  -0.221   0.369  1.00  0.00     0.166 C 
HETATM   13  C1  UNL     1       4.411  -0.303  -0.225  1.00  0.00     0.033 C 
ENDBRANCH  11  12
ENDBRANCH   1  11
BRANCH  10  14
HETATM   14  O6  UNL     1       0.762  -1.770  -1.136  1.00  0.00    -0.388 OA
ATOM     15  H6  UNL     1       0.221  -2.365  -1.642  1.00  0.00     0.210 HD
ENDBRANCH  10  14
BRANCH   9  16
HETATM   16  O5  UNL     1      -1.878  -2.154  -0.534  1.00  0.00    -0.387 OA
ATOM     17  H5  UNL     1      -1.345  -2.920  -0.713  1.00  0.00     0.210 HD
ENDBRANCH   9  16
TORSDOF 4
