REMARK  4 active torsions:
REMARK  status: ('A' for Active; 'I' for Inactive)
REMARK    1  A    between atoms: O1_2  and  C2_3 
REMARK    2  A    between atoms: C6_9  and  O4_10 
REMARK    3  A    between atoms: C7_12  and  O5_13 
REMARK    4  A    between atoms: C8_15  and  O6_16 
ROOT
HETATM    1  C2  UNL     1      -1.661   0.312   0.703  1.00  0.00     0.294 C 
HETATM    2  O2  UNL     1      -0.599  -0.503   1.081  1.00  0.00    -0.320 OA
HETATM    3  C3  UNL     1       0.193  -0.887   0.013  1.00  0.00     0.192 C 
HETATM    4  C4  UNL     1       0.429  -2.364   0.060  1.00  0.00     0.082 C 
HETATM    5  O3  UNL     1      -0.381  -0.589  -1.223  1.00  0.00    -0.342 OA
HETATM    6  C5  UNL     1      -0.235   0.817  -1.279  1.00  0.00     0.190 C 
HETATM    7  C6  UNL     1      -1.188   1.390  -0.282  1.00  0.00     0.205 C 
HETATM    8  C7  UNL     1       1.204   1.002  -0.943  1.00  0.00     0.184 C 
HETATM    9  C8  UNL     1       1.467  -0.081   0.077  1.00  0.00     0.214 C 
ENDROOT
BRANCH   1  10
HETATM   10  O1  UNL     1      -2.587  -0.512   0.054  1.00  0.00    -0.363 OA
HETATM   11  C1  UNL     1      -3.751  -0.495   0.801  1.00  0.00     0.204 C 
ENDBRANCH   1  10
BRANCH   7  12
HETATM   12  O4  UNL     1      -0.743   2.519   0.358  1.00  0.00    -0.388 OA
ATOM     13  H4  UNL     1      -0.450   3.186  -0.252  1.00  0.00     0.210 HD
ENDBRANCH   7  12
BRANCH   9  14
HETATM   14  O6  UNL     1       2.592  -0.818  -0.193  1.00  0.00    -0.383 OA
HETATM   15  C9  UNL     1       3.566  -0.746   0.791  1.00  0.00     0.202 C 
ENDBRANCH   9  14
BRANCH   8  16
HETATM   16  O5  UNL     1       1.469   2.266  -0.482  1.00  0.00    -0.390 OA
ATOM     17  H5  UNL     1       2.387   2.384  -0.268  1.00  0.00     0.210 HD
ENDBRANCH   8  16
TORSDOF 4
