REMARK  4 active torsions:
REMARK  status: ('A' for Active; 'I' for Inactive)
REMARK    1  A    between atoms: O1_2  and  C2_3 
REMARK    2  A    between atoms: C4_5  and  O2_6 
REMARK    3  A    between atoms: C6_9  and  C8_11 
REMARK    4  A    between atoms: C8_11  and  O3_12 
ROOT
HETATM    1  C2  UNL     1      -1.338   0.176   0.100  1.00  0.00     0.127 C 
HETATM    2  C3  UNL     1      -2.193  -0.973  -0.473  1.00  0.00     0.053 C 
HETATM    3  C4  UNL     1      -0.377  -0.453   1.087  1.00  0.00     0.159 C 
HETATM    4  C5  UNL     1       0.841  -1.046   0.407  1.00  0.00     0.077 C 
HETATM    5  C6  UNL     1       1.803   0.041  -0.040  1.00  0.00     0.105 C 
HETATM    6  C7  UNL     1       2.072  -0.175  -1.513  1.00  0.00     0.050 C 
HETATM    7  O4  UNL     1       1.144   1.250   0.209  1.00  0.00    -0.263 OA
HETATM    8  N1  UNL     1       0.468   1.572  -0.885  1.00  0.00    -0.031 NA
HETATM    9  O5  UNL     1      -0.653   2.277  -0.876  1.00  0.00    -0.248 OA
HETATM   10  C9  UNL     1      -0.702   0.879  -1.039  1.00  0.00     0.314 A 
ENDROOT
BRANCH   5  11
HETATM   11  C8  UNL     1       3.115  -0.034   0.695  1.00  0.00     0.203 C 
BRANCH  11  12
HETATM   12  O3  UNL     1       2.879   0.071   2.076  1.00  0.00    -0.398 OA
ATOM     13  H3  UNL     1       3.707   0.024   2.540  1.00  0.00     0.209 HD
ENDBRANCH  11  12
ENDBRANCH   5  11
BRANCH   3  14
HETATM   14  O2  UNL     1      -0.978  -1.487   1.802  1.00  0.00    -0.392 OA
ATOM     15  H2  UNL     1      -0.375  -1.882   2.421  1.00  0.00     0.210 HD
ENDBRANCH   3  14
BRANCH   1  16
HETATM   16  O1  UNL     1      -2.227   0.941   0.848  1.00  0.00    -0.379 OA
HETATM   17  C1  UNL     1      -3.290   1.441   0.139  1.00  0.00     0.202 C 
ENDBRANCH   1  16
TORSDOF 4
