REMARK  3 active torsions:
REMARK  status: ('A' for Active; 'I' for Inactive)
REMARK    1  A    between atoms: C5_10  and  C6_11 
REMARK    2  A    between atoms: C9_16  and  C10_17 
REMARK    3  A    between atoms: C10_17  and  O2_18 
ROOT
HETATM    1  N1  UNL     1       1.568   1.417   2.833  1.00  0.00    -0.195 NA
HETATM    2  C1  UNL     1       1.514   1.155   1.707  1.00  0.00     0.085 C 
HETATM    3  C2  UNL     1       1.429   0.836   0.257  1.00  0.00     0.197 C 
HETATM    4  N2  UNL     1       2.791   0.916  -0.233  1.00  0.00    -0.369 N 
ATOM      5  H2  UNL     1       3.196   1.806  -0.523  1.00  0.00     0.161 HD
HETATM    6  C3  UNL     1       3.542  -0.287  -0.295  1.00  0.00     0.172 C 
HETATM    7  N3  UNL     1       2.924  -1.352  -0.678  1.00  0.00    -0.386 N 
ATOM      8  H3  UNL     1       3.414  -2.245  -0.741  1.00  0.00     0.160 HD
HETATM    9  C4  UNL     1       1.528  -1.254  -1.015  1.00  0.00     0.130 C 
HETATM   10  C5  UNL     1       0.781  -0.476   0.047  1.00  0.00     0.067 C 
ENDROOT
BRANCH  10  11
HETATM   11  C6  UNL     1      -0.689  -0.443  -0.212  1.00  0.00     0.106 C 
HETATM   12  C7  UNL     1      -1.245  -1.782  -0.407  1.00  0.00     0.074 C 
HETATM   13  N4  UNL     1      -1.684  -2.842  -0.574  1.00  0.00    -0.196 NA
HETATM   14  C8  UNL     1      -1.187   0.515  -1.239  1.00  0.00     0.196 C 
HETATM   15  O1  UNL     1      -1.596   1.420  -0.259  1.00  0.00    -0.380 OA
HETATM   16  C9  UNL     1      -1.540   0.382   0.669  1.00  0.00     0.170 C 
BRANCH  16  17
HETATM   17  C10 UNL     1      -2.963  -0.160   0.872  1.00  0.00     0.197 C 
BRANCH  17  18
HETATM   18  O2  UNL     1      -3.718   0.918   1.344  1.00  0.00    -0.398 OA
ATOM     19  H2  UNL     1      -4.598   0.583   1.470  1.00  0.00     0.209 HD
ENDBRANCH  17  18
ENDBRANCH  16  17
ENDBRANCH  10  11
TORSDOF 3
