REMARK  4 active torsions:
REMARK  status: ('A' for Active; 'I' for Inactive)
REMARK    1  A    between atoms: O1_2  and  C2_3 
REMARK    2  A    between atoms: C5_7  and  O3_8 
REMARK    3  A    between atoms: C5_7  and  C6_10 
REMARK    4  A    between atoms: C6_10  and  O4_11 
ROOT
HETATM    1  C2  UNL     1       2.522  -0.653   0.617  1.00  0.00     0.298 C 
HETATM    2  C3  UNL     1       1.343  -0.044   1.389  1.00  0.00     0.098 C 
HETATM    3  C4  UNL     1       0.203   0.006   0.410  1.00  0.00     0.162 C 
HETATM    4  O2  UNL     1      -1.023   0.265   1.013  1.00  0.00    -0.345 OA
HETATM    5  C5  UNL     1      -1.902   0.607  -0.014  1.00  0.00     0.183 C 
HETATM    6  C7  UNL     1      -1.998  -0.529  -0.990  1.00  0.00     0.073 C 
HETATM    7  C8  UNL     1      -1.244  -1.757  -0.494  1.00  0.00     0.043 C 
HETATM    8  C9  UNL     1       0.177  -1.348  -0.295  1.00  0.00     0.190 C 
HETATM    9  O5  UNL     1       0.907  -2.219   0.503  1.00  0.00    -0.230 OA
HETATM   10  O6  UNL     1       2.181  -1.956   0.302  1.00  0.00    -0.208 OA
ENDROOT
BRANCH   5  11
HETATM   11  O3  UNL     1      -1.368   1.762  -0.614  1.00  0.00    -0.364 OA
ATOM     12  H3  UNL     1      -1.967   1.995  -1.314  1.00  0.00     0.213 HD
ENDBRANCH   5  11
BRANCH   5  13
HETATM   13  C6  UNL     1      -3.268   0.983   0.511  1.00  0.00     0.232 C 
BRANCH  13  14
HETATM   14  O4  UNL     1      -4.062   1.304  -0.589  1.00  0.00    -0.396 OA
ATOM     15  H4  UNL     1      -4.921   1.540  -0.259  1.00  0.00     0.209 HD
ENDBRANCH  13  14
ENDBRANCH   5  13
BRANCH   1  16
HETATM   16  O1  UNL     1       2.678   0.145  -0.515  1.00  0.00    -0.363 OA
HETATM   17  C1  UNL     1       3.907   0.820  -0.483  1.00  0.00     0.204 C 
ENDBRANCH   1  16
TORSDOF 4
