REMARK  3 active torsions:
REMARK  status: ('A' for Active; 'I' for Inactive)
REMARK    1  A    between atoms: N4_13  and  C9_14 
REMARK    2  A    between atoms: C9_14  and  C10_15 
REMARK    3  A    between atoms: C10_15  and  O2_16 
ROOT
HETATM    1  N1  UNL     1      -1.098  -1.755  -2.634  1.00  0.00    -0.171 NA
HETATM    2  C1  UNL     1      -0.957  -1.576  -1.492  1.00  0.00     0.197 C 
HETATM    3  N2  UNL     1      -0.799  -1.342  -0.120  1.00  0.00    -0.230 N 
HETATM    4  C2  UNL     1       0.120  -2.198   0.587  1.00  0.00     0.297 C 
HETATM    5  N3  UNL     1       1.379  -2.415  -0.117  1.00  0.00    -0.079 NA
HETATM    6  O1  UNL     1       2.434  -1.850   0.459  1.00  0.00    -0.285 OA
HETATM    7  C3  UNL     1       3.048  -0.831  -0.285  1.00  0.00     0.196 C 
HETATM    8  C4  UNL     1       3.124   0.481   0.449  1.00  0.00     0.028 C 
HETATM    9  C5  UNL     1       2.645   1.678  -0.302  1.00  0.00     0.002 C 
HETATM   10  C6  UNL     1       1.239   2.145   0.136  1.00  0.00     0.001 C 
HETATM   11  C7  UNL     1       0.424   0.884   0.112  1.00  0.00     0.016 C 
HETATM   12  C8  UNL     1      -1.059   1.019   0.107  1.00  0.00     0.114 C 
HETATM   13  N4  UNL     1      -1.555  -0.309   0.434  1.00  0.00    -0.217 NA
ENDROOT
BRANCH  13  14
HETATM   14  C9  UNL     1      -2.942  -0.370   0.009  1.00  0.00     0.140 C 
BRANCH  14  15
HETATM   15  C10 UNL     1      -3.750   0.538   0.880  1.00  0.00     0.180 C 
BRANCH  15  16
HETATM   16  O2  UNL     1      -5.104   0.491   0.482  1.00  0.00    -0.400 OA
ATOM     17  H2  UNL     1      -5.617   1.068   1.035  1.00  0.00     0.209 HD
ENDBRANCH  15  16
ENDBRANCH  14  15
ENDBRANCH  13  14
TORSDOF 3
