REMARK  17 active torsions:
REMARK  status: ('A' for Active; 'I' for Inactive)
REMARK    1  A    between atoms: N2_3  and  C2_4 
REMARK    2  A    between atoms: C2_4  and  C3_5 
REMARK    3  A    between atoms: C2_4  and  N5_17 
REMARK    4  A    between atoms: C3_5  and  N3_6 
REMARK    5  A    between atoms: N3_6  and  C4_8 
REMARK    6  A    between atoms: C4_8  and  C5_9 
REMARK    7  A    between atoms: C5_9  and  N4_10 
REMARK       I    between atoms: N4_10  and  C6_12 
REMARK    8  A    between atoms: C6_12  and  C7_14 
REMARK    9  A    between atoms: N5_17  and  C10_19 
REMARK   10  A    between atoms: C10_19  and  C11_20 
REMARK   11  A    between atoms: C11_20  and  N6_21 
REMARK   12  A    between atoms: N6_21  and  C12_24 
REMARK   13  A    between atoms: C12_24  and  C13_25 
REMARK   14  A    between atoms: C13_25  and  C14_26 
REMARK   15  A    between atoms: C14_26  and  N7_27 
REMARK   16  A    between atoms: N7_27  and  C15_30 
REMARK   17  A    between atoms: C15_30  and  C16_31 
ROOT
HETATM    1  N1  UNL     1       4.000   3.512  -2.798  1.00  0.00    -0.156 NA
HETATM    2  C1  UNL     1       3.431   2.918  -1.972  1.00  0.00     0.270 C 
HETATM    3  N2  UNL     1       2.846   2.290  -1.050  1.00  0.00    -0.315 NA
ENDROOT
BRANCH   3   4
HETATM    4  C2  UNL     1       2.282   1.696  -0.181  1.00  0.00     0.182 C 
BRANCH   4   5
HETATM    5  C3  UNL     1       3.161   1.146   0.977  1.00  0.00     0.207 C 
BRANCH   5   6
HETATM    6  N3  UNL     1       4.105   0.246   0.476  1.00  0.00    -0.412 N 
ATOM      7  H3  UNL     1       5.094   0.496   0.470  1.00  0.00     0.153 HD
BRANCH   6   8
HETATM    8  C4  UNL     1       3.687  -1.022  -0.028  1.00  0.00     0.134 C 
BRANCH   8   9
HETATM    9  C5  UNL     1       5.026  -1.564  -0.662  1.00  0.00     0.141 C 
BRANCH   9  10
HETATM   10  N4  UNL     1       6.018  -1.572   0.399  1.00  0.00    -0.359 N 
HETATM   11  C6  UNL     1       7.355  -1.830   0.064  1.00  0.00     0.221 C 
HETATM   12  O1  UNL     1       7.677  -2.052  -1.118  1.00  0.00    -0.273 OA
ATOM     13  H4  UNL     1       5.748  -1.394   1.366  1.00  0.00     0.162 HD
BRANCH  11  14
HETATM   14  C7  UNL     1       8.439  -1.826   1.110  1.00  0.00     0.078 A 
HETATM   15  C8  UNL     1       9.243  -0.515   0.952  1.00  0.00     0.015 A 
HETATM   16  C9  UNL     1       9.858  -1.880   0.768  1.00  0.00     0.015 A 
ENDBRANCH  11  14
ENDBRANCH   9  10
ENDBRANCH   8   9
ENDBRANCH   6   8
ENDBRANCH   5   6
ENDBRANCH   4   5
BRANCH   4  17
HETATM   17  N5  UNL     1       0.910   1.393  -0.079  1.00  0.00    -0.365 N 
ATOM     18  H5  UNL     1       0.445   1.456   0.827  1.00  0.00     0.161 HD
BRANCH  17  19
HETATM   19  C10 UNL     1       0.146   0.990  -1.256  1.00  0.00     0.149 C 
BRANCH  19  20
HETATM   20  C11 UNL     1      -1.198   0.447  -0.756  1.00  0.00     0.251 C 
BRANCH  20  21
HETATM   21  N6  UNL     1      -1.935   1.435  -0.026  1.00  0.00    -0.074 N 
ATOM     22  H62 UNL     1      -1.340   2.047   0.532  1.00  0.00     0.277 HD
ATOM     23  H61 UNL     1      -2.339   2.156  -0.624  1.00  0.00     0.277 HD
BRANCH  21  24
HETATM   24  C12 UNL     1      -2.925   0.728   0.763  1.00  0.00     0.234 C 
BRANCH  24  25
HETATM   25  C13 UNL     1      -3.890   1.636   1.469  1.00  0.00     0.055 C 
BRANCH  25  26
HETATM   26  C14 UNL     1      -4.769   2.399   0.482  1.00  0.00     0.234 C 
BRANCH  26  27
HETATM   27  N7  UNL     1      -5.543   1.408  -0.301  1.00  0.00    -0.071 N 
ATOM     28  H72 UNL     1      -5.962   1.823  -1.133  1.00  0.00     0.277 HD
ATOM     29  H71 UNL     1      -4.937   0.728  -0.761  1.00  0.00     0.277 HD
BRANCH  27  30
HETATM   30  C15 UNL     1      -6.522   0.775   0.531  1.00  0.00     0.270 C 
BRANCH  30  31
HETATM   31  C16 UNL     1      -7.169  -0.340  -0.200  1.00  0.00    -0.033 A 
HETATM   32  C17 UNL     1      -7.340  -1.586   0.427  1.00  0.00     0.009 A 
HETATM   33  C18 UNL     1      -7.927  -2.649  -0.202  1.00  0.00     0.001 A 
HETATM   34  C19 UNL     1      -8.388  -2.543  -1.514  1.00  0.00     0.000 A 
HETATM   35  C20 UNL     1      -8.228  -1.340  -2.140  1.00  0.00     0.001 A 
HETATM   36  C21 UNL     1      -7.626  -0.259  -1.487  1.00  0.00     0.009 A 
ENDBRANCH  30  31
ENDBRANCH  27  30
ENDBRANCH  26  27
ENDBRANCH  25  26
ENDBRANCH  24  25
ENDBRANCH  21  24
ENDBRANCH  20  21
ENDBRANCH  19  20
ENDBRANCH  17  19
ENDBRANCH   4  17
ENDBRANCH   3   4
TORSDOF 17
