REMARK  18 active torsions:
REMARK  status: ('A' for Active; 'I' for Inactive)
REMARK    1  A    between atoms: C2_2  and  C3_3 
REMARK    2  A    between atoms: C3_3  and  N1_4 
REMARK    3  A    between atoms: N1_4  and  C4_6 
REMARK    4  A    between atoms: C5_9  and  N3_10 
REMARK    5  A    between atoms: N3_10  and  C6_12 
REMARK    6  A    between atoms: C6_12  and  C7_13 
REMARK    7  A    between atoms: C7_13  and  C8_14 
REMARK    8  A    between atoms: C9_15  and  C10_16 
REMARK    9  A    between atoms: C10_16  and  N4_17 
REMARK   10  A    between atoms: C11_23  and  N6_24 
REMARK   11  A    between atoms: N6_24  and  C12_26 
REMARK   12  A    between atoms: C12_26  and  C13_27 
REMARK   13  A    between atoms: C13_27  and  C14_28 
REMARK   14  A    between atoms: C14_28  and  C15_29 
REMARK   15  A    between atoms: C15_29  and  N7_30 
REMARK   16  A    between atoms: N7_30  and  C16_33 
REMARK   17  A    between atoms: C16_33  and  C17_34 
REMARK   18  A    between atoms: C17_34  and  N8_35 
ROOT
HETATM    1  C4  UNL     1       0.910  -1.289  -0.063  1.00  0.00     0.707 A 
HETATM    2  N2  UNL     1       2.150  -0.990  -0.464  1.00  0.00    -0.021 N 
ATOM      3  H2  UNL     1       2.719  -1.730  -0.875  1.00  0.00     0.203 HD
HETATM    4  C5  UNL     1       2.682   0.240  -0.351  1.00  0.00     0.710 A 
HETATM    5  N5  UNL     1       1.966   1.243   0.187  1.00  0.00    -0.021 N 
ATOM      6  H5  UNL     1       2.360   2.179   0.279  1.00  0.00     0.203 HD
HETATM    7  C11 UNL     1       0.705   0.972   0.604  1.00  0.00     0.707 A 
HETATM    8  N9  UNL     1       0.196  -0.261   0.481  1.00  0.00    -0.022 N 
ATOM      9  H9  UNL     1      -0.755  -0.437   0.804  1.00  0.00     0.203 HD
ENDROOT
BRANCH   7  10
HETATM   10  N6  UNL     1       0.072   1.947   1.116  1.00  0.00    -0.225 N 
ATOM     11  H6  UNL     1       0.574   2.834   1.164  1.00  0.00     0.177 HD
BRANCH  10  12
HETATM   12  C12 UNL     1      -1.246   1.948   1.627  1.00  0.00     0.138 C 
BRANCH  12  13
HETATM   13  C13 UNL     1      -2.286   2.535   0.677  1.00  0.00     0.022 C 
BRANCH  13  14
HETATM   14  C14 UNL     1      -2.362   1.783  -0.626  1.00  0.00     0.029 C 
BRANCH  14  15
HETATM   15  C15 UNL     1      -3.387   2.406  -1.513  1.00  0.00     0.232 C 
BRANCH  15  16
HETATM   16  N7  UNL     1      -4.678   2.375  -0.887  1.00  0.00    -0.073 N 
ATOM     17  H72 UNL     1      -4.662   2.845   0.018  1.00  0.00     0.277 HD
ATOM     18  H71 UNL     1      -5.339   2.982  -1.371  1.00  0.00     0.277 HD
BRANCH  16  19
HETATM   19  C16 UNL     1      -5.184   1.047  -0.772  1.00  0.00     0.262 C 
BRANCH  19  20
HETATM   20  C17 UNL     1      -6.566   1.070  -0.143  1.00  0.00     0.298 C 
BRANCH  20  21
HETATM   21  N8  UNL     1      -7.109  -0.244  -0.006  1.00  0.00     0.081 N 
HETATM   22  C18 UNL     1      -7.404  -0.822  -1.279  1.00  0.00     0.309 C 
HETATM   23  C19 UNL     1      -6.342  -1.118   0.828  1.00  0.00     0.309 C 
ENDBRANCH  20  21
ENDBRANCH  19  20
ENDBRANCH  16  19
ENDBRANCH  15  16
ENDBRANCH  14  15
ENDBRANCH  13  14
ENDBRANCH  12  13
ENDBRANCH  10  12
ENDBRANCH   7  10
BRANCH   4  24
HETATM   24  N3  UNL     1       3.868   0.524  -0.733  1.00  0.00    -0.204 N 
ATOM     25  H3  UNL     1       4.186   1.485  -0.607  1.00  0.00     0.183 HD
BRANCH  24  26
HETATM   26  C6  UNL     1       4.762  -0.382  -1.310  1.00  0.00     0.082 C 
BRANCH  26  27
HETATM   27  C7  UNL     1       5.706  -1.066  -0.390  1.00  0.00     0.072 C 
BRANCH  27  28
HETATM   28  C8  UNL     1       6.734  -0.310   0.302  1.00  0.00    -0.024 C 
HETATM   29  C9  UNL     1       6.604   0.755   1.266  1.00  0.00    -0.004 C 
BRANCH  29  30
HETATM   30  C10 UNL     1       6.018   2.072   1.002  1.00  0.00     0.256 C 
BRANCH  30  31
HETATM   31  N4  UNL     1       6.634   2.822  -0.082  1.00  0.00    -0.076 N 
ATOM     32  H43 UNL     1       7.637   2.911   0.080  1.00  0.00     0.274 HD
ATOM     33  H42 UNL     1       6.639   2.264  -0.936  1.00  0.00     0.274 HD
ATOM     34  H41 UNL     1       6.226   3.739  -0.266  1.00  0.00     0.274 HD
ENDBRANCH  30  31
ENDBRANCH  29  30
ENDBRANCH  27  28
ENDBRANCH  26  27
ENDBRANCH  24  26
ENDBRANCH   4  24
BRANCH   1  35
HETATM   35  N1  UNL     1       0.344  -2.414  -0.147  1.00  0.00    -0.222 N 
ATOM     36  H1  UNL     1      -0.611  -2.487   0.204  1.00  0.00     0.178 HD
BRANCH  35  37
HETATM   37  C3  UNL     1       0.930  -3.581  -0.690  1.00  0.00     0.164 C 
BRANCH  37  38
HETATM   38  C2  UNL     1       1.141  -4.645   0.364  1.00  0.00    -0.017 C 
HETATM   39  C1  UNL     1       0.556  -5.806   0.234  1.00  0.00     0.008 C 
ENDBRANCH  37  38
ENDBRANCH  35  37
ENDBRANCH   1  35
TORSDOF 18
