REMARK  16 active torsions:
REMARK  status: ('A' for Active; 'I' for Inactive)
REMARK    1  A    between atoms: N1_2  and  C3_5 
REMARK    2  A    between atoms: C3_5  and  C4_6 
REMARK    3  A    between atoms: C4_6  and  N2_7 
REMARK    4  A    between atoms: N2_7  and  C5_9 
REMARK    5  A    between atoms: C5_9  and  C6_13 
REMARK    6  A    between atoms: C6_13  and  C7_14 
REMARK    7  A    between atoms: C6_13  and  N4_17 
REMARK    8  A    between atoms: C7_14  and  C8_15 
REMARK    9  A    between atoms: N4_17  and  C9_18 
REMARK   10  A    between atoms: N4_17  and  C13_26 
REMARK   11  A    between atoms: C9_18  and  C10_19 
REMARK   12  A    between atoms: C10_19  and  C11_20 
REMARK   13  A    between atoms: C11_20  and  C12_21 
REMARK   14  A    between atoms: C12_21  and  N5_22 
REMARK   15  A    between atoms: C13_26  and  C14_27 
REMARK   16  A    between atoms: C17_30  and  C18_31 
ROOT
HETATM    1  N4  UNL     1      -0.273   0.738  -0.168  1.00  0.00     0.104 N 
ENDROOT
BRANCH   1   2
HETATM    2  C6  UNL     1       1.037   1.192   0.155  1.00  0.00     0.295 C 
BRANCH   2   3
HETATM    3  C5  UNL     1       1.792   0.040   0.821  1.00  0.00     0.105 C 
HETATM    4  N3  UNL     1       2.164   0.173   2.039  1.00  0.00    -0.387 N 
ATOM      5  H32 UNL     1       2.667  -0.595   2.483  1.00  0.00     0.157 HD
ATOM      6  H31 UNL     1       1.949   1.038   2.535  1.00  0.00     0.157 HD
BRANCH   3   7
HETATM    7  N2  UNL     1       2.088  -1.148   0.139  1.00  0.00    -0.376 N 
ATOM      8  H2  UNL     1       1.280  -1.692  -0.164  1.00  0.00     0.160 HD
BRANCH   7   9
HETATM    9  C4  UNL     1       3.351  -1.700  -0.189  1.00  0.00     0.157 C 
BRANCH   9  10
HETATM   10  C3  UNL     1       4.164  -2.187   0.993  1.00  0.00     0.330 C 
BRANCH  10  11
HETATM   11  N1  UNL     1       5.421  -2.748   0.574  1.00  0.00     0.007 N 
HETATM   12  C1  UNL     1       5.337  -3.392  -0.722  1.00  0.00     0.355 C 
HETATM   13  C2  UNL     1       6.475  -1.757   0.479  1.00  0.00     0.355 C 
HETATM   14  O1  UNL     1       5.861  -3.709   1.437  1.00  0.00    -0.065 OA
ENDBRANCH  10  11
ENDBRANCH   9  10
ENDBRANCH   7   9
ENDBRANCH   3   7
ENDBRANCH   2   3
BRANCH   2  15
HETATM   15  C7  UNL     1       1.905   1.548  -0.998  1.00  0.00     0.113 C 
BRANCH  15  16
HETATM   16  C8  UNL     1       1.462   2.670  -1.836  1.00  0.00     0.233 C 
HETATM   17  O2  UNL     1       1.575   2.641  -3.066  1.00  0.00    -0.307 OA
ENDBRANCH  15  16
ENDBRANCH   2  15
ENDBRANCH   1   2
BRANCH   1  18
HETATM   18  C9  UNL     1      -1.158   1.693  -0.707  1.00  0.00     0.274 C 
BRANCH  18  19
HETATM   19  C10 UNL     1      -1.551   2.829   0.212  1.00  0.00     0.032 C 
BRANCH  19  20
HETATM   20  C11 UNL     1      -2.521   3.708  -0.558  1.00  0.00     0.029 C 
BRANCH  20  21
HETATM   21  C12 UNL     1      -2.948   4.858   0.357  1.00  0.00     0.229 C 
BRANCH  21  22
HETATM   22  N5  UNL     1      -1.744   5.575   0.703  1.00  0.00    -0.079 N 
ATOM     23  H53 UNL     1      -1.023   4.980   1.111  1.00  0.00     0.274 HD
ATOM     24  H52 UNL     1      -1.209   5.882  -0.109  1.00  0.00     0.274 HD
ATOM     25  H51 UNL     1      -2.029   6.341   1.313  1.00  0.00     0.274 HD
ENDBRANCH  21  22
ENDBRANCH  20  21
ENDBRANCH  19  20
ENDBRANCH  18  19
ENDBRANCH   1  18
BRANCH   1  26
HETATM   26  C13 UNL     1      -0.897   0.027   0.929  1.00  0.00     0.312 C 
BRANCH  26  27
HETATM   27  C14 UNL     1      -2.164  -0.642   0.578  1.00  0.00    -0.030 A 
HETATM   28  C15 UNL     1      -3.395  -0.218   1.018  1.00  0.00     0.010 A 
HETATM   29  C16 UNL     1      -4.544  -0.909   0.650  1.00  0.00     0.015 A 
HETATM   30  C17 UNL     1      -4.491  -2.023  -0.155  1.00  0.00     0.004 A 
HETATM   31  C19 UNL     1      -3.257  -2.473  -0.614  1.00  0.00     0.015 A 
HETATM   32  C20 UNL     1      -2.150  -1.777  -0.237  1.00  0.00     0.010 A 
BRANCH  30  33
HETATM   33  C18 UNL     1      -5.724  -2.728  -0.522  1.00  0.00     0.120 C 
HETATM   34  N6  UNL     1      -6.846  -2.287  -0.099  1.00  0.00    -0.387 N 
ATOM     35  H62 UNL     1      -6.901  -1.452   0.484  1.00  0.00     0.157 HD
ATOM     36  H61 UNL     1      -7.703  -2.777  -0.354  1.00  0.00     0.157 HD
HETATM   37  N7  UNL     1      -5.648  -3.873  -1.322  1.00  0.00    -0.082 NA
ENDBRANCH  30  33
ENDBRANCH  26  27
ENDBRANCH   1  26
TORSDOF 16
