REMARK  7 active torsions:
REMARK  status: ('A' for Active; 'I' for Inactive)
REMARK    1  A    between atoms: C1_2  and  C2_4 
REMARK    2  A    between atoms: C2_4  and  C3_5 
REMARK    3  A    between atoms: C3_5  and  N2_6 
REMARK    4  A    between atoms: C3_5  and  C8_13 
REMARK       I    between atoms: N2_6  and  C4_8 
REMARK    5  A    between atoms: C4_8  and  C5_10 
REMARK    6  A    between atoms: C8_13  and  O3_14 
REMARK    7  A    between atoms: C8_13  and  N3_16 
ROOT
HETATM    1  C3  UNL     1       0.932   1.360   0.137  1.00  0.00     0.071 C 
ENDROOT
BRANCH   1   2
HETATM    2  C2  UNL     1       1.559   1.946  -1.070  1.00  0.00     0.161 C 
BRANCH   2   3
HETATM    3  C1  UNL     1       1.010   3.252  -1.447  1.00  0.00     0.236 C 
HETATM    4  N1  UNL     1       0.799   4.335  -0.605  1.00  0.00    -0.062 NA
HETATM    5  O1  UNL     1       0.692   3.434  -2.679  1.00  0.00    -0.277 OA
ENDBRANCH   2   3
ENDBRANCH   1   2
BRANCH   1   6
HETATM    6  N2  UNL     1       1.480   0.134   0.649  1.00  0.00    -0.326 N 
HETATM    7  C4  UNL     1       1.875  -0.931  -0.242  1.00  0.00     0.226 C 
HETATM    8  O2  UNL     1       1.715  -0.784  -1.490  1.00  0.00    -0.273 OA
ATOM      9  H2  UNL     1       1.591   0.015   1.656  1.00  0.00     0.168 HD
BRANCH   7  10
HETATM   10  C5  UNL     1       2.451  -2.180   0.213  1.00  0.00     0.078 A 
HETATM   11  C6  UNL     1       3.010  -2.494   1.533  1.00  0.00     0.015 A 
HETATM   12  C7  UNL     1       3.992  -2.006   0.502  1.00  0.00     0.015 A 
ENDBRANCH   7  10
ENDBRANCH   1   6
BRANCH   1  13
HETATM   13  C8  UNL     1      -0.541   1.402   0.227  1.00  0.00     0.161 C 
BRANCH  13  14
HETATM   14  O3  UNL     1      -1.101   2.525   0.576  1.00  0.00    -0.345 OA
ATOM     15  H3  UNL     1      -2.049   2.552   0.634  1.00  0.00     0.219 HD
ENDBRANCH  13  14
BRANCH  13  16
HETATM   16  N3  UNL     1      -1.475   0.395  -0.004  1.00  0.00    -0.360 N 
HETATM   17  C9  UNL     1      -2.828   0.630  -0.458  1.00  0.00     0.125 C 
HETATM   18  C10 UNL     1      -3.342  -0.675  -1.101  1.00  0.00     0.020 C 
HETATM   19  C11 UNL     1      -3.586  -1.687  -0.018  1.00  0.00     0.003 C 
HETATM   20  C12 UNL     1      -2.630  -1.384   1.124  1.00  0.00     0.020 C 
HETATM   21  C13 UNL     1      -1.262  -0.976   0.489  1.00  0.00     0.125 C 
ENDBRANCH  13  16
ENDBRANCH   1  13
TORSDOF 7
