REMARK  5 active torsions:
REMARK  status: ('A' for Active; 'I' for Inactive)
REMARK    1  A    between atoms: N1_6  and  C5_7 
REMARK    2  A    between atoms: C5_7  and  C6_8 
REMARK    3  A    between atoms: C6_8  and  C7_9 
REMARK    4  A    between atoms: C7_9  and  C8_10 
REMARK    5  A    between atoms: C8_10  and  N2_11 
ROOT
HETATM    1  N2  UNL     1      -1.890  -0.049   0.012  1.00  0.00     0.102 N 
HETATM    2  C9  UNL     1      -2.320   1.011  -0.847  1.00  0.00     0.311 C 
HETATM    3  C10 UNL     1      -3.855   0.983  -0.731  1.00  0.00     0.252 C 
HETATM    4  C11 UNL     1      -4.132   0.877   0.740  1.00  0.00     0.094 C 
HETATM    5  N3  UNL     1      -4.315  -0.404   1.259  1.00  0.00    -0.378 N 
ATOM      6  H3  UNL     1      -4.957  -0.542   2.039  1.00  0.00     0.164 HD
HETATM    7  C12 UNL     1      -3.635  -1.500   0.729  1.00  0.00     0.097 C 
HETATM    8  C13 UNL     1      -2.627  -1.233  -0.340  1.00  0.00     0.286 C 
HETATM    9  C14 UNL     1      -3.351  -1.124  -1.653  1.00  0.00     0.274 C 
HETATM   10  N4  UNL     1      -4.396  -0.119  -1.487  1.00  0.00    -0.062 N 
ATOM     11  H41 UNL     1      -4.799   0.177  -2.376  1.00  0.00     0.278 HD
ATOM     12  H42 UNL     1      -5.244  -0.502  -1.069  1.00  0.00     0.278 HD
ENDROOT
BRANCH   1  13
HETATM   13  C8  UNL     1      -0.472  -0.258   0.088  1.00  0.00     0.273 C 
BRANCH  13  14
HETATM   14  C7  UNL     1       0.227   0.869   0.766  1.00  0.00     0.032 C 
BRANCH  14  15
HETATM   15  C6  UNL     1       1.701   0.575   0.824  1.00  0.00     0.022 C 
BRANCH  15  16
HETATM   16  C5  UNL     1       2.318   0.415  -0.538  1.00  0.00     0.126 C 
BRANCH  16  17
HETATM   17  N1  UNL     1       3.748   0.134  -0.356  1.00  0.00    -0.352 N 
HETATM   18  C1  UNL     1       4.369  -1.134  -0.226  1.00  0.00     0.219 C 
HETATM   19  O1  UNL     1       3.938  -2.199  -0.790  1.00  0.00    -0.273 OA
HETATM   20  C2  UNL     1       5.554  -0.970   0.650  1.00  0.00     0.104 C 
HETATM   21  C3  UNL     1       5.822   0.506   0.639  1.00  0.00     0.029 C 
HETATM   22  C4  UNL     1       4.798   1.127  -0.277  1.00  0.00     0.126 C 
ENDBRANCH  16  17
ENDBRANCH  15  16
ENDBRANCH  14  15
ENDBRANCH  13  14
ENDBRANCH   1  13
TORSDOF 5
