REMARK  7 active torsions:
REMARK  status: ('A' for Active; 'I' for Inactive)
REMARK    1  A    between atoms: N1_4  and  C4_6 
REMARK    2  A    between atoms: C4_6  and  C5_7 
REMARK    3  A    between atoms: C4_6  and  C8_10 
REMARK    4  A    between atoms: C5_7  and  C6_8 
REMARK    5  A    between atoms: C8_10  and  C9_11 
REMARK    6  A    between atoms: C9_11  and  O1_12 
REMARK    7  A    between atoms: C9_11  and  C10_14 
REMARK       I    between atoms: C10_14  and  N2_16 
ROOT
HETATM    1  C1  UNL     1       3.433   4.436  -1.241  1.00  0.00     0.018 C 
HETATM    2  C2  UNL     1       3.444   3.309  -0.823  1.00  0.00    -0.073 C 
HETATM    3  C3  UNL     1       3.454   1.938  -0.332  1.00  0.00     0.148 C 
HETATM    4  N1  UNL     1       2.520   1.166  -0.704  1.00  0.00    -0.387 N 
ATOM      5  H1  UNL     1       1.800   1.529  -1.329  1.00  0.00     0.159 HD
ENDROOT
BRANCH   4   6
HETATM    6  C4  UNL     1       2.441  -0.207  -0.274  1.00  0.00     0.087 C 
BRANCH   6   7
HETATM    7  C5  UNL     1       3.589  -0.525   0.638  1.00  0.00     0.051 C 
BRANCH   7   8
HETATM    8  C6  UNL     1       3.556  -1.929   1.108  1.00  0.00    -0.035 C 
HETATM    9  C7  UNL     1       4.567  -2.750   0.822  1.00  0.00     0.007 C 
ENDBRANCH   7   8
ENDBRANCH   6   7
BRANCH   6  10
HETATM   10  C8  UNL     1       1.154  -0.539   0.414  1.00  0.00     0.066 C 
BRANCH  10  11
HETATM   11  C9  UNL     1      -0.069  -0.307  -0.493  1.00  0.00     0.212 C 
BRANCH  11  12
HETATM   12  O1  UNL     1      -0.073   1.032  -0.821  1.00  0.00    -0.386 OA
ATOM     13  H1  UNL     1      -0.827   1.175  -1.380  1.00  0.00     0.210 HD
ENDBRANCH  11  12
BRANCH  11  14
HETATM   14  C10 UNL     1      -1.266  -0.815   0.188  1.00  0.00     0.248 C 
HETATM   15  O2  UNL     1      -1.155  -2.050   0.568  1.00  0.00    -0.270 OA
HETATM   16  N2  UNL     1      -2.472  -0.202   0.482  1.00  0.00    -0.347 N 
HETATM   17  C11 UNL     1      -3.527  -0.974   1.208  1.00  0.00     0.153 C 
HETATM   18  C14 UNL     1      -2.922   1.133   0.179  1.00  0.00     0.153 C 
HETATM   19  C12 UNL     1      -4.663  -1.087   0.214  1.00  0.00     0.252 C 
HETATM   20  N3  UNL     1      -5.078   0.197  -0.253  1.00  0.00    -0.072 N 
HETATM   21  C13 UNL     1      -4.033   0.980  -0.843  1.00  0.00     0.252 C 
ATOM     22  H32 UNL     1      -5.861   0.104  -0.900  1.00  0.00     0.277 HD
ATOM     23  H31 UNL     1      -5.532   0.718   0.497  1.00  0.00     0.277 HD
ENDBRANCH  11  14
ENDBRANCH  10  11
ENDBRANCH   6  10
ENDBRANCH   4   6
TORSDOF 7
