REMARK  5 active torsions:
REMARK  status: ('A' for Active; 'I' for Inactive)
REMARK    1  A    between atoms: C3_3  and  N1_4 
REMARK    2  A    between atoms: C6_7  and  C7_8 
REMARK    3  A    between atoms: C7_8  and  C8_9 
REMARK    4  A    between atoms: C8_9  and  N2_10 
REMARK    5  A    between atoms: C12_14  and  C13_15 
ROOT
HETATM    1  C1  UNL     1       6.990   0.369   0.962  1.00  0.00     0.013 C 
HETATM    2  C2  UNL     1       6.020  -0.266   0.652  1.00  0.00    -0.087 C 
HETATM    3  C3  UNL     1       4.840  -1.058   0.293  1.00  0.00     0.364 C 
ENDROOT
BRANCH   3   4
HETATM    4  N1  UNL     1       3.688  -0.258   0.583  1.00  0.00     0.099 N 
HETATM    5  C4  UNL     1       3.623   0.852  -0.308  1.00  0.00     0.274 C 
HETATM    6  C5  UNL     1       2.128   1.028  -0.619  1.00  0.00     0.036 C 
HETATM    7  C6  UNL     1       1.751  -0.445  -0.755  1.00  0.00     0.017 C 
HETATM    8  C15 UNL     1       2.436  -1.019   0.437  1.00  0.00     0.278 C 
BRANCH   7   9
HETATM    9  C7  UNL     1       0.289  -0.658  -0.839  1.00  0.00     0.036 C 
BRANCH   9  10
HETATM   10  C8  UNL     1      -0.493  -0.181   0.337  1.00  0.00     0.273 C 
BRANCH  10  11
HETATM   11  N2  UNL     1      -1.900  -0.418   0.178  1.00  0.00     0.090 N 
HETATM   12  C9  UNL     1      -2.683   0.041   1.317  1.00  0.00     0.278 C 
HETATM   13  C10 UNL     1      -3.300   1.272   0.769  1.00  0.00     0.034 A 
HETATM   14  C11 UNL     1      -4.466   1.605   0.064  1.00  0.00     0.028 A 
HETATM   15  C12 UNL     1      -3.821   0.486  -0.508  1.00  0.00     0.070 A 
HETATM   16  C14 UNL     1      -2.441   0.275  -1.010  1.00  0.00     0.291 C 
BRANCH  15  17
HETATM   17  C13 UNL     1      -4.479  -0.836  -0.227  1.00  0.00     0.242 C 
HETATM   18  N3  UNL     1      -5.666  -0.901   0.553  1.00  0.00    -0.061 NA
HETATM   19  O1  UNL     1      -4.052  -1.942  -0.642  1.00  0.00    -0.276 OA
ENDBRANCH  15  17
ENDBRANCH  10  11
ENDBRANCH   9  10
ENDBRANCH   7   9
ENDBRANCH   3   4
TORSDOF 5
