REMARK  6 active torsions:
REMARK  status: ('A' for Active; 'I' for Inactive)
REMARK    1  A    between atoms: C9_10  and  N2_11 
REMARK    2  A    between atoms: N2_11  and  C10_13 
REMARK    3  A    between atoms: C10_13  and  C11_14 
REMARK    4  A    between atoms: C11_14  and  N3_15 
REMARK    5  A    between atoms: N4_20  and  C13_21 
REMARK    6  A    between atoms: C13_21  and  C14_22 
ROOT
HETATM    1  C1  UNL     1      -4.149  -2.401   1.005  1.00  0.00     0.098 C 
HETATM    2  C2  UNL     1      -3.175  -1.856   0.510  1.00  0.00    -0.175 C 
HETATM    3  C3  UNL     1      -1.986  -1.226  -0.082  1.00  0.00     0.044 C 
HETATM    4  C4  UNL     1      -2.066  -1.382  -1.598  1.00  0.00     0.054 C 
HETATM    5  C5  UNL     1      -0.868  -0.687  -2.200  1.00  0.00     0.277 C 
HETATM    6  N1  UNL     1       0.287  -0.808  -1.333  1.00  0.00     0.125 N 
HETATM    7  C6  UNL     1       0.194  -2.115  -0.694  1.00  0.00     0.281 C 
HETATM    8  C7  UNL     1      -0.765  -1.913   0.485  1.00  0.00     0.037 C 
HETATM    9  C8  UNL     1      -0.132  -1.129   1.594  1.00  0.00     0.037 C 
HETATM   10  C9  UNL     1       0.871  -0.136   0.951  1.00  0.00     0.145 C 
HETATM   11  C12 UNL     1       0.337   0.252  -0.368  1.00  0.00     0.478 C 
HETATM   12  N4  UNL     1      -0.908   0.977  -0.300  1.00  0.00     0.129 N 
HETATM   13  C16 UNL     1      -2.027   0.239   0.210  1.00  0.00     0.297 C 
ENDROOT
BRANCH  12  14
HETATM   14  C13 UNL     1      -0.767   2.175   0.482  1.00  0.00     0.302 C 
BRANCH  14  15
HETATM   15  C14 UNL     1      -2.026   2.992   0.296  1.00  0.00    -0.007 C 
HETATM   16  C15 UNL     1      -1.954   4.228  -0.213  1.00  0.00     0.008 C 
ENDBRANCH  14  15
ENDBRANCH  12  14
BRANCH  10  17
HETATM   17  N2  UNL     1       2.135  -0.689   1.083  1.00  0.00    -0.392 N 
ATOM     18  H2  UNL     1       2.175  -1.678   1.328  1.00  0.00     0.159 HD
BRANCH  17  19
HETATM   19  C10 UNL     1       3.349  -0.046   0.919  1.00  0.00     0.083 C 
BRANCH  19  20
HETATM   20  C11 UNL     1       3.795   0.315  -0.447  1.00  0.00     0.273 C 
BRANCH  20  21
HETATM   21  N3  UNL     1       5.107   0.984  -0.428  1.00  0.00    -0.075 N 
ATOM     22  H33 UNL     1       5.103   1.796   0.190  1.00  0.00     0.274 HD
ATOM     23  H32 UNL     1       5.806   0.420   0.056  1.00  0.00     0.274 HD
ATOM     24  H31 UNL     1       5.414   1.233  -1.368  1.00  0.00     0.274 HD
ENDBRANCH  20  21
ENDBRANCH  19  20
ENDBRANCH  17  19
ENDBRANCH  10  17
TORSDOF 6
