REMARK  7 active torsions:
REMARK  status: ('A' for Active; 'I' for Inactive)
REMARK       I    between atoms: N1_4  and  C4_5 
REMARK    1  A    between atoms: C4_5  and  C5_7 
REMARK    2  A    between atoms: C5_7  and  N2_8 
REMARK    3  A    between atoms: N2_8  and  C7_10 
REMARK    4  A    between atoms: C7_10  and  N3_11 
REMARK    5  A    between atoms: C7_10  and  C8_15 
REMARK    6  A    between atoms: C8_15  and  N4_16 
REMARK    7  A    between atoms: C8_15  and  C9_20 
ROOT
HETATM    1  C7  UNL     1      -0.296   0.716  -1.495  1.00  0.00     0.447 C 
ENDROOT
BRANCH   1   2
HETATM    2  N2  UNL     1       1.070   1.116  -1.306  1.00  0.00     0.126 N 
HETATM    3  C6  UNL     1       1.286   2.525  -1.144  1.00  0.00     0.313 C 
BRANCH   2   4
HETATM    4  C5  UNL     1       1.781   0.389  -0.326  1.00  0.00     0.377 C 
BRANCH   4   5
HETATM    5  C4  UNL     1       3.251   0.393  -0.442  1.00  0.00     0.248 C 
HETATM    6  N1  UNL     1       4.062  -0.308   0.499  1.00  0.00    -0.343 N 
HETATM    7  C2  UNL     1       5.295  -0.767   1.059  1.00  0.00     0.101 A 
HETATM    8  C3  UNL     1       4.045  -1.162   1.732  1.00  0.00     0.151 A 
HETATM    9  C1  UNL     1       6.028  -1.826   0.244  1.00  0.00     0.034 C 
HETATM   10  O1  UNL     1       3.837   1.004  -1.362  1.00  0.00    -0.271 OA
ENDBRANCH   4   5
ENDBRANCH   2   4
ENDBRANCH   1   2
BRANCH   1  11
HETATM   11  N3  UNL     1      -0.397  -0.620  -1.974  1.00  0.00    -0.045 N 
ATOM     12  H33 UNL     1       0.149  -0.751  -2.826  1.00  0.00     0.277 HD
ATOM     13  H32 UNL     1       0.099  -1.271  -1.365  1.00  0.00     0.277 HD
ATOM     14  H31 UNL     1      -1.367  -0.904  -2.108  1.00  0.00     0.277 HD
ENDBRANCH   1  11
BRANCH   1  15
HETATM   15  C8  UNL     1      -1.101   0.911  -0.239  1.00  0.00     0.248 C 
BRANCH  15  16
HETATM   16  N4  UNL     1      -1.129   2.279   0.207  1.00  0.00    -0.071 N 
ATOM     17  H43 UNL     1      -0.183   2.644   0.321  1.00  0.00     0.274 HD
ATOM     18  H42 UNL     1      -1.458   2.897  -0.535  1.00  0.00     0.274 HD
ATOM     19  H41 UNL     1      -1.675   2.411   1.059  1.00  0.00     0.274 HD
ENDBRANCH  15  16
BRANCH  15  20
HETATM   20  C9  UNL     1      -2.422   0.242  -0.204  1.00  0.00     0.020 C 
HETATM   21  C10 UNL     1      -2.406  -1.255  -0.308  1.00  0.00     0.007 C 
HETATM   22  C11 UNL     1      -3.478  -1.880   0.591  1.00  0.00     0.000 C 
HETATM   23  C12 UNL     1      -4.766  -1.173   0.200  1.00  0.00     0.000 C 
HETATM   24  C13 UNL     1      -4.707   0.190   0.880  1.00  0.00     0.000 C 
HETATM   25  C14 UNL     1      -3.334   0.750   0.888  1.00  0.00     0.007 C 
ENDBRANCH  15  20
ENDBRANCH   1  15
TORSDOF 7
