REMARK  7 active torsions:
REMARK  status: ('A' for Active; 'I' for Inactive)
REMARK    1  A    between atoms: C2_2  and  C4_4 
REMARK    2  A    between atoms: C2_2  and  C5_7 
REMARK    3  A    between atoms: C4_4  and  O1_5 
REMARK    4  A    between atoms: C5_7  and  O2_8 
REMARK    5  A    between atoms: C5_7  and  C6_10 
REMARK    6  A    between atoms: C6_10  and  C7_11 
REMARK    7  A    between atoms: C7_11  and  C8_12 
REMARK       I    between atoms: C8_12  and  N1_14 
ROOT
HETATM    1  C7  UNL     1      -0.547  -0.216  -0.293  1.00  0.00     0.105 C 
ENDROOT
BRANCH   1   2
HETATM    2  C6  UNL     1      -1.862   0.215   0.304  1.00  0.00     0.041 C 
BRANCH   2   3
HETATM    3  C5  UNL     1      -2.966   0.252  -0.730  1.00  0.00     0.128 C 
BRANCH   3   4
HETATM    4  C2  UNL     1      -4.227   0.685  -0.064  1.00  0.00    -0.000 C 
HETATM    5  C1  UNL     1      -3.971   1.980   0.669  1.00  0.00     0.019 C 
HETATM    6  C3  UNL     1      -5.294   0.973  -1.123  1.00  0.00     0.019 C 
BRANCH   4   7
HETATM    7  C4  UNL     1      -4.811  -0.367   0.849  1.00  0.00     0.175 C 
BRANCH   7   8
HETATM    8  O1  UNL     1      -5.043  -1.554   0.167  1.00  0.00    -0.400 OA
ATOM      9  H1  UNL     1      -5.410  -2.216   0.741  1.00  0.00     0.209 HD
ENDBRANCH   7   8
ENDBRANCH   4   7
ENDBRANCH   3   4
BRANCH   3  10
HETATM   10  O2  UNL     1      -3.058  -0.922  -1.437  1.00  0.00    -0.395 OA
ATOM     11  H2  UNL     1      -2.254  -1.198  -1.862  1.00  0.00     0.210 HD
ENDBRANCH   3  10
ENDBRANCH   2   3
ENDBRANCH   1   2
BRANCH   1  12
HETATM   12  C8  UNL     1       0.495  -0.235   0.756  1.00  0.00     0.219 C 
HETATM   13  O3  UNL     1       0.192   0.087   1.943  1.00  0.00    -0.273 OA
HETATM   14  N1  UNL     1       1.845  -0.601   0.505  1.00  0.00    -0.349 N 
HETATM   15  C9  UNL     1       2.178  -0.968  -0.859  1.00  0.00     0.154 C 
HETATM   16  C14 UNL     1       2.830  -0.611   1.534  1.00  0.00     0.154 C 
HETATM   17  C10 UNL     1       3.636  -1.270  -0.984  1.00  0.00     0.256 C 
HETATM   18  N2  UNL     1       4.391  -0.213  -0.331  1.00  0.00    -0.072 N 
HETATM   19  C11 UNL     1       4.032   1.065  -0.925  1.00  0.00     0.272 C 
HETATM   20  C12 UNL     1       5.786  -0.447  -0.665  1.00  0.00     0.272 C 
HETATM   21  C13 UNL     1       4.198  -0.192   1.092  1.00  0.00     0.256 C 
ENDBRANCH   1  12
TORSDOF 7
