REMARK  8 active torsions:
REMARK  status: ('A' for Active; 'I' for Inactive)
REMARK    1  A    between atoms: C1_2  and  C2_3 
REMARK       I    between atoms: C1_2  and  N4_26 
REMARK    2  A    between atoms: C2_3  and  C3_4 
REMARK    3  A    between atoms: C3_4  and  C4_5 
REMARK       I    between atoms: C4_5  and  N1_7 
REMARK       I    between atoms: N2_10  and  C7_11 
REMARK    4  A    between atoms: C7_11  and  C8_13 
REMARK    5  A    between atoms: C8_13  and  C9_14 
REMARK    6  A    between atoms: C9_14  and  N3_15 
REMARK       I    between atoms: N3_15  and  C10_17 
REMARK    7  A    between atoms: C10_17  and  C11_19 
REMARK    8  A    between atoms: N4_26  and  C18_28 
ROOT
HETATM    1  C4  UNL     1      -1.824   1.264  -0.625  1.00  0.00     0.220 C 
HETATM    2  O2  UNL     1      -2.189   2.082  -1.508  1.00  0.00    -0.273 OA
HETATM    3  N1  UNL     1      -0.440   1.119  -0.373  1.00  0.00    -0.349 N 
HETATM    4  C5  UNL     1       0.075   0.202   0.623  1.00  0.00     0.145 C 
HETATM    5  C6  UNL     1       1.362  -0.450   0.238  1.00  0.00     0.145 C 
HETATM    6  N2  UNL     1       2.234   0.415  -0.526  1.00  0.00    -0.349 N 
HETATM    7  C7  UNL     1       3.388  -0.139  -1.133  1.00  0.00     0.221 C 
HETATM    8  O3  UNL     1       3.694  -1.350  -1.040  1.00  0.00    -0.273 OA
HETATM    9  C16 UNL     1       1.906   1.814  -0.648  1.00  0.00     0.145 C 
HETATM   10  C17 UNL     1       0.493   1.915  -1.136  1.00  0.00     0.145 C 
ENDROOT
BRANCH   1  11
HETATM   11  C3  UNL     1      -2.846   0.477   0.124  1.00  0.00     0.112 C 
BRANCH  11  12
HETATM   12  C2  UNL     1      -4.245   0.823  -0.343  1.00  0.00     0.112 C 
BRANCH  12  13
HETATM   13  C1  UNL     1      -5.275   0.055   0.387  1.00  0.00     0.218 C 
HETATM   14  O1  UNL     1      -4.945  -0.768   1.276  1.00  0.00    -0.274 OA
HETATM   15  N4  UNL     1      -6.632   0.238   0.094  1.00  0.00    -0.356 N 
ATOM     16  H4  UNL     1      -6.879   0.911  -0.632  1.00  0.00     0.162 HD
BRANCH  15  17
HETATM   17  C18 UNL     1      -7.708  -0.471   0.759  1.00  0.00     0.084 C 
HETATM   18  C19 UNL     1      -8.630   0.496   1.491  1.00  0.00     0.025 C 
HETATM   19  C20 UNL     1      -9.937  -0.179   1.742  1.00  0.00     0.002 C 
HETATM   20  C21 UNL     1      -9.838  -1.684   1.813  1.00  0.00     0.000 C 
HETATM   21  C22 UNL     1      -9.333  -2.276   0.520  1.00  0.00     0.002 C 
HETATM   22  C23 UNL     1      -8.573  -1.218  -0.245  1.00  0.00     0.025 C 
ENDBRANCH  15  17
ENDBRANCH  12  13
ENDBRANCH  11  12
ENDBRANCH   1  11
BRANCH   7  23
HETATM   23  C8  UNL     1       4.316   0.734  -1.936  1.00  0.00     0.122 C 
BRANCH  23  24
HETATM   24  C9  UNL     1       5.465  -0.063  -2.485  1.00  0.00     0.132 C 
BRANCH  24  25
HETATM   25  N3  UNL     1       6.279  -0.701  -1.494  1.00  0.00    -0.360 N 
HETATM   26  C10 UNL     1       6.992  -0.009  -0.496  1.00  0.00     0.221 C 
HETATM   27  O4  UNL     1       6.952   1.237  -0.422  1.00  0.00    -0.273 OA
ATOM     28  H3  UNL     1       6.346  -1.719  -1.512  1.00  0.00     0.162 HD
BRANCH  26  29
HETATM   29  C11 UNL     1       7.829  -0.712   0.522  1.00  0.00     0.078 C 
HETATM   30  C12 UNL     1       8.474   0.263   1.460  1.00  0.00     0.014 C 
HETATM   31  C13 UNL     1       9.748   0.733   0.796  1.00  0.00     0.001 C 
HETATM   32  C14 UNL     1       9.974  -0.226  -0.358  1.00  0.00     0.001 C 
HETATM   33  C15 UNL     1       9.017  -1.383  -0.120  1.00  0.00     0.014 C 
ENDBRANCH  26  29
ENDBRANCH  24  25
ENDBRANCH  23  24
ENDBRANCH   7  23
TORSDOF 8
