REMARK  8 active torsions:
REMARK  status: ('A' for Active; 'I' for Inactive)
REMARK       I    between atoms: C2_2  and  N1_4 
REMARK    1  A    between atoms: N1_4  and  C3_6 
REMARK    2  A    between atoms: C3_6  and  C4_7 
REMARK    3  A    between atoms: C3_6  and  C15_23 
REMARK       I    between atoms: C4_7  and  N2_9 
REMARK    4  A    between atoms: N2_9  and  C5_11 
REMARK    5  A    between atoms: C5_11  and  C6_12 
REMARK    6  A    between atoms: C6_12  and  C7_13 
REMARK    7  A    between atoms: C7_13  and  C8_14 
REMARK    8  A    between atoms: C8_14  and  N3_15 
ROOT
HETATM    1  C3  UNL     1      -2.925   2.005   0.024  1.00  0.00     0.185 C 
ENDROOT
BRANCH   1   2
HETATM    2  N1  UNL     1      -3.758   2.422  -1.053  1.00  0.00    -0.347 N 
HETATM    3  C2  UNL     1      -4.800   3.363  -0.837  1.00  0.00     0.214 C 
HETATM    4  C1  UNL     1      -5.714   3.861  -1.879  1.00  0.00     0.117 C 
HETATM    5  O1  UNL     1      -4.974   3.824   0.331  1.00  0.00    -0.274 OA
ATOM      6  H1  UNL     1      -3.605   2.042  -1.987  1.00  0.00     0.163 HD
ENDBRANCH   1   2
BRANCH   1   7
HETATM    7  C4  UNL     1      -1.492   2.211  -0.308  1.00  0.00     0.241 C 
HETATM    8  O2  UNL     1      -1.207   2.046  -1.544  1.00  0.00    -0.271 OA
HETATM    9  N2  UNL     1      -0.475   2.558   0.585  1.00  0.00    -0.359 N 
ATOM     10  H2  UNL     1      -0.722   2.692   1.566  1.00  0.00     0.162 HD
BRANCH   9  11
HETATM   11  C5  UNL     1       0.886   2.735   0.205  1.00  0.00     0.122 C 
BRANCH  11  12
HETATM   12  C6  UNL     1       1.471   1.469  -0.342  1.00  0.00     0.021 C 
BRANCH  12  13
HETATM   13  C7  UNL     1       2.922   1.724  -0.718  1.00  0.00     0.032 C 
BRANCH  13  14
HETATM   14  C8  UNL     1       3.534   0.434  -1.270  1.00  0.00     0.272 C 
BRANCH  14  15
HETATM   15  N3  UNL     1       3.481  -0.619  -0.287  1.00  0.00     0.091 N 
HETATM   16  C9  UNL     1       4.366  -0.313   0.804  1.00  0.00     0.300 C 
HETATM   17  C10 UNL     1       5.174  -1.535   1.214  1.00  0.00     0.266 C 
HETATM   18  N4  UNL     1       5.994  -2.021   0.146  1.00  0.00    -0.071 N 
HETATM   19  C11 UNL     1       6.385  -3.410   0.358  1.00  0.00     0.272 C 
HETATM   20  C12 UNL     1       7.227  -1.220   0.106  1.00  0.00     0.272 C 
HETATM   21  C13 UNL     1       5.331  -1.901  -1.115  1.00  0.00     0.266 C 
HETATM   22  C14 UNL     1       3.845  -1.863  -0.910  1.00  0.00     0.300 C 
ENDBRANCH  14  15
ENDBRANCH  13  14
ENDBRANCH  12  13
ENDBRANCH  11  12
ENDBRANCH   9  11
ENDBRANCH   1   7
BRANCH   1  23
HETATM   23  C15 UNL     1      -3.164   0.590   0.479  1.00  0.00    -0.007 C 
HETATM   24  C16 UNL     1      -2.202   0.345   1.632  1.00  0.00     0.017 C 
HETATM   25  C17 UNL     1      -2.452  -0.980   2.329  1.00  0.00    -0.013 C 
HETATM   26  C18 UNL     1      -3.832  -0.983   2.878  1.00  0.00     0.009 C 
HETATM   27  C22 UNL     1      -2.280  -2.103   1.327  1.00  0.00     0.010 C 
HETATM   28  C19 UNL     1      -4.814  -0.811   1.728  1.00  0.00    -0.013 C 
HETATM   29  C20 UNL     1      -4.621  -1.889   0.695  1.00  0.00     0.010 C 
HETATM   30  C25 UNL     1      -4.576   0.521   1.070  1.00  0.00     0.017 C 
HETATM   31  C21 UNL     1      -3.202  -1.823   0.195  1.00  0.00    -0.009 C 
HETATM   32  C23 UNL     1      -2.933  -0.486  -0.510  1.00  0.00    -0.004 C 
HETATM   33  C24 UNL     1      -3.858  -0.506  -1.697  1.00  0.00     0.011 C 
ENDBRANCH   1  23
TORSDOF 8
