REMARK  8 active torsions:
REMARK  status: ('A' for Active; 'I' for Inactive)
REMARK    1  A    between atoms: C1_2  and  C2_3 
REMARK       I    between atoms: C1_2  and  N2_18 
REMARK    2  A    between atoms: C2_3  and  C3_4 
REMARK    3  A    between atoms: C3_4  and  C4_5 
REMARK       I    between atoms: N1_7  and  C6_8 
REMARK    4  A    between atoms: C6_8  and  C7_10 
REMARK    5  A    between atoms: N2_18  and  C14_20 
REMARK    6  A    between atoms: C14_20  and  C15_21 
REMARK       I    between atoms: N3_24  and  C18_25 
REMARK       I    between atoms: C18_25  and  N4_27 
REMARK    7  A    between atoms: N4_27  and  C19_29 
REMARK    8  A    between atoms: C19_29  and  C20_30 
ROOT
HETATM    1  O1  UNL     1      -1.166  -2.107  -0.526  1.00  0.00    -0.274 OA
HETATM    2  C1  UNL     1      -0.481  -1.770   0.458  1.00  0.00     0.217 C 
HETATM    3  N2  UNL     1       0.863  -1.377   0.246  1.00  0.00    -0.361 N 
ATOM      4  H2  UNL     1       1.454  -1.095   1.028  1.00  0.00     0.162 HD
ENDROOT
BRANCH   2   5
HETATM    5  C2  UNL     1      -0.977  -1.751   1.851  1.00  0.00     0.103 C 
BRANCH   5   6
HETATM    6  C3  UNL     1      -2.420  -2.094   2.020  1.00  0.00     0.018 C 
BRANCH   6   7
HETATM    7  C4  UNL     1      -3.292  -1.127   1.301  1.00  0.00     0.040 C 
HETATM    8  C5  UNL     1      -4.783  -1.505   1.490  1.00  0.00     0.133 C 
HETATM    9  N1  UNL     1      -5.384  -0.326   0.900  1.00  0.00    -0.349 N 
HETATM   10  C6  UNL     1      -6.536  -0.326   0.083  1.00  0.00     0.224 C 
HETATM   11  C12 UNL     1      -4.594   0.825   1.298  1.00  0.00     0.163 C 
HETATM   12  O2  UNL     1      -7.112  -1.414  -0.174  1.00  0.00    -0.273 OA
HETATM   13  C13 UNL     1      -3.306   0.255   1.911  1.00  0.00     0.193 C 
HETATM   14  F1  UNL     1      -2.222   1.018   1.506  1.00  0.00    -0.247 F 
BRANCH  10  15
HETATM   15  C7  UNL     1      -7.112   0.916  -0.497  1.00  0.00     0.078 C 
HETATM   16  C8  UNL     1      -8.324   0.600  -1.323  1.00  0.00     0.014 C 
HETATM   17  C9  UNL     1      -9.362   1.641  -0.972  1.00  0.00     0.001 C 
HETATM   18  C10 UNL     1      -8.938   2.270   0.312  1.00  0.00     0.001 C 
HETATM   19  C11 UNL     1      -7.519   1.887   0.560  1.00  0.00     0.014 C 
ENDBRANCH  10  15
ENDBRANCH   6   7
ENDBRANCH   5   6
ENDBRANCH   2   5
BRANCH   3  20
HETATM   20  C14 UNL     1       1.376  -1.385  -1.104  1.00  0.00     0.127 C 
BRANCH  20  21
HETATM   21  C15 UNL     1       2.805  -0.940  -1.104  1.00  0.00     0.006 C 
HETATM   22  C16 UNL     1       3.364  -0.942  -2.511  1.00  0.00     0.026 C 
HETATM   23  C17 UNL     1       4.844  -0.686  -2.402  1.00  0.00     0.128 C 
HETATM   24  N3  UNL     1       5.039   0.471  -1.557  1.00  0.00    -0.334 N 
HETATM   25  C18 UNL     1       6.345   0.750  -1.059  1.00  0.00     0.318 C 
HETATM   26  C23 UNL     1       3.899   1.302  -1.250  1.00  0.00     0.128 C 
HETATM   27  O3  UNL     1       6.553   1.744  -0.323  1.00  0.00    -0.247 OA
HETATM   28  N4  UNL     1       7.440  -0.086  -1.383  1.00  0.00    -0.343 N 
ATOM     29  H4  UNL     1       7.271  -0.894  -1.982  1.00  0.00     0.164 HD
HETATM   30  C24 UNL     1       2.888   0.460  -0.497  1.00  0.00     0.026 C 
BRANCH  28  31
HETATM   31  C19 UNL     1       8.777   0.145  -0.911  1.00  0.00     0.129 C 
BRANCH  31  32
HETATM   32  C20 UNL     1       8.809   0.110   0.597  1.00  0.00     0.003 A 
HETATM   33  C21 UNL     1      10.163   0.332   1.264  1.00  0.00     0.007 A 
HETATM   34  C22 UNL     1       9.108   1.403   1.359  1.00  0.00     0.007 A 
ENDBRANCH  31  32
ENDBRANCH  28  31
ENDBRANCH  20  21
ENDBRANCH   3  20
TORSDOF 8
