REMARK  10 active torsions:
REMARK  status: ('A' for Active; 'I' for Inactive)
REMARK    1  A    between atoms: C2_2  and  C3_3 
REMARK    2  A    between atoms: C3_3  and  C4_4 
REMARK    3  A    between atoms: C4_4  and  C5_5 
REMARK    4  A    between atoms: C5_5  and  C6_6 
REMARK    5  A    between atoms: C6_6  and  O1_7 
REMARK    6  A    between atoms: O1_7  and  C7_8 
REMARK    7  A    between atoms: C7_8  and  C8_9 
REMARK    8  A    between atoms: C8_9  and  N1_10 
REMARK    9  A    between atoms: C9_11  and  N2_12 
REMARK   10  A    between atoms: N2_12  and  C10_14 
ROOT
HETATM    1  N1  UNL     1      -1.978   0.634   0.186  1.00  0.00    -0.175 N 
HETATM    2  C9  UNL     1      -2.652  -0.554   0.237  1.00  0.00     0.683 A 
HETATM    3  N3  UNL     1      -4.001  -0.602   0.255  1.00  0.00    -0.175 N 
ATOM      4  H3  UNL     1      -4.461  -1.511   0.293  1.00  0.00     0.186 HD
HETATM    5  C13 UNL     1      -4.757   0.507   0.224  1.00  0.00     0.145 A 
HETATM    6  N4  UNL     1      -6.050   0.409   0.244  1.00  0.00    -0.383 N 
ATOM      7  H41 UNL     1      -6.624   1.252   0.220  1.00  0.00     0.157 HD
ATOM      8  H42 UNL     1      -6.528  -0.491   0.282  1.00  0.00     0.157 HD
HETATM    9  C14 UNL     1      -4.113   1.721   0.173  1.00  0.00     0.125 A 
HETATM   10  C15 UNL     1      -2.728   1.753   0.155  1.00  0.00     0.126 A 
HETATM   11  C16 UNL     1      -2.401   3.071   0.102  1.00  0.00     0.161 A 
HETATM   12  N5  UNL     1      -1.091   3.619   0.064  1.00  0.00    -0.079 NA
HETATM   13  N6  UNL     1      -3.557   3.780   0.090  1.00  0.00    -0.283 N 
ATOM     14  H6  UNL     1      -3.614   4.798   0.053  1.00  0.00     0.188 HD
HETATM   15  N7  UNL     1      -4.590   2.977   0.132  1.00  0.00    -0.289 N 
HETATM   16  C17 UNL     1      -6.009   3.304   0.138  1.00  0.00     0.178 C 
ENDROOT
BRANCH   1  17
HETATM   17  C8  UNL     1      -0.542   0.629   0.168  1.00  0.00     0.174 C 
BRANCH  17  18
HETATM   18  C7  UNL     1       0.012   0.587  -1.247  1.00  0.00     0.188 C 
BRANCH  18  19
HETATM   19  O1  UNL     1       1.374   0.583  -1.291  1.00  0.00    -0.390 OA
BRANCH  19  20
HETATM   20  C6  UNL     1       2.000  -0.459  -0.670  1.00  0.00     0.167 C 
BRANCH  20  21
HETATM   21  C5  UNL     1       3.513  -0.244  -0.855  1.00  0.00     0.026 C 
BRANCH  21  22
HETATM   22  C4  UNL     1       4.291  -1.336  -0.208  1.00  0.00     0.002 C 
BRANCH  22  23
HETATM   23  C3  UNL     1       5.755  -1.114  -0.405  1.00  0.00    -0.000 C 
BRANCH  23  24
HETATM   24  C2  UNL     1       6.251   0.166   0.174  1.00  0.00    -0.005 C 
HETATM   25  C1  UNL     1       7.752   0.239  -0.102  1.00  0.00     0.005 C 
ENDBRANCH  23  24
ENDBRANCH  22  23
ENDBRANCH  21  22
ENDBRANCH  20  21
ENDBRANCH  19  20
ENDBRANCH  18  19
ENDBRANCH  17  18
ENDBRANCH   1  17
BRANCH   2  26
HETATM   26  N2  UNL     1      -1.926  -1.621   0.266  1.00  0.00    -0.221 N 
ATOM     27  H2  UNL     1      -0.907  -1.568   0.251  1.00  0.00     0.178 HD
BRANCH  26  28
HETATM   28  C10 UNL     1      -2.611  -2.898   0.320  1.00  0.00     0.099 A 
HETATM   29  C11 UNL     1      -2.886  -3.483   1.685  1.00  0.00     0.028 A 
HETATM   30  C12 UNL     1      -1.867  -4.112   0.761  1.00  0.00     0.028 A 
ENDBRANCH  26  28
ENDBRANCH   2  26
TORSDOF 10
