REMARK  17 active torsions:
REMARK  status: ('A' for Active; 'I' for Inactive)
REMARK    1  A    between atoms: C2_2  and  C3_3 
REMARK    2  A    between atoms: C3_3  and  C4_4 
REMARK    3  A    between atoms: C4_4  and  C5_5 
REMARK    4  A    between atoms: C5_5  and  C6_6 
REMARK    5  A    between atoms: C6_6  and  C7_7 
REMARK    6  A    between atoms: C7_7  and  C10_10 
REMARK    7  A    between atoms: C10_10  and  O1_11 
REMARK    8  A    between atoms: C10_10  and  C11_13 
REMARK    9  A    between atoms: C11_13  and  C12_14 
REMARK   10  A    between atoms: C11_13  and  O3_21 
REMARK   11  A    between atoms: C12_14  and  C13_15 
REMARK   12  A    between atoms: C14_16  and  C15_17 
REMARK   13  A    between atoms: C15_17  and  O2_19 
REMARK   14  A    between atoms: O3_21  and  C17_22 
REMARK   15  A    between atoms: C20_26  and  O5_27 
REMARK   16  A    between atoms: C21_29  and  C22_30 
REMARK   17  A    between atoms: C22_30  and  O6_31 
ROOT
HETATM    1  C11 UNL     1      -0.423   0.221  -1.229  1.00  0.00     0.157 C 
ENDROOT
BRANCH   1   2
HETATM    2  C10 UNL     1       0.996   0.509  -0.806  1.00  0.00     0.155 C 
BRANCH   2   3
HETATM    3  C7  UNL     1       1.347   0.309   0.621  1.00  0.00    -0.019 C 
HETATM    4  C8  UNL     1       0.512   1.019   1.616  1.00  0.00     0.017 C 
HETATM    5  C9  UNL     1       1.522  -1.172   0.923  1.00  0.00     0.017 C 
BRANCH   3   6
HETATM    6  C6  UNL     1       2.791   0.896   0.734  1.00  0.00     0.011 C 
BRANCH   6   7
HETATM    7  C5  UNL     1       3.337   0.695   2.114  1.00  0.00     0.001 C 
BRANCH   7   8
HETATM    8  C4  UNL     1       4.732   1.297   2.121  1.00  0.00     0.004 C 
BRANCH   8   9
HETATM    9  C3  UNL     1       5.402   1.166   3.470  1.00  0.00     0.026 C 
BRANCH   9  10
HETATM   10  C2  UNL     1       5.507  -0.278   3.797  1.00  0.00    -0.037 C 
HETATM   11  C1  UNL     1       6.731  -0.809   3.981  1.00  0.00     0.007 C 
ENDBRANCH   9  10
ENDBRANCH   8   9
ENDBRANCH   7   8
ENDBRANCH   6   7
ENDBRANCH   3   6
ENDBRANCH   2   3
BRANCH   2  12
HETATM   12  O1  UNL     1       1.154   1.943  -0.996  1.00  0.00    -0.392 OA
ATOM     13  H1  UNL     1       0.929   2.071  -1.910  1.00  0.00     0.210 HD
ENDBRANCH   2  12
ENDBRANCH   1   2
BRANCH   1  14
HETATM   14  C12 UNL     1      -0.495   0.840  -2.645  1.00  0.00     0.061 C 
BRANCH  14  15
HETATM   15  C13 UNL     1      -1.767   0.713  -3.321  1.00  0.00    -0.025 C 
HETATM   16  C14 UNL     1      -2.470   1.766  -3.677  1.00  0.00     0.000 C 
BRANCH  16  17
HETATM   17  C15 UNL     1      -1.962   3.124  -3.387  1.00  0.00     0.136 C 
HETATM   18  C16 UNL     1      -3.063   4.170  -3.550  1.00  0.00     0.043 C 
BRANCH  17  19
HETATM   19  O2  UNL     1      -0.892   3.457  -4.252  1.00  0.00    -0.392 OA
ATOM     20  H2  UNL     1      -0.566   4.330  -4.066  1.00  0.00     0.210 HD
ENDBRANCH  17  19
ENDBRANCH  16  17
ENDBRANCH  14  15
ENDBRANCH   1  14
BRANCH   1  21
HETATM   21  O3  UNL     1      -0.894  -1.034  -1.144  1.00  0.00    -0.353 OA
BRANCH  21  22
HETATM   22  C17 UNL     1      -2.083  -1.216  -0.450  1.00  0.00     0.269 C 
HETATM   23  O4  UNL     1      -1.833  -1.969   0.687  1.00  0.00    -0.353 OA
HETATM   24  C18 UNL     1      -2.960  -2.758   0.903  1.00  0.00     0.150 C 
HETATM   25  C19 UNL     1      -2.687  -3.828   1.904  1.00  0.00     0.042 C 
HETATM   26  C20 UNL     1      -3.155  -3.308  -0.508  1.00  0.00     0.157 C 
HETATM   27  C21 UNL     1      -3.018  -2.027  -1.303  1.00  0.00     0.096 C 
BRANCH  26  28
HETATM   28  O5  UNL     1      -2.056  -4.118  -0.778  1.00  0.00    -0.392 OA
ATOM     29  H5  UNL     1      -2.177  -4.460  -1.656  1.00  0.00     0.210 HD
ENDBRANCH  26  28
BRANCH  27  30
HETATM   30  C22 UNL     1      -4.409  -1.417  -1.361  1.00  0.00     0.176 C 
BRANCH  30  31
HETATM   31  O6  UNL     1      -5.166  -2.276  -2.188  1.00  0.00    -0.400 OA
ATOM     32  H6  UNL     1      -6.035  -1.895  -2.224  1.00  0.00     0.209 HD
ENDBRANCH  30  31
ENDBRANCH  27  30
ENDBRANCH  21  22
ENDBRANCH   1  21
TORSDOF 17
