REMARK  16 active torsions:
REMARK  status: ('A' for Active; 'I' for Inactive)
REMARK    1  A    between atoms: C2_2  and  C3_3 
REMARK    2  A    between atoms: C3_3  and  C6_6 
REMARK    3  A    between atoms: C6_6  and  C7_7 
REMARK    4  A    between atoms: C7_7  and  O1_8 
REMARK    5  A    between atoms: C7_7  and  C17_33 
REMARK    6  A    between atoms: O1_8  and  C8_9 
REMARK    7  A    between atoms: C9_11  and  C10_12 
REMARK    8  A    between atoms: C10_12  and  N1_13 
REMARK    9  A    between atoms: N1_13  and  N2_15 
REMARK   10  A    between atoms: N2_15  and  N3_16 
REMARK   11  A    between atoms: C11_19  and  O3_20 
REMARK   12  A    between atoms: C12_22  and  O4_23 
REMARK   13  A    between atoms: C13_25  and  O5_26 
REMARK   14  A    between atoms: O5_26  and  C14_27 
REMARK   15  A    between atoms: C14_27  and  C15_28 
REMARK   16  A    between atoms: C15_28  and  N4_29 
ROOT
HETATM    1  C8  UNL     1       0.906   0.930  -1.037  1.00  0.00     0.292 C 
HETATM    2  O2  UNL     1       1.242   2.045  -1.750  1.00  0.00    -0.349 OA
HETATM    3  C9  UNL     1       1.640   3.197  -1.228  1.00  0.00     0.176 C 
HETATM    4  C11 UNL     1       2.532   3.054  -0.008  1.00  0.00     0.180 C 
HETATM    5  C12 UNL     1       3.011   1.585   0.018  1.00  0.00     0.183 C 
HETATM    6  C13 UNL     1       1.670   0.830   0.227  1.00  0.00     0.207 C 
ENDROOT
BRANCH   1   7
HETATM    7  O1  UNL     1      -0.447   0.894  -0.783  1.00  0.00    -0.353 OA
BRANCH   7   8
HETATM    8  C7  UNL     1      -1.173  -0.188  -1.320  1.00  0.00     0.128 C 
BRANCH   8   9
HETATM    9  C6  UNL     1      -1.697  -0.928  -0.185  1.00  0.00     0.041 C 
BRANCH   9  10
HETATM   10  C3  UNL     1      -2.508  -2.126  -0.121  1.00  0.00    -0.046 C 
HETATM   11  C4  UNL     1      -3.878  -2.165  -0.683  1.00  0.00     0.015 C 
HETATM   12  C5  UNL     1      -1.756  -3.360  -0.575  1.00  0.00     0.015 C 
BRANCH  10  13
HETATM   13  C2  UNL     1      -2.682  -2.412   1.436  1.00  0.00     0.004 C 
HETATM   14  C1  UNL     1      -3.548  -1.380   2.059  1.00  0.00     0.006 C 
ENDBRANCH  10  13
ENDBRANCH   9  10
ENDBRANCH   8   9
BRANCH   8  15
HETATM   15  C17 UNL     1      -2.043   0.231  -2.450  1.00  0.00     0.006 C 
HETATM   16  C18 UNL     1      -1.180   1.085  -3.436  1.00  0.00     0.012 C 
HETATM   17  C19 UNL     1      -2.517  -0.889  -3.357  1.00  0.00     0.012 C 
ENDBRANCH   8  15
ENDBRANCH   7   8
ENDBRANCH   1   7
BRANCH   6  18
HETATM   18  O5  UNL     1       1.994  -0.469   0.640  1.00  0.00    -0.377 OA
BRANCH  18  19
HETATM   19  C14 UNL     1       1.745  -0.558   1.997  1.00  0.00     0.196 C 
BRANCH  19  20
HETATM   20  C15 UNL     1       2.060  -1.945   2.538  1.00  0.00     0.258 C 
BRANCH  20  21
HETATM   21  N4  UNL     1       3.440  -2.308   2.344  1.00  0.00    -0.077 N 
HETATM   22  C16 UNL     1       4.365  -1.548   3.124  1.00  0.00     0.267 C 
ATOM     23  H42 UNL     1       3.572  -3.306   2.508  1.00  0.00     0.276 HD
ATOM     24  H41 UNL     1       3.685  -2.260   1.355  1.00  0.00     0.276 HD
ENDBRANCH  20  21
ENDBRANCH  19  20
ENDBRANCH  18  19
ENDBRANCH   6  18
BRANCH   3  25
HETATM   25  C10 UNL     1       0.541   4.147  -0.906  1.00  0.00     0.190 C 
BRANCH  25  26
HETATM   26  N1  UNL     1      -0.426   3.711   0.047  1.00  0.00    -0.250 N 
ATOM     27  H1  UNL     1      -1.112   3.022  -0.261  1.00  0.00     0.197 HD
BRANCH  26  28
HETATM   28  N2  UNL     1      -0.499   4.102   1.216  1.00  0.00    -0.248 NA
BRANCH  28  29
HETATM   29  N3  UNL     1      -0.455   4.446   2.402  1.00  0.00    -0.261 N 
ATOM     30  H32 UNL     1       0.469   4.017   2.346  1.00  0.00     0.193 HD
ATOM     31  H31 UNL     1      -0.515   4.769   3.368  1.00  0.00     0.193 HD
ENDBRANCH  28  29
ENDBRANCH  26  28
ENDBRANCH  25  26
ENDBRANCH   3  25
BRANCH   5  32
HETATM   32  O4  UNL     1       3.886   1.414   1.048  1.00  0.00    -0.390 OA
ATOM     33  H4  UNL     1       4.180   0.511   1.064  1.00  0.00     0.210 HD
ENDBRANCH   5  32
BRANCH   4  34
HETATM   34  O3  UNL     1       3.660   3.836  -0.123  1.00  0.00    -0.390 OA
ATOM     35  H3  UNL     1       4.218   3.747   0.640  1.00  0.00     0.210 HD
ENDBRANCH   4  34
TORSDOF 16
