REMARK  17 active torsions:
REMARK  status: ('A' for Active; 'I' for Inactive)
REMARK    1  A    between atoms: C2_2  and  O1_3 
REMARK    2  A    between atoms: C2_2  and  C11_19 
REMARK    3  A    between atoms: O1_3  and  C3_4 
REMARK    4  A    between atoms: C4_5  and  C5_6 
REMARK    5  A    between atoms: C5_6  and  O2_7 
REMARK    6  A    between atoms: C6_10  and  C7_11 
REMARK    7  A    between atoms: C7_11  and  O4_12 
REMARK    8  A    between atoms: C10_16  and  O5_17 
REMARK    9  A    between atoms: C11_19  and  O6_20 
REMARK   10  A    between atoms: C11_19  and  C12_22 
REMARK   11  A    between atoms: C12_22  and  C13_23 
REMARK   12  A    between atoms: C12_22  and  C15_25 
REMARK   13  A    between atoms: C15_25  and  O7_26 
REMARK   14  A    between atoms: C15_25  and  C16_28 
REMARK   15  A    between atoms: C16_28  and  C18_30 
REMARK   16  A    between atoms: C18_30  and  C19_31 
REMARK   17  A    between atoms: C19_31  and  C20_32 
ROOT
HETATM    1  C1  UNL     1       0.791  -1.277  -2.135  1.00  0.00     0.049 C 
HETATM    2  C2  UNL     1       0.799  -1.337  -0.826  1.00  0.00     0.067 C 
ENDROOT
BRANCH   2   3
HETATM    3  O1  UNL     1       2.052  -1.371  -0.202  1.00  0.00    -0.343 OA
BRANCH   3   4
HETATM    4  C3  UNL     1       2.630  -0.263   0.417  1.00  0.00     0.188 C 
HETATM    5  C4  UNL     1       3.986  -0.660   0.949  1.00  0.00     0.177 C 
HETATM    6  O3  UNL     1       4.693   0.453   1.424  1.00  0.00    -0.373 OA
HETATM    7  C6  UNL     1       4.962   1.312   0.359  1.00  0.00     0.152 C 
HETATM    8  C8  UNL     1       3.655   1.985   0.014  1.00  0.00     0.044 C 
HETATM    9  C9  UNL     1       3.052   2.664   1.221  1.00  0.00     0.015 C 
HETATM   10  C10 UNL     1       2.714   0.917  -0.533  1.00  0.00     0.156 C 
BRANCH   5  11
HETATM   11  C5  UNL     1       3.838  -1.645   2.059  1.00  0.00     0.198 C 
BRANCH  11  12
HETATM   12  O2  UNL     1       3.174  -2.808   1.713  1.00  0.00    -0.398 OA
ATOM     13  H2  UNL     1       3.080  -3.435   2.420  1.00  0.00     0.209 HD
ENDBRANCH  11  12
ENDBRANCH   5  11
BRANCH   7  14
HETATM   14  C7  UNL     1       6.017   2.312   0.685  1.00  0.00     0.196 C 
BRANCH  14  15
HETATM   15  O4  UNL     1       5.622   3.078   1.761  1.00  0.00    -0.398 OA
ATOM     16  H4  UNL     1       6.295   3.716   1.969  1.00  0.00     0.209 HD
ENDBRANCH  14  15
ENDBRANCH   7  14
BRANCH  10  17
HETATM   17  O5  UNL     1       1.437   1.461  -0.647  1.00  0.00    -0.392 OA
ATOM     18  H5  UNL     1       1.490   2.200  -1.242  1.00  0.00     0.210 HD
ENDBRANCH  10  17
ENDBRANCH   3   4
ENDBRANCH   2   3
BRANCH   2  19
HETATM   19  C11 UNL     1      -0.386  -1.365   0.062  1.00  0.00     0.180 C 
BRANCH  19  20
HETATM   20  O6  UNL     1      -0.086  -2.371   1.030  1.00  0.00    -0.389 OA
ATOM     21  H6  UNL     1      -0.846  -2.389   1.600  1.00  0.00     0.210 HD
ENDBRANCH  19  20
BRANCH  19  22
HETATM   22  C12 UNL     1      -1.599  -1.805  -0.634  1.00  0.00     0.050 C 
BRANCH  22  23
HETATM   23  C13 UNL     1      -1.350  -3.242  -1.125  1.00  0.00     0.006 C 
HETATM   24  C14 UNL     1      -2.529  -3.804  -1.877  1.00  0.00     0.006 C 
ENDBRANCH  22  23
BRANCH  22  25
HETATM   25  C15 UNL     1      -2.897  -1.848   0.042  1.00  0.00     0.128 C 
BRANCH  25  26
HETATM   26  O7  UNL     1      -2.920  -2.686   1.152  1.00  0.00    -0.395 OA
ATOM     27  H7  UNL     1      -3.762  -2.714   1.591  1.00  0.00     0.210 HD
ENDBRANCH  25  26
BRANCH  25  28
HETATM   28  C16 UNL     1      -3.624  -0.575   0.387  1.00  0.00     0.011 C 
HETATM   29  C17 UNL     1      -2.803   0.233   1.339  1.00  0.00     0.012 C 
BRANCH  28  30
HETATM   30  C18 UNL     1      -4.166   0.102  -0.804  1.00  0.00     0.007 C 
BRANCH  30  31
HETATM   31  C19 UNL     1      -4.936   1.353  -0.717  1.00  0.00     0.000 C 
BRANCH  31  32
HETATM   32  C20 UNL     1      -4.232   2.552  -0.171  1.00  0.00    -0.005 C 
HETATM   33  C21 UNL     1      -5.251   3.736  -0.254  1.00  0.00     0.005 C 
ENDBRANCH  31  32
ENDBRANCH  30  31
ENDBRANCH  28  30
ENDBRANCH  25  28
ENDBRANCH  22  25
ENDBRANCH  19  22
ENDBRANCH   2  19
TORSDOF 17
