REMARK  15 active torsions:
REMARK  status: ('A' for Active; 'I' for Inactive)
REMARK    1  A    between atoms: C2_2  and  C3_3 
REMARK    2  A    between atoms: C3_3  and  O1_4 
REMARK    3  A    between atoms: O1_4  and  C4_5 
REMARK    4  A    between atoms: C6_7  and  N1_8 
REMARK       I    between atoms: N1_8  and  C7_10 
REMARK    5  A    between atoms: C8_15  and  O2_16 
REMARK    6  A    between atoms: O2_16  and  C9_17 
REMARK    7  A    between atoms: C9_17  and  C10_19 
REMARK    8  A    between atoms: C10_19  and  C11_20 
REMARK    9  A    between atoms: C12_21  and  C13_22 
REMARK   10  A    between atoms: C13_22  and  C14_23 
REMARK   11  A    between atoms: C14_23  and  C15_24 
REMARK   12  A    between atoms: C15_24  and  C16_25 
REMARK   13  A    between atoms: C16_25  and  C17_26 
REMARK   14  A    between atoms: C17_26  and  O4_28 
REMARK   15  A    between atoms: N4_30  and  O5_32 
ROOT
HETATM    1  O2  UNL     1      -1.857  -0.271  -0.054  1.00  0.00    -0.287 OA
ENDROOT
BRANCH   1   2
HETATM    2  C8  UNL     1      -3.058  -0.514   0.607  1.00  0.00     0.295 C 
HETATM    3  C6  UNL     1      -3.521   0.622   1.476  1.00  0.00     0.144 C 
HETATM    4  C5  UNL     1      -4.974   0.252   1.692  1.00  0.00     0.091 C 
HETATM    5  C4  UNL     1      -5.287  -0.484   0.408  1.00  0.00     0.265 C 
HETATM    6  O6  UNL     1      -4.098  -0.605  -0.306  1.00  0.00    -0.329 OA
BRANCH   3   7
HETATM    7  N1  UNL     1      -3.473   1.888   0.818  1.00  0.00    -0.355 N 
HETATM    8  C7  UNL     1      -4.035   3.026   1.412  1.00  0.00     0.182 C 
HETATM    9  N2  UNL     1      -3.462   3.491   2.469  1.00  0.00    -0.374 N 
HETATM   10  N3  UNL     1      -5.194   3.689   0.915  1.00  0.00    -0.064 NA
ATOM     11  H22 UNL     1      -2.632   3.016   2.825  1.00  0.00     0.158 HD
ATOM     12  H21 UNL     1      -3.871   4.319   2.901  1.00  0.00     0.158 HD
ATOM     13  H1  UNL     1      -3.025   1.965  -0.095  1.00  0.00     0.162 HD
ENDBRANCH   3   7
BRANCH   5  14
HETATM   14  O1  UNL     1      -6.157   0.322  -0.311  1.00  0.00    -0.361 OA
BRANCH  14  15
HETATM   15  C3  UNL     1      -7.360  -0.275  -0.604  1.00  0.00     0.170 C 
BRANCH  15  16
HETATM   16  C2  UNL     1      -7.206  -1.492  -1.460  1.00  0.00     0.022 C 
HETATM   17  C1  UNL     1      -8.586  -2.064  -1.719  1.00  0.00     0.007 C 
ENDBRANCH  15  16
ENDBRANCH  14  15
ENDBRANCH   5  14
ENDBRANCH   1   2
BRANCH   1  18
HETATM   18  C9  UNL     1      -0.770  -1.126   0.037  1.00  0.00     0.264 C 
HETATM   19  O3  UNL     1      -0.915  -2.150   0.754  1.00  0.00    -0.265 OA
BRANCH  18  20
HETATM   20  C10 UNL     1       0.513  -0.860  -0.672  1.00  0.00     0.138 C 
BRANCH  20  21
HETATM   21  C11 UNL     1       1.513  -1.912  -0.419  1.00  0.00    -0.021 C 
HETATM   22  C12 UNL     1       2.681  -1.801   0.118  1.00  0.00    -0.024 C 
BRANCH  22  23
HETATM   23  C13 UNL     1       3.275  -0.568   0.604  1.00  0.00     0.081 C 
BRANCH  23  24
HETATM   24  C14 UNL     1       4.544  -0.162  -0.071  1.00  0.00     0.013 C 
HETATM   25  N4  UNL     1       4.993  -0.781  -1.054  1.00  0.00    -0.277 N 
ATOM     26  H4  UNL     1       5.866  -0.432  -1.448  1.00  0.00     0.193 HD
BRANCH  24  27
HETATM   27  C15 UNL     1       5.182   1.061   0.512  1.00  0.00     0.057 C 
BRANCH  27  28
HETATM   28  C16 UNL     1       6.478   1.438  -0.097  1.00  0.00     0.037 C 
BRANCH  28  29
HETATM   29  C17 UNL     1       7.596   0.462   0.030  1.00  0.00     0.117 C 
HETATM   30  C18 UNL     1       7.939   0.170   1.481  1.00  0.00     0.039 C 
BRANCH  29  31
HETATM   31  O4  UNL     1       8.777   0.962  -0.546  1.00  0.00    -0.391 OA
HETATM   32  C19 UNL     1       9.255   0.099  -1.528  1.00  0.00     0.202 C 
ENDBRANCH  29  31
ENDBRANCH  28  29
ENDBRANCH  27  28
ENDBRANCH  24  27
BRANCH  25  33
HETATM   33  O5  UNL     1       4.455  -1.860  -1.655  1.00  0.00    -0.290 OA
ATOM     34  H5  UNL     1       4.797  -2.332  -2.405  1.00  0.00     0.244 HD
ENDBRANCH  25  33
ENDBRANCH  23  24
ENDBRANCH  22  23
ENDBRANCH  20  21
ENDBRANCH  18  20
ENDBRANCH   1  18
TORSDOF 15
