REMARK  6 active torsions:
REMARK  status: ('A' for Active; 'I' for Inactive)
REMARK       I    between atoms: C1_2  and  N1_3 
REMARK       I    between atoms: C1_2  and  N2_13 
REMARK    1  A    between atoms: N1_3  and  C2_5 
REMARK    2  A    between atoms: C19_25  and  N3_26 
REMARK    3  A    between atoms: C23_36  and  N7_37 
REMARK    4  A    between atoms: N7_37  and  C24_39 
REMARK    5  A    between atoms: C28_44  and  C29_45 
REMARK    6  A    between atoms: C29_45  and  O5_46 
ROOT
HETATM    1  O1  UNL     1      -3.681   2.562   0.131  1.00  0.00    -0.247 OA
HETATM    2  C1  UNL     1      -3.417   1.353   0.356  1.00  0.00     0.318 C 
HETATM    3  N1  UNL     1      -4.380   0.393  -0.032  1.00  0.00    -0.338 N 
ATOM      4  H1  UNL     1      -4.201  -0.597   0.138  1.00  0.00     0.164 HD
HETATM    5  N2  UNL     1      -2.189   1.041   0.978  1.00  0.00    -0.334 N 
HETATM    6  C10 UNL     1      -1.275   2.096   1.360  1.00  0.00     0.130 C 
HETATM    7  C11 UNL     1       0.099   1.788   0.808  1.00  0.00     0.061 C 
HETATM    8  C12 UNL     1       0.547   0.518   1.480  1.00  0.00     0.098 C 
HETATM    9  C13 UNL     1      -0.366  -0.566   0.996  1.00  0.00     0.061 C 
HETATM   10  C14 UNL     1      -1.834  -0.317   1.242  1.00  0.00     0.130 C 
HETATM   11  O2  UNL     1       0.366   0.647   2.837  1.00  0.00    -0.375 OA
HETATM   12  C15 UNL     1       0.732  -0.462   3.582  1.00  0.00     0.195 C 
HETATM   13  C16 UNL     1       2.022  -1.082   3.186  1.00  0.00     0.195 C 
HETATM   14  O3  UNL     1       2.502  -0.809   1.957  1.00  0.00    -0.372 OA
HETATM   15  C17 UNL     1       1.960   0.162   1.196  1.00  0.00     0.124 C 
HETATM   16  C18 UNL     1       2.045  -0.299  -0.284  1.00  0.00     0.098 C 
HETATM   17  C19 UNL     1       3.537  -0.251  -0.449  1.00  0.00     0.232 C 
HETATM   18  O4  UNL     1       4.037   0.598   0.507  1.00  0.00    -0.356 OA
HETATM   19  C28 UNL     1       2.935   1.291   1.088  1.00  0.00     0.185 C 
ENDROOT
BRANCH  19  20
HETATM   20  C29 UNL     1       3.478   1.834   2.362  1.00  0.00     0.199 C 
BRANCH  20  21
HETATM   21  O5  UNL     1       2.593   2.585   3.122  1.00  0.00    -0.398 OA
ATOM     22  H5  UNL     1       2.940   2.932   3.936  1.00  0.00     0.209 HD
ENDBRANCH  20  21
ENDBRANCH  19  20
BRANCH  17  23
HETATM   23  N3  UNL     1       3.991   0.175  -1.734  1.00  0.00    -0.309 N 
HETATM   24  C20 UNL     1       3.331   0.782  -2.752  1.00  0.00     0.187 A 
HETATM   25  N4  UNL     1       4.166   0.999  -3.780  1.00  0.00    -0.336 N 
HETATM   26  C21 UNL     1       5.366   0.542  -3.451  1.00  0.00     0.138 A 
ATOM     27  H4  UNL     1       3.919   1.441  -4.665  1.00  0.00     0.168 HD
HETATM   28  N5  UNL     1       6.502   0.545  -4.163  1.00  0.00    -0.337 N 
HETATM   29  C27 UNL     1       5.256   0.029  -2.178  1.00  0.00     0.126 A 
HETATM   30  C22 UNL     1       7.611   0.015  -3.607  1.00  0.00     0.183 A 
ATOM     31  H5  UNL     1       6.527   0.939  -5.104  1.00  0.00     0.168 HD
HETATM   32  N6  UNL     1       7.546  -0.500  -2.359  1.00  0.00    -0.337 N 
HETATM   33  C23 UNL     1       6.425  -0.515  -1.627  1.00  0.00     0.133 A 
ATOM     34  H6  UNL     1       8.394  -0.897  -1.954  1.00  0.00     0.168 HD
BRANCH  33  35
HETATM   35  N7  UNL     1       6.388  -1.000  -0.470  1.00  0.00    -0.370 N 
ATOM     36  H7  UNL     1       5.470  -0.944  -0.028  1.00  0.00     0.161 HD
BRANCH  35  37
HETATM   37  C24 UNL     1       7.376  -1.609   0.338  1.00  0.00     0.083 A 
HETATM   38  C25 UNL     1       8.573  -2.299  -0.169  1.00  0.00     0.027 A 
HETATM   39  C26 UNL     1       8.730  -0.924   0.398  1.00  0.00     0.027 A 
ENDBRANCH  35  37
ENDBRANCH  33  35
ENDBRANCH  17  23
BRANCH   3  40
HETATM   40  C2  UNL     1      -5.640   0.804  -0.679  1.00  0.00     0.086 C 
HETATM   41  C3  UNL     1      -5.707   0.167  -2.010  1.00  0.00     0.025 C 
HETATM   42  C4  UNL     1      -7.114   0.059  -2.587  1.00  0.00     0.002 C 
HETATM   43  C5  UNL     1      -7.638  -1.312  -2.227  1.00  0.00     0.000 C 
HETATM   44  C6  UNL     1      -8.743  -1.122  -1.206  1.00  0.00     0.000 C 
HETATM   45  C7  UNL     1      -8.304  -1.504   0.177  1.00  0.00     0.000 C 
HETATM   46  C8  UNL     1      -6.975  -0.922   0.576  1.00  0.00     0.002 C 
HETATM   47  C9  UNL     1      -6.794   0.504   0.236  1.00  0.00     0.025 C 
ENDBRANCH   3  40
TORSDOF 6
