REMARK  5 active torsions:
REMARK  status: ('A' for Active; 'I' for Inactive)
REMARK    1  A    between atoms: C3_3  and  O1_4 
REMARK    2  A    between atoms: C5_7  and  N1_8 
REMARK    3  A    between atoms: C10_18  and  C11_19 
REMARK    4  A    between atoms: C11_19  and  O5_20 
REMARK    5  A    between atoms: O5_20  and  C12_21 
ROOT
HETATM    1  C1  UNL     1       6.751  -3.860  -0.540  1.00  0.00     0.015 C 
HETATM    2  C2  UNL     1       6.028  -2.927  -0.832  1.00  0.00    -0.076 C 
HETATM    3  C3  UNL     1       5.158  -1.798  -1.158  1.00  0.00     0.152 C 
HETATM    4  C4  UNL     1       5.916  -0.579  -1.563  1.00  0.00     0.108 C 
HETATM    5  C5  UNL     1       5.702   0.389  -0.438  1.00  0.00     0.236 C 
HETATM    6  O4  UNL     1       5.070  -0.269   0.582  1.00  0.00    -0.355 OA
HETATM    7  C10 UNL     1       4.402  -1.364   0.054  1.00  0.00     0.195 C 
ENDROOT
BRANCH   3   8
HETATM    8  O1  UNL     1       4.268  -2.239  -2.135  1.00  0.00    -0.375 OA
ATOM      9  H1  UNL     1       3.703  -1.505  -2.347  1.00  0.00     0.212 HD
ENDBRANCH   3   8
BRANCH   7  10
HETATM   10  C11 UNL     1       2.978  -0.948  -0.252  1.00  0.00     0.207 C 
BRANCH  10  11
HETATM   11  O5  UNL     1       2.410  -0.540   0.954  1.00  0.00    -0.359 OA
BRANCH  11  12
HETATM   12  C12 UNL     1       1.096  -0.153   0.684  1.00  0.00     0.259 C 
HETATM   13  C13 UNL     1       0.183  -1.100   1.447  1.00  0.00     0.061 C 
HETATM   14  C14 UNL     1      -1.090  -1.228   0.678  1.00  0.00     0.005 C 
HETATM   15  C15 UNL     1      -1.830  -2.527   1.011  1.00  0.00     0.000 C 
HETATM   16  C16 UNL     1      -2.778  -2.784  -0.151  1.00  0.00     0.000 C 
HETATM   17  C17 UNL     1      -3.727  -3.891   0.105  1.00  0.00     0.000 C 
HETATM   18  C18 UNL     1      -5.004  -3.528   0.754  1.00  0.00     0.000 C 
HETATM   19  C19 UNL     1      -5.255  -2.079   0.951  1.00  0.00     0.002 C 
HETATM   20  C20 UNL     1      -6.011  -1.437  -0.193  1.00  0.00     0.020 C 
HETATM   21  C21 UNL     1      -7.105  -0.517   0.316  1.00  0.00     0.122 C 
HETATM   22  N3  UNL     1      -7.466   0.369  -0.758  1.00  0.00    -0.359 N 
HETATM   23  C22 UNL     1      -7.443   1.782  -0.678  1.00  0.00     0.241 C 
ATOM     24  H3  UNL     1      -7.759  -0.051  -1.640  1.00  0.00     0.162 HD
HETATM   25  O6  UNL     1      -8.339   2.408  -1.323  1.00  0.00    -0.271 OA
HETATM   26  C23 UNL     1      -6.434   2.542   0.113  1.00  0.00     0.270 C 
HETATM   27  O7  UNL     1      -5.191   2.552  -0.502  1.00  0.00    -0.380 OA
HETATM   28  C24 UNL     1      -4.595   3.809  -0.364  1.00  0.00     0.194 C 
HETATM   29  C25 UNL     1      -3.158   3.676  -0.846  1.00  0.00     0.193 C 
HETATM   30  O8  UNL     1      -2.289   4.462  -0.077  1.00  0.00    -0.389 OA
HETATM   31  C26 UNL     1      -0.996   3.983  -0.323  1.00  0.00     0.169 C 
HETATM   32  C27 UNL     1      -0.676   2.886   0.642  1.00  0.00     0.052 C 
HETATM   33  C28 UNL     1       0.229   1.849  -0.005  1.00  0.00     0.173 C 
HETATM   34  O9  UNL     1       0.864   1.169   1.032  1.00  0.00    -0.361 OA
ENDBRANCH  11  12
ENDBRANCH  10  11
ENDBRANCH   7  10
BRANCH   5  35
HETATM   35  N1  UNL     1       7.008   0.838   0.050  1.00  0.00    -0.282 N 
HETATM   36  C6  UNL     1       7.380   0.701   1.334  1.00  0.00     0.104 A 
HETATM   37  C7  UNL     1       8.624   1.135   1.778  1.00  0.00     0.092 A 
HETATM   38  C8  UNL     1       9.468   1.712   0.854  1.00  0.00     0.250 A 
HETATM   39  O2  UNL     1      10.612   2.117   1.233  1.00  0.00    -0.268 OA
HETATM   40  N2  UNL     1       9.054   1.828  -0.415  1.00  0.00    -0.275 N 
HETATM   41  C9  UNL     1       7.854   1.413  -0.855  1.00  0.00     0.331 A 
ATOM     42  H2  UNL     1       9.688   2.258  -1.088  1.00  0.00     0.173 HD
HETATM   43  O3  UNL     1       7.508   1.543  -2.061  1.00  0.00    -0.246 OA
ENDBRANCH   5  35
TORSDOF 5
