REMARK  7 active torsions:
REMARK  status: ('A' for Active; 'I' for Inactive)
REMARK    1  A    between atoms: C2_2  and  C5_5 
REMARK    2  A    between atoms: C6_6  and  C7_7 
REMARK    3  A    between atoms: C8_10  and  N2_11 
REMARK    4  A    between atoms: N4_19  and  C12_20 
REMARK    5  A    between atoms: C13_23  and  N6_24 
REMARK    6  A    between atoms: C19_33  and  C20_34 
REMARK    7  A    between atoms: N9_40  and  C24_42 
ROOT
HETATM    1  C12 UNL     1       0.372  -1.226   0.590  1.00  0.00     0.132 A 
HETATM    2  N5  UNL     1      -0.600  -2.193   0.361  1.00  0.00    -0.176 N 
ATOM      3  H5  UNL     1      -1.557  -1.893   0.175  1.00  0.00     0.186 HD
HETATM    4  C13 UNL     1      -0.328  -3.494   0.375  1.00  0.00     0.681 A 
HETATM    5  N7  UNL     1       0.932  -3.912   0.618  1.00  0.00    -0.201 N 
ATOM      6  H7  UNL     1       1.142  -4.910   0.630  1.00  0.00     0.183 HD
HETATM    7  C18 UNL     1       1.912  -3.021   0.844  1.00  0.00     0.122 A 
HETATM    8  C19 UNL     1       1.628  -1.640   0.829  1.00  0.00     0.035 A 
ENDROOT
BRANCH   1   9
HETATM    9  N4  UNL     1      -0.025   0.121   0.630  1.00  0.00    -0.356 N 
HETATM   10  C11 UNL     1      -1.233   0.580  -0.113  1.00  0.00     0.168 C 
HETATM   11  C10 UNL     1      -1.865   1.399   0.959  1.00  0.00     0.021 A 
HETATM   12  C7  UNL     1      -3.211   1.697   1.129  1.00  0.00     0.113 A 
HETATM   13  C9  UNL     1      -0.903   1.850   1.830  1.00  0.00     0.055 A 
HETATM   14  N1  UNL     1      -3.498   2.456   2.202  1.00  0.00    -0.183 N 
HETATM   15  C8  UNL     1      -2.553   2.895   3.052  1.00  0.00     0.677 A 
ATOM     16  H1  UNL     1      -4.471   2.708   2.378  1.00  0.00     0.185 HD
HETATM   17  N3  UNL     1      -1.258   2.596   2.869  1.00  0.00    -0.193 N 
ATOM     18  H3  UNL     1      -0.553   2.939   3.522  1.00  0.00     0.184 HD
HETATM   19  C30 UNL     1       0.404   1.319   1.284  1.00  0.00     0.183 C 
BRANCH  12  20
HETATM   20  C6  UNL     1      -4.229   1.238   0.231  1.00  0.00    -0.047 C 
HETATM   21  C5  UNL     1      -5.084   0.868  -0.540  1.00  0.00    -0.091 C 
BRANCH  21  22
HETATM   22  C2  UNL     1      -6.119   0.435  -1.497  1.00  0.00     0.013 C 
HETATM   23  C1  UNL     1      -7.494   0.841  -1.040  1.00  0.00     0.028 C 
HETATM   24  C3  UNL     1      -5.881   1.109  -2.857  1.00  0.00     0.028 C 
HETATM   25  C4  UNL     1      -5.992  -1.040  -1.712  1.00  0.00     0.028 C 
ENDBRANCH  21  22
ENDBRANCH  12  20
BRANCH  15  26
HETATM   26  N2  UNL     1      -2.953   3.623   4.056  1.00  0.00    -0.234 N 
ATOM     27  H22 UNL     1      -3.938   3.850   4.195  1.00  0.00     0.174 HD
ATOM     28  H21 UNL     1      -2.236   3.956   4.701  1.00  0.00     0.174 HD
ENDBRANCH  15  26
ENDBRANCH   1   9
BRANCH   8  29
HETATM   29  C20 UNL     1       2.753  -0.736   1.006  1.00  0.00    -0.016 A 
HETATM   30  C21 UNL     1       3.487  -0.814   2.169  1.00  0.00     0.029 A 
HETATM   31  C22 UNL     1       4.577  -0.013   2.333  1.00  0.00     0.090 A 
HETATM   32  N8  UNL     1       4.941   0.857   1.357  1.00  0.00    -0.353 N 
HETATM   33  C23 UNL     1       4.264   0.976   0.206  1.00  0.00     0.101 A 
ATOM     34  H8  UNL     1       5.762   1.444   1.505  1.00  0.00     0.166 HD
HETATM   35  N9  UNL     1       4.578   1.789  -0.744  1.00  0.00    -0.371 N 
HETATM   36  C29 UNL     1       3.148   0.155   0.041  1.00  0.00     0.060 A 
ATOM     37  H9  UNL     1       4.010   1.817  -1.591  1.00  0.00     0.161 HD
BRANCH  35  38
HETATM   38  C24 UNL     1       5.709   2.650  -0.626  1.00  0.00     0.087 C 
HETATM   39  C25 UNL     1       6.192   3.130  -1.996  1.00  0.00     0.051 C 
HETATM   40  C26 UNL     1       7.398   4.004  -1.738  1.00  0.00     0.169 C 
HETATM   41  O2  UNL     1       7.155   5.057  -0.891  1.00  0.00    -0.391 OA
HETATM   42  C27 UNL     1       6.702   4.633   0.364  1.00  0.00     0.169 C 
HETATM   43  C28 UNL     1       5.397   3.923   0.163  1.00  0.00     0.051 C 
ENDBRANCH  35  38
ENDBRANCH   8  29
BRANCH   4  44
HETATM   44  N6  UNL     1      -1.303  -4.501   0.147  1.00  0.00    -0.214 N 
HETATM   45  C14 UNL     1      -2.671  -4.095  -0.076  1.00  0.00     0.167 C 
HETATM   46  C15 UNL     1      -3.213  -4.945  -1.218  1.00  0.00     0.188 C 
HETATM   47  O1  UNL     1      -2.165  -5.559  -1.912  1.00  0.00    -0.388 OA
HETATM   48  C16 UNL     1      -1.550  -6.524  -1.138  1.00  0.00     0.188 C 
HETATM   49  C17 UNL     1      -0.994  -5.911   0.126  1.00  0.00     0.167 C 
ENDBRANCH   4  44
TORSDOF 7
