REMARK  7 active torsions:
REMARK  status: ('A' for Active; 'I' for Inactive)
REMARK    1  A    between atoms: N4_6  and  C2_7 
REMARK    2  A    between atoms: C5_10  and  N5_11 
REMARK    3  A    between atoms: N5_11  and  O1_12 
REMARK    4  A    between atoms: C6_15  and  C7_16 
REMARK    5  A    between atoms: C7_16  and  N6_17 
REMARK    6  A    between atoms: N6_17  and  N7_18 
REMARK    7  A    between atoms: N7_18  and  N8_19 
REMARK       I    between atoms: N8_19  and  C8_21 
REMARK       I    between atoms: C8_21  and  N9_23 
ROOT
HETATM    1  N1  UNL     1      -0.269  -2.552  -1.737  1.00  0.00    -0.079 NA
HETATM    2  C1  UNL     1      -1.658  -2.385  -1.406  1.00  0.00     0.160 A 
HETATM    3  N2  UNL     1      -2.699  -3.165  -1.467  1.00  0.00    -0.269 N 
ATOM      4  H2  UNL     1      -2.687  -4.133  -1.789  1.00  0.00     0.185 HD
HETATM    5  N3  UNL     1      -3.792  -2.507  -1.043  1.00  0.00    -0.016 NA
HETATM    6  N4  UNL     1      -3.426  -1.228  -0.698  1.00  0.00    -0.241 N 
HETATM    7  C6  UNL     1      -2.123  -1.161  -0.920  1.00  0.00     0.126 A 
ENDROOT
BRANCH   7   8
HETATM    8  C7  UNL     1      -1.301  -0.030  -0.539  1.00  0.00     0.261 C 
BRANCH   8   9
HETATM    9  N6  UNL     1      -0.131  -0.014  -0.395  1.00  0.00    -0.239 NA
BRANCH   9  10
HETATM   10  N7  UNL     1       1.139  -0.022  -0.246  1.00  0.00    -0.151 NA
BRANCH  10  11
HETATM   11  N8  UNL     1       2.443  -0.026  -0.098  1.00  0.00    -0.152 N 
HETATM   12  C8  UNL     1       3.569  -0.698  -0.519  1.00  0.00     0.349 C 
HETATM   13  O3  UNL     1       3.513  -1.652  -1.318  1.00  0.00    -0.244 OA
HETATM   14  N9  UNL     1       4.852  -0.243   0.010  1.00  0.00    -0.328 N 
HETATM   15  C9  UNL     1       4.860   0.883   0.886  1.00  0.00     0.153 C 
HETATM   16  C12 UNL     1       6.029  -0.939  -0.340  1.00  0.00     0.153 C 
HETATM   17  C10 UNL     1       6.207   1.505   1.096  1.00  0.00     0.187 C 
HETATM   18  O4  UNL     1       6.983   1.260  -0.017  1.00  0.00    -0.388 OA
HETATM   19  C11 UNL     1       7.274  -0.120   0.022  1.00  0.00     0.187 C 
ATOM     20  H8  UNL     1       2.713   0.719   0.545  1.00  0.00     0.210 HD
ENDBRANCH  10  11
ENDBRANCH   9  10
ENDBRANCH   8   9
ENDBRANCH   7   8
BRANCH   6  21
HETATM   21  C2  UNL     1      -4.390  -0.337  -0.210  1.00  0.00     0.245 C 
HETATM   22  C3  UNL     1      -4.351   1.120  -0.454  1.00  0.00     0.059 C 
HETATM   23  C4  UNL     1      -5.810   1.391   0.068  1.00  0.00     0.056 C 
HETATM   24  C5  UNL     1      -5.789   0.447   1.225  1.00  0.00     0.244 C 
HETATM   25  O2  UNL     1      -4.644  -0.349   1.150  1.00  0.00    -0.342 OA
BRANCH  24  26
HETATM   26  N5  UNL     1      -5.757   1.253   2.448  1.00  0.00    -0.071 NA
BRANCH  26  27
HETATM   27  O1  UNL     1      -6.843   2.053   2.484  1.00  0.00    -0.294 OA
ATOM     28  H1  UNL     1      -6.822   2.576   3.277  1.00  0.00     0.238 HD
ENDBRANCH  26  27
ENDBRANCH  24  26
ENDBRANCH   6  21
TORSDOF 7
