REMARK  7 active torsions:
REMARK  status: ('A' for Active; 'I' for Inactive)
REMARK    1  A    between atoms: C2_2  and  O1_3 
REMARK    2  A    between atoms: O1_3  and  C3_4 
REMARK    3  A    between atoms: C5_8  and  N2_9 
REMARK    4  A    between atoms: C11_23  and  C12_24 
REMARK    5  A    between atoms: C12_24  and  O2_25 
REMARK    6  A    between atoms: C12_24  and  N8_27 
REMARK       I    between atoms: N8_27  and  C13_29 
REMARK       I    between atoms: C13_29  and  N10_33 
REMARK    7  A    between atoms: N10_33  and  N11_35 
ROOT
HETATM    1  C3  UNL     1      -1.192   1.501   0.205  1.00  0.00     0.174 A 
HETATM    2  N1  UNL     1      -0.119   2.334  -0.020  1.00  0.00    -0.341 N 
ATOM      3  H1  UNL     1      -0.240   3.347  -0.037  1.00  0.00     0.167 HD
HETATM    4  C4  UNL     1       1.084   1.787  -0.215  1.00  0.00     0.139 A 
HETATM    5  C5  UNL     1       1.266   0.422  -0.195  1.00  0.00     0.128 A 
HETATM    6  N7  UNL     1       0.198  -0.337   0.026  1.00  0.00    -0.334 N 
ATOM      7  H7  UNL     1       0.330  -1.348   0.041  1.00  0.00     0.168 HD
HETATM    8  C11 UNL     1      -1.069   0.144   0.235  1.00  0.00     0.137 A 
ENDROOT
BRANCH   8   9
HETATM    9  C12 UNL     1      -2.162  -0.781   0.467  1.00  0.00     0.186 C 
BRANCH   9  10
HETATM   10  O2  UNL     1      -1.821  -2.037   0.455  1.00  0.00    -0.344 OA
ATOM     11  H2  UNL     1      -2.537  -2.643   0.607  1.00  0.00     0.219 HD
ENDBRANCH   9  10
BRANCH   9  12
HETATM   12  N8  UNL     1      -3.497  -0.538   0.698  1.00  0.00    -0.167 N 
HETATM   13  C13 UNL     1      -4.416  -1.628   0.905  1.00  0.00     0.692 C 
HETATM   14  N9  UNL     1      -5.670  -1.397   1.121  1.00  0.00    -0.233 N 
HETATM   15  N10 UNL     1      -4.014  -2.985   0.885  1.00  0.00    -0.139 N 
ATOM     16  H92 UNL     1      -5.960  -0.419   1.135  1.00  0.00     0.174 HD
ATOM     17  H91 UNL     1      -6.321  -2.169   1.268  1.00  0.00     0.174 HD
ATOM     18  H10 UNL     1      -3.813  -3.421  -0.015  1.00  0.00     0.205 HD
ATOM     19  H8  UNL     1      -3.839   0.423   0.723  1.00  0.00     0.186 HD
BRANCH  15  20
HETATM   20  N11 UNL     1      -3.880  -3.758   2.050  1.00  0.00    -0.331 N 
ATOM     21 2H11 UNL     1      -4.085  -3.306   2.941  1.00  0.00     0.177 HD
ATOM     22 1H11 UNL     1      -3.590  -4.736   2.036  1.00  0.00     0.177 HD
ENDBRANCH  15  20
ENDBRANCH   9  12
ENDBRANCH   8   9
BRANCH   1  23
HETATM   23  O1  UNL     1      -2.442   2.084   0.407  1.00  0.00    -0.334 OA
BRANCH  23  24
HETATM   24  C2  UNL     1      -2.576   3.488   0.377  1.00  0.00     0.173 C 
HETATM   25  C1  UNL     1      -3.990   3.916   0.615  1.00  0.00     0.034 C 
ENDBRANCH  23  24
ENDBRANCH   1  23
BRANCH   5  26
HETATM   26  N2  UNL     1       2.573  -0.106  -0.409  1.00  0.00    -0.279 N 
HETATM   27  C6  UNL     1       3.433  -0.314   0.722  1.00  0.00     0.200 A 
HETATM   28  N3  UNL     1       2.907   0.031   2.012  1.00  0.00    -0.063 NA
HETATM   29  N4  UNL     1       4.626  -0.788   0.599  1.00  0.00    -0.304 N 
HETATM   30  C7  UNL     1       5.124  -1.122  -0.697  1.00  0.00     0.192 A 
ATOM     31  H4  UNL     1       5.211  -0.924   1.423  1.00  0.00     0.171 HD
HETATM   32  N5  UNL     1       6.445  -1.639  -0.763  1.00  0.00    -0.063 NA
HETATM   33  N6  UNL     1       4.382  -0.947  -1.719  1.00  0.00    -0.338 N 
HETATM   34  C8  UNL     1       3.042  -0.432  -1.738  1.00  0.00     0.109 A 
ATOM     35  H6  UNL     1       4.784  -1.201  -2.621  1.00  0.00     0.164 HD
HETATM   36  C9  UNL     1       3.050   0.789  -2.648  1.00  0.00     0.063 C 
HETATM   37  C10 UNL     1       2.165  -1.533  -2.350  1.00  0.00     0.063 C 
ENDBRANCH   5  26
TORSDOF 7
