REMARK  13 active torsions:
REMARK  status: ('A' for Active; 'I' for Inactive)
REMARK    1  A    between atoms: C2_2  and  O1_3 
REMARK    2  A    between atoms: O1_3  and  S1_4 
REMARK    3  A    between atoms: S1_4  and  N1_7 
REMARK       I    between atoms: N1_7  and  C3_9 
REMARK    4  A    between atoms: C3_9  and  O5_11 
REMARK    5  A    between atoms: O5_11  and  N2_12 
REMARK    6  A    between atoms: N2_12  and  C4_14 
REMARK    7  A    between atoms: C6_17  and  N3_18 
REMARK    8  A    between atoms: C10_28  and  C11_29 
REMARK    9  A    between atoms: C11_29  and  N7_34 
REMARK   10  A    between atoms: N6_30  and  O6_32 
REMARK   11  A    between atoms: N7_34  and  C12_36 
REMARK   12  A    between atoms: C12_36  and  C13_37 
REMARK   13  A    between atoms: C13_37  and  S3_38 
ROOT
HETATM    1  C4  UNL     1      -0.260  -0.751   1.009  1.00  0.00     0.113 A 
HETATM    2  S2  UNL     1       0.627  -2.212   1.145  1.00  0.00    -0.064 SA
HETATM    3  C5  UNL     1      -0.536  -3.292   0.540  1.00  0.00     0.078 A 
HETATM    4  C6  UNL     1      -0.550  -4.676   0.328  1.00  0.00     0.119 A 
HETATM    5  N4  UNL     1      -1.630  -5.284  -0.188  1.00  0.00    -0.332 N 
ATOM      6  H4  UNL     1      -1.662  -6.290  -0.351  1.00  0.00     0.168 HD
HETATM    7  C7  UNL     1      -2.668  -4.476  -0.476  1.00  0.00     0.079 A 
HETATM    8  C8  UNL     1      -3.908  -5.118  -1.061  1.00  0.00     0.089 C 
HETATM    9  N5  UNL     1      -2.673  -3.162  -0.282  1.00  0.00    -0.344 N 
ATOM     10  H5  UNL     1      -3.508  -2.633  -0.533  1.00  0.00     0.167 HD
HETATM   11  C9  UNL     1      -1.598  -2.488   0.243  1.00  0.00     0.071 A 
HETATM   12  C10 UNL     1      -1.447  -1.162   0.490  1.00  0.00     0.073 A 
ENDROOT
BRANCH   1  13
HETATM   13  N2  UNL     1       0.207   0.555   1.373  1.00  0.00    -0.248 N 
ATOM     14  H2  UNL     1      -0.389   1.376   1.266  1.00  0.00     0.195 HD
BRANCH  13  15
HETATM   15  O5  UNL     1       1.484   0.665   1.871  1.00  0.00    -0.179 OA
BRANCH  15  16
HETATM   16  C3  UNL     1       2.526   0.393   1.015  1.00  0.00     0.397 C 
HETATM   17  N1  UNL     1       3.858   0.487   1.479  1.00  0.00    -0.205 N 
ATOM     18  H1  UNL     1       4.010   0.760   2.450  1.00  0.00     0.186 HD
HETATM   19  O4  UNL     1       2.330   0.061  -0.179  1.00  0.00    -0.235 OA
BRANCH  17  20
HETATM   20  S1  UNL     1       5.244   0.166   0.496  1.00  0.00     0.366 S 
HETATM   21  O2  UNL     1       5.811  -1.175   0.908  1.00  0.00    -0.175 OA
HETATM   22  O3  UNL     1       4.859   0.054  -0.954  1.00  0.00    -0.175 OA
BRANCH  20  23
HETATM   23  O1  UNL     1       6.384   1.380   0.612  1.00  0.00    -0.260 OA
BRANCH  23  24
HETATM   24  C2  UNL     1       7.035   1.642  -0.594  1.00  0.00     0.187 C 
HETATM   25  C1  UNL     1       8.041   2.749  -0.382  1.00  0.00     0.035 C 
ENDBRANCH  23  24
ENDBRANCH  20  23
ENDBRANCH  17  20
ENDBRANCH  15  16
ENDBRANCH  13  15
ENDBRANCH   1  13
BRANCH  12  26
HETATM   26  C11 UNL     1      -2.505  -0.157   0.195  1.00  0.00     0.136 C 
HETATM   27  N6  UNL     1      -3.662  -0.417   0.613  1.00  0.00    -0.252 N 
ATOM     28  H6  UNL     1      -3.721  -1.304   1.113  1.00  0.00     0.196 HD
BRANCH  27  29
HETATM   29  O6  UNL     1      -4.826   0.225   0.539  1.00  0.00    -0.288 OA
ATOM     30  H6  UNL     1      -5.700   0.029   0.855  1.00  0.00     0.244 HD
ENDBRANCH  27  29
BRANCH  26  31
HETATM   31  N7  UNL     1      -2.209   1.003  -0.545  1.00  0.00    -0.373 N 
ATOM     32  H7  UNL     1      -1.370   0.974  -1.124  1.00  0.00     0.161 HD
BRANCH  31  33
HETATM   33  C12 UNL     1      -2.966   2.225  -0.570  1.00  0.00     0.139 C 
BRANCH  33  34
HETATM   34  C13 UNL     1      -2.943   3.034   0.682  1.00  0.00     0.184 C 
BRANCH  34  35
HETATM   35  S3  UNL     1      -3.939   4.519   0.504  1.00  0.00     0.103 S 
HETATM   36  O7  UNL     1      -3.406   5.412  -0.576  1.00  0.00    -0.595 OA
HETATM   37  O8  UNL     1      -3.956   5.279   1.795  1.00  0.00    -0.595 OA
HETATM   38  O9  UNL     1      -5.532   4.062   0.170  1.00  0.00    -0.595 OA
ENDBRANCH  34  35
ENDBRANCH  33  34
ENDBRANCH  31  33
ENDBRANCH  26  31
ENDBRANCH  12  26
BRANCH   4  39
HETATM   39  N3  UNL     1       0.505  -5.333   0.646  1.00  0.00    -0.384 N 
ATOM     40  H32 UNL     1       1.326  -4.871   1.038  1.00  0.00     0.157 HD
ATOM     41  H31 UNL     1       0.495  -6.341   0.492  1.00  0.00     0.157 HD
ENDBRANCH   4  39
TORSDOF 13
