REMARK  14 active torsions:
REMARK  status: ('A' for Active; 'I' for Inactive)
REMARK    1  A    between atoms: C2_2  and  C3_4 
REMARK    2  A    between atoms: C3_4  and  N1_5 
REMARK    3  A    between atoms: C3_4  and  C8_21 
REMARK    4  A    between atoms: N1_5  and  N2_7 
REMARK    5  A    between atoms: C4_10  and  C5_11 
REMARK    6  A    between atoms: C5_11  and  N4_12 
REMARK    7  A    between atoms: C8_21  and  O4_23 
REMARK    8  A    between atoms: O4_23  and  N6_24 
REMARK    9  A    between atoms: N6_24  and  C9_26 
REMARK   10  A    between atoms: C9_26  and  C10_27 
REMARK   11  A    between atoms: C10_27  and  C11_28 
REMARK   12  A    between atoms: C14_39  and  O5_40 
REMARK   13  A    between atoms: C14_39  and  N11_42 
REMARK   14  A    between atoms: N11_42  and  C15_44 
ROOT
HETATM    1  N6  UNL     1      -0.305  -1.460   0.297  1.00  0.00    -0.257 N 
ATOM      2  H6  UNL     1      -0.395  -2.392   0.702  1.00  0.00     0.195 HD
ENDROOT
BRANCH   1   3
HETATM    3  O4  UNL     1       0.923  -0.934   0.163  1.00  0.00    -0.193 OA
BRANCH   3   4
HETATM    4  C8  UNL     1       1.762  -1.056  -0.928  1.00  0.00     0.337 C 
HETATM    5  O3  UNL     1       1.357  -1.713  -1.890  1.00  0.00    -0.255 OA
BRANCH   4   6
HETATM    6  C3  UNL     1       3.103  -0.433  -0.974  1.00  0.00     0.173 C 
BRANCH   6   7
HETATM    7  C2  UNL     1       3.941  -0.563  -2.146  1.00  0.00     0.179 C 
HETATM    8  C1  UNL     1       3.483  -1.312  -3.332  1.00  0.00     0.099 C 
HETATM    9  O1  UNL     1       5.078  -0.036  -2.174  1.00  0.00    -0.291 OA
ENDBRANCH   6   7
BRANCH   6  10
HETATM   10  N1  UNL     1       3.502   0.239   0.066  1.00  0.00    -0.266 N 
ATOM     11  H1  UNL     1       2.857   0.287   0.854  1.00  0.00     0.189 HD
BRANCH  10  12
HETATM   12  N2  UNL     1       4.709   0.894   0.213  1.00  0.00    -0.141 N 
HETATM   13  N3  UNL     1       5.797   0.295   0.692  1.00  0.00    -0.271 N 
HETATM   14  C4  UNL     1       6.965   0.918   0.850  1.00  0.00     0.103 A 
ATOM     15  H3  UNL     1       5.734  -0.690   0.951  1.00  0.00     0.189 HD
HETATM   16  C6  UNL     1       7.056   2.260   0.499  1.00  0.00     0.134 A 
HETATM   17  S1  UNL     1       8.476   3.008   0.692  1.00  0.00    -0.058 SA
HETATM   18  N5  UNL     1       5.965   2.857   0.019  1.00  0.00    -0.295 N 
HETATM   19  C7  UNL     1       4.812   2.205  -0.126  1.00  0.00     0.362 A 
ATOM     20  H5  UNL     1       6.014   3.841  -0.245  1.00  0.00     0.171 HD
HETATM   21  O2  UNL     1       3.780   2.777  -0.581  1.00  0.00    -0.243 OA
BRANCH  14  22
HETATM   22  C5  UNL     1       8.123   0.217   1.386  1.00  0.00     0.115 C 
BRANCH  22  23
HETATM   23  N4  UNL     1       8.007  -1.023   1.710  1.00  0.00    -0.406 N 
ATOM     24  H42 UNL     1       7.110  -1.493   1.587  1.00  0.00     0.155 HD
ATOM     25  H41 UNL     1       8.818  -1.514   2.086  1.00  0.00     0.155 HD
ENDBRANCH  22  23
ENDBRANCH  14  22
ENDBRANCH  10  12
ENDBRANCH   6  10
ENDBRANCH   4   6
ENDBRANCH   3   4
ENDBRANCH   1   3
BRANCH   1  26
HETATM   26  C9  UNL     1      -1.437  -0.803  -0.084  1.00  0.00     0.088 C 
HETATM   27  C14 UNL     1      -2.597  -1.582   0.169  1.00  0.00     0.162 C 
BRANCH  26  28
HETATM   28  C10 UNL     1      -1.269   0.516  -0.651  1.00  0.00     0.124 C 
BRANCH  28  29
HETATM   29  C11 UNL     1      -1.854   1.688   0.028  1.00  0.00     0.074 A 
HETATM   30  N7  UNL     1      -1.282   2.301   1.130  1.00  0.00    -0.192 N 
HETATM   31  C12 UNL     1      -2.059   3.289   1.582  1.00  0.00     0.677 A 
ATOM     32  H7  UNL     1      -0.388   2.034   1.541  1.00  0.00     0.184 HD
HETATM   33  N8  UNL     1      -1.809   4.066   2.611  1.00  0.00    -0.234 N 
HETATM   34  N9  UNL     1      -3.146   3.354   0.803  1.00  0.00    -0.177 N 
ATOM     35  H82 UNL     1      -0.981   4.016   3.204  1.00  0.00     0.174 HD
ATOM     36  H81 UNL     1      -2.402   4.820   2.956  1.00  0.00     0.174 HD
HETATM   37  C13 UNL     1      -3.015   2.383  -0.138  1.00  0.00     0.155 A 
ATOM     38  H9  UNL     1      -3.923   4.007   0.898  1.00  0.00     0.185 HD
HETATM   39  N10 UNL     1      -3.964   2.214  -1.183  1.00  0.00    -0.080 NA
ENDBRANCH  28  29
ENDBRANCH  26  28
BRANCH  27  40
HETATM   40  O5  UNL     1      -2.388  -2.743   0.716  1.00  0.00    -0.345 OA
ATOM     41  H5  UNL     1      -3.164  -3.264   0.885  1.00  0.00     0.219 HD
ENDBRANCH  27  40
BRANCH  27  42
HETATM   42  N11 UNL     1      -3.948  -1.314  -0.074  1.00  0.00    -0.361 N 
ATOM     43  H11 UNL     1      -4.205  -0.425  -0.503  1.00  0.00     0.162 HD
BRANCH  42  44
HETATM   44  C15 UNL     1      -5.006  -2.269   0.268  1.00  0.00     0.021 C 
HETATM   45  C16 UNL     1      -4.845  -3.554  -0.495  1.00  0.00     0.037 C 
HETATM   46  C17 UNL     1      -4.915  -2.637   1.744  1.00  0.00     0.037 C 
HETATM   47  C18 UNL     1      -6.335  -1.615   0.034  1.00  0.00     0.037 C 
ENDBRANCH  42  44
ENDBRANCH  27  42
ENDBRANCH   1  26
TORSDOF 14
