REMARK  14 active torsions:
REMARK  status: ('A' for Active; 'I' for Inactive)
REMARK    1  A    between atoms: O1_2  and  C2_3 
REMARK    2  A    between atoms: C2_3  and  C3_5 
REMARK    3  A    between atoms: C3_5  and  N1_6 
REMARK    4  A    between atoms: N1_6  and  N2_7 
REMARK    5  A    between atoms: N1_6  and  C4_10 
REMARK    6  A    between atoms: C6_15  and  N4_16 
REMARK       I    between atoms: N4_16  and  C7_18 
REMARK    7  A    between atoms: C7_18  and  C8_20 
REMARK    8  A    between atoms: C8_20  and  N5_23 
REMARK    9  A    between atoms: C11_27  and  C12_28 
REMARK   10  A    between atoms: C12_28  and  O5_29 
REMARK   11  A    between atoms: C12_28  and  N6_31 
REMARK   12  A    between atoms: N6_31  and  N7_32 
REMARK   13  A    between atoms: N7_32  and  C13_34 
REMARK   14  A    between atoms: C20_44  and  O7_46 
ROOT
HETATM    1  C4  UNL     1      -1.669  -0.825  -0.308  1.00  0.00     0.707 A 
HETATM    2  N3  UNL     1      -1.839  -1.886   0.501  1.00  0.00    -0.152 N 
ATOM      3  H3  UNL     1      -2.788  -2.193   0.713  1.00  0.00     0.187 HD
HETATM    4  C5  UNL     1      -0.812  -2.555   1.039  1.00  0.00     0.289 A 
HETATM    5  O3  UNL     1      -0.964  -3.552   1.799  1.00  0.00    -0.265 OA
HETATM    6  C6  UNL     1       0.524  -2.181   0.785  1.00  0.00     0.137 A 
HETATM    7  C11 UNL     1       0.669  -1.106  -0.034  1.00  0.00     0.148 A 
HETATM    8  N8  UNL     1      -0.395  -0.463  -0.554  1.00  0.00    -0.182 N 
ATOM      9  H8  UNL     1      -0.227   0.337  -1.164  1.00  0.00     0.184 HD
ENDROOT
BRANCH   1  10
HETATM   10  N1  UNL     1      -2.766  -0.118  -0.876  1.00  0.00    -0.057 N 
BRANCH  10  11
HETATM   11  C3  UNL     1      -3.426   1.016  -0.277  1.00  0.00     0.379 C 
HETATM   12  O6  UNL     1      -4.723   0.645  -0.016  1.00  0.00    -0.323 OA
HETATM   13  C19 UNL     1      -4.944   0.800   1.357  1.00  0.00     0.242 C 
HETATM   14  C20 UNL     1      -3.918   1.851   1.700  1.00  0.00     0.185 C 
HETATM   15  C21 UNL     1      -4.477   3.194   1.299  1.00  0.00     0.081 C 
HETATM   16  O8  UNL     1      -2.845   1.443   0.910  1.00  0.00    -0.289 OA
BRANCH  11  17
HETATM   17  C2  UNL     1      -3.289   2.127  -1.254  1.00  0.00     0.348 C 
HETATM   18  O2  UNL     1      -2.137   2.533  -1.533  1.00  0.00    -0.257 OA
BRANCH  17  19
HETATM   19  O1  UNL     1      -4.361   2.738  -1.875  1.00  0.00    -0.321 OA
HETATM   20  C1  UNL     1      -4.169   3.798  -2.802  1.00  0.00     0.213 C 
ENDBRANCH  17  19
ENDBRANCH  11  17
BRANCH  14  21
HETATM   21  O7  UNL     1      -3.596   1.866   3.050  1.00  0.00    -0.364 OA
ATOM     22  H7  UNL     1      -2.950   2.528   3.266  1.00  0.00     0.213 HD
ENDBRANCH  14  21
ENDBRANCH  10  11
BRANCH  10  23
HETATM   23  N2  UNL     1      -3.284  -0.528  -2.119  1.00  0.00    -0.323 N 
ATOM     24  H22 UNL     1      -4.070  -0.021  -2.526  1.00  0.00     0.177 HD
ATOM     25  H21 UNL     1      -2.817  -1.330  -2.543  1.00  0.00     0.177 HD
ENDBRANCH  10  23
ENDBRANCH   1  10
BRANCH   7  26
HETATM   26  C12 UNL     1       2.042  -0.624  -0.322  1.00  0.00     0.268 C 
BRANCH  26  27
HETATM   27  O5  UNL     1       3.148  -1.265   0.257  1.00  0.00    -0.332 OA
ATOM     28  H5  UNL     1       4.027  -0.956   0.073  1.00  0.00     0.220 HD
ENDBRANCH  26  27
BRANCH  26  29
HETATM   29  N6  UNL     1       2.197   0.319  -1.051  1.00  0.00    -0.297 NA
BRANCH  29  30
HETATM   30  N7  UNL     1       2.028   1.317  -1.845  1.00  0.00    -0.234 N 
ATOM     31  H7  UNL     1       1.471   1.191  -2.690  1.00  0.00     0.202 HD
BRANCH  30  32
HETATM   32  C13 UNL     1       2.606   2.610  -1.571  1.00  0.00     0.060 A 
HETATM   33  C14 UNL     1       3.370   2.796  -0.439  1.00  0.00     0.032 A 
HETATM   34  C15 UNL     1       3.917   4.035  -0.180  1.00  0.00     0.002 A 
HETATM   35  C16 UNL     1       3.707   5.076  -1.041  1.00  0.00     0.000 A 
HETATM   36  C17 UNL     1       2.932   4.885  -2.189  1.00  0.00     0.002 A 
HETATM   37  C18 UNL     1       2.388   3.649  -2.442  1.00  0.00     0.032 A 
ENDBRANCH  30  32
ENDBRANCH  29  30
ENDBRANCH  26  29
ENDBRANCH   7  26
BRANCH   6  38
HETATM   38  N4  UNL     1       1.569  -2.940   1.385  1.00  0.00    -0.318 N 
HETATM   39  C7  UNL     1       2.046  -4.125   0.722  1.00  0.00     0.257 C 
HETATM   40  O4  UNL     1       1.521  -4.441  -0.403  1.00  0.00    -0.270 OA
ATOM     41  H4  UNL     1       1.975  -2.647   2.274  1.00  0.00     0.169 HD
BRANCH  39  42
HETATM   42  C8  UNL     1       3.088  -4.964   1.291  1.00  0.00     0.196 C 
HETATM   43  C9  UNL     1       4.394  -4.294   1.550  1.00  0.00     0.056 C 
HETATM   44  C10 UNL     1       2.581  -5.571   2.608  1.00  0.00     0.056 C 
BRANCH  42  45
HETATM   45  N5  UNL     1       3.329  -6.101   0.395  1.00  0.00    -0.062 N 
ATOM     46  H53 UNL     1       2.477  -6.624   0.193  1.00  0.00     0.275 HD
ATOM     47  H52 UNL     1       3.545  -5.806  -0.557  1.00  0.00     0.275 HD
ATOM     48  H51 UNL     1       4.060  -6.690   0.794  1.00  0.00     0.275 HD
ENDBRANCH  42  45
ENDBRANCH  39  42
ENDBRANCH   6  38
TORSDOF 14
