REMARK  12 active torsions:
REMARK  status: ('A' for Active; 'I' for Inactive)
REMARK    1  A    between atoms: N1_1  and  C1_4 
REMARK    2  A    between atoms: C3_8  and  S1_9 
REMARK    3  A    between atoms: S1_9  and  C4_10 
REMARK    4  A    between atoms: C4_10  and  C5_11 
REMARK    5  A    between atoms: C5_11  and  C8_27 
REMARK    6  A    between atoms: N3_12  and  N4_14 
REMARK    7  A    between atoms: N4_14  and  C6_16 
REMARK    8  A    between atoms: C6_16  and  C7_17 
REMARK    9  A    between atoms: C7_17  and  N5_18 
REMARK   10  A    between atoms: N6_22  and  N7_24 
REMARK       I    between atoms: C8_27  and  N8_29 
REMARK   11  A    between atoms: N8_29  and  C9_31 
REMARK   12  A    between atoms: C15_40  and  C16_41 
ROOT
HETATM    1  C5  UNL     1      -1.352  -0.312   0.438  1.00  0.00     0.103 C 
HETATM    2  N3  UNL     1      -1.904   0.297   1.426  1.00  0.00    -0.297 N 
ATOM      3  H3  UNL     1      -2.864   0.075   1.688  1.00  0.00     0.187 HD
ENDROOT
BRANCH   1   4
HETATM    4  C4  UNL     1       0.041   0.026   0.076  1.00  0.00     0.145 C 
BRANCH   4   5
HETATM    5  S1  UNL     1       1.132  -1.422   0.197  1.00  0.00    -0.102 SA
BRANCH   5   6
HETATM    6  C3  UNL     1       2.787  -0.951  -0.247  1.00  0.00     0.120 A 
HETATM    7  C2  UNL     1       3.782  -1.918  -0.220  1.00  0.00     0.194 A 
HETATM    8  N2  UNL     1       3.764  -3.225   0.091  1.00  0.00    -0.169 N 
HETATM    9  N13 UNL     1       5.041  -1.592  -0.550  1.00  0.00    -0.160 N 
HETATM   10  C1  UNL     1       5.011  -3.705  -0.047  1.00  0.00     0.693 A 
ATOM     11  H2  UNL     1       2.946  -3.760   0.381  1.00  0.00     0.186 HD
HETATM   12  N14 UNL     1       5.778  -2.686  -0.441  1.00  0.00    -0.109 N 
ATOM     13  H14 UNL     1       6.779  -2.742  -0.629  1.00  0.00     0.208 HD
HETATM   14  N12 UNL     1       5.293  -0.334  -0.897  1.00  0.00    -0.261 N 
HETATM   15  C15 UNL     1       4.366   0.640  -0.939  1.00  0.00     0.134 A 
ATOM     16  H12 UNL     1       6.251  -0.091  -1.148  1.00  0.00     0.191 HD
HETATM   17  N10 UNL     1       3.107   0.309  -0.608  1.00  0.00    -0.332 N 
ATOM     18  H10 UNL     1       2.379   1.023  -0.630  1.00  0.00     0.168 HD
BRANCH  10  19
HETATM   19  N1  UNL     1       5.379  -4.943   0.170  1.00  0.00    -0.233 N 
ATOM     20  H12 UNL     1       4.793  -5.722   0.471  1.00  0.00     0.174 HD
ATOM     21  H11 UNL     1       6.326  -5.307   0.065  1.00  0.00     0.174 HD
ENDBRANCH  10  19
BRANCH  15  22
HETATM   22  C16 UNL     1       4.724   2.002  -1.331  1.00  0.00     0.025 A 
HETATM   23  C17 UNL     1       6.010   2.362  -1.674  1.00  0.00     0.018 A 
HETATM   24  C18 UNL     1       6.337   3.652  -2.043  1.00  0.00     0.018 A 
HETATM   25  C19 UNL     1       5.332   4.594  -2.063  1.00  0.00     0.087 A 
HETATM   26  N11 UNL     1       4.063   4.269  -1.731  1.00  0.00    -0.374 N 
HETATM   27  C20 UNL     1       3.770   2.990  -1.372  1.00  0.00     0.102 A 
ATOM     28  H11 UNL     1       3.330   4.978  -1.749  1.00  0.00     0.164 HD
ENDBRANCH  15  22
ENDBRANCH   5   6
ENDBRANCH   4   5
ENDBRANCH   1   4
BRANCH   1  29
HETATM   29  C8  UNL     1      -2.133  -1.327  -0.298  1.00  0.00     0.270 C 
HETATM   30  O1  UNL     1      -1.538  -1.872  -1.237  1.00  0.00    -0.266 OA
HETATM   31  N8  UNL     1      -3.454  -1.588   0.113  1.00  0.00    -0.320 N 
ATOM     32  H8  UNL     1      -3.800  -1.052   0.909  1.00  0.00     0.169 HD
BRANCH  31  33
HETATM   33  C9  UNL     1      -4.344  -2.510  -0.459  1.00  0.00     0.059 A 
HETATM   34  C10 UNL     1      -4.086  -3.330  -1.531  1.00  0.00     0.031 A 
HETATM   35  C11 UNL     1      -5.022  -4.217  -2.038  1.00  0.00     0.002 A 
HETATM   36  C12 UNL     1      -6.262  -4.305  -1.472  1.00  0.00     0.002 A 
HETATM   37  C13 UNL     1      -6.533  -3.490  -0.400  1.00  0.00     0.029 A 
HETATM   38  C14 UNL     1      -5.616  -2.617   0.102  1.00  0.00     0.073 A 
HETATM   39  N9  UNL     1      -5.976  -1.804   1.221  1.00  0.00    -0.100 NA
ENDBRANCH  31  33
ENDBRANCH   1  29
BRANCH   2  40
HETATM   40  N4  UNL     1      -1.200   1.250   2.132  1.00  0.00    -0.286 N 
ATOM     41  H4  UNL     1      -0.443   0.930   2.736  1.00  0.00     0.188 HD
BRANCH  40  42
HETATM   42  C6  UNL     1      -1.454   2.641   2.077  1.00  0.00     0.136 C 
HETATM   43  N6  UNL     1      -0.474   3.446   1.935  1.00  0.00    -0.293 N 
ATOM     44  H6  UNL     1       0.458   3.037   1.868  1.00  0.00     0.187 HD
BRANCH  42  45
HETATM   45  C7  UNL     1      -2.846   3.133   2.184  1.00  0.00     0.308 C 
BRANCH  45  46
HETATM   46  N5  UNL     1      -3.665   2.593   1.105  1.00  0.00    -0.073 N 
ATOM     47  H53 UNL     1      -3.263   2.791   0.189  1.00  0.00     0.274 HD
ATOM     48  H52 UNL     1      -3.625   1.574   1.072  1.00  0.00     0.274 HD
ATOM     49  H51 UNL     1      -4.624   2.932   1.179  1.00  0.00     0.274 HD
ENDBRANCH  45  46
ENDBRANCH  42  45
BRANCH  43  50
HETATM   50  N7  UNL     1      -0.565   4.825   1.864  1.00  0.00    -0.344 N 
ATOM     51  H72 UNL     1      -1.505   5.216   1.933  1.00  0.00     0.176 HD
ATOM     52  H71 UNL     1       0.218   5.468   1.751  1.00  0.00     0.176 HD
ENDBRANCH  43  50
ENDBRANCH  40  42
ENDBRANCH   2  40
TORSDOF 12
