REMARK  11 active torsions:
REMARK  status: ('A' for Active; 'I' for Inactive)
REMARK    1  A    between atoms: N1_2  and  C2_3 
REMARK    2  A    between atoms: N1_2  and  C4_7 
REMARK    3  A    between atoms: C2_3  and  C3_4 
REMARK    4  A    between atoms: C3_4  and  O1_5 
REMARK    5  A    between atoms: C5_10  and  N3_11 
REMARK    6  A    between atoms: C8_17  and  C9_18 
REMARK    7  A    between atoms: C9_18  and  O2_19 
REMARK    8  A    between atoms: O2_19  and  C10_20 
REMARK    9  A    between atoms: C12_22  and  N5_23 
REMARK   10  A    between atoms: N7_31  and  N8_33 
REMARK       I    between atoms: N9_36  and  C16_37 
REMARK   11  A    between atoms: C17_42  and  N12_43 
ROOT
HETATM    1  C4  UNL     1       4.490  -0.127  -0.538  1.00  0.00     0.681 A 
HETATM    2  N2  UNL     1       4.861   0.233  -1.818  1.00  0.00    -0.175 N 
ATOM      3  H2  UNL     1       5.804   0.044  -2.156  1.00  0.00     0.186 HD
HETATM    4  C5  UNL     1       3.953   0.841  -2.617  1.00  0.00     0.137 A 
HETATM    5  C6  UNL     1       2.702   1.095  -2.168  1.00  0.00     0.114 A 
HETATM    6  C7  UNL     1       1.748   1.699  -3.046  1.00  0.00     0.105 C 
HETATM    7  N4  UNL     1       0.966   2.171  -3.786  1.00  0.00    -0.191 NA
HETATM    8  C8  UNL     1       2.341   0.715  -0.845  1.00  0.00     0.075 A 
HETATM    9  N13 UNL     1       3.252   0.119  -0.093  1.00  0.00    -0.192 N 
ATOM     10  H13 UNL     1       3.003  -0.162   0.855  1.00  0.00     0.184 HD
ENDROOT
BRANCH   4  11
HETATM   11  N3  UNL     1       4.356   1.114  -3.828  1.00  0.00    -0.384 N 
ATOM     12  H32 UNL     1       5.299   0.923  -4.166  1.00  0.00     0.157 HD
ATOM     13  H31 UNL     1       3.672   1.572  -4.430  1.00  0.00     0.157 HD
ENDBRANCH   4  11
BRANCH   8  14
HETATM   14  C9  UNL     1       1.008   1.200  -0.420  1.00  0.00     0.235 C 
BRANCH  14  15
HETATM   15  O2  UNL     1       0.025   0.259  -0.310  1.00  0.00    -0.343 OA
BRANCH  15  16
HETATM   16  C10 UNL     1      -1.304   0.327  -0.010  1.00  0.00     0.107 A 
HETATM   17  C11 UNL     1      -1.972   1.453   0.334  1.00  0.00     0.077 A 
HETATM   18  C12 UNL     1      -3.348   1.527   0.614  1.00  0.00     0.135 A 
HETATM   19  C13 UNL     1      -4.082   0.357   0.516  1.00  0.00     0.122 A 
HETATM   20  C14 UNL     1      -3.414  -0.836   0.168  1.00  0.00     0.115 A 
HETATM   21  N9  UNL     1      -5.380   0.053   0.544  1.00  0.00    -0.113 N 
HETATM   22  N6  UNL     1      -4.341  -1.834   0.007  1.00  0.00    -0.185 N 
HETATM   23  C17 UNL     1      -2.075  -0.856  -0.078  1.00  0.00     0.165 A 
HETATM   24  C15 UNL     1      -5.509  -1.287   0.230  1.00  0.00     0.706 A 
ATOM     25  H6  UNL     1      -4.157  -2.807  -0.237  1.00  0.00     0.184 HD
HETATM   26  N7  UNL     1      -6.695  -1.847   0.075  1.00  0.00    -0.138 N 
ATOM     27  H7  UNL     1      -7.557  -1.342   0.283  1.00  0.00     0.205 HD
HETATM   28  C16 UNL     1      -6.518   0.875   0.748  1.00  0.00     0.208 C 
HETATM   29  N10 UNL     1      -7.249   0.811   1.754  1.00  0.00    -0.373 N 
HETATM   30  N11 UNL     1      -6.914   1.795  -0.321  1.00  0.00    -0.063 NA
ATOM     31 2H10 UNL     1      -6.973   0.170   2.498  1.00  0.00     0.158 HD
ATOM     32 1H10 UNL     1      -8.067   1.402   1.901  1.00  0.00     0.158 HD
BRANCH  18  33
HETATM   33  N5  UNL     1      -3.880   2.741   1.007  1.00  0.00    -0.113 N 
HETATM   34  O3  UNL     1      -3.331   3.764   0.423  1.00  0.00    -0.532 OA
HETATM   35  O4  UNL     1      -4.856   3.061   1.850  1.00  0.00    -0.532 OA
ENDBRANCH  18  33
BRANCH  26  36
HETATM   36  N8  UNL     1      -6.711  -3.175  -0.392  1.00  0.00    -0.331 N 
ATOM     37  H82 UNL     1      -5.841  -3.666  -0.596  1.00  0.00     0.177 HD
ATOM     38  H81 UNL     1      -7.627  -3.608  -0.512  1.00  0.00     0.177 HD
ENDBRANCH  26  36
BRANCH  23  39
HETATM   39  N12 UNL     1      -1.419  -2.072  -0.368  1.00  0.00    -0.110 N 
HETATM   40  O5  UNL     1      -1.081  -2.327  -1.530  1.00  0.00    -0.532 OA
HETATM   41  O6  UNL     1      -1.167  -3.005   0.640  1.00  0.00    -0.532 OA
ENDBRANCH  23  39
ENDBRANCH  15  16
ENDBRANCH  14  15
ENDBRANCH   8  14
BRANCH   1  42
HETATM   42  N1  UNL     1       5.511  -0.694   0.254  1.00  0.00    -0.220 N 
HETATM   43  C1  UNL     1       5.596  -2.131   0.258  1.00  0.00     0.168 C 
BRANCH  42  44
HETATM   44  C2  UNL     1       6.423   0.180   0.936  1.00  0.00     0.166 C 
BRANCH  44  45
HETATM   45  C3  UNL     1       6.433   0.127   2.432  1.00  0.00     0.184 C 
BRANCH  45  46
HETATM   46  O1  UNL     1       6.778  -1.148   2.850  1.00  0.00    -0.399 OA
ATOM     47  H1  UNL     1       6.784  -1.182   3.799  1.00  0.00     0.209 HD
ENDBRANCH  45  46
ENDBRANCH  44  45
ENDBRANCH  42  44
ENDBRANCH   1  42
TORSDOF 11
