REMARK  8 active torsions:
REMARK  status: ('A' for Active; 'I' for Inactive)
REMARK    1  A    between atoms: C3_3  and  C4_4 
REMARK    2  A    between atoms: C4_4  and  N1_6 
REMARK       I    between atoms: N1_6  and  C6_8 
REMARK       I    between atoms: C6_8  and  N2_10 
REMARK    3  A    between atoms: C9_14  and  C10_15 
REMARK    4  A    between atoms: C10_15  and  O2_16 
REMARK    5  A    between atoms: C10_15  and  C11_18 
REMARK    6  A    between atoms: C11_18  and  C12_19 
REMARK    7  A    between atoms: C12_19  and  N3_20 
REMARK    8  A    between atoms: N4_24  and  S1_25 
ROOT
HETATM    1  C1  UNL     1      10.239  -0.034  -1.710  1.00  0.00     0.112 C 
HETATM    2  C2  UNL     1       9.016   0.515  -1.116  1.00  0.00    -0.109 C 
HETATM    3  C3  UNL     1       8.006   0.964  -0.605  1.00  0.00    -0.082 C 
ENDROOT
BRANCH   3   4
HETATM    4  C4  UNL     1       6.800   1.498   0.032  1.00  0.00     0.162 C 
HETATM    5  C5  UNL     1       6.953   1.451   1.535  1.00  0.00     0.046 C 
BRANCH   4   6
HETATM    6  N1  UNL     1       5.661   0.744  -0.423  1.00  0.00    -0.328 N 
HETATM    7  C6  UNL     1       4.568   1.340  -1.118  1.00  0.00     0.322 C 
HETATM    8  O1  UNL     1       4.515   2.559  -1.384  1.00  0.00    -0.247 OA
HETATM    9  N2  UNL     1       3.477   0.532  -1.537  1.00  0.00    -0.294 N 
HETATM   10  C7  UNL     1       2.768  -0.038  -0.636  1.00  0.00     0.125 A 
ATOM     11  H2  UNL     1       3.265   0.410  -2.527  1.00  0.00     0.172 HD
HETATM   12  C8  UNL     1       1.661  -0.866  -0.858  1.00  0.00     0.080 A 
HETATM   13  N6  UNL     1       2.903   0.014   0.693  1.00  0.00    -0.285 N 
HETATM   14  C9  UNL     1       1.175  -1.279   0.364  1.00  0.00     0.070 A 
HETATM   15  N5  UNL     1       1.963  -0.718   1.298  1.00  0.00    -0.300 N 
ATOM     16  H5  UNL     1       1.860  -0.833   2.306  1.00  0.00     0.186 HD
ATOM     17  H6  UNL     1       3.627   0.542   1.180  1.00  0.00     0.188 HD
ATOM     18  H1  UNL     1       5.635  -0.259  -0.240  1.00  0.00     0.165 HD
BRANCH  14  19
HETATM   19  C10 UNL     1       0.012  -2.166   0.599  1.00  0.00     0.250 C 
BRANCH  19  20
HETATM   20  O2  UNL     1       0.022  -3.264  -0.241  1.00  0.00    -0.377 OA
ATOM     21  H2  UNL     1      -0.724  -3.833  -0.090  1.00  0.00     0.211 HD
ENDBRANCH  19  20
BRANCH  19  22
HETATM   22  C11 UNL     1      -1.258  -1.465   0.366  1.00  0.00    -0.038 C 
BRANCH  22  23
HETATM   23  C12 UNL     1      -2.307  -0.874   0.191  1.00  0.00     0.119 C 
BRANCH  23  24
HETATM   24  N3  UNL     1      -3.525  -0.188   0.012  1.00  0.00    -0.000 N 
HETATM   25  C13 UNL     1      -3.136   1.096  -0.599  1.00  0.00     0.290 C 
HETATM   26  C14 UNL     1      -4.308  -0.889  -0.938  1.00  0.00     0.299 C 
HETATM   27  C15 UNL     1      -5.556  -1.515  -0.422  1.00  0.00     0.105 C 
HETATM   28  N4  UNL     1      -6.283  -0.789   0.529  1.00  0.00    -0.287 N 
HETATM   29  C17 UNL     1      -5.575   0.089   1.380  1.00  0.00     0.169 C 
HETATM   30  C18 UNL     1      -4.100   0.072   1.277  1.00  0.00     0.275 C 
BRANCH  28  31
HETATM   31  S1  UNL     1      -7.866  -0.363   0.147  1.00  0.00     0.228 S 
HETATM   32  C16 UNL     1      -8.028   0.681  -1.262  1.00  0.00     0.186 C 
HETATM   33  O3  UNL     1      -8.509   0.320   1.320  1.00  0.00    -0.206 OA
HETATM   34  O4  UNL     1      -8.672  -1.631  -0.095  1.00  0.00    -0.206 OA
ENDBRANCH  28  31
ENDBRANCH  23  24
ENDBRANCH  22  23
ENDBRANCH  19  22
ENDBRANCH  14  19
ENDBRANCH   4   6
ENDBRANCH   3   4
TORSDOF 8
