REMARK  5 active torsions:
REMARK  status: ('A' for Active; 'I' for Inactive)
REMARK    1  A    between atoms: C2_2  and  N1_3 
REMARK    2  A    between atoms: N1_3  and  C3_5 
REMARK    3  A    between atoms: C3_5  and  N2_7 
REMARK       I    between atoms: N3_10  and  C6_11 
REMARK       I    between atoms: C6_11  and  N4_13 
REMARK    4  A    between atoms: N4_13  and  C7_15 
REMARK    5  A    between atoms: C7_15  and  C8_16 
REMARK       I    between atoms: C8_16  and  N5_18 
REMARK       I    between atoms: C9_20  and  N6_21 
REMARK       I    between atoms: C9_20  and  N7_24 
ROOT
HETATM    1  C7  UNL     1       0.688  -1.897   1.208  1.00  0.00     0.227 C 
ENDROOT
BRANCH   1   2
HETATM    2  N4  UNL     1      -0.667  -1.449   1.291  1.00  0.00    -0.334 N 
HETATM    3  C6  UNL     1      -1.736  -2.087   0.617  1.00  0.00     0.318 C 
HETATM    4  N3  UNL     1      -3.083  -1.663   0.691  1.00  0.00    -0.331 N 
HETATM    5  O1  UNL     1      -1.488  -3.107  -0.101  1.00  0.00    -0.247 OA
HETATM    6  C5  UNL     1      -4.133  -2.385  -0.038  1.00  0.00     0.147 C 
HETATM    7  C17 UNL     1      -3.512  -0.555   1.467  1.00  0.00     0.147 C 
HETATM    8  C4  UNL     1      -5.469  -2.151   0.637  1.00  0.00     0.145 C 
HETATM    9  N2  UNL     1      -5.764  -0.678   0.600  1.00  0.00    -0.355 N 
HETATM   10  C18 UNL     1      -4.631   0.187   0.688  1.00  0.00     0.145 C 
ATOM     11  H4  UNL     1      -0.873  -0.630   1.863  1.00  0.00     0.164 HD
BRANCH   9  12
HETATM   12  C3  UNL     1      -7.088  -0.268   0.507  1.00  0.00     0.169 C 
HETATM   13  S1  UNL     1      -8.186  -1.585   0.492  1.00  0.00    -0.041 SA
BRANCH  12  14
HETATM   14  N1  UNL     1      -7.654   0.983   0.429  1.00  0.00    -0.367 N 
ATOM     15  H1  UNL     1      -8.673   0.979   0.386  1.00  0.00     0.161 HD
BRANCH  14  16
HETATM   16  C2  UNL     1      -7.077   2.275   0.398  1.00  0.00     0.117 C 
HETATM   17  C1  UNL     1      -6.326   2.596  -0.886  1.00  0.00     0.026 C 
ENDBRANCH  14  16
ENDBRANCH  12  14
ENDBRANCH   9  12
ENDBRANCH   1   2
BRANCH   1  18
HETATM   18  C8  UNL     1       1.263  -1.867  -0.150  1.00  0.00     0.253 C 
HETATM   19  O2  UNL     1       0.577  -1.448  -1.113  1.00  0.00    -0.271 OA
HETATM   20  N5  UNL     1       2.579  -2.309  -0.375  1.00  0.00    -0.159 N 
HETATM   21  C9  UNL     1       3.619  -1.584  -0.546  1.00  0.00     0.678 C 
ATOM     22  H5  UNL     1       2.720  -3.319  -0.405  1.00  0.00     0.187 HD
HETATM   23  N6  UNL     1       4.881  -2.244  -0.764  1.00  0.00    -0.230 N 
HETATM   24  N7  UNL     1       3.626  -0.167  -0.539  1.00  0.00    -0.215 N 
HETATM   25  C10 UNL     1       4.875  -3.474  -1.491  1.00  0.00     0.165 C 
ATOM     26  H6  UNL     1       5.751  -1.846  -0.411  1.00  0.00     0.177 HD
HETATM   27  C11 UNL     1       3.581   0.602  -1.765  1.00  0.00     0.169 C 
HETATM   28  C16 UNL     1       3.682   0.605   0.708  1.00  0.00     0.169 C 
HETATM   29  C12 UNL     1       4.785   1.512  -1.844  1.00  0.00     0.257 C 
HETATM   30  N8  UNL     1       5.127   2.120  -0.581  1.00  0.00    -0.072 N 
HETATM   31  C13 UNL     1       5.364   3.532  -0.829  1.00  0.00     0.272 C 
HETATM   32  C14 UNL     1       6.369   1.564  -0.071  1.00  0.00     0.272 C 
HETATM   33  C15 UNL     1       4.055   2.030   0.390  1.00  0.00     0.257 C 
ENDBRANCH   1  18
TORSDOF 5
