REMARK  11 active torsions:
REMARK  status: ('A' for Active; 'I' for Inactive)
REMARK    1  A    between atoms: N2_7  and  C5_8 
REMARK    2  A    between atoms: C5_8  and  C6_9 
REMARK    3  A    between atoms: C7_10  and  C8_11 
REMARK    4  A    between atoms: C9_12  and  C10_13 
REMARK    5  A    between atoms: C10_13  and  C13_16 
REMARK    6  A    between atoms: C13_16  and  O1_17 
REMARK    7  A    between atoms: C14_19  and  C15_20 
REMARK    8  A    between atoms: C16_21  and  C17_22 
REMARK    9  A    between atoms: N3_23  and  O2_24 
REMARK   10  A    between atoms: C19_27  and  O3_28 
REMARK   11  A    between atoms: C24_34  and  N5_35 
ROOT
HETATM    1  C1  UNL     1      -0.437   6.480  -3.704  1.00  0.00     0.018 C 
HETATM    2  C2  UNL     1      -0.292   5.792  -2.723  1.00  0.00    -0.074 C 
HETATM    3  C3  UNL     1      -0.115   4.973  -1.570  1.00  0.00     0.062 A 
HETATM    4  C4  UNL     1       0.831   5.319  -0.634  1.00  0.00     0.130 A 
HETATM    5  N1  UNL     1       1.024   4.554   0.481  1.00  0.00    -0.306 N 
ATOM      6  H1  UNL     1       1.728   4.822   1.168  1.00  0.00     0.186 HD
HETATM    7  N2  UNL     1       0.298   3.466   0.669  1.00  0.00    -0.271 N 
HETATM    8  C14 UNL     1      -0.657   3.051  -0.203  1.00  0.00     0.133 A 
HETATM    9  C24 UNL     1      -0.856   3.836  -1.348  1.00  0.00     0.083 A 
ENDROOT
BRANCH   9  10
HETATM   10  N5  UNL     1      -1.755   3.476  -2.204  1.00  0.00    -0.396 N 
ATOM     11  H52 UNL     1      -1.900   4.047  -3.037  1.00  0.00     0.156 HD
ATOM     12  H51 UNL     1      -2.305   2.633  -2.039  1.00  0.00     0.156 HD
ENDBRANCH   9  10
BRANCH   8  13
HETATM   13  C15 UNL     1      -1.436   1.863   0.022  1.00  0.00    -0.036 C 
HETATM   14  C16 UNL     1      -2.110   0.873   0.216  1.00  0.00    -0.021 C 
BRANCH  14  15
HETATM   15  C17 UNL     1      -2.931  -0.294   0.459  1.00  0.00     0.190 A 
HETATM   16  N3  UNL     1      -3.482  -0.494   1.669  1.00  0.00    -0.208 N 
HETATM   17  C18 UNL     1      -4.251  -1.553   1.956  1.00  0.00     0.164 A 
HETATM   18  C19 UNL     1      -4.481  -2.467   0.969  1.00  0.00     0.108 A 
HETATM   19  C21 UNL     1      -3.908  -2.248  -0.267  1.00  0.00     0.044 A 
HETATM   20  C22 UNL     1      -4.126  -3.204  -1.366  1.00  0.00     0.071 C 
HETATM   21  N4  UNL     1      -3.138  -1.170  -0.525  1.00  0.00    -0.330 N 
HETATM   22  C23 UNL     1      -2.540  -0.949  -1.830  1.00  0.00     0.158 C 
BRANCH  16  23
HETATM   23  O2  UNL     1      -3.274   0.413   2.707  1.00  0.00    -0.281 OA
ATOM     24  H2  UNL     1      -3.663   0.272   3.562  1.00  0.00     0.245 HD
ENDBRANCH  16  23
BRANCH  18  25
HETATM   25  O3  UNL     1      -5.274  -3.613   1.169  1.00  0.00    -0.352 OA
HETATM   26  C20 UNL     1      -5.839  -3.800   2.442  1.00  0.00     0.210 C 
ENDBRANCH  18  25
ENDBRANCH  14  15
ENDBRANCH   8  13
BRANCH   7  27
HETATM   27  C5  UNL     1       0.480   2.623   1.855  1.00  0.00     0.244 C 
BRANCH  27  28
HETATM   28  C6  UNL     1       1.501   1.627   1.475  1.00  0.00    -0.071 C 
HETATM   29  C7  UNL     1       2.342   0.820   1.147  1.00  0.00    -0.013 C 
BRANCH  29  30
HETATM   30  C8  UNL     1       3.328  -0.109   0.742  1.00  0.00    -0.014 C 
HETATM   31  C9  UNL     1       4.170  -0.889   0.381  1.00  0.00    -0.081 C 
BRANCH  31  32
HETATM   32  C10 UNL     1       5.197  -1.826  -0.079  1.00  0.00     0.038 C 
HETATM   33  C11 UNL     1       6.352  -1.001  -0.628  1.00  0.00     0.031 C 
HETATM   34  C12 UNL     1       4.679  -2.726  -1.161  1.00  0.00     0.031 C 
BRANCH  32  35
HETATM   35  C13 UNL     1       5.703  -2.568   1.127  1.00  0.00     0.185 C 
BRANCH  35  36
HETATM   36  O1  UNL     1       6.232  -1.602   2.002  1.00  0.00    -0.399 OA
ATOM     37  H1  UNL     1       6.552  -2.071   2.764  1.00  0.00     0.209 HD
ENDBRANCH  35  36
ENDBRANCH  32  35
ENDBRANCH  31  32
ENDBRANCH  29  30
ENDBRANCH  27  28
ENDBRANCH   7  27
TORSDOF 11
