REMARK  8 active torsions:
REMARK  status: ('A' for Active; 'I' for Inactive)
REMARK    1  A    between atoms: C3_3  and  N1_5 
REMARK    2  A    between atoms: N2_8  and  C7_9 
REMARK    3  A    between atoms: C7_9  and  O1_10 
REMARK    4  A    between atoms: C7_9  and  N3_12 
REMARK    5  A    between atoms: C10_15  and  C11_16 
REMARK    6  A    between atoms: C11_16  and  N4_17 
REMARK    7  A    between atoms: C11_16  and  N5_21 
REMARK       I    between atoms: N5_21  and  C12_23 
REMARK       I    between atoms: C12_23  and  N6_25 
REMARK       I    between atoms: C13_27  and  N8_29 
REMARK    8  A    between atoms: N8_29  and  C15_31 
ROOT
HETATM    1  C1  UNL     1       7.197  -1.760   1.061  1.00  0.00     0.014 C 
HETATM    2  C2  UNL     1       6.215  -2.192   0.513  1.00  0.00    -0.082 C 
HETATM    3  C3  UNL     1       4.999  -2.737  -0.140  1.00  0.00     0.296 C 
HETATM    4  C4  UNL     1       5.128  -2.501  -1.629  1.00  0.00     0.056 C 
ENDROOT
BRANCH   3   5
HETATM    5  N1  UNL     1       3.862  -1.969   0.329  1.00  0.00     0.107 N 
HETATM    6  C5  UNL     1       4.032  -0.605  -0.083  1.00  0.00     0.294 C 
HETATM    7  C6  UNL     1       3.849   0.321   1.135  1.00  0.00     0.156 C 
HETATM    8  N2  UNL     1       2.601  -0.026   1.698  1.00  0.00    -0.344 N 
HETATM    9  C19 UNL     1       2.558  -1.369   2.327  1.00  0.00     0.156 C 
HETATM   10  C20 UNL     1       3.686  -2.182   1.729  1.00  0.00     0.294 C 
BRANCH   8  11
HETATM   11  C7  UNL     1       1.439   0.736   1.706  1.00  0.00     0.217 C 
BRANCH  11  12
HETATM   12  O1  UNL     1       0.386   0.240   2.324  1.00  0.00    -0.333 OA
ATOM     13  H1  UNL     1      -0.408   0.761   2.329  1.00  0.00     0.220 HD
ENDBRANCH  11  12
BRANCH  11  14
HETATM   14  N3  UNL     1       1.191   1.999   1.142  1.00  0.00    -0.347 N 
HETATM   15  C8  UNL     1       2.014   2.877   0.362  1.00  0.00     0.127 C 
HETATM   16  C9  UNL     1       1.136   4.019  -0.112  1.00  0.00     0.030 C 
HETATM   17  C10 UNL     1      -0.268   3.441   0.056  1.00  0.00     0.055 C 
HETATM   18  C18 UNL     1      -0.101   2.675   1.318  1.00  0.00     0.134 C 
BRANCH  17  19
HETATM   19  C11 UNL     1      -0.579   2.633  -1.159  1.00  0.00     0.291 C 
BRANCH  19  20
HETATM   20  N4  UNL     1      -0.503   3.557  -2.306  1.00  0.00    -0.058 N 
ATOM     21  H43 UNL     1      -1.099   4.378  -2.203  1.00  0.00     0.276 HD
ATOM     22  H42 UNL     1       0.386   4.053  -2.367  1.00  0.00     0.276 HD
ATOM     23  H41 UNL     1      -0.716   3.005  -3.137  1.00  0.00     0.276 HD
ENDBRANCH  19  20
BRANCH  19  24
HETATM   24  N5  UNL     1      -1.869   2.001  -1.098  1.00  0.00    -0.314 N 
HETATM   25  C12 UNL     1      -1.968   0.604  -1.268  1.00  0.00     0.324 C 
HETATM   26  O2  UNL     1      -0.947  -0.093  -1.473  1.00  0.00    -0.247 OA
HETATM   27  N6  UNL     1      -3.230  -0.023  -1.207  1.00  0.00    -0.283 N 
HETATM   28  C13 UNL     1      -3.540  -0.793  -0.223  1.00  0.00     0.194 C 
ATOM     29  H6  UNL     1      -3.907   0.136  -1.953  1.00  0.00     0.173 HD
HETATM   30  N7  UNL     1      -2.573  -0.995   0.805  1.00  0.00    -0.063 NA
HETATM   31  N8  UNL     1      -4.809  -1.429  -0.150  1.00  0.00    -0.356 N 
HETATM   32  C14 UNL     1      -5.188  -2.060   1.088  1.00  0.00     0.152 C 
ATOM     33  H5  UNL     1      -2.707   2.559  -0.933  1.00  0.00     0.166 HD
BRANCH  31  34
HETATM   34  C15 UNL     1      -5.650  -1.413  -1.314  1.00  0.00     0.078 C 
HETATM   35  C16 UNL     1      -5.988  -0.012  -1.768  1.00  0.00     0.032 C 
HETATM   36  C17 UNL     1      -6.923  -2.185  -1.013  1.00  0.00     0.032 C 
ENDBRANCH  31  34
ENDBRANCH  19  24
ENDBRANCH  17  19
ENDBRANCH  11  14
ENDBRANCH   8  11
ENDBRANCH   3   5
TORSDOF 8
