REMARK  5 active torsions:
REMARK  status: ('A' for Active; 'I' for Inactive)
REMARK    1  A    between atoms: C2_2  and  N1_3 
REMARK    2  A    between atoms: N2_8  and  C6_9 
REMARK    3  A    between atoms: C6_9  and  C7_10 
REMARK       I    between atoms: C7_10  and  N3_12 
REMARK    4  A    between atoms: N3_12  and  C8_14 
REMARK    5  A    between atoms: C19_26  and  O3_27 
ROOT
HETATM    1  C8  UNL     1       1.268   0.926   1.896  1.00  0.00     0.039 C 
HETATM    2  C9  UNL     1       1.855   1.380   3.222  1.00  0.00     0.039 C 
HETATM    3  C10 UNL     1       1.652   1.930   0.800  1.00  0.00     0.124 C 
HETATM    4  C11 UNL     1       2.861   1.598   0.172  1.00  0.00    -0.102 C 
HETATM    5  C12 UNL     1       3.840   1.291  -0.306  1.00  0.00    -0.079 C 
HETATM    6  C13 UNL     1       5.063   0.860  -0.858  1.00  0.00     0.330 C 
HETATM    7  N4  UNL     1       5.407  -0.515  -0.505  1.00  0.00    -0.055 N 
HETATM    8  C14 UNL     1       6.539  -0.530   0.346  1.00  0.00     0.238 C 
HETATM    9  C15 UNL     1       7.665   0.016  -0.507  1.00  0.00     0.030 C 
HETATM   10  C16 UNL     1       7.273  -0.257  -1.928  1.00  0.00     0.030 C 
HETATM   11  C17 UNL     1       6.004  -1.061  -1.747  1.00  0.00     0.238 C 
HETATM   12  C18 UNL     1       4.294  -1.311  -0.175  1.00  0.00     0.270 C 
HETATM   13  C19 UNL     1       3.964  -1.688   1.191  1.00  0.00     0.144 C 
HETATM   14  C20 UNL     1       3.115  -0.799   2.043  1.00  0.00     0.036 C 
HETATM   15  C21 UNL     1       1.786  -0.437   1.491  1.00  0.00     0.034 C 
ENDROOT
BRANCH   1  16
HETATM   16  N3  UNL     1      -0.139   0.866   2.004  1.00  0.00    -0.350 N 
HETATM   17  C7  UNL     1      -1.080   0.440   1.030  1.00  0.00     0.244 C 
HETATM   18  O2  UNL     1      -0.603   0.065  -0.069  1.00  0.00    -0.272 OA
ATOM     19  H3  UNL     1      -0.529   1.168   2.897  1.00  0.00     0.163 HD
BRANCH  17  20
HETATM   20  C6  UNL     1      -2.519   0.421   1.245  1.00  0.00     0.342 C 
BRANCH  20  21
HETATM   21  N2  UNL     1      -3.331  -0.044   0.149  1.00  0.00    -0.035 N 
HETATM   22  C5  UNL     1      -2.847  -1.263  -0.463  1.00  0.00     0.405 C 
HETATM   23  O1  UNL     1      -3.859  -2.192  -0.723  1.00  0.00    -0.362 OA
HETATM   24  C4  UNL     1      -4.456  -1.965  -1.961  1.00  0.00     0.198 C 
HETATM   25  C3  UNL     1      -5.734  -1.251  -1.743  1.00  0.00     0.263 C 
HETATM   26  N1  UNL     1      -5.647   0.138  -1.405  1.00  0.00    -0.062 N 
HETATM   27  C23 UNL     1      -5.770   0.363   0.030  1.00  0.00     0.265 C 
HETATM   28  C25 UNL     1      -4.491   0.831  -1.852  1.00  0.00     0.265 C 
HETATM   29  C22 UNL     1      -4.636  -0.321   0.729  1.00  0.00     0.268 C 
HETATM   30  C24 UNL     1      -3.388   0.992  -0.848  1.00  0.00     0.268 C 
BRANCH  26  31
HETATM   31  C2  UNL     1      -6.847   0.758  -1.989  1.00  0.00     0.233 C 
HETATM   32  C1  UNL     1      -7.393   1.865  -1.140  1.00  0.00     0.035 C 
ENDBRANCH  26  31
ENDBRANCH  20  21
ENDBRANCH  17  20
ENDBRANCH   1  16
BRANCH  13  33
HETATM   33  O3  UNL     1       5.014  -2.120   1.998  1.00  0.00    -0.394 OA
ATOM     34  H3  UNL     1       4.799  -2.366   2.890  1.00  0.00     0.210 HD
ENDBRANCH  13  33
TORSDOF 5
