REMARK  8 active torsions:
REMARK  status: ('A' for Active; 'I' for Inactive)
REMARK       I    between atoms: C2_2  and  N1_4 
REMARK    1  A    between atoms: N1_4  and  C3_6 
REMARK    2  A    between atoms: C7_11  and  N3_12 
REMARK    3  A    between atoms: N3_12  and  C10_15 
REMARK    4  A    between atoms: C10_15  and  C11_16 
REMARK    5  A    between atoms: C12_17  and  C13_18 
REMARK    6  A    between atoms: C13_18  and  N4_19 
REMARK    7  A    between atoms: C15_21  and  O2_22 
REMARK    8  A    between atoms: C16_24  and  O3_25 
ROOT
HETATM    1  N3  UNL     1       0.497  -1.141  -0.799  1.00  0.00    -0.059 N 
HETATM    2  C8  UNL     1       0.576   0.086  -1.567  1.00  0.00     0.273 C 
HETATM    3  C9  UNL     1      -0.063  -2.192  -1.632  1.00  0.00     0.273 C 
ENDROOT
BRANCH   1   4
HETATM    4  C7  UNL     1       1.788  -1.590  -0.350  1.00  0.00     0.218 C 
HETATM    5  C6  UNL     1       2.717  -1.758  -1.520  1.00  0.00     0.063 C 
HETATM    6  C5  UNL     1       3.722  -0.643  -1.297  1.00  0.00     0.239 C 
HETATM    7  N2  UNL     1       3.796  -0.569   0.137  1.00  0.00    -0.063 N 
HETATM    8  C4  UNL     1       4.349   0.704   0.555  1.00  0.00     0.263 C 
HETATM    9  C22 UNL     1       2.445  -0.682   0.636  1.00  0.00     0.271 C 
HETATM   10  C23 UNL     1       4.648  -1.597   0.688  1.00  0.00     0.243 C 
HETATM   11  C3  UNL     1       5.786   0.440   0.955  1.00  0.00     0.115 C 
HETATM   12  C24 UNL     1       6.024  -0.987   0.548  1.00  0.00     0.032 C 
HETATM   13  C25 UNL     1       7.063  -1.683   1.375  1.00  0.00     0.014 C 
BRANCH  11  14
HETATM   14  N1  UNL     1       6.619   1.327   0.195  1.00  0.00    -0.355 N 
HETATM   15  C2  UNL     1       7.521   2.214   0.820  1.00  0.00     0.213 C 
HETATM   16  C1  UNL     1       8.383   3.131   0.044  1.00  0.00     0.117 C 
HETATM   17  O1  UNL     1       7.600   2.230   2.066  1.00  0.00    -0.274 OA
ATOM     18  H1  UNL     1       6.558   1.316  -0.823  1.00  0.00     0.162 HD
ENDBRANCH  11  14
ENDBRANCH   1   4
BRANCH   1  19
HETATM   19  C10 UNL     1      -0.373  -0.884   0.332  1.00  0.00     0.330 C 
BRANCH  19  20
HETATM   20  C11 UNL     1      -1.760  -0.713  -0.166  1.00  0.00    -0.077 C 
HETATM   21  C12 UNL     1      -2.879  -0.568  -0.590  1.00  0.00    -0.077 C 
BRANCH  21  22
HETATM   22  C13 UNL     1      -4.232  -0.391  -1.130  1.00  0.00     0.332 C 
BRANCH  22  23
HETATM   23  N4  UNL     1      -5.026   0.265  -0.140  1.00  0.00    -0.045 N 
HETATM   24  C14 UNL     1      -4.867   1.705  -0.091  1.00  0.00     0.273 C 
HETATM   25  C15 UNL     1      -5.343   2.304   1.202  1.00  0.00     0.173 C 
HETATM   26  C16 UNL     1      -6.429   1.499   1.867  1.00  0.00     0.156 C 
HETATM   27  C17 UNL     1      -6.365   0.066   1.407  1.00  0.00     0.079 C 
HETATM   28  C18 UNL     1      -4.873  -0.246   1.217  1.00  0.00     0.249 C 
HETATM   29  C19 UNL     1      -6.414  -0.103  -0.066  1.00  0.00     0.131 C 
HETATM   30  C20 UNL     1      -7.376   0.749  -0.832  1.00  0.00     0.047 C 
HETATM   31  C21 UNL     1      -6.633  -1.569  -0.425  1.00  0.00     0.047 C 
BRANCH  25  32
HETATM   32  O2  UNL     1      -5.780   3.635   1.018  1.00  0.00    -0.391 OA
ATOM     33  H2  UNL     1      -6.081   4.014   1.836  1.00  0.00     0.210 HD
ENDBRANCH  25  32
BRANCH  26  34
HETATM   34  O3  UNL     1      -7.679   2.061   1.771  1.00  0.00    -0.392 OA
ATOM     35  H3  UNL     1      -8.364   1.553   2.190  1.00  0.00     0.210 HD
ENDBRANCH  26  34
ENDBRANCH  22  23
ENDBRANCH  21  22
ENDBRANCH  19  20
ENDBRANCH   1  19
TORSDOF 8
