REMARK  9 active torsions:
REMARK  status: ('A' for Active; 'I' for Inactive)
REMARK    1  A    between atoms: C2_2  and  C3_3 
REMARK    2  A    between atoms: C4_4  and  N1_5 
REMARK    3  A    between atoms: N2_9  and  C8_10 
REMARK    4  A    between atoms: C8_10  and  O1_11 
REMARK    5  A    between atoms: C8_10  and  C9_13 
REMARK    6  A    between atoms: C9_13  and  N3_14 
REMARK    7  A    between atoms: C9_13  and  C17_29 
REMARK       I    between atoms: N3_14  and  C10_16 
REMARK    8  A    between atoms: C10_16  and  C11_18 
REMARK    9  A    between atoms: C15_25  and  C16_26 
ROOT
HETATM    1  C9  UNL     1       1.236   1.498  -0.358  1.00  0.00     0.162 C 
ENDROOT
BRANCH   1   2
HETATM    2  C8  UNL     1       0.151   1.025  -1.209  1.00  0.00     0.137 C 
BRANCH   2   3
HETATM    3  N2  UNL     1      -1.230   0.948  -1.040  1.00  0.00    -0.360 N 
HETATM    4  C7  UNL     1      -1.911   1.338   0.170  1.00  0.00     0.156 C 
HETATM    5  C6  UNL     1      -3.272   0.676   0.261  1.00  0.00     0.309 C 
HETATM    6  N1  UNL     1      -3.272  -0.743   0.208  1.00  0.00     0.152 N 
HETATM    7  C5  UNL     1      -2.183  -1.264   0.996  1.00  0.00     0.328 C 
HETATM    8  N5  UNL     1      -3.329  -1.310  -1.061  1.00  0.00     0.093 N 
HETATM    9  C21 UNL     1      -2.228  -1.024  -1.914  1.00  0.00     0.292 C 
HETATM   10  C22 UNL     1      -3.287  -2.773  -0.843  1.00  0.00     0.310 C 
HETATM   11  C23 UNL     1      -4.577  -1.059  -1.717  1.00  0.00     0.310 C 
HETATM   12  C20 UNL     1      -1.994   0.417  -2.210  1.00  0.00     0.155 C 
BRANCH   6  13
HETATM   13  C4  UNL     1      -4.465  -1.174   0.865  1.00  0.00     0.149 C 
HETATM   14  C3  UNL     1      -5.482  -1.516   1.418  1.00  0.00    -0.074 C 
BRANCH  14  15
HETATM   15  C2  UNL     1      -6.740  -1.903   2.100  1.00  0.00     0.091 C 
HETATM   16  C1  UNL     1      -7.726  -0.731   2.061  1.00  0.00     0.018 C 
ENDBRANCH  14  15
ENDBRANCH   6  13
ENDBRANCH   2   3
BRANCH   2  17
HETATM   17  O1  UNL     1       0.554   0.577  -2.371  1.00  0.00    -0.348 OA
ATOM     18  H1  UNL     1       1.496   0.629  -2.486  1.00  0.00     0.219 HD
ENDBRANCH   2  17
ENDBRANCH   1   2
BRANCH   1  19
HETATM   19  N3  UNL     1       2.548   1.035  -0.933  1.00  0.00    -0.348 N 
HETATM   20  C10 UNL     1       3.404   0.199  -0.190  1.00  0.00     0.223 C 
HETATM   21  O2  UNL     1       3.057  -0.171   0.983  1.00  0.00    -0.273 OA
ATOM     22  H3  UNL     1       2.820   1.330  -1.871  1.00  0.00     0.163 HD
BRANCH  20  23
HETATM   23  C11 UNL     1       4.706  -0.283  -0.702  1.00  0.00     0.095 C 
HETATM   24  C12 UNL     1       5.556   0.946  -0.949  1.00  0.00     0.042 C 
HETATM   25  C13 UNL     1       7.013   0.634  -1.169  1.00  0.00     0.233 C 
HETATM   26  N4  UNL     1       7.190  -0.790  -1.196  1.00  0.00    -0.074 N 
HETATM   27  C14 UNL     1       6.821  -1.328   0.102  1.00  0.00     0.248 C 
ATOM     28  H42 UNL     1       6.681  -1.233  -1.961  1.00  0.00     0.277 HD
ATOM     29  H41 UNL     1       8.132  -1.061  -1.478  1.00  0.00     0.277 HD
HETATM   30  C15 UNL     1       5.324  -1.191   0.331  1.00  0.00     0.125 C 
BRANCH  30  31
HETATM   31  C16 UNL     1       4.725  -2.539   0.195  1.00  0.00     0.179 C 
HETATM   32  O3  UNL     1       3.861  -2.868  -0.644  1.00  0.00    -0.648 OA
HETATM   33  O4  UNL     1       5.183  -3.517   1.101  1.00  0.00    -0.648 OA
ENDBRANCH  30  31
ENDBRANCH  20  23
ENDBRANCH   1  19
BRANCH   1  34
HETATM   34  C17 UNL     1       1.381   2.977  -0.175  1.00  0.00     0.008 C 
HETATM   35  C18 UNL     1       1.567   3.750  -1.459  1.00  0.00     0.012 C 
HETATM   36  C19 UNL     1       0.515   3.668   0.811  1.00  0.00     0.012 C 
ENDBRANCH   1  34
TORSDOF 9
