REMARK  5 active torsions:
REMARK  status: ('A' for Active; 'I' for Inactive)
REMARK    1  A    between atoms: C2_2  and  C4_4 
REMARK    2  A    between atoms: C4_4  and  N1_5 
REMARK    3  A    between atoms: C4_4  and  C18_24 
REMARK       I    between atoms: N1_5  and  C5_7 
REMARK       I    between atoms: C5_7  and  N2_9 
REMARK    4  A    between atoms: N4_15  and  C10_16 
REMARK    5  A    between atoms: C10_16  and  C11_17 
REMARK       I    between atoms: C18_24  and  N5_26 
REMARK       I    between atoms: N6_29  and  C21_30 
ROOT
HETATM    1  N1  UNL     1       1.915  -0.710  -0.601  1.00  0.00    -0.326 N 
ATOM      2  H1  UNL     1       1.525  -0.240  -1.418  1.00  0.00     0.165 HD
HETATM    3  C5  UNL     1       1.032  -1.260   0.326  1.00  0.00     0.319 C 
HETATM    4  O1  UNL     1       1.483  -1.844   1.335  1.00  0.00    -0.247 OA
HETATM    5  N2  UNL     1      -0.358  -1.169   0.145  1.00  0.00    -0.331 N 
HETATM    6  C6  UNL     1      -1.038  -0.528  -0.949  1.00  0.00     0.155 C 
HETATM    7  C7  UNL     1      -2.333   0.142  -0.546  1.00  0.00     0.257 C 
HETATM    8  N3  UNL     1      -3.220  -0.713   0.205  1.00  0.00    -0.061 N 
HETATM    9  C8  UNL     1      -4.341  -1.062  -0.646  1.00  0.00     0.268 C 
HETATM   10  C9  UNL     1      -5.381   0.037  -0.697  1.00  0.00     0.300 C 
HETATM   11  N4  UNL     1      -5.921   0.276   0.600  1.00  0.00     0.092 N 
HETATM   12  C14 UNL     1      -5.090  -0.126   1.690  1.00  0.00     0.300 C 
HETATM   13  C15 UNL     1      -3.616   0.015   1.390  1.00  0.00     0.268 C 
HETATM   14  C16 UNL     1      -2.584  -1.983   0.550  1.00  0.00     0.257 C 
HETATM   15  C17 UNL     1      -1.228  -1.784   1.154  1.00  0.00     0.155 C 
ENDROOT
BRANCH   1  16
HETATM   16  C4  UNL     1       3.375  -0.769  -0.468  1.00  0.00     0.207 C 
BRANCH  16  17
HETATM   17  C2  UNL     1       3.821  -1.651  -1.606  1.00  0.00    -0.061 C 
HETATM   18  C1  UNL     1       4.518  -1.149  -2.572  1.00  0.00     0.016 C 
HETATM   19  C3  UNL     1       3.409  -3.068  -1.590  1.00  0.00     0.045 C 
ENDBRANCH  16  17
BRANCH  16  20
HETATM   20  C18 UNL     1       3.984   0.546  -0.592  1.00  0.00     0.248 C 
HETATM   21  O2  UNL     1       3.305   1.511  -1.016  1.00  0.00    -0.271 OA
HETATM   22  N5  UNL     1       5.330   0.766  -0.238  1.00  0.00    -0.332 N 
HETATM   23  C19 UNL     1       6.292  -0.155   0.317  1.00  0.00     0.147 C 
HETATM   24  C22 UNL     1       5.988   2.064  -0.403  1.00  0.00     0.254 C 
HETATM   25  C20 UNL     1       7.637   0.548   0.275  1.00  0.00     0.147 C 
HETATM   26  N6  UNL     1       7.297   1.946   0.168  1.00  0.00    -0.338 N 
HETATM   27  C21 UNL     1       8.107   3.022   0.556  1.00  0.00     0.185 C 
HETATM   28  N7  UNL     1       7.927   4.204   0.079  1.00  0.00    -0.374 N 
HETATM   29  N8  UNL     1       9.165   2.849   1.492  1.00  0.00    -0.064 NA
ATOM     30  H72 UNL     1       7.169   4.328  -0.592  1.00  0.00     0.158 HD
ATOM     31  H71 UNL     1       8.516   4.987   0.361  1.00  0.00     0.158 HD
ENDBRANCH  16  20
ENDBRANCH   1  16
BRANCH  11  32
HETATM   32  C10 UNL     1      -7.246  -0.228   0.787  1.00  0.00     0.277 C 
BRANCH  32  33
HETATM   33  C11 UNL     1      -8.349   0.489   0.068  1.00  0.00     0.014 A 
HETATM   34  C12 UNL     1      -8.507   1.966   0.471  1.00  0.00     0.007 A 
HETATM   35  C13 UNL     1      -8.131   1.556  -0.925  1.00  0.00     0.007 A 
ENDBRANCH  32  33
ENDBRANCH  11  32
TORSDOF 5
