REMARK  8 active torsions:
REMARK  status: ('A' for Active; 'I' for Inactive)
REMARK    1  A    between atoms: C2_2  and  C3_3 
REMARK    2  A    between atoms: C2_2  and  N7_34 
REMARK       I    between atoms: C3_3  and  N1_5 
REMARK    3  A    between atoms: N1_5  and  C4_7 
REMARK    4  A    between atoms: C4_7  and  C6_9 
REMARK       I    between atoms: C6_9  and  N2_11 
REMARK    5  A    between atoms: N2_11  and  C7_13 
REMARK    6  A    between atoms: C9_15  and  C10_16 
REMARK    7  A    between atoms: C16_27  and  N6_28 
REMARK    8  A    between atoms: N6_28  and  C17_30 
ROOT
HETATM    1  C7  UNL     1      -1.384  -0.979  -0.021  1.00  0.00     0.082 A 
HETATM    2  C8  UNL     1      -1.830   0.239   0.490  1.00  0.00     0.065 A 
HETATM    3  C9  UNL     1      -3.161   0.582   0.528  1.00  0.00     0.062 A 
HETATM    4  N4  UNL     1      -4.007  -0.347   0.034  1.00  0.00    -0.298 N 
ATOM      5  H4  UNL     1      -5.007  -0.144   0.038  1.00  0.00     0.187 HD
HETATM    6  N5  UNL     1      -3.598  -1.520  -0.460  1.00  0.00    -0.283 N 
ATOM      7  H5  UNL     1      -4.295  -2.173  -0.817  1.00  0.00     0.188 HD
HETATM    8  C16 UNL     1      -2.306  -1.867  -0.502  1.00  0.00     0.143 A 
ENDROOT
BRANCH   1   9
HETATM    9  N2  UNL     1      -0.148  -1.276  -0.045  1.00  0.00    -0.322 N 
HETATM   10  C6  UNL     1       0.897  -0.436   0.429  1.00  0.00     0.244 C 
HETATM   11  O2  UNL     1       1.018  -0.141   1.648  1.00  0.00    -0.271 OA
ATOM     12  H2  UNL     1       0.113  -2.183  -0.432  1.00  0.00     0.169 HD
BRANCH  10  13
HETATM   13  C4  UNL     1       1.843   0.078  -0.601  1.00  0.00     0.173 C 
HETATM   14  C5  UNL     1       1.021   0.940  -1.548  1.00  0.00     0.042 C 
BRANCH  13  15
HETATM   15  N1  UNL     1       2.865   0.919  -0.001  1.00  0.00    -0.343 N 
HETATM   16  C3  UNL     1       4.214   0.517  -0.098  1.00  0.00     0.268 C 
HETATM   17  O1  UNL     1       4.454  -0.560  -0.707  1.00  0.00    -0.266 OA
ATOM     18  H1  UNL     1       2.612   1.782   0.480  1.00  0.00     0.163 HD
BRANCH  16  19
HETATM   19  C2  UNL     1       5.249   1.350   0.498  1.00  0.00     0.097 C 
HETATM   20  C1  UNL     1       4.973   2.466   1.109  1.00  0.00     0.049 C 
BRANCH  19  21
HETATM   21  N7  UNL     1       6.603   0.948   0.381  1.00  0.00    -0.329 N 
HETATM   22  C21 UNL     1       7.540   1.929   0.230  1.00  0.00     0.097 A 
HETATM   23  C22 UNL     1       8.882   1.643   0.140  1.00  0.00     0.018 A 
HETATM   24  C23 UNL     1       9.298   0.337   0.202  1.00  0.00     0.003 A 
HETATM   25  C24 UNL     1       8.375  -0.671   0.354  1.00  0.00     0.018 A 
HETATM   26  C25 UNL     1       7.035  -0.308   0.438  1.00  0.00     0.097 A 
ENDBRANCH  19  21
ENDBRANCH  16  19
ENDBRANCH  13  15
ENDBRANCH  10  13
ENDBRANCH   1   9
BRANCH   8  27
HETATM   27  N6  UNL     1      -1.887  -2.967  -0.962  1.00  0.00    -0.365 N 
ATOM     28  H6  UNL     1      -0.875  -3.087  -0.928  1.00  0.00     0.162 HD
BRANCH  27  29
HETATM   29  C17 UNL     1      -2.601  -4.066  -1.520  1.00  0.00     0.021 C 
HETATM   30  C18 UNL     1      -3.363  -3.681  -2.771  1.00  0.00     0.037 C 
HETATM   31  C19 UNL     1      -1.535  -5.118  -1.889  1.00  0.00     0.037 C 
HETATM   32  C20 UNL     1      -3.553  -4.723  -0.571  1.00  0.00     0.037 C 
ENDBRANCH  27  29
ENDBRANCH   8  27
BRANCH   3  33
HETATM   33  C10 UNL     1      -3.635   1.878   1.070  1.00  0.00     0.008 A 
HETATM   34  C11 UNL     1      -2.739   2.795   1.565  1.00  0.00     0.016 A 
HETATM   35  C12 UNL     1      -3.191   3.996   2.066  1.00  0.00     0.018 A 
HETATM   36  C13 UNL     1      -4.541   4.241   2.056  1.00  0.00     0.090 A 
HETATM   37  N3  UNL     1      -5.410   3.340   1.572  1.00  0.00    -0.370 N 
HETATM   38  C14 UNL     1      -6.841   3.625   1.573  1.00  0.00     0.154 C 
HETATM   39  C15 UNL     1      -4.965   2.156   1.077  1.00  0.00     0.103 A 
ENDBRANCH   3  33
TORSDOF 8
