REMARK  5 active torsions:
REMARK  status: ('A' for Active; 'I' for Inactive)
REMARK    1  A    between atoms: N1_2  and  C2_3 
REMARK    2  A    between atoms: C2_3  and  C3_4 
REMARK       I    between atoms: N3_9  and  C6_10 
REMARK    3  A    between atoms: C6_10  and  C7_12 
REMARK    4  A    between atoms: N4_14  and  C10_16 
REMARK    5  A    between atoms: C10_16  and  C11_17 
REMARK       I    between atoms: N5_27  and  C21_28 
ROOT
HETATM    1  C7  UNL     1      -0.591  -0.070  -0.011  1.00  0.00     0.205 C 
HETATM    2  C8  UNL     1       0.800  -0.448   0.434  1.00  0.00     0.272 C 
HETATM    3  N4  UNL     1       1.738   0.584   0.074  1.00  0.00    -0.064 N 
HETATM    4  C9  UNL     1       2.542   0.187  -1.063  1.00  0.00     0.273 C 
HETATM    5  C19 UNL     1       1.104   1.871  -0.111  1.00  0.00     0.257 C 
HETATM    6  C20 UNL     1       0.108   1.942  -1.215  1.00  0.00     0.154 C 
HETATM    7  N5  UNL     1      -0.557   0.629  -1.280  1.00  0.00    -0.339 N 
HETATM    8  C21 UNL     1      -1.088   0.109  -2.484  1.00  0.00     0.184 C 
HETATM    9  N6  UNL     1      -1.615   0.893  -3.354  1.00  0.00    -0.374 N 
ATOM     10  H61 UNL     1      -1.998   0.518  -4.222  1.00  0.00     0.158 HD
ATOM     11  H62 UNL     1      -1.648   1.896  -3.170  1.00  0.00     0.158 HD
HETATM   12  N7  UNL     1      -1.042  -1.278  -2.739  1.00  0.00    -0.064 NA
ENDROOT
BRANCH   1  13
HETATM   13  C6  UNL     1      -1.568  -1.151   0.026  1.00  0.00     0.244 C 
HETATM   14  N3  UNL     1      -2.953  -0.889  -0.054  1.00  0.00    -0.347 N 
HETATM   15  C5  UNL     1      -3.894  -2.019  -0.056  1.00  0.00     0.154 C 
HETATM   16  C22 UNL     1      -3.569   0.411  -0.099  1.00  0.00     0.154 C 
HETATM   17  C4  UNL     1      -5.136  -1.607  -0.775  1.00  0.00     0.257 C 
HETATM   18  N1  UNL     1      -5.842  -0.502  -0.128  1.00  0.00    -0.060 N 
HETATM   19  C1  UNL     1      -6.759  -1.105   0.816  1.00  0.00     0.273 C 
HETATM   20  C23 UNL     1      -4.920   0.331   0.620  1.00  0.00     0.257 C 
HETATM   21  O2  UNL     1      -1.170  -2.370   0.137  1.00  0.00    -0.271 OA
BRANCH  18  22
HETATM   22  C2  UNL     1      -6.563   0.188  -1.151  1.00  0.00     0.336 C 
BRANCH  22  23
HETATM   23  C3  UNL     1      -7.582   1.136  -0.718  1.00  0.00     0.257 C 
HETATM   24  N2  UNL     1      -7.924   1.441   0.614  1.00  0.00    -0.061 NA
HETATM   25  O1  UNL     1      -8.228   1.753  -1.619  1.00  0.00    -0.275 OA
ENDBRANCH  22  23
ENDBRANCH  18  22
ENDBRANCH   1  13
BRANCH   3  26
HETATM   26  C10 UNL     1       2.700   0.814   1.176  1.00  0.00     0.265 C 
BRANCH  26  27
HETATM   27  C11 UNL     1       3.663  -0.309   1.309  1.00  0.00     0.003 C 
HETATM   28  C12 UNL     1       4.974  -0.212   1.210  1.00  0.00    -0.082 C 
HETATM   29  C13 UNL     1       5.489   1.142   0.947  1.00  0.00     0.034 C 
HETATM   30  C18 UNL     1       5.678  -1.504   1.388  1.00  0.00     0.034 C 
HETATM   31  C14 UNL     1       6.993   1.256   1.057  1.00  0.00     0.004 C 
HETATM   32  C15 UNL     1       7.717   0.585  -0.057  1.00  0.00     0.000 C 
HETATM   33  C16 UNL     1       7.292  -0.828  -0.300  1.00  0.00     0.000 C 
HETATM   34  C17 UNL     1       7.130  -1.484   1.065  1.00  0.00     0.004 C 
ENDBRANCH  26  27
ENDBRANCH   3  26
TORSDOF 5
