REMARK  6 active torsions:
REMARK  status: ('A' for Active; 'I' for Inactive)
REMARK       I    between atoms: C2_4  and  N2_5 
REMARK       I    between atoms: C2_4  and  N9_31 
REMARK    1  A    between atoms: C3_7  and  N3_8 
REMARK    2  A    between atoms: C3_7  and  C11_24 
REMARK       I    between atoms: N3_8  and  C4_10 
REMARK       I    between atoms: N5_12  and  C5_14 
REMARK    3  A    between atoms: C5_14  and  C6_16 
REMARK    4  A    between atoms: N6_18  and  C8_20 
REMARK    5  A    between atoms: C8_20  and  C9_21 
REMARK    6  A    between atoms: N9_31  and  C17_33 
ROOT
HETATM    1  C9  UNL     1       6.955   4.929  -0.465  1.00  0.00     0.143 C 
HETATM    2  C10 UNL     1       8.412   4.937  -0.515  1.00  0.00     0.060 C 
HETATM    3  N7  UNL     1       9.577   4.947  -0.561  1.00  0.00    -0.197 NA
ENDROOT
BRANCH   1   4
HETATM    4  C8  UNL     1       6.403   3.520  -0.462  1.00  0.00     0.134 C 
BRANCH   4   5
HETATM    5  N6  UNL     1       4.961   3.506  -0.410  1.00  0.00    -0.388 N 
HETATM    6  C6  UNL     1       4.358   2.464   0.088  1.00  0.00     0.070 C 
HETATM    7  C7  UNL     1       5.143   1.307   0.592  1.00  0.00     0.074 C 
ATOM      8  H6  UNL     1       4.422   4.299  -0.758  1.00  0.00     0.159 HD
BRANCH   6   9
HETATM    9  C5  UNL     1       2.905   2.388   0.169  1.00  0.00     0.269 C 
HETATM   10  N5  UNL     1       2.248   1.273   0.703  1.00  0.00    -0.296 N 
HETATM   11  C4  UNL     1       1.370   0.566   0.115  1.00  0.00     0.196 C 
ATOM     12  H5  UNL     1       2.497   1.002   1.654  1.00  0.00     0.171 HD
HETATM   13  N3  UNL     1       0.805  -0.538   0.817  1.00  0.00    -0.319 N 
HETATM   14  N4  UNL     1       0.985   0.895  -1.202  1.00  0.00    -0.063 NA
ATOM     15  H3  UNL     1       0.964  -0.598   1.823  1.00  0.00     0.169 HD
HETATM   16  O1  UNL     1       2.236   3.384  -0.268  1.00  0.00    -0.266 OA
BRANCH  13  17
HETATM   17  C3  UNL     1       0.038  -1.554   0.206  1.00  0.00     0.105 C 
HETATM   18  N2  UNL     1      -1.182  -1.708   0.491  1.00  0.00    -0.180 N 
HETATM   19  C2  UNL     1      -1.970  -0.965   1.399  1.00  0.00     0.675 C 
ATOM     20  H2  UNL     1      -1.660  -2.466   0.004  1.00  0.00     0.185 HD
HETATM   21  N1  UNL     1      -1.540  -0.673   2.551  1.00  0.00    -0.231 N 
HETATM   22  N9  UNL     1      -3.262  -0.558   0.995  1.00  0.00    -0.220 N 
HETATM   23  C1  UNL     1      -2.177   0.057   3.593  1.00  0.00     0.165 C 
ATOM     24  H1  UNL     1      -0.601  -1.009   2.765  1.00  0.00     0.177 HD
ATOM     25  H9  UNL     1      -3.991  -1.259   0.861  1.00  0.00     0.178 HD
BRANCH  22  26
HETATM   26  C17 UNL     1      -3.565   0.832   0.770  1.00  0.00     0.127 C 
HETATM   27  C18 UNL     1      -2.703   1.383  -0.312  1.00  0.00     0.055 C 
HETATM   28  C19 UNL     1      -3.678   1.907  -1.336  1.00  0.00     0.238 C 
HETATM   29  N10 UNL     1      -4.864   2.159  -0.574  1.00  0.00    -0.073 N 
HETATM   30  C20 UNL     1      -6.052   2.257  -1.405  1.00  0.00     0.272 C 
HETATM   31  C21 UNL     1      -4.735   3.403   0.146  1.00  0.00     0.272 C 
HETATM   32  C22 UNL     1      -5.005   1.031   0.333  1.00  0.00     0.262 C 
ENDBRANCH  22  26
BRANCH  17  33
HETATM   33  C11 UNL     1       0.636  -2.480  -0.790  1.00  0.00     0.082 C 
HETATM   34  C12 UNL     1       1.797  -3.262  -0.251  1.00  0.00     0.042 C 
HETATM   35  C13 UNL     1       1.187  -4.583   0.193  1.00  0.00     0.237 C 
HETATM   36  N8  UNL     1       0.205  -4.830  -0.816  1.00  0.00    -0.074 N 
HETATM   37  C14 UNL     1      -0.843  -5.651  -0.192  1.00  0.00     0.272 C 
HETATM   38  C15 UNL     1       0.701  -5.596  -1.940  1.00  0.00     0.272 C 
HETATM   39  C16 UNL     1      -0.331  -3.551  -1.219  1.00  0.00     0.248 C 
ENDBRANCH  17  33
ENDBRANCH  13  17
ENDBRANCH   6   9
ENDBRANCH   4   5
ENDBRANCH   1   4
TORSDOF 6
