REMARK  7 active torsions:
REMARK  status: ('A' for Active; 'I' for Inactive)
REMARK    1  A    between atoms: C3_3  and  N1_4 
REMARK    2  A    between atoms: N2_7  and  C6_8 
REMARK    3  A    between atoms: C6_8  and  C7_9 
REMARK       I    between atoms: C7_9  and  N3_11 
REMARK    4  A    between atoms: C11_15  and  O2_17 
REMARK    5  A    between atoms: C13_19  and  C14_20 
REMARK    6  A    between atoms: C14_20  and  C15_21 
REMARK    7  A    between atoms: C15_21  and  O3_22 
ROOT
HETATM    1  C1  UNL     1       7.517   0.120   3.436  1.00  0.00     0.013 C 
HETATM    2  C2  UNL     1       7.472  -0.011   2.228  1.00  0.00    -0.089 C 
HETATM    3  C3  UNL     1       7.399  -0.152   0.767  1.00  0.00     0.330 C 
ENDROOT
BRANCH   3   4
HETATM    4  N1  UNL     1       6.032   0.060   0.380  1.00  0.00    -0.052 N 
HETATM    5  C4  UNL     1       5.587   1.421   0.716  1.00  0.00     0.266 C 
HETATM    6  C5  UNL     1       4.085   1.358   0.751  1.00  0.00     0.266 C 
HETATM    7  N2  UNL     1       3.604   0.363  -0.233  1.00  0.00    -0.054 N 
HETATM    8  C23 UNL     1       4.455   0.534  -1.382  1.00  0.00     0.266 C 
HETATM    9  C25 UNL     1       3.866  -0.943   0.318  1.00  0.00     0.266 C 
HETATM   10  C24 UNL     1       5.809  -0.098  -1.037  1.00  0.00     0.266 C 
HETATM   11  C26 UNL     1       5.149  -0.815   1.153  1.00  0.00     0.266 C 
BRANCH   7  12
HETATM   12  C6  UNL     1       2.225   0.663  -0.453  1.00  0.00     0.340 C 
BRANCH  12  13
HETATM   13  C7  UNL     1       1.497  -0.269  -1.314  1.00  0.00     0.247 C 
HETATM   14  O1  UNL     1       2.133  -1.254  -1.785  1.00  0.00    -0.271 OA
HETATM   15  N3  UNL     1       0.102  -0.097  -1.632  1.00  0.00    -0.326 N 
HETATM   16  C8  UNL     1      -0.403  -1.144  -2.498  1.00  0.00     0.165 C 
HETATM   17  C21 UNL     1      -0.534   1.061  -1.051  1.00  0.00     0.182 C 
HETATM   18  C9  UNL     1      -1.848  -1.076  -2.720  1.00  0.00    -0.032 C 
HETATM   19  C10 UNL     1      -2.279  -0.898  -3.959  1.00  0.00     0.019 C 
HETATM   20  C11 UNL     1      -2.915  -1.199  -1.621  1.00  0.00     0.120 C 
HETATM   21  C12 UNL     1      -2.976  -2.673  -1.328  1.00  0.00     0.058 C 
HETATM   22  C13 UNL     1      -2.379  -0.420  -0.489  1.00  0.00     0.044 C 
HETATM   23  N4  UNL     1      -1.968   0.932  -0.922  1.00  0.00    -0.370 N 
ATOM     24  H4  UNL     1      -2.624   1.690  -1.109  1.00  0.00     0.161 HD
HETATM   25  C22 UNL     1      -0.247   2.261  -1.935  1.00  0.00     0.056 C 
BRANCH  20  26
HETATM   26  O2  UNL     1      -4.057  -0.779  -2.226  1.00  0.00    -0.379 OA
ATOM     27  H2  UNL     1      -4.717  -0.855  -1.547  1.00  0.00     0.211 HD
ENDBRANCH  20  26
BRANCH  22  28
HETATM   28  C14 UNL     1      -2.997  -0.411   0.833  1.00  0.00     0.038 C 
BRANCH  28  29
HETATM   29  C15 UNL     1      -4.353   0.046   1.117  1.00  0.00     0.077 C 
HETATM   30  C16 UNL     1      -4.369   0.241   2.710  1.00  0.00     0.042 C 
HETATM   31  C17 UNL     1      -5.674   0.899   3.002  1.00  0.00     0.003 C 
HETATM   32  C18 UNL     1      -6.836  -0.031   2.718  1.00  0.00     0.000 C 
HETATM   33  C19 UNL     1      -6.802  -0.431   1.281  1.00  0.00     0.003 C 
HETATM   34  C20 UNL     1      -5.411  -0.966   0.929  1.00  0.00     0.042 C 
BRANCH  29  35
HETATM   35  O3  UNL     1      -4.646   1.348   0.740  1.00  0.00    -0.386 OA
ATOM     36  H3  UNL     1      -5.529   1.646   0.925  1.00  0.00     0.211 HD
ENDBRANCH  29  35
ENDBRANCH  28  29
ENDBRANCH  22  28
ENDBRANCH  12  13
ENDBRANCH   7  12
ENDBRANCH   3   4
TORSDOF 7
