REMARK  6 active torsions:
REMARK  status: ('A' for Active; 'I' for Inactive)
REMARK       I    between atoms: N2_6  and  C5_7 
REMARK       I    between atoms: C5_7  and  N3_9 
REMARK    1  A    between atoms: N3_9  and  C6_11 
REMARK    2  A    between atoms: C6_11  and  C7_12 
REMARK    3  A    between atoms: C6_11  and  C16_28 
REMARK    4  A    between atoms: C7_12  and  C8_13 
REMARK    5  A    between atoms: C8_13  and  C9_14 
REMARK       I    between atoms: N4_15  and  C10_17 
REMARK       I    between atoms: C10_17  and  N5_19 
REMARK    6  A    between atoms: N6_22  and  C13_23 
ROOT
HETATM    1  C6  UNL     1      -0.938  -2.636  -0.146  1.00  0.00     0.090 C 
ENDROOT
BRANCH   1   2
HETATM    2  N3  UNL     1      -1.609  -1.393   0.029  1.00  0.00    -0.338 N 
HETATM    3  C5  UNL     1      -2.004  -0.444  -0.935  1.00  0.00     0.318 C 
HETATM    4  N2  UNL     1      -2.677   0.762  -0.590  1.00  0.00    -0.331 N 
HETATM    5  O1  UNL     1      -1.764  -0.647  -2.144  1.00  0.00    -0.247 OA
HETATM    6  C4  UNL     1      -3.034   1.711  -1.612  1.00  0.00     0.155 C 
HETATM    7  C20 UNL     1      -3.029   1.078   0.778  1.00  0.00     0.155 C 
HETATM    8  C3  UNL     1      -4.464   2.182  -1.399  1.00  0.00     0.256 C 
HETATM    9  N1  UNL     1      -4.735   2.596  -0.054  1.00  0.00    -0.072 N 
HETATM   10  C1  UNL     1      -5.175   3.980   0.022  1.00  0.00     0.272 C 
HETATM   11  C2  UNL     1      -5.775   1.717   0.485  1.00  0.00     0.272 C 
HETATM   12  C21 UNL     1      -3.585   2.465   0.821  1.00  0.00     0.256 C 
ATOM     13  H3  UNL     1      -1.838  -1.154   0.994  1.00  0.00     0.164 HD
ENDBRANCH   1   2
BRANCH   1  14
HETATM   14  C7  UNL     1       0.541  -2.588  -0.261  1.00  0.00     0.031 C 
BRANCH  14  15
HETATM   15  C8  UNL     1       1.278  -2.003   0.900  1.00  0.00     0.046 C 
BRANCH  15  16
HETATM   16  C9  UNL     1       0.952  -0.611   1.221  1.00  0.00     0.065 C 
HETATM   17  N4  UNL     1       1.489   0.438   0.734  1.00  0.00    -0.323 N 
HETATM   18  C10 UNL     1       2.515   0.491  -0.217  1.00  0.00     0.322 C 
ATOM     19  H4  UNL     1       1.134   1.332   1.073  1.00  0.00     0.169 HD
HETATM   20  O2  UNL     1       2.217   0.533  -1.436  1.00  0.00    -0.247 OA
HETATM   21  N5  UNL     1       3.884   0.497   0.163  1.00  0.00    -0.331 N 
HETATM   22  C11 UNL     1       4.257   0.456   1.577  1.00  0.00     0.147 C 
HETATM   23  C15 UNL     1       4.940   0.533  -0.807  1.00  0.00     0.147 C 
HETATM   24  C12 UNL     1       5.241   1.598   1.782  1.00  0.00     0.145 C 
HETATM   25  N6  UNL     1       6.421   1.247   1.018  1.00  0.00    -0.357 N 
HETATM   26  C14 UNL     1       6.313   0.467  -0.176  1.00  0.00     0.145 C 
BRANCH  25  27
HETATM   27  C13 UNL     1       7.677   1.684   1.466  1.00  0.00     0.183 C 
HETATM   28  N7  UNL     1       7.814   2.462   2.646  1.00  0.00    -0.070 NA
HETATM   29  S1  UNL     1       9.024   1.307   0.635  1.00  0.00    -0.044 SA
ENDBRANCH  25  27
ENDBRANCH  15  16
ENDBRANCH  14  15
ENDBRANCH   1  14
BRANCH   1  30
HETATM   30  C16 UNL     1      -1.458  -3.278  -1.439  1.00  0.00     0.008 C 
HETATM   31  C17 UNL     1      -2.941  -3.528  -1.428  1.00  0.00     0.007 C 
HETATM   32  C18 UNL     1      -2.663  -4.897  -2.006  1.00  0.00     0.001 C 
HETATM   33  C19 UNL     1      -1.287  -4.809  -1.401  1.00  0.00     0.007 C 
ENDBRANCH   1  30
TORSDOF 6
