REMARK  7 active torsions:
REMARK  status: ('A' for Active; 'I' for Inactive)
REMARK    1  A    between atoms: C1_4  and  N2_5 
REMARK    2  A    between atoms: C1_4  and  C7_16 
REMARK    3  A    between atoms: N2_5  and  C2_7 
REMARK    4  A    between atoms: C2_7  and  C3_8 
REMARK    5  A    between atoms: C3_8  and  C4_9 
REMARK    6  A    between atoms: C8_20  and  N5_21 
REMARK    7  A    between atoms: C9_28  and  N7_29 
ROOT
HETATM    1  C7  UNL     1       1.867   0.356  -0.020  1.00  0.00     0.321 C 
HETATM    2  N4  UNL     1       2.902   0.845   0.896  1.00  0.00    -0.001 N 
ATOM      3  H41 UNL     1       3.160   0.119   1.565  1.00  0.00     0.283 HD
ATOM      4  H42 UNL     1       2.515   1.539   1.535  1.00  0.00     0.283 HD
HETATM    5  C8  UNL     1       4.059   1.357   0.245  1.00  0.00     0.582 C 
HETATM    6  N6  UNL     1       4.971   0.359  -0.253  1.00  0.00     0.017 N 
ATOM      7  H61 UNL     1       5.842   0.371   0.277  1.00  0.00     0.285 HD
ATOM      8  H62 UNL     1       5.327   0.623  -1.172  1.00  0.00     0.285 HD
HETATM    9  C9  UNL     1       4.418  -0.963  -0.286  1.00  0.00     0.449 C 
HETATM   10  S2  UNL     1       2.789  -0.802  -1.116  1.00  0.00    -0.068 SA
ENDROOT
BRANCH   1  11
HETATM   11  C1  UNL     1       0.915  -0.445   0.746  1.00  0.00     0.112 C 
HETATM   12  N1  UNL     1       1.130  -0.662   2.026  1.00  0.00    -0.387 N 
ATOM     13  H12 UNL     1       0.465  -1.221   2.561  1.00  0.00     0.157 HD
ATOM     14  H11 UNL     1       1.981  -0.229   2.385  1.00  0.00     0.157 HD
BRANCH  11  15
HETATM   15  N2  UNL     1      -0.270  -1.047   0.247  1.00  0.00    -0.378 N 
ATOM     16  H2  UNL     1      -0.382  -2.060   0.203  1.00  0.00     0.160 HD
BRANCH  15  17
HETATM   17  C2  UNL     1      -1.308  -0.145  -0.195  1.00  0.00     0.123 C 
BRANCH  17  18
HETATM   18  C3  UNL     1      -2.624  -0.860  -0.420  1.00  0.00     0.063 C 
BRANCH  18  19
HETATM   19  C4  UNL     1      -3.620   0.170  -0.871  1.00  0.00     0.248 C 
HETATM   20  N3  UNL     1      -4.936  -0.349  -1.092  1.00  0.00    -0.061 N 
HETATM   21  C5  UNL     1      -5.589  -0.460   0.197  1.00  0.00     0.243 C 
ATOM     22  H32 UNL     1      -5.472   0.203  -1.762  1.00  0.00     0.278 HD
ATOM     23  H31 UNL     1      -4.934  -1.227  -1.612  1.00  0.00     0.278 HD
HETATM   24  C6  UNL     1      -5.627   0.934   0.812  1.00  0.00     0.103 C 
HETATM   25  S1  UNL     1      -3.910   1.446   0.384  1.00  0.00    -0.135 SA
ENDBRANCH  18  19
ENDBRANCH  17  18
ENDBRANCH  15  17
ENDBRANCH  11  15
ENDBRANCH   1  11
BRANCH   5  26
HETATM   26  N5  UNL     1       3.763   2.296  -0.815  1.00  0.00    -0.025 N 
ATOM     27  H53 UNL     1       3.122   1.883  -1.493  1.00  0.00     0.278 HD
ATOM     28  H52 UNL     1       3.179   3.057  -0.469  1.00  0.00     0.278 HD
ATOM     29  H51 UNL     1       4.592   2.663  -1.282  1.00  0.00     0.278 HD
ENDBRANCH   5  26
BRANCH   9  30
HETATM   30  N7  UNL     1       5.292  -1.866  -0.959  1.00  0.00    -0.041 N 
ATOM     31  H73 UNL     1       5.529  -1.534  -1.894  1.00  0.00     0.277 HD
ATOM     32  H72 UNL     1       6.227  -1.859  -0.551  1.00  0.00     0.277 HD
ATOM     33  H71 UNL     1       4.898  -2.807  -0.982  1.00  0.00     0.277 HD
ENDBRANCH   9  30
TORSDOF 7
