REMARK  6 active torsions:
REMARK  status: ('A' for Active; 'I' for Inactive)
REMARK    1  A    between atoms: N1_1  and  C1_4 
REMARK    2  A    between atoms: C2_7  and  N3_8 
REMARK    3  A    between atoms: N4_10  and  N5_12 
REMARK    4  A    between atoms: N5_12  and  C3_14 
REMARK    5  A    between atoms: C7_24  and  N8_25 
REMARK    6  A    between atoms: C8_28  and  N9_29 
ROOT
HETATM    1  C1  UNL     1      -3.720  -1.079   0.487  1.00  0.00     0.679 A 
HETATM    2  N2  UNL     1      -2.489  -0.547   0.686  1.00  0.00    -0.173 N 
ATOM      3  H2  UNL     1      -1.869  -0.969   1.377  1.00  0.00     0.186 HD
HETATM    4  C2  UNL     1      -2.070   0.519  -0.004  1.00  0.00     0.173 A 
HETATM    5  C7  UNL     1      -2.914   1.073  -0.927  1.00  0.00     0.192 A 
HETATM    6  C8  UNL     1      -4.191   0.555  -1.162  1.00  0.00     0.152 A 
HETATM    7  N10 UNL     1      -4.542  -0.517  -0.430  1.00  0.00    -0.175 N 
ATOM      8  H10 UNL     1      -5.467  -0.924  -0.572  1.00  0.00     0.186 HD
ENDROOT
BRANCH   4   9
HETATM    9  N3  UNL     1      -0.795   1.070   0.206  1.00  0.00    -0.269 N 
HETATM   10  N4  UNL     1       0.079   0.557   0.968  1.00  0.00    -0.244 N 
ATOM     11  H4  UNL     1      -0.137  -0.306   1.467  1.00  0.00     0.208 HD
ATOM     12  H3  UNL     1      -0.558   1.933  -0.283  1.00  0.00     0.190 HD
BRANCH  10  13
HETATM   13  N5  UNL     1       1.334   1.153   1.137  1.00  0.00    -0.290 N 
ATOM     14  H5  UNL     1       1.370   2.085   1.549  1.00  0.00     0.184 HD
BRANCH  13  15
HETATM   15  C3  UNL     1       2.575   0.532   0.766  1.00  0.00     0.325 C 
HETATM   16  C4  UNL     1       2.762  -0.775   1.525  1.00  0.00     0.287 C 
HETATM   17  N6  UNL     1       4.011  -1.380   1.182  1.00  0.00    -0.070 N 
HETATM   18  C5  UNL     1       4.589  -0.883  -0.036  1.00  0.00     0.260 C 
ATOM     19  H62 UNL     1       4.673  -1.294   1.953  1.00  0.00     0.277 HD
ATOM     20  H61 UNL     1       3.918  -2.395   1.146  1.00  0.00     0.277 HD
HETATM   21  C6  UNL     1       3.447  -0.787  -1.053  1.00  0.00     0.262 C 
HETATM   22  N7  UNL     1       2.613   0.320  -0.667  1.00  0.00    -0.050 N 
ATOM     23  H72 UNL     1       1.671   0.214  -1.044  1.00  0.00     0.279 HD
ATOM     24  H71 UNL     1       2.893   1.172  -1.153  1.00  0.00     0.279 HD
ENDBRANCH  13  15
ENDBRANCH  10  13
ENDBRANCH   4   9
BRANCH   5  25
HETATM   25  N8  UNL     1      -2.503   2.189  -1.664  1.00  0.00    -0.108 N 
HETATM   26  O1  UNL     1      -1.670   2.058  -2.570  1.00  0.00    -0.531 OA
HETATM   27  O2  UNL     1      -3.000   3.434  -1.410  1.00  0.00    -0.531 OA
ENDBRANCH   5  25
BRANCH   1  28
HETATM   28  N1  UNL     1      -4.123  -2.106   1.153  1.00  0.00    -0.234 N 
ATOM     29  H12 UNL     1      -3.504  -2.529   1.844  1.00  0.00     0.174 HD
ATOM     30  H11 UNL     1      -5.049  -2.506   1.003  1.00  0.00     0.174 HD
ENDBRANCH   1  28
BRANCH   6  31
HETATM   31  N9  UNL     1      -4.993   1.072  -2.031  1.00  0.00    -0.383 N 
ATOM     32  H92 UNL     1      -4.727   1.885  -2.586  1.00  0.00     0.157 HD
ATOM     33  H91 UNL     1      -5.925   0.694  -2.202  1.00  0.00     0.157 HD
ENDBRANCH   6  31
TORSDOF 6
