REMARK  5 active torsions:
REMARK  status: ('A' for Active; 'I' for Inactive)
REMARK    1  A    between atoms: C11_11  and  C12_12 
REMARK       I    between atoms: C12_12  and  N1_14 
REMARK    2  A    between atoms: N1_14  and  C13_15 
REMARK    3  A    between atoms: N1_14  and  C15_19 
REMARK    4  A    between atoms: C13_15  and  C14_16 
REMARK    5  A    between atoms: C15_19  and  C16_20 
ROOT
HETATM    1  C1  UNL     1      -6.760  -1.049   0.437  1.00  0.00     0.011 C 
HETATM    2  C2  UNL     1      -5.465  -0.351   0.584  1.00  0.00    -0.010 C 
HETATM    3  C3  UNL     1      -5.554   1.124   0.818  1.00  0.00     0.005 C 
HETATM    4  C4  UNL     1      -4.100   1.541   0.551  1.00  0.00     0.006 C 
HETATM    5  C5  UNL     1      -3.875   0.837  -0.795  1.00  0.00    -0.002 C 
HETATM    6  C6  UNL     1      -2.481   0.830  -1.241  1.00  0.00    -0.005 C 
HETATM    7  C7  UNL     1      -1.718   2.021  -0.646  1.00  0.00     0.006 C 
HETATM    8  C8  UNL     1      -0.226   1.750  -0.613  1.00  0.00     0.011 C 
HETATM    9  C9  UNL     1       0.030   0.682   0.425  1.00  0.00    -0.028 C 
HETATM   10  C10 UNL     1       0.015   1.294   1.778  1.00  0.00     0.016 C 
HETATM   11  C11 UNL     1       1.323  -0.010   0.050  1.00  0.00     0.086 C 
HETATM   12  C20 UNL     1       1.180  -1.265   0.912  1.00  0.00     0.015 C 
HETATM   13  C21 UNL     1      -0.199  -1.733   0.416  1.00  0.00     0.007 C 
HETATM   14  C22 UNL     1      -0.995  -0.428   0.349  1.00  0.00    -0.001 C 
HETATM   15  C23 UNL     1      -1.672  -0.386  -0.990  1.00  0.00    -0.005 C 
HETATM   16  C24 UNL     1      -2.466  -1.633  -1.283  1.00  0.00     0.006 C 
HETATM   17  C25 UNL     1      -3.716  -1.653  -0.460  1.00  0.00     0.010 C 
HETATM   18  C26 UNL     1      -4.573  -0.460  -0.656  1.00  0.00    -0.037 C 
HETATM   19  C27 UNL     1      -5.443  -0.718  -1.893  1.00  0.00     0.016 C 
ENDROOT
BRANCH  11  20
HETATM   20  C12 UNL     1       2.516   0.755   0.371  1.00  0.00     0.225 C 
HETATM   21  O1  UNL     1       2.468   1.715   1.180  1.00  0.00    -0.273 OA
HETATM   22  N1  UNL     1       3.759   0.439  -0.215  1.00  0.00    -0.336 N 
BRANCH  22  23
HETATM   23  C13 UNL     1       3.916  -0.618  -1.185  1.00  0.00     0.225 C 
BRANCH  23  24
HETATM   24  C14 UNL     1       3.721  -0.043  -2.563  1.00  0.00     0.249 C 
HETATM   25  N2  UNL     1       3.830  -0.906  -3.681  1.00  0.00    -0.061 NA
HETATM   26  O2  UNL     1       3.471   1.152  -2.738  1.00  0.00    -0.275 OA
ENDBRANCH  23  24
ENDBRANCH  22  23
BRANCH  22  27
HETATM   27  C15 UNL     1       4.956   1.212   0.163  1.00  0.00     0.203 C 
BRANCH  27  28
HETATM   28  C16 UNL     1       5.663   0.627   1.318  1.00  0.00     0.101 A 
HETATM   29  N3  UNL     1       5.203   0.664   2.581  1.00  0.00    -0.353 N 
HETATM   30  C17 UNL     1       6.086   0.049   3.386  1.00  0.00     0.106 A 
ATOM     31  H3  UNL     1       4.326   1.090   2.880  1.00  0.00     0.166 HD
HETATM   32  C18 UNL     1       7.117  -0.374   2.586  1.00  0.00     0.108 A 
HETATM   33  N4  UNL     1       6.843  -0.013   1.319  1.00  0.00    -0.348 N 
HETATM   34  C19 UNL     1       7.727  -0.299   0.205  1.00  0.00     0.157 C 
ENDBRANCH  27  28
ENDBRANCH  22  27
ENDBRANCH  11  20
TORSDOF 5
