REMARK  6 active torsions:
REMARK  status: ('A' for Active; 'I' for Inactive)
REMARK    1  A    between atoms: C2_2  and  N1_3 
REMARK    2  A    between atoms: N1_3  and  C3_4 
REMARK    3  A    between atoms: N1_3  and  C5_7 
REMARK    4  A    between atoms: C3_4  and  O1_5 
REMARK    5  A    between atoms: C5_7  and  C6_8 
REMARK    6  A    between atoms: C10_15  and  N3_16 
ROOT
HETATM    1  C6  UNL     1       0.219   0.831  -0.421  1.00  0.00     0.039 A 
HETATM    2  C7  UNL     1       1.151   1.669  -1.042  1.00  0.00     0.048 A 
HETATM    3  C8  UNL     1       2.507   1.450  -0.904  1.00  0.00     0.042 A 
HETATM    4 BR1  UNL     1       3.811   2.561  -1.729  1.00  0.00    -0.049 Br
HETATM    5  C9  UNL     1       2.951   0.390  -0.144  1.00  0.00     0.099 A 
HETATM    6  N2  UNL     1       4.284   0.143   0.013  1.00  0.00    -0.188 N 
ATOM      7  H2  UNL     1       4.963   0.754  -0.440  1.00  0.00     0.184 HD
HETATM    8  C10 UNL     1       4.717  -0.891   0.753  1.00  0.00     0.679 A 
HETATM    9  N4  UNL     1       3.803  -1.680   1.339  1.00  0.00    -0.154 N 
ATOM     10  H4  UNL     1       4.129  -2.465   1.902  1.00  0.00     0.187 HD
HETATM   11  C11 UNL     1       2.470  -1.484   1.219  1.00  0.00     0.288 A 
HETATM   12  O2  UNL     1       1.612  -2.218   1.763  1.00  0.00    -0.265 OA
HETATM   13  C12 UNL     1       2.021  -0.431   0.464  1.00  0.00     0.130 A 
HETATM   14  N5  UNL     1       0.731  -0.167   0.293  1.00  0.00    -0.352 N 
ATOM     15  H5  UNL     1       0.068  -0.790   0.754  1.00  0.00     0.166 HD
ENDROOT
BRANCH   1  16
HETATM   16  C5  UNL     1      -1.188   1.154  -0.631  1.00  0.00     0.332 C 
BRANCH  16  17
HETATM   17  N1  UNL     1      -2.144   0.297  -0.037  1.00  0.00     0.116 N 
BRANCH  17  18
HETATM   18  C2  UNL     1      -2.157  -1.064  -0.426  1.00  0.00     0.271 C 
HETATM   19  C1  UNL     1      -2.462  -1.280  -1.893  1.00  0.00     0.037 C 
ENDBRANCH  17  18
BRANCH  17  20
HETATM   20  C3  UNL     1      -3.453   0.871  -0.097  1.00  0.00     0.440 C 
BRANCH  20  21
HETATM   21  O1  UNL     1      -4.357   0.218   0.746  1.00  0.00    -0.367 OA
HETATM   22  C4  UNL     1      -3.895   0.313   2.067  1.00  0.00     0.204 C 
ENDBRANCH  20  21
ENDBRANCH  17  20
ENDBRANCH  16  17
ENDBRANCH   1  16
BRANCH   8  23
HETATM   23  N3  UNL     1       5.994  -1.125   0.900  1.00  0.00    -0.234 N 
ATOM     24  H32 UNL     1       6.689  -0.525   0.455  1.00  0.00     0.174 HD
ATOM     25  H31 UNL     1       6.323  -1.910   1.462  1.00  0.00     0.174 HD
ENDBRANCH   8  23
TORSDOF 6
