REMARK  7 active torsions:
REMARK  status: ('A' for Active; 'I' for Inactive)
REMARK    1  A    between atoms: C2_2  and  C3_3 
REMARK    2  A    between atoms: C3_3  and  C4_4 
REMARK    3  A    between atoms: C4_4  and  N1_5 
REMARK    4  A    between atoms: C7_12  and  N4_13 
REMARK    5  A    between atoms: C8_16  and  N5_17 
REMARK    6  A    between atoms: N5_17  and  C9_19 
REMARK    7  A    between atoms: C9_19  and  C10_20 
ROOT
HETATM    1  N1  UNL     1       1.765  -0.708   0.323  1.00  0.00    -0.308 N 
HETATM    2  C5  UNL     1       1.654  -1.047   1.617  1.00  0.00     0.187 A 
HETATM    3  N2  UNL     1       0.499  -1.145   2.267  1.00  0.00    -0.336 N 
ATOM      4  H2  UNL     1       0.488  -1.409   3.252  1.00  0.00     0.168 HD
HETATM    5  C6  UNL     1      -0.658  -0.895   1.623  1.00  0.00     0.140 A 
HETATM    6  N3  UNL     1      -1.835  -0.992   2.275  1.00  0.00    -0.324 N 
ATOM      7  H3  UNL     1      -1.869  -1.254   3.260  1.00  0.00     0.169 HD
HETATM    8  C7  UNL     1      -2.977  -0.730   1.581  1.00  0.00     0.145 A 
HETATM    9  C8  UNL     1      -2.965  -0.377   0.264  1.00  0.00     0.146 A 
HETATM   10  N6  UNL     1      -1.728  -0.295  -0.351  1.00  0.00    -0.332 N 
ATOM     11  H6  UNL     1      -1.685  -0.034  -1.336  1.00  0.00     0.168 HD
HETATM   12  C11 UNL     1      -0.599  -0.543   0.294  1.00  0.00     0.147 A 
HETATM   13  C12 UNL     1       0.638  -0.454  -0.345  1.00  0.00     0.279 A 
HETATM   14  O1  UNL     1       0.697  -0.137  -1.543  1.00  0.00    -0.265 OA
ENDROOT
BRANCH   9  15
HETATM   15  N5  UNL     1      -3.952  -0.122  -0.445  1.00  0.00    -0.372 N 
ATOM     16  H5  UNL     1      -3.640   0.109  -1.388  1.00  0.00     0.161 HD
BRANCH  15  17
HETATM   17  C9  UNL     1      -5.332  -0.046  -0.386  1.00  0.00     0.132 C 
BRANCH  17  18
HETATM   18  C10 UNL     1      -5.957   0.367  -1.728  1.00  0.00     0.104 C 
HETATM   19 BR1  UNL     1      -5.327   2.086  -2.288  1.00  0.00    -0.095 Br
ENDBRANCH  17  18
ENDBRANCH  15  17
ENDBRANCH   9  15
BRANCH   8  20
HETATM   20  N4  UNL     1      -4.035  -0.838   2.247  1.00  0.00    -0.382 N 
ATOM     21  H42 UNL     1      -4.044  -1.102   3.232  1.00  0.00     0.157 HD
ATOM     22  H41 UNL     1      -4.890  -0.642   1.727  1.00  0.00     0.157 HD
ENDBRANCH   8  20
BRANCH   1  23
HETATM   23  C4  UNL     1       3.081  -0.641  -0.252  1.00  0.00     0.133 C 
BRANCH  23  24
HETATM   24  C3  UNL     1       3.719   0.709  -0.137  1.00  0.00     0.020 C 
BRANCH  24  25
HETATM   25  C2  UNL     1       5.102   0.598  -0.795  1.00  0.00    -0.003 C 
HETATM   26  C1  UNL     1       5.836   1.907  -0.736  1.00  0.00     0.005 C 
ENDBRANCH  24  25
ENDBRANCH  23  24
ENDBRANCH   1  23
TORSDOF 7
