REMARK  5 active torsions:
REMARK  status: ('A' for Active; 'I' for Inactive)
REMARK    1  A    between atoms: S1_2  and  N1_4 
REMARK    2  A    between atoms: N1_4  and  C2_6 
REMARK    3  A    between atoms: C2_6  and  C3_7 
REMARK    4  A    between atoms: N4_14  and  C6_16 
REMARK    5  A    between atoms: C6_16  and  C7_17 
ROOT
HETATM    1  C3  UNL     1       1.702  -0.523  -0.477  1.00  0.00     0.073 A 
HETATM    2  N2  UNL     1       0.930   0.449  -0.030  1.00  0.00    -0.336 N 
ATOM      3  H2  UNL     1       1.353   1.286   0.371  1.00  0.00     0.168 HD
HETATM    4  C4  UNL     1      -0.362   0.350  -0.095  1.00  0.00     0.156 A 
HETATM    5  N3  UNL     1      -1.459   1.103   0.245  1.00  0.00    -0.174 N 
ATOM      6  H3  UNL     1      -1.429   2.025   0.680  1.00  0.00     0.186 HD
HETATM    7  C5  UNL     1      -2.577   0.436  -0.084  1.00  0.00     0.680 A 
HETATM    8  N4  UNL     1      -3.781   0.912   0.123  1.00  0.00    -0.225 N 
ATOM      9  H4  UNL     1      -3.889   1.830   0.553  1.00  0.00     0.177 HD
HETATM   10  N5  UNL     1      -2.247  -0.740  -0.633  1.00  0.00    -0.182 N 
ATOM     11  H5  UNL     1      -2.888  -1.455  -0.978  1.00  0.00     0.185 HD
HETATM   12  C8  UNL     1      -0.888  -0.792  -0.639  1.00  0.00     0.136 A 
HETATM   13  S2  UNL     1       0.537  -1.655  -1.026  1.00  0.00    -0.053 SA
ENDROOT
BRANCH   1  14
HETATM   14  C2  UNL     1       3.204  -0.616  -0.500  1.00  0.00     0.194 C 
BRANCH  14  15
HETATM   15  N1  UNL     1       3.658  -1.238   0.752  1.00  0.00    -0.335 N 
ATOM     16  H1  UNL     1       3.064  -1.558   1.517  1.00  0.00     0.170 HD
BRANCH  15  17
HETATM   17  S1  UNL     1       5.382  -1.327   0.689  1.00  0.00     0.106 S 
HETATM   18  C1  UNL     1       5.947   0.140  -0.171  1.00  0.00     0.152 C 
HETATM   19  O1  UNL     1       5.960  -1.283   2.264  1.00  0.00    -0.236 OA
ENDBRANCH  15  17
ENDBRANCH  14  15
ENDBRANCH   1  14
BRANCH   8  20
HETATM   20  C6  UNL     1      -4.960   0.158  -0.248  1.00  0.00     0.149 C 
BRANCH  20  21
HETATM   21  C7  UNL     1      -6.157   0.961   0.221  1.00  0.00     0.105 C 
HETATM   22 BR1  UNL     1      -6.093   2.669  -0.670  1.00  0.00    -0.095 Br
ENDBRANCH  20  21
ENDBRANCH   8  20
TORSDOF 5
