REMARK  2 active torsions:
REMARK  status: ('A' for Active; 'I' for Inactive)
REMARK    1  A    between atoms: C6_7  and  C7_8 
REMARK    2  A    between atoms: N2_14  and  N3_16 
ROOT
HETATM    1  C7  UNL     1      -0.787  -0.488  -0.782  1.00  0.00     0.057 C 
HETATM    2  C8  UNL     1      -0.924  -1.634   0.150  1.00  0.00     0.014 C 
HETATM    3  C9  UNL     1      -2.391  -2.113   0.113  1.00  0.00     0.001 C 
HETATM    4  C10 UNL     1      -3.284  -0.995   0.635  1.00  0.00     0.006 C 
HETATM    5  C11 UNL     1      -3.275   0.066  -0.447  1.00  0.00     0.054 C 
HETATM    6  C12 UNL     1      -1.874   0.531  -0.582  1.00  0.00     0.011 C 
HETATM    7  N2  UNL     1      -1.614   1.791  -0.525  1.00  0.00    -0.315 N 
ATOM      8  H2  UNL     1      -0.651   2.113  -0.618  1.00  0.00     0.185 HD
ENDROOT
BRANCH   1   9
HETATM    9  C6  UNL     1       0.489   0.193  -0.852  1.00  0.00     0.008 C 
HETATM   10  C5  UNL     1       1.549   0.062  -0.084  1.00  0.00     0.003 C 
HETATM   11  N1  UNL     1       2.773   0.804  -0.257  1.00  0.00    -0.389 N 
HETATM   12  C4  UNL     1       1.803  -0.805   1.091  1.00  0.00     0.058 C 
HETATM   13  C1  UNL     1       3.160   1.445  -1.513  1.00  0.00     0.149 C 
HETATM   14  C2  UNL     1       3.506   0.788   1.005  1.00  0.00     0.122 C 
HETATM   15  C3  UNL     1       3.267  -0.644   1.425  1.00  0.00     0.026 C 
ENDBRANCH   1   9
BRANCH   7  16
HETATM   16  N3  UNL     1      -2.639   2.720  -0.337  1.00  0.00    -0.345 N 
ATOM     17  H32 UNL     1      -3.597   2.381  -0.246  1.00  0.00     0.176 HD
ATOM     18  H31 UNL     1      -2.433   3.718  -0.292  1.00  0.00     0.176 HD
ENDBRANCH   7  16
TORSDOF 2
