REMARK  1 active torsions:
REMARK  status: ('A' for Active; 'I' for Inactive)
REMARK    1  A    between atoms: C2_2  and  C5_5 
ROOT
HETATM    1  C5  UNL     1       0.093   0.019  -0.402  1.00  0.00     0.098 C 
HETATM    2  C6  UNL     1       1.186  -1.015  -0.403  1.00  0.00     0.020 C 
HETATM    3  C7  UNL     1       2.280  -0.100  -1.073  1.00  0.00     0.027 C 
HETATM    4  C8  UNL     1       1.787   1.382  -0.739  1.00  0.00     0.126 C 
HETATM    5  N1  UNL     1       0.996   0.938   0.329  1.00  0.00    -0.356 N 
HETATM    6  C9  UNL     1       0.949   0.941   1.706  1.00  0.00     0.136 C 
HETATM    7  N2  UNL     1       0.821   1.877   2.493  1.00  0.00    -0.380 N 
ATOM      8  H21 UNL     1       0.786   1.879   3.512  1.00  0.00     0.158 HD
ATOM      9  H22 UNL     1       0.709   2.810   2.095  1.00  0.00     0.158 HD
HETATM   10  S1  UNL     1       1.156  -0.784   2.442  1.00  0.00    -0.094 SA
HETATM   11  C10 UNL     1       1.660  -1.592   0.848  1.00  0.00     0.089 C 
ENDROOT
BRANCH   1  12
HETATM   12  C2  UNL     1      -1.250  -0.156  -0.090  1.00  0.00    -0.030 C 
HETATM   13  C1  UNL     1      -1.841  -1.201  -1.078  1.00  0.00     0.016 C 
HETATM   14  C3  UNL     1      -2.020   1.125  -0.567  1.00  0.00     0.016 C 
HETATM   15  C4  UNL     1      -1.882  -0.465   1.197  1.00  0.00     0.016 C 
ENDBRANCH   1  12
TORSDOF 1
