REMARK  3 active torsions:
REMARK  status: ('A' for Active; 'I' for Inactive)
REMARK    1  A    between atoms: C2_2  and  N1_4 
REMARK       I    between atoms: N1_4  and  C4_6 
REMARK    2  A    between atoms: C4_6  and  O2_8 
REMARK    3  A    between atoms: O2_8  and  N2_9 
ROOT
HETATM    1  O2  UNL     1       0.257  -1.217   1.161  1.00  0.00    -0.181 OA
ENDROOT
BRANCH   1   2
HETATM    2  C4  UNL     1       1.294  -0.834   0.295  1.00  0.00     0.382 C 
HETATM    3  N1  UNL     1       2.552  -0.398   0.777  1.00  0.00    -0.332 N 
ATOM      4  H1  UNL     1       2.724  -0.356   1.781  1.00  0.00     0.165 HD
HETATM    5  O1  UNL     1       1.018  -0.909  -0.932  1.00  0.00    -0.236 OA
BRANCH   3   6
HETATM    6  C2  UNL     1       3.576  -0.018  -0.133  1.00  0.00     0.078 C 
HETATM    7  C1  UNL     1       4.040   1.414   0.050  1.00  0.00     0.032 C 
HETATM    8  C3  UNL     1       4.810  -0.891   0.121  1.00  0.00     0.032 C 
ENDBRANCH   3   6
ENDBRANCH   1   2
BRANCH   1   9
HETATM    9  N2  UNL     1      -0.942  -1.633   0.702  1.00  0.00    -0.264 N 
HETATM   10  C5  UNL     1      -1.900  -0.869   0.319  1.00  0.00     0.010 C 
HETATM   11  C6  UNL     1      -3.186  -1.383  -0.173  1.00  0.00     0.054 C 
HETATM   12  C10 UNL     1      -1.701   0.594   0.376  1.00  0.00     0.054 C 
HETATM   13  C7  UNL     1      -3.901  -0.389  -1.067  1.00  0.00     0.006 C 
HETATM   14  C8  UNL     1      -4.023   0.969  -0.462  1.00  0.00     0.001 C 
HETATM   15  C9  UNL     1      -3.036   1.257   0.623  1.00  0.00     0.006 C 
ATOM     16  H2  UNL     1      -1.100  -2.640   0.655  1.00  0.00     0.194 HD
ENDBRANCH   1   9
TORSDOF 3
