REMARK  5 active torsions:
REMARK  status: ('A' for Active; 'I' for Inactive)
REMARK    1  A    between atoms: C7_12  and  C8_13 
REMARK    2  A    between atoms: C11_16  and  O1_17 
REMARK    3  A    between atoms: O1_17  and  C12_18 
REMARK    4  A    between atoms: C17_23  and  O2_24 
REMARK    5  A    between atoms: O2_24  and  C18_25 
ROOT
HETATM    1  C8  UNL     1       0.744  -1.098   0.560  1.00  0.00    -0.023 A 
HETATM    2  C9  UNL     1       0.067  -2.269   0.793  1.00  0.00     0.015 A 
HETATM    3  C10 UNL     1      -1.295  -2.366   0.577  1.00  0.00     0.040 A 
HETATM    4  C11 UNL     1      -2.048  -1.321   0.123  1.00  0.00     0.102 A 
HETATM    5  C17 UNL     1      -1.367  -0.109  -0.122  1.00  0.00     0.103 A 
HETATM    6  C23 UNL     1      -0.009  -0.015   0.094  1.00  0.00     0.052 A 
ENDROOT
BRANCH   1   7
HETATM    7  C7  UNL     1       2.178  -0.961   0.779  1.00  0.00    -0.025 A 
HETATM    8  C6  UNL     1       2.926  -0.105  -0.001  1.00  0.00     0.022 A 
HETATM    9  C5  UNL     1       4.296   0.046   0.194  1.00  0.00    -0.020 A 
HETATM   10  C4  UNL     1       4.856   1.003  -0.758  1.00  0.00     0.271 C 
HETATM   11  C26 UNL     1       4.949  -0.660   1.179  1.00  0.00     0.021 A 
HETATM   12  N1  UNL     1       5.783   1.937  -0.156  1.00  0.00    -0.071 N 
HETATM   13  C3  UNL     1       7.040   1.359   0.203  1.00  0.00     0.239 C 
ATOM     14  H12 UNL     1       5.357   2.396   0.649  1.00  0.00     0.277 HD
ATOM     15  H11 UNL     1       5.921   2.746  -0.762  1.00  0.00     0.277 HD
HETATM   16  C2  UNL     1       6.940   0.767   1.575  1.00  0.00     0.112 C 
HETATM   17  C1  UNL     1       6.362  -0.631   1.535  1.00  0.00     0.273 C 
HETATM   18  F1  UNL     1       6.504  -1.154   2.820  1.00  0.00    -0.201 F 
HETATM   19  F2  UNL     1       7.147  -1.402   0.689  1.00  0.00    -0.201 F 
HETATM   20  C25 UNL     1       4.221  -1.520   1.968  1.00  0.00     0.014 A 
HETATM   21  C24 UNL     1       2.857  -1.672   1.775  1.00  0.00     0.013 A 
ENDBRANCH   1   7
BRANCH   5  22
HETATM   22  O2  UNL     1      -2.133   0.933  -0.576  1.00  0.00    -0.343 OA
BRANCH  22  23
HETATM   23  C18 UNL     1      -1.694   2.213  -0.874  1.00  0.00     0.129 C 
HETATM   24  C19 UNL     1      -2.010   2.586  -2.338  1.00  0.00     0.032 C 
HETATM   25  C20 UNL     1      -2.031   4.095  -2.326  1.00  0.00     0.002 C 
HETATM   26  C21 UNL     1      -2.618   4.461  -0.989  1.00  0.00     0.002 C 
HETATM   27  C22 UNL     1      -2.447   3.274  -0.081  1.00  0.00     0.032 C 
ENDBRANCH  22  23
ENDBRANCH   5  22
BRANCH   4  28
HETATM   28  O1  UNL     1      -3.388  -1.351  -0.110  1.00  0.00    -0.343 OA
BRANCH  28  29
HETATM   29  C12 UNL     1      -4.316  -2.359   0.019  1.00  0.00     0.129 C 
HETATM   30  C13 UNL     1      -5.416  -2.109   0.984  1.00  0.00     0.032 C 
HETATM   31  C14 UNL     1      -6.477  -3.110   0.564  1.00  0.00     0.002 C 
HETATM   32  C15 UNL     1      -6.482  -2.824  -0.951  1.00  0.00     0.002 C 
HETATM   33  C16 UNL     1      -4.983  -2.746  -1.277  1.00  0.00     0.032 C 
ENDBRANCH  28  29
ENDBRANCH   4  28
TORSDOF 5
