REMARK  6 active torsions:
REMARK  status: ('A' for Active; 'I' for Inactive)
REMARK    1  A    between atoms: O1_2  and  C2_3 
REMARK    2  A    between atoms: C17_18  and  O2_19 
REMARK    3  A    between atoms: C17_18  and  C18_21 
REMARK    4  A    between atoms: C19_22  and  C20_23 
REMARK    5  A    between atoms: C20_23  and  C21_24 
REMARK    6  A    between atoms: C21_24  and  C22_25 
ROOT
HETATM    1  C2  UNL     1      -3.244  -0.365  -1.619  1.00  0.00     0.259 C 
HETATM    2  C3  UNL     1      -4.022   0.794  -1.001  1.00  0.00     0.061 C 
HETATM    3  C4  UNL     1      -3.867   0.824   0.508  1.00  0.00     0.015 C 
HETATM    4  C5  UNL     1      -2.652   1.531   0.923  1.00  0.00    -0.032 A 
HETATM    5  C6  UNL     1      -2.105   2.725   0.247  1.00  0.00     0.011 A 
HETATM    6  C7  UNL     1      -1.662   3.297   1.593  1.00  0.00     0.006 A 
HETATM    7  C8  UNL     1      -2.363   2.114   2.221  1.00  0.00    -0.001 A 
HETATM    8  C9  UNL     1      -1.925   0.774   1.970  1.00  0.00    -0.001 A 
HETATM    9  C10 UNL     1      -0.578   0.370   1.409  1.00  0.00     0.007 C 
HETATM   10  C11 UNL     1      -0.589  -1.036   0.989  1.00  0.00     0.015 C 
HETATM   11  C12 UNL     1      -0.079  -1.447  -0.307  1.00  0.00     0.017 C 
HETATM   12  C13 UNL     1       0.379  -2.909  -0.186  1.00  0.00     0.021 C 
HETATM   13  C14 UNL     1      -1.247  -1.526  -1.324  1.00  0.00     0.136 C 
HETATM   14  C15 UNL     1      -0.514  -1.686  -2.650  1.00  0.00     0.036 C 
HETATM   15  C16 UNL     1       0.965  -1.537  -2.357  1.00  0.00     0.045 C 
HETATM   16  C17 UNL     1       0.871  -0.673  -1.077  1.00  0.00     0.085 C 
HETATM   17  O3  UNL     1      -1.922  -0.359  -1.220  1.00  0.00    -0.355 OA
ENDROOT
BRANCH  16  18
HETATM   18  O2  UNL     1       0.327   0.516  -1.624  1.00  0.00    -0.385 OA
ATOM     19  H2  UNL     1       0.951   1.024  -2.129  1.00  0.00     0.211 HD
ENDBRANCH  16  18
BRANCH  16  20
HETATM   20  C18 UNL     1       2.203  -0.413  -0.622  1.00  0.00     0.007 C 
HETATM   21  C19 UNL     1       2.751  -0.646   0.551  1.00  0.00    -0.027 C 
BRANCH  21  22
HETATM   22  C20 UNL     1       4.169  -0.310   0.860  1.00  0.00     0.030 C 
BRANCH  22  23
HETATM   23  C21 UNL     1       4.226   0.675   2.017  1.00  0.00     0.045 C 
BRANCH  23  24
HETATM   24  C22 UNL     1       5.640   1.046   2.365  1.00  0.00     0.110 C 
HETATM   25  C23 UNL     1       6.335   1.689   1.181  1.00  0.00     0.050 C 
HETATM   26 CL1  UNL     1       6.586  -0.329   2.934  1.00  0.00    -0.102 Cl
HETATM   27 CL2  UNL     1       5.542   2.271   3.676  1.00  0.00    -0.102 Cl
ENDBRANCH  23  24
ENDBRANCH  22  23
ENDBRANCH  21  22
ENDBRANCH  16  20
BRANCH   1  28
HETATM   28  O1  UNL     1      -3.894  -1.566  -1.402  1.00  0.00    -0.366 OA
HETATM   29  C1  UNL     1      -4.328  -2.083  -2.619  1.00  0.00     0.204 C 
ENDBRANCH   1  28
TORSDOF 6
