REMARK  5 active torsions:
REMARK  status: ('A' for Active; 'I' for Inactive)
REMARK    1  A    between atoms: C5_6  and  C6_7 
REMARK    2  A    between atoms: C6_7  and  C7_8 
REMARK    3  A    between atoms: C6_7  and  C13_14 
REMARK    4  A    between atoms: C16_17  and  O1_18 
REMARK    5  A    between atoms: O1_18  and  C17_19 
ROOT
HETATM    1 CL1  UNL     1      -3.102  -5.000   4.286  1.00  0.00    -0.083 Cl
HETATM    2  C1  UNL     1      -2.375  -3.834   3.199  1.00  0.00     0.056 A 
HETATM    3  C2  UNL     1      -2.946  -3.438   2.009  1.00  0.00     0.026 A 
HETATM    4  C3  UNL     1      -2.323  -2.517   1.190  1.00  0.00     0.015 A 
HETATM    5  C4  UNL     1      -1.117  -1.961   1.525  1.00  0.00    -0.008 A 
HETATM    6  C5  UNL     1      -0.574  -1.002   0.646  1.00  0.00     0.029 A 
HETATM    7  C16 UNL     1       0.633  -0.485   1.129  1.00  0.00     0.154 A 
HETATM    8  N2  UNL     1       1.194  -0.866   2.295  1.00  0.00    -0.345 N 
ATOM      9  H2  UNL     1       2.076  -0.440   2.580  1.00  0.00     0.167 HD
HETATM   10  C22 UNL     1       0.640  -1.771   3.078  1.00  0.00     0.104 A 
HETATM   11  C23 UNL     1      -0.532  -2.336   2.702  1.00  0.00     0.014 A 
HETATM   12  C24 UNL     1      -1.147  -3.265   3.540  1.00  0.00     0.068 A 
HETATM   13 CL2  UNL     1      -0.379  -3.729   5.042  1.00  0.00    -0.082 Cl
ENDROOT
BRANCH   6  14
HETATM   14  C6  UNL     1      -1.153  -0.751  -0.662  1.00  0.00    -0.056 C 
BRANCH  14  15
HETATM   15  C7  UNL     1      -2.122   0.382  -0.819  1.00  0.00     0.016 C 
HETATM   16  C8  UNL     1      -2.601   0.532  -2.246  1.00  0.00     0.009 C 
HETATM   17  C9  UNL     1      -3.337   1.861  -2.363  1.00  0.00     0.001 C 
HETATM   18  C10 UNL     1      -2.276   2.952  -2.384  1.00  0.00     0.000 C 
HETATM   19  C11 UNL     1      -1.258   2.702  -1.315  1.00  0.00     0.001 C 
HETATM   20  C12 UNL     1      -1.752   1.707  -0.279  1.00  0.00     0.009 C 
ENDBRANCH  14  15
BRANCH  14  21
HETATM   21  C13 UNL     1      -1.096  -1.781  -1.723  1.00  0.00     0.016 A 
HETATM   22  C14 UNL     1       0.335  -2.210  -2.216  1.00  0.00     0.010 A 
HETATM   23  C15 UNL     1      -0.625  -3.153  -1.622  1.00  0.00     0.010 A 
ENDBRANCH  14  21
ENDBRANCH   6  14
BRANCH   7  24
HETATM   24  O1  UNL     1       1.293   0.456   0.372  1.00  0.00    -0.330 OA
BRANCH  24  25
HETATM   25  C17 UNL     1       2.522   1.036   0.740  1.00  0.00     0.133 C 
HETATM   26  C18 UNL     1       3.685   0.349   0.024  1.00  0.00     0.060 C 
HETATM   27  C19 UNL     1       4.926   1.015   0.623  1.00  0.00     0.235 C 
HETATM   28  N1  UNL     1       4.926   2.424   0.264  1.00  0.00    -0.075 N 
HETATM   29  C20 UNL     1       3.810   3.106   0.894  1.00  0.00     0.235 C 
ATOM     30  H12 UNL     1       5.816   2.872   0.481  1.00  0.00     0.277 HD
ATOM     31  H11 UNL     1       4.932   2.559  -0.747  1.00  0.00     0.277 HD
HETATM   32  C21 UNL     1       2.508   2.501   0.450  1.00  0.00     0.060 C 
ENDBRANCH  24  25
ENDBRANCH   7  24
TORSDOF 5
