REMARK  7 active torsions:
REMARK  status: ('A' for Active; 'I' for Inactive)
REMARK    1  A    between atoms: O1_2  and  C2_3 
REMARK    2  A    between atoms: C4_5  and  N1_6 
REMARK    3  A    between atoms: N1_6  and  C5_8 
REMARK    4  A    between atoms: C13_19  and  N4_20 
REMARK    5  A    between atoms: N4_20  and  S1_22 
REMARK    6  A    between atoms: S1_22  and  N5_25 
REMARK    7  A    between atoms: C18_30  and  O4_31 
ROOT
HETATM    1  C5  UNL     1      -0.704  -1.723   0.562  1.00  0.00     0.067 A 
HETATM    2  C6  UNL     1      -1.309  -2.783   1.185  1.00  0.00     0.087 A 
HETATM    3  C7  UNL     1      -2.641  -2.667   1.744  1.00  0.00     0.103 C 
HETATM    4  N2  UNL     1      -3.697  -2.606   2.198  1.00  0.00    -0.191 NA
HETATM    5  C8  UNL     1      -0.625  -3.980   1.277  1.00  0.00     0.113 A 
HETATM    6  N3  UNL     1       0.605  -4.129   0.775  1.00  0.00    -0.364 N 
ATOM      7  H3  UNL     1       1.084  -5.026   0.859  1.00  0.00     0.165 HD
HETATM    8  C9  UNL     1       1.213  -3.097   0.159  1.00  0.00     0.045 A 
HETATM    9  C10 UNL     1       2.503  -3.254  -0.367  1.00  0.00     0.039 A 
HETATM   10  C11 UNL     1       3.128  -2.212  -0.994  1.00  0.00    -0.032 A 
HETATM   11  C12 UNL     1       4.488  -2.370  -1.547  1.00  0.00     0.050 C 
HETATM   12  C13 UNL     1       2.489  -0.972  -1.119  1.00  0.00     0.050 A 
HETATM   13  C16 UNL     1       1.219  -0.803  -0.605  1.00  0.00     0.046 A 
HETATM   14  C17 UNL     1       0.600  -1.886   0.031  1.00  0.00     0.021 A 
ENDROOT
BRANCH   1  15
HETATM   15  N1  UNL     1      -1.189  -0.591   0.394  1.00  0.00    -0.352 N 
ATOM     16  H1  UNL     1      -0.518  -0.002  -0.099  1.00  0.00     0.166 HD
BRANCH  15  17
HETATM   17  C4  UNL     1      -2.328   0.127   0.652  1.00  0.00     0.069 A 
HETATM   18  C3  UNL     1      -2.538   0.893   1.800  1.00  0.00     0.071 A 
HETATM   19  C2  UNL     1      -3.680   1.618   2.024  1.00  0.00     0.092 A 
HETATM   20  C21 UNL     1      -4.698   1.616   1.088  1.00  0.00     0.070 A 
HETATM   21  C20 UNL     1      -4.521   0.879  -0.039  1.00  0.00     0.065 A 
HETATM   22 CL1  UNL     1      -6.183   2.511   1.296  1.00  0.00    -0.081 Cl
HETATM   23  C18 UNL     1      -3.385   0.150  -0.275  1.00  0.00     0.096 A 
BRANCH  19  24
HETATM   24  O1  UNL     1      -3.837   2.355   3.172  1.00  0.00    -0.354 OA
HETATM   25  C1  UNL     1      -2.802   2.361   4.132  1.00  0.00     0.210 C 
ENDBRANCH  19  24
BRANCH  23  26
HETATM   26  O4  UNL     1      -3.211  -0.601  -1.430  1.00  0.00    -0.354 OA
HETATM   27  C19 UNL     1      -4.281  -0.583  -2.379  1.00  0.00     0.210 C 
ENDBRANCH  23  26
ENDBRANCH  15  17
ENDBRANCH   1  15
BRANCH  12  28
HETATM   28  N4  UNL     1       3.189   0.046  -1.773  1.00  0.00    -0.271 N 
ATOM     29  H4  UNL     1       4.036  -0.211  -2.280  1.00  0.00     0.180 HD
BRANCH  28  30
HETATM   30  S1  UNL     1       2.724   1.696  -1.782  1.00  0.00     0.302 S 
HETATM   31  O2  UNL     1       1.285   1.932  -2.073  1.00  0.00    -0.188 OA
HETATM   32  O3  UNL     1       3.485   2.442  -2.883  1.00  0.00    -0.188 OA
BRANCH  30  33
HETATM   33  N5  UNL     1       3.207   2.500  -0.320  1.00  0.00    -0.202 NA
HETATM   34  C14 UNL     1       4.540   3.061  -0.452  1.00  0.00     0.130 C 
HETATM   35  C15 UNL     1       2.256   3.527   0.058  1.00  0.00     0.130 C 
ENDBRANCH  30  33
ENDBRANCH  28  30
ENDBRANCH  12  28
TORSDOF 7
