REMARK  8 active torsions:
REMARK  status: ('A' for Active; 'I' for Inactive)
REMARK    1  A    between atoms: C2_2  and  O1_3 
REMARK    2  A    between atoms: O1_3  and  C3_4 
REMARK    3  A    between atoms: C7_10  and  C8_11 
REMARK       I    between atoms: C8_11  and  N1_13 
REMARK    4  A    between atoms: N1_13  and  C9_15 
REMARK    5  A    between atoms: C9_15  and  C10_16 
REMARK    6  A    between atoms: C10_16  and  N2_17 
REMARK       I    between atoms: N2_17  and  C11_19 
REMARK    7  A    between atoms: C11_19  and  O6_21 
REMARK    8  A    between atoms: O6_21  and  C12_22 
ROOT
HETATM    1  C3  UNL     1      -4.900  -0.184  -0.179  1.00  0.00     0.132 C 
HETATM    2  C4  UNL     1      -5.419   0.759   0.839  1.00  0.00     0.059 C 
HETATM    3  C5  UNL     1      -4.425   1.631   1.516  1.00  0.00     0.174 C 
HETATM    4  O2  UNL     1      -3.291   1.927   0.871  1.00  0.00    -0.350 OA
HETATM    5  C6  UNL     1      -2.838   1.073  -0.097  1.00  0.00     0.200 C 
HETATM    6  O3  UNL     1      -2.376  -0.077   0.586  1.00  0.00    -0.331 OA
HETATM    7  C7  UNL     1      -1.128   0.285   1.089  1.00  0.00     0.251 C 
HETATM    8  C16 UNL     1      -0.546   1.134   0.009  1.00  0.00    -0.007 A 
HETATM    9  C17 UNL     1       0.748   1.465  -0.321  1.00  0.00     0.034 A 
HETATM   10  C18 UNL     1       0.961   2.302  -1.410  1.00  0.00     0.034 A 
HETATM   11 CL1  UNL     1       2.594   2.757  -1.876  1.00  0.00    -0.084 Cl
HETATM   12  C19 UNL     1      -0.133   2.774  -2.128  1.00  0.00     0.024 A 
HETATM   13  C20 UNL     1      -1.419   2.431  -1.783  1.00  0.00     0.015 A 
HETATM   14  C21 UNL     1      -1.633   1.604  -0.705  1.00  0.00     0.013 A 
HETATM   15  C22 UNL     1      -3.899   0.582  -1.035  1.00  0.00     0.078 C 
HETATM   16  C23 UNL     1      -4.627   1.680  -1.765  1.00  0.00     0.019 C 
ENDROOT
BRANCH   7  17
HETATM   17  C8  UNL     1      -0.325  -0.990   1.118  1.00  0.00     0.251 C 
HETATM   18  O4  UNL     1      -0.812  -2.045   0.587  1.00  0.00    -0.270 OA
HETATM   19  N1  UNL     1       0.941  -1.003   1.729  1.00  0.00    -0.357 N 
ATOM     20  H1  UNL     1       1.301  -0.145   2.147  1.00  0.00     0.162 HD
BRANCH  19  21
HETATM   21  C9  UNL     1       1.737  -2.190   1.779  1.00  0.00     0.142 C 
BRANCH  21  22
HETATM   22  C10 UNL     1       2.101  -2.662   0.418  1.00  0.00     0.144 C 
BRANCH  22  23
HETATM   23  N2  UNL     1       2.841  -1.659  -0.285  1.00  0.00    -0.335 N 
HETATM   24  C11 UNL     1       4.087  -1.199   0.210  1.00  0.00     0.361 C 
HETATM   25  O5  UNL     1       4.641  -1.603   1.256  1.00  0.00    -0.238 OA
ATOM     26  H2  UNL     1       2.468  -1.271  -1.151  1.00  0.00     0.164 HD
BRANCH  24  27
HETATM   27  O6  UNL     1       4.816  -0.206  -0.482  1.00  0.00    -0.294 OA
BRANCH  27  28
HETATM   28  C12 UNL     1       6.067   0.272  -0.003  1.00  0.00     0.061 C 
HETATM   29  C13 UNL     1       5.984   0.890   1.349  1.00  0.00     0.046 C 
HETATM   30  C14 UNL     1       7.117  -0.796  -0.016  1.00  0.00     0.046 C 
HETATM   31  C15 UNL     1       6.500   1.349  -0.995  1.00  0.00     0.046 C 
ENDBRANCH  27  28
ENDBRANCH  24  27
ENDBRANCH  22  23
ENDBRANCH  21  22
ENDBRANCH  19  21
ENDBRANCH   7  17
BRANCH   1  32
HETATM   32  O1  UNL     1      -4.354  -1.337   0.259  1.00  0.00    -0.386 OA
BRANCH  32  33
HETATM   33  C2  UNL     1      -4.858  -2.508  -0.206  1.00  0.00     0.163 C 
HETATM   34  C1  UNL     1      -4.752  -2.652  -1.728  1.00  0.00     0.033 C 
ENDBRANCH  32  33
ENDBRANCH   1  32
TORSDOF 8
