REMARK  6 active torsions:
REMARK  status: ('A' for Active; 'I' for Inactive)
REMARK       I    between atoms: N2_8  and  C7_9 
REMARK    1  A    between atoms: C7_9  and  C8_11 
REMARK    2  A    between atoms: C13_16  and  N3_17 
REMARK       I    between atoms: N3_17  and  C14_18 
REMARK       I    between atoms: C14_18  and  N4_20 
REMARK    3  A    between atoms: C16_27  and  S1_28 
REMARK    4  A    between atoms: S1_28  and  C17_29 
REMARK    5  A    between atoms: C17_29  and  C18_30 
REMARK    6  A    between atoms: C18_30  and  C19_31 
ROOT
HETATM    1  C1  UNL     1      -6.315   0.494  -0.400  1.00  0.00     0.032 C 
HETATM    2  C2  UNL     1      -5.016   1.168   0.019  1.00  0.00     0.084 C 
HETATM    3  C3  UNL     1      -5.036   2.540  -0.602  1.00  0.00     0.028 C 
HETATM    4  C4  UNL     1      -3.556   2.830  -0.789  1.00  0.00     0.042 C 
HETATM    5  C5  UNL     1      -3.116   1.483  -1.376  1.00  0.00     0.195 C 
HETATM    6  C6  UNL     1      -3.472   1.495  -2.811  1.00  0.00     0.084 C 
HETATM    7  N1  UNL     1      -3.740   1.498  -3.944  1.00  0.00    -0.195 NA
HETATM    8  N2  UNL     1      -3.871   0.505  -0.637  1.00  0.00    -0.330 N 
HETATM    9  C7  UNL     1      -3.593  -0.894  -0.563  1.00  0.00     0.232 C 
HETATM   10  O1  UNL     1      -4.442  -1.587   0.113  1.00  0.00    -0.272 OA
ENDROOT
BRANCH   9  11
HETATM   11  C8  UNL     1      -2.480  -1.634  -1.150  1.00  0.00     0.138 C 
HETATM   12  C9  UNL     1      -2.985  -3.042  -1.550  1.00  0.00     0.021 C 
HETATM   13  C10 UNL     1      -2.523  -4.117  -0.653  1.00  0.00     0.002 C 
HETATM   14  C11 UNL     1      -2.339  -3.795   0.784  1.00  0.00     0.007 C 
HETATM   15  C12 UNL     1      -1.540  -2.523   1.002  1.00  0.00     0.069 C 
HETATM   16  C13 UNL     1      -1.253  -1.838  -0.284  1.00  0.00     0.081 C 
BRANCH  16  17
HETATM   17  N3  UNL     1      -0.225  -0.928  -0.299  1.00  0.00    -0.360 NA
HETATM   18  C14 UNL     1       0.705   0.079  -0.295  1.00  0.00     0.399 C 
HETATM   19  O2  UNL     1       0.624   1.329  -0.108  1.00  0.00    -0.230 OA
HETATM   20  N4  UNL     1       2.042  -0.355  -0.583  1.00  0.00    -0.275 N 
HETATM   21  C15 UNL     1       3.155   0.176  -0.379  1.00  0.00     0.170 A 
ATOM     22  H4  UNL     1       2.094  -1.266  -1.039  1.00  0.00     0.173 HD
HETATM   23  N5  UNL     1       4.345  -0.407  -0.741  1.00  0.00    -0.278 N 
HETATM   24  S2  UNL     1       3.739   1.576   0.449  1.00  0.00    -0.026 SA
HETATM   25  N6  UNL     1       5.399   0.158  -0.418  1.00  0.00    -0.286 N 
ATOM     26  H5  UNL     1       4.360  -1.283  -1.263  1.00  0.00     0.189 HD
HETATM   27  C16 UNL     1       5.421   1.293   0.259  1.00  0.00     0.130 A 
ATOM     28  H6  UNL     1       6.286  -0.270  -0.685  1.00  0.00     0.188 HD
BRANCH  27  29
HETATM   29  S1  UNL     1       6.831   2.267   0.791  1.00  0.00    -0.103 SA
BRANCH  29  30
HETATM   30  C17 UNL     1       7.336   1.671   2.416  1.00  0.00     0.082 C 
BRANCH  30  31
HETATM   31  C18 UNL     1       8.570   2.451   2.838  1.00  0.00     0.025 C 
BRANCH  31  32
HETATM   32  C19 UNL     1       9.618   2.181   1.787  1.00  0.00     0.115 C 
HETATM   33 CL1  UNL     1       9.923   0.442   1.709  1.00  0.00    -0.130 Cl
ENDBRANCH  31  32
ENDBRANCH  30  31
ENDBRANCH  29  30
ENDBRANCH  27  29
ENDBRANCH  16  17
ENDBRANCH   9  11
TORSDOF 6
