REMARK  8 active torsions:
REMARK  status: ('A' for Active; 'I' for Inactive)
REMARK    1  A    between atoms: O1_2  and  C2_3 
REMARK    2  A    between atoms: C2_3  and  C3_5 
REMARK    3  A    between atoms: C4_6  and  C5_7 
REMARK    4  A    between atoms: C7_9  and  C8_10 
REMARK    5  A    between atoms: C8_10  and  C9_11 
REMARK    6  A    between atoms: C10_12  and  C11_13 
REMARK    7  A    between atoms: C20_25  and  O5_26 
REMARK    8  A    between atoms: C24_32  and  O7_34 
ROOT
HETATM    1  C9  UNL     1      -0.294  -0.547   1.462  1.00  0.00    -0.045 C 
HETATM    2  C10 UNL     1      -0.700   0.909   1.240  1.00  0.00     0.006 C 
HETATM    3  C12 UNL     1      -0.846   1.648   0.231  1.00  0.00     0.021 C 
HETATM    4  C13 UNL     1      -1.192   2.908  -0.478  1.00  0.00    -0.059 C 
HETATM    5  C14 UNL     1      -0.144   3.800  -0.982  1.00  0.00     0.048 C 
HETATM    6  C15 UNL     1      -2.489   3.185  -0.734  1.00  0.00     0.031 C 
HETATM    7  C16 UNL     1      -3.673   2.346  -0.389  1.00  0.00     0.138 C 
HETATM    8  O4  UNL     1      -3.602   1.214   0.192  1.00  0.00    -0.336 OA
HETATM    9  C17 UNL     1      -3.917  -0.062  -0.122  1.00  0.00     0.148 C 
HETATM   10  C18 UNL     1      -4.426  -0.266  -1.522  1.00  0.00     0.065 C 
HETATM   11 CL1  UNL     1      -5.387  -0.383   0.906  1.00  0.00    -0.087 Cl
HETATM   12  C19 UNL     1      -2.912  -0.984   0.365  1.00  0.00     0.107 C 
HETATM   13  C20 UNL     1      -3.240  -2.198   1.237  1.00  0.00     0.200 C 
HETATM   14  C21 UNL     1      -1.799  -2.470   1.659  1.00  0.00     0.171 C 
HETATM   15  O6  UNL     1      -1.519  -3.209   2.559  1.00  0.00    -0.294 OA
HETATM   16  C22 UNL     1      -0.812  -1.698   0.805  1.00  0.00     0.075 C 
HETATM   17  C23 UNL     1       0.133  -2.755   0.329  1.00  0.00     0.032 C 
HETATM   18  C24 UNL     1      -1.814  -1.555  -0.364  1.00  0.00     0.083 C 
HETATM   19  C25 UNL     1      -1.310  -1.239  -1.668  1.00  0.00     0.048 C 
ENDROOT
BRANCH   1  20
HETATM   20  C8  UNL     1       1.118  -0.613   1.907  1.00  0.00     0.064 C 
BRANCH  20  21
HETATM   21  C7  UNL     1       2.100  -0.037   0.977  1.00  0.00    -0.016 C 
HETATM   22  C5  UNL     1       3.186  -0.537   0.535  1.00  0.00    -0.065 C 
HETATM   23  C6  UNL     1       3.723  -1.845   0.916  1.00  0.00     0.048 C 
BRANCH  22  24
HETATM   24  C4  UNL     1       4.007   0.268  -0.414  1.00  0.00     0.012 C 
HETATM   25  C3  UNL     1       5.127  -0.192  -0.900  1.00  0.00     0.082 C 
BRANCH  25  26
HETATM   26  C2  UNL     1       5.931   0.570  -1.816  1.00  0.00     0.282 C 
HETATM   27  O2  UNL     1       7.008   0.129  -2.283  1.00  0.00    -0.260 OA
BRANCH  26  28
HETATM   28  O1  UNL     1       5.540   1.846  -2.225  1.00  0.00    -0.323 OA
HETATM   29  C1  UNL     1       6.323   2.609  -3.127  1.00  0.00     0.213 C 
ENDBRANCH  26  28
ENDBRANCH  25  26
ENDBRANCH  22  24
ENDBRANCH  20  21
ENDBRANCH   1  20
BRANCH   2  30
HETATM   30  C11 UNL     1      -0.801   1.485   2.608  1.00  0.00     0.270 C 
HETATM   31  O3  UNL     1      -1.013   2.619   3.003  1.00  0.00    -0.301 OA
ENDBRANCH   2  30
BRANCH  18  32
HETATM   32  O7  UNL     1      -2.146  -2.957  -0.573  1.00  0.00    -0.388 OA
ATOM     33  H7  UNL     1      -1.420  -3.335  -1.055  1.00  0.00     0.210 HD
ENDBRANCH  18  32
BRANCH  13  34
HETATM   34  O5  UNL     1      -3.915  -3.208   0.694  1.00  0.00    -0.387 OA
ATOM     35  H5  UNL     1      -4.119  -3.962   1.235  1.00  0.00     0.210 HD
ENDBRANCH  13  34
TORSDOF 8
