REMARK  0 active torsions:
REMARK  status: ('A' for Active; 'I' for Inactive)
ROOT
HETATM    1  N1  UNL     1      -3.513  -2.996   0.294  1.00  0.00    -0.082 NA
HETATM    2  C1  UNL     1      -2.443  -2.012   0.296  1.00  0.00     0.130 C 
HETATM    3  C2  UNL     1      -2.788  -0.810   0.693  1.00  0.00     0.052 C 
HETATM    4 CL1  UNL     1      -4.474  -0.475   1.185  1.00  0.00    -0.085 Cl
HETATM    5  C3  UNL     1      -1.904   0.378   0.783  1.00  0.00     0.055 C 
HETATM    6  C4  UNL     1      -1.989   1.228  -0.475  1.00  0.00     0.016 C 
HETATM    7  C5  UNL     1      -1.869   2.689  -0.210  1.00  0.00     0.074 C 
HETATM    8  S1  UNL     1      -0.382   3.406  -0.984  1.00  0.00    -0.169 SA
HETATM    9  C6  UNL     1       0.874   2.140  -1.086  1.00  0.00     0.074 C 
HETATM   10  C7  UNL     1       2.278   2.629  -0.955  1.00  0.00     0.014 C 
HETATM   11  C8  UNL     1       3.101   1.425  -0.466  1.00  0.00     0.027 C 
HETATM   12  C9  UNL     1       2.599   0.955   0.853  1.00  0.00    -0.031 C 
HETATM   13  C10 UNL     1       2.293  -0.285   1.163  1.00  0.00    -0.031 C 
HETATM   14  C11 UNL     1       2.372  -1.467   0.301  1.00  0.00     0.028 C 
HETATM   15  C12 UNL     1       1.100  -1.849  -0.372  1.00  0.00     0.023 C 
HETATM   16  C13 UNL     1       0.071  -2.446   0.567  1.00  0.00     0.121 C 
HETATM   17  N2  UNL     1      -1.194  -2.493  -0.137  1.00  0.00    -0.377 N 
ATOM     18  H2  UNL     1      -1.177  -2.928  -1.059  1.00  0.00     0.160 HD
ENDROOT
TORSDOF 0
