REMARK  2 active torsions:
REMARK  status: ('A' for Active; 'I' for Inactive)
REMARK    1  A    between atoms: C2_2  and  N1_3 
REMARK    2  A    between atoms: C6_10  and  O1_11 
ROOT
HETATM    1  N1  UNL     1      -0.902  -0.375   0.321  1.00  0.00    -0.366 N 
HETATM    2  C3  UNL     1       0.432  -0.900   0.385  1.00  0.00     0.114 C 
HETATM    3  S1  UNL     1       0.585  -2.509   0.706  1.00  0.00    -0.059 SA
HETATM    4  C4  UNL     1       1.680  -0.214   0.209  1.00  0.00     0.061 A 
HETATM    5  C5  UNL     1       1.958   1.063  -0.231  1.00  0.00     0.087 A 
HETATM    6  N2  UNL     1       3.283   1.205  -0.221  1.00  0.00    -0.329 N 
ATOM      7  H2  UNL     1       3.775   2.054  -0.500  1.00  0.00     0.168 HD
HETATM    8  C6  UNL     1       3.882   0.087   0.203  1.00  0.00     0.164 A 
HETATM    9  C7  UNL     1       2.908  -0.834   0.485  1.00  0.00     0.101 A 
HETATM   10 CL1  UNL     1       3.115  -2.473   1.080  1.00  0.00    -0.079 Cl
HETATM   11  S2  UNL     1       0.732   2.271  -0.698  1.00  0.00    -0.109 SA
HETATM   12  C8  UNL     1      -0.619   2.104   0.507  1.00  0.00     0.105 C 
HETATM   13  C9  UNL     1      -1.468   0.900   0.233  1.00  0.00     0.091 C 
HETATM   14  C10 UNL     1      -2.248   1.203  -1.020  1.00  0.00     0.033 C 
ENDROOT
BRANCH   1  15
HETATM   15  C2  UNL     1      -1.855  -1.468   0.379  1.00  0.00     0.120 C 
HETATM   16  C1  UNL     1      -2.589  -1.754  -0.890  1.00  0.00     0.026 C 
ENDBRANCH   1  15
BRANCH   8  17
HETATM   17  O1  UNL     1       5.230  -0.132   0.342  1.00  0.00    -0.345 OA
ATOM     18  H1  UNL     1       5.656  -0.926   0.643  1.00  0.00     0.219 HD
ENDBRANCH   8  17
TORSDOF 2
