REMARK  12 active torsions:
REMARK  status: ('A' for Active; 'I' for Inactive)
REMARK    1  A    between atoms: C1_2  and  C2_3 
REMARK       I    between atoms: C1_2  and  N5_29 
REMARK    2  A    between atoms: C4_7  and  N2_8 
REMARK    3  A    between atoms: N2_8  and  C5_10 
REMARK    4  A    between atoms: C11_18  and  N4_19 
REMARK    5  A    between atoms: N4_19  and  C12_21 
REMARK    6  A    between atoms: C15_24  and  O2_25 
REMARK    7  A    between atoms: N5_29  and  C18_30 
REMARK    8  A    between atoms: N5_29  and  C30_44 
REMARK    9  A    between atoms: C18_30  and  C19_31 
REMARK   10  A    between atoms: C19_31  and  N6_32 
REMARK   11  A    between atoms: C22_35  and  N7_36 
REMARK   12  A    between atoms: C30_44  and  C31_45 
ROOT
HETATM    1  C2  UNL     1      -1.624  -1.951   0.188  1.00  0.00     0.092 A 
HETATM    2  C3  UNL     1      -2.407  -3.011  -0.244  1.00  0.00     0.127 A 
HETATM    3  N1  UNL     1      -3.721  -2.881  -0.427  1.00  0.00    -0.201 N 
ATOM      4  H1  UNL     1      -4.287  -3.668  -0.745  1.00  0.00     0.183 HD
HETATM    5  C4  UNL     1      -4.276  -1.685  -0.181  1.00  0.00     0.679 A 
HETATM    6  N3  UNL     1      -3.526  -0.623   0.247  1.00  0.00    -0.176 N 
ATOM      7  H3  UNL     1      -3.990   0.268   0.422  1.00  0.00     0.186 HD
HETATM    8  C11 UNL     1      -2.223  -0.711   0.441  1.00  0.00     0.134 A 
ENDROOT
BRANCH   1   9
HETATM    9  C1  UNL     1      -0.197  -2.065   0.377  1.00  0.00     0.262 C 
HETATM   10  O1  UNL     1       0.276  -2.322   1.498  1.00  0.00    -0.267 OA
HETATM   11  N5  UNL     1       0.740  -1.886  -0.730  1.00  0.00    -0.323 N 
BRANCH  11  12
HETATM   12  C18 UNL     1       2.135  -2.004  -0.437  1.00  0.00     0.175 C 
BRANCH  12  13
HETATM   13  C19 UNL     1       2.912  -0.871   0.058  1.00  0.00     0.078 C 
BRANCH  13  14
HETATM   14  N6  UNL     1       3.126   0.282  -0.693  1.00  0.00    -0.392 N 
HETATM   15  C20 UNL     1       3.988   0.127  -1.843  1.00  0.00     0.124 C 
HETATM   16  C21 UNL     1       5.426   0.089  -1.450  1.00  0.00     0.055 C 
HETATM   17  C22 UNL     1       5.700   1.086  -0.335  1.00  0.00     0.226 C 
HETATM   18  C28 UNL     1       4.621   2.134  -0.457  1.00  0.00     0.055 C 
HETATM   19  C29 UNL     1       3.302   1.513  -0.010  1.00  0.00     0.124 C 
BRANCH  17  20
HETATM   20  N7  UNL     1       7.024   1.610  -0.424  1.00  0.00     0.093 N 
HETATM   21  C23 UNL     1       8.043   0.587  -0.297  1.00  0.00     0.273 C 
HETATM   22  C24 UNL     1       8.068   0.035   1.085  1.00  0.00     0.030 C 
HETATM   23  C25 UNL     1       8.512   1.147   2.031  1.00  0.00     0.003 C 
HETATM   24  C26 UNL     1       7.488   2.260   1.896  1.00  0.00     0.030 C 
HETATM   25  C27 UNL     1       7.330   2.679   0.449  1.00  0.00     0.273 C 
ENDBRANCH  17  20
ENDBRANCH  13  14
ENDBRANCH  12  13
ENDBRANCH  11  12
BRANCH  11  26
HETATM   26  C30 UNL     1       0.187  -1.811  -2.037  1.00  0.00     0.072 C 
BRANCH  26  27
HETATM   27  C31 UNL     1      -0.365  -0.592  -2.615  1.00  0.00     0.024 A 
HETATM   28  C32 UNL     1       0.198   0.702  -2.919  1.00  0.00     0.010 A 
HETATM   29  C33 UNL     1       0.098  -0.244  -4.065  1.00  0.00     0.010 A 
ENDBRANCH  26  27
ENDBRANCH  11  26
ENDBRANCH   1   9
BRANCH   8  30
HETATM   30  N4  UNL     1      -1.490   0.255   0.851  1.00  0.00    -0.370 N 
ATOM     31  H4  UNL     1      -0.492   0.088   0.980  1.00  0.00     0.161 HD
BRANCH  30  32
HETATM   32  C12 UNL     1      -2.008   1.561   1.137  1.00  0.00     0.083 C 
HETATM   33  C13 UNL     1      -0.903   2.610   1.101  1.00  0.00     0.028 C 
HETATM   34  C14 UNL     1      -1.321   3.876   1.779  1.00  0.00     0.034 C 
HETATM   35  C15 UNL     1      -2.820   3.955   1.816  1.00  0.00     0.118 C 
HETATM   36  C16 UNL     1      -3.399   2.844   2.665  1.00  0.00     0.034 C 
HETATM   37  C17 UNL     1      -2.592   1.571   2.545  1.00  0.00     0.028 C 
BRANCH  35  38
HETATM   38  O2  UNL     1      -3.175   5.210   2.315  1.00  0.00    -0.396 OA
ATOM     39  H2  UNL     1      -4.123   5.260   2.338  1.00  0.00     0.210 HD
ENDBRANCH  35  38
ENDBRANCH  30  32
ENDBRANCH   8  30
BRANCH   5  40
HETATM   40  N2  UNL     1      -5.527  -1.526  -0.346  1.00  0.00    -0.221 N 
ATOM     41  H2  UNL     1      -5.933  -0.610  -0.154  1.00  0.00     0.178 HD
BRANCH  40  42
HETATM   42  C5  UNL     1      -6.396  -2.590  -0.794  1.00  0.00     0.099 C 
HETATM   43  C6  UNL     1      -7.697  -1.897  -1.226  1.00  0.00     0.026 C 
HETATM   44  C7  UNL     1      -8.789  -2.916  -1.161  1.00  0.00     0.002 C 
HETATM   45  C8  UNL     1      -9.079  -3.231   0.288  1.00  0.00     0.000 C 
HETATM   46  C9  UNL     1      -7.860  -2.968   1.140  1.00  0.00     0.002 C 
HETATM   47  C10 UNL     1      -6.662  -3.504   0.384  1.00  0.00     0.026 C 
ENDBRANCH  40  42
ENDBRANCH   5  40
TORSDOF 12
