REMARK  12 active torsions:
REMARK  status: ('A' for Active; 'I' for Inactive)
REMARK    1  A    between atoms: C15_15  and  C16_16 
REMARK       I    between atoms: C16_16  and  N1_18 
REMARK    2  A    between atoms: N1_18  and  C17_20 
REMARK    3  A    between atoms: C17_20  and  C19_22 
REMARK       I    between atoms: C19_22  and  N2_24 
REMARK    4  A    between atoms: N2_24  and  C20_26 
REMARK    5  A    between atoms: C20_26  and  C21_27 
REMARK    6  A    between atoms: C20_26  and  C29_42 
REMARK       I    between atoms: C21_27  and  N3_29 
REMARK    7  A    between atoms: N3_29  and  C22_31 
REMARK    8  A    between atoms: C22_31  and  C23_32 
REMARK    9  A    between atoms: C22_31  and  C26_39 
REMARK   10  A    between atoms: C23_32  and  O4_33 
REMARK   11  A    between atoms: C23_32  and  C24_35 
REMARK   12  A    between atoms: C24_35  and  O6_37 
ROOT
HETATM    1  C1  UNL     1      -8.877   1.861   1.931  1.00  0.00     0.102 C 
HETATM    2  C2  UNL     1      -8.188   0.854   1.810  1.00  0.00    -0.160 C 
HETATM    3  C3  UNL     1      -7.374  -0.316   1.695  1.00  0.00     0.054 C 
HETATM    4  C4  UNL     1      -6.812  -0.720   0.592  1.00  0.00    -0.055 C 
HETATM    5  C5  UNL     1      -5.938  -1.883   0.237  1.00  0.00    -0.017 C 
HETATM    6  C6  UNL     1      -6.184  -3.121   1.040  1.00  0.00     0.020 C 
HETATM    7  C7  UNL     1      -6.568  -1.826  -1.115  1.00  0.00     0.028 C 
HETATM    8  C8  UNL     1      -6.705  -0.324  -0.818  1.00  0.00    -0.010 C 
HETATM    9  C9  UNL     1      -7.910   0.200  -1.511  1.00  0.00     0.021 C 
HETATM   10  C10 UNL     1      -5.406   0.424  -1.100  1.00  0.00    -0.016 C 
HETATM   11  C11 UNL     1      -5.564   1.791  -0.479  1.00  0.00     0.018 C 
HETATM   12  C12 UNL     1      -5.339   0.576  -2.608  1.00  0.00     0.011 C 
HETATM   13  C13 UNL     1      -4.293  -0.371  -3.107  1.00  0.00     0.002 C 
HETATM   14  C14 UNL     1      -3.618  -0.974  -1.923  1.00  0.00     0.020 C 
HETATM   15  C15 UNL     1      -4.202  -0.303  -0.676  1.00  0.00     0.050 C 
HETATM   16  C33 UNL     1      -4.508  -1.461   0.272  1.00  0.00     0.033 C 
ENDROOT
BRANCH  15  17
HETATM   17  C16 UNL     1      -3.100   0.452  -0.066  1.00  0.00     0.228 C 
HETATM   18  O1  UNL     1      -3.093   1.681  -0.001  1.00  0.00    -0.273 OA
HETATM   19  N1  UNL     1      -1.959  -0.216   0.491  1.00  0.00    -0.347 N 
ATOM     20  H1  UNL     1      -1.930  -1.235   0.455  1.00  0.00     0.163 HD
BRANCH  19  21
HETATM   21  C17 UNL     1      -0.862   0.473   1.093  1.00  0.00     0.172 C 
HETATM   22  C18 UNL     1      -0.581   0.096   2.514  1.00  0.00     0.042 C 
BRANCH  21  23
HETATM   23  C19 UNL     1       0.359   0.305   0.236  1.00  0.00     0.240 C 
HETATM   24  O2  UNL     1       0.284  -0.365  -0.836  1.00  0.00    -0.271 OA
HETATM   25  N2  UNL     1       1.598   0.862   0.567  1.00  0.00    -0.345 N 
ATOM     26  H2  UNL     1       1.666   1.403   1.429  1.00  0.00     0.163 HD
BRANCH  25  27
HETATM   27  C20 UNL     1       2.806   0.714  -0.253  1.00  0.00     0.184 C 
BRANCH  27  28
HETATM   28  C21 UNL     1       3.868   0.044   0.525  1.00  0.00     0.241 C 
HETATM   29  O3  UNL     1       3.609  -0.255   1.732  1.00  0.00    -0.271 OA
HETATM   30  N3  UNL     1       5.115  -0.277   0.027  1.00  0.00    -0.348 N 
ATOM     31  H3  UNL     1       5.341  -0.046  -0.940  1.00  0.00     0.163 HD
BRANCH  30  32
HETATM   32  C22 UNL     1       6.148  -0.961   0.883  1.00  0.00     0.151 C 
BRANCH  32  33
HETATM   33  C23 UNL     1       7.212  -0.007   1.114  1.00  0.00     0.142 C 
BRANCH  33  34
HETATM   34  O4  UNL     1       6.721   1.192   1.450  1.00  0.00    -0.357 OA
ATOM     35  H4  UNL     1       7.419   1.818   1.602  1.00  0.00     0.217 HD
ENDBRANCH  33  34
BRANCH  33  36
HETATM   36  C24 UNL     1       8.622  -0.012   1.073  1.00  0.00     0.314 C 
HETATM   37  O5  UNL     1       9.333  -0.965   0.699  1.00  0.00    -0.257 OA
BRANCH  36  38
HETATM   38  O6  UNL     1       9.396   1.114   1.471  1.00  0.00    -0.321 OA
HETATM   39  C25 UNL     1      10.802   1.082   1.421  1.00  0.00     0.213 C 
ENDBRANCH  36  38
ENDBRANCH  33  36
ENDBRANCH  32  33
BRANCH  32  40
HETATM   40  C26 UNL     1       6.373  -2.307   0.374  1.00  0.00     0.007 C 
HETATM   41  C27 UNL     1       7.305  -3.120   1.221  1.00  0.00     0.012 C 
HETATM   42  C28 UNL     1       6.924  -2.335  -1.052  1.00  0.00     0.012 C 
ENDBRANCH  32  40
ENDBRANCH  30  32
ENDBRANCH  27  28
BRANCH  27  43
HETATM   43  C29 UNL     1       3.146   2.100  -0.707  1.00  0.00    -0.022 C 
HETATM   44  C30 UNL     1       4.347   2.230  -1.570  1.00  0.00     0.017 C 
HETATM   45  C31 UNL     1       1.951   2.634  -1.480  1.00  0.00     0.017 C 
HETATM   46  C32 UNL     1       3.328   2.993   0.506  1.00  0.00     0.017 C 
ENDBRANCH  27  43
ENDBRANCH  25  27
ENDBRANCH  21  23
ENDBRANCH  19  21
ENDBRANCH  15  17
TORSDOF 12
