REMARK  10 active torsions:
REMARK  status: ('A' for Active; 'I' for Inactive)
REMARK    1  A    between atoms: C2_2  and  C3_3 
REMARK    2  A    between atoms: C3_3  and  N1_5 
REMARK       I    between atoms: N1_5  and  C5_7 
REMARK       I    between atoms: C5_7  and  N2_9 
REMARK    3  A    between atoms: C9_13  and  C10_14 
REMARK       I    between atoms: C10_14  and  N3_16 
REMARK    4  A    between atoms: N3_16  and  C11_18 
REMARK    5  A    between atoms: C11_18  and  C12_19 
REMARK    6  A    between atoms: C11_18  and  C14_22 
REMARK    7  A    between atoms: C14_22  and  C15_24 
REMARK    8  A    between atoms: C15_24  and  C16_25 
REMARK    9  A    between atoms: C15_24  and  N4_32 
REMARK   10  A    between atoms: C16_25  and  C17_26 
REMARK       I    between atoms: N4_32  and  C23_34 
REMARK       I    between atoms: C23_34  and  N5_36 
ROOT
HETATM    1  C11 UNL     1      -0.888   0.703  -0.634  1.00  0.00     0.230 C 
ENDROOT
BRANCH   1   2
HETATM    2  N3  UNL     1       0.546   0.851  -0.322  1.00  0.00    -0.340 N 
HETATM    3  C10 UNL     1       1.332  -0.256  -0.058  1.00  0.00     0.247 C 
HETATM    4  O2  UNL     1       0.744  -1.408  -0.039  1.00  0.00    -0.271 OA
ATOM      5  H3  UNL     1       0.963   1.782  -0.301  1.00  0.00     0.163 HD
BRANCH   3   6
HETATM    6  C9  UNL     1       2.796  -0.289   0.194  1.00  0.00     0.215 C 
HETATM    7  C8  UNL     1       3.247  -1.415  -0.741  1.00  0.00     0.043 C 
HETATM    8  C7  UNL     1       4.684  -1.696  -0.798  1.00  0.00     0.023 C 
HETATM    9  C6  UNL     1       5.382  -0.455  -1.302  1.00  0.00     0.130 C 
HETATM   10  N2  UNL     1       5.637   0.322  -0.082  1.00  0.00    -0.313 N 
HETATM   11  C5  UNL     1       6.926   0.148   0.517  1.00  0.00     0.320 C 
HETATM   12  C30 UNL     1       4.637   1.147   0.533  1.00  0.00     0.298 C 
HETATM   13  N1  UNL     1       7.767  -0.882   0.046  1.00  0.00    -0.339 N 
HETATM   14  O1  UNL     1       7.235   0.912   1.429  1.00  0.00    -0.247 OA
ATOM     15  H1  UNL     1       7.351  -1.439  -0.700  1.00  0.00     0.164 HD
HETATM   16  O6  UNL     1       3.373   0.919   0.003  1.00  0.00    -0.357 OA
BRANCH  13  17
HETATM   17  C3  UNL     1       9.075  -1.297   0.403  1.00  0.00     0.081 C 
HETATM   18  C4  UNL     1       8.907  -2.657   1.101  1.00  0.00     0.032 C 
BRANCH  17  19
HETATM   19  C2  UNL     1       9.862  -0.422   1.340  1.00  0.00     0.020 C 
HETATM   20  C1  UNL     1      10.189   0.908   0.742  1.00  0.00     0.007 C 
ENDBRANCH  17  19
ENDBRANCH  13  17
ENDBRANCH   3   6
ENDBRANCH   1   2
BRANCH   1  21
HETATM   21  C12 UNL     1      -1.141   1.287  -1.938  1.00  0.00     0.153 C 
HETATM   22  C13 UNL     1      -2.040   0.648  -2.942  1.00  0.00     0.093 C 
HETATM   23  O3  UNL     1      -0.608   2.344  -2.258  1.00  0.00    -0.296 OA
ENDBRANCH   1  21
BRANCH   1  24
HETATM   24  C14 UNL     1      -1.758   0.972   0.525  1.00  0.00     0.201 C 
HETATM   25  O4  UNL     1      -1.188   1.183   1.586  1.00  0.00    -0.288 OA
BRANCH  24  26
HETATM   26  C15 UNL     1      -3.204   0.958   0.426  1.00  0.00     0.062 C 
BRANCH  26  27
HETATM   27  C16 UNL     1      -4.045   1.995  -0.140  1.00  0.00     0.065 C 
BRANCH  27  28
HETATM   28  C17 UNL     1      -4.083   3.333   0.560  1.00  0.00    -0.009 C 
HETATM   29  C18 UNL     1      -2.762   3.979   0.605  1.00  0.00     0.005 C 
HETATM   30  C19 UNL     1      -2.819   5.472   0.312  1.00  0.00     0.000 C 
HETATM   31  C20 UNL     1      -3.996   6.161   0.910  1.00  0.00     0.000 C 
HETATM   32  C21 UNL     1      -5.295   5.512   0.513  1.00  0.00     0.000 C 
HETATM   33  C22 UNL     1      -5.042   4.227  -0.234  1.00  0.00     0.005 C 
ENDBRANCH  27  28
ENDBRANCH  26  27
BRANCH  26  34
HETATM   34  N4  UNL     1      -3.728  -0.391   0.373  1.00  0.00    -0.308 N 
HETATM   35  C23 UNL     1      -4.991  -0.839   0.785  1.00  0.00     0.327 C 
HETATM   36  O5  UNL     1      -5.874  -0.112   1.278  1.00  0.00    -0.246 OA
HETATM   37  N5  UNL     1      -5.311  -2.226   0.634  1.00  0.00    -0.300 N 
HETATM   38  C24 UNL     1      -6.713  -2.588   0.981  1.00  0.00     0.212 C 
HETATM   39  C29 UNL     1      -4.291  -3.145   0.195  1.00  0.00     0.092 C 
HETATM   40  C25 UNL     1      -6.873  -3.984   0.869  1.00  0.00    -0.163 C 
HETATM   41  C26 UNL     1      -6.720  -5.375   0.682  1.00  0.00     0.085 C 
HETATM   42  C27 UNL     1      -5.165  -5.593   0.474  1.00  0.00     0.040 C 
HETATM   43  C28 UNL     1      -4.569  -4.475  -0.311  1.00  0.00    -0.008 C 
ATOM     44  H4  UNL     1      -3.103  -1.100  -0.010  1.00  0.00     0.170 HD
ENDBRANCH  26  34
ENDBRANCH  24  26
ENDBRANCH   1  24
TORSDOF 10
