REMARK  11 active torsions:
REMARK  status: ('A' for Active; 'I' for Inactive)
REMARK    1  A    between atoms: C2_2  and  C5_5 
REMARK    2  A    between atoms: C5_5  and  N1_6 
REMARK    3  A    between atoms: C5_5  and  C20_29 
REMARK       I    between atoms: N1_6  and  C6_7 
REMARK    4  A    between atoms: C6_7  and  C7_9 
REMARK    5  A    between atoms: C7_9  and  N2_10 
REMARK       I    between atoms: N2_10  and  C8_12 
REMARK    6  A    between atoms: C8_12  and  C9_14 
REMARK    7  A    between atoms: C11_17  and  N3_18 
REMARK    8  A    between atoms: C20_29  and  C21_31 
REMARK       I    between atoms: C21_31  and  N5_33 
REMARK    9  A    between atoms: N5_33  and  C22_35 
REMARK   10  A    between atoms: C22_35  and  C23_36 
REMARK   11  A    between atoms: C23_36  and  N6_37 
ROOT
HETATM    1  N1  UNL     1       0.799   0.086  -0.119  1.00  0.00    -0.399 NA
HETATM    2  C6  UNL     1       2.061   0.259   0.385  1.00  0.00     0.316 C 
HETATM    3  O1  UNL     1       2.777  -0.653   0.872  1.00  0.00    -0.255 OA
ENDROOT
BRANCH   2   4
HETATM    4  C7  UNL     1       2.761   1.604   0.412  1.00  0.00     0.127 C 
HETATM    5  C16 UNL     1       2.347   2.272   1.695  1.00  0.00     0.042 C 
HETATM    6  C17 UNL     1       1.830   3.632   1.338  1.00  0.00     0.003 C 
HETATM    7  C18 UNL     1       1.768   3.713  -0.151  1.00  0.00     0.003 C 
HETATM    8  C19 UNL     1       2.422   2.480  -0.731  1.00  0.00     0.042 C 
BRANCH   4   9
HETATM    9  N2  UNL     1       4.185   1.407   0.475  1.00  0.00    -0.337 N 
HETATM   10  C8  UNL     1       5.146   2.410   0.538  1.00  0.00     0.269 C 
HETATM   11  O2  UNL     1       4.850   3.602   0.565  1.00  0.00    -0.266 OA
ATOM     12  H2  UNL     1       4.520   0.444   0.473  1.00  0.00     0.164 HD
BRANCH  10  13
HETATM   13  C9  UNL     1       6.610   2.076   0.573  1.00  0.00     0.109 A 
HETATM   14  C10 UNL     1       7.587   3.030   0.725  1.00  0.00     0.088 A 
HETATM   15  S1  UNL     1       9.017   2.083   0.648  1.00  0.00    -0.064 SA
HETATM   16  C11 UNL     1       8.289   0.543   0.429  1.00  0.00     0.147 A 
HETATM   17  N4  UNL     1       7.009   0.847   0.428  1.00  0.00    -0.332 N 
ATOM     18  H4  UNL     1       6.318   0.106   0.311  1.00  0.00     0.168 HD
BRANCH  16  19
HETATM   19  N3  UNL     1       8.916  -0.738   0.273  1.00  0.00    -0.361 N 
HETATM   20  C12 UNL     1       8.220  -1.973   0.101  1.00  0.00     0.125 C 
HETATM   21  C13 UNL     1       9.284  -3.054   0.255  1.00  0.00     0.021 C 
HETATM   22  C14 UNL     1      10.455  -2.341   0.912  1.00  0.00     0.021 C 
HETATM   23  C15 UNL     1      10.319  -0.962   0.258  1.00  0.00     0.125 C 
ENDBRANCH  16  19
ENDBRANCH  10  13
ENDBRANCH   4   9
ENDBRANCH   2   4
BRANCH   1  24
HETATM   24  C5  UNL     1      -0.473  -0.092  -0.626  1.00  0.00     0.253 C 
BRANCH  24  25
HETATM   25  C2  UNL     1      -0.488  -0.929  -1.908  1.00  0.00    -0.011 C 
HETATM   26  C1  UNL     1      -1.835  -1.155  -2.498  1.00  0.00     0.018 C 
HETATM   27  C3  UNL     1       0.374  -0.313  -2.985  1.00  0.00     0.018 C 
HETATM   28  C4  UNL     1       0.101  -2.309  -1.630  1.00  0.00     0.018 C 
ENDBRANCH  24  25
BRANCH  24  29
HETATM   29  C20 UNL     1      -1.468  -0.625   0.350  1.00  0.00     0.252 C 
HETATM   30  O3  UNL     1      -1.023  -1.426   1.236  1.00  0.00    -0.284 OA
BRANCH  29  31
HETATM   31  C21 UNL     1      -2.875  -0.336   0.401  1.00  0.00     0.290 C 
HETATM   32  O4  UNL     1      -3.381   0.498  -0.384  1.00  0.00    -0.264 OA
HETATM   33  N5  UNL     1      -3.732  -0.973   1.324  1.00  0.00    -0.353 N 
ATOM     34  H5  UNL     1      -3.300  -1.647   1.956  1.00  0.00     0.162 HD
BRANCH  33  35
HETATM   35  C22 UNL     1      -5.148  -0.773   1.469  1.00  0.00     0.151 C 
BRANCH  35  36
HETATM   36  C23 UNL     1      -5.866  -1.129   0.236  1.00  0.00     0.256 C 
BRANCH  36  37
HETATM   37  N6  UNL     1      -7.282  -1.002   0.227  1.00  0.00    -0.069 N 
HETATM   38  C24 UNL     1      -7.813  -2.354  -0.003  1.00  0.00     0.272 C 
HETATM   39  C25 UNL     1      -7.899  -0.532   1.423  1.00  0.00     0.237 C 
HETATM   40  C26 UNL     1      -8.184   0.951   1.407  1.00  0.00     0.028 C 
HETATM   41  C27 UNL     1      -9.233   1.307   0.377  1.00  0.00     0.003 C 
HETATM   42  C28 UNL     1      -9.228   0.179  -0.635  1.00  0.00     0.028 C 
HETATM   43  C29 UNL     1      -7.787  -0.207  -0.879  1.00  0.00     0.237 C 
ENDBRANCH  36  37
ENDBRANCH  35  36
ENDBRANCH  33  35
ENDBRANCH  29  31
ENDBRANCH  24  29
ENDBRANCH   1  24
TORSDOF 11
