REMARK  5 active torsions:
REMARK  status: ('A' for Active; 'I' for Inactive)
REMARK    1  A    between atoms: N1_1  and  O1_4 
REMARK    2  A    between atoms: O1_4  and  C1_5 
REMARK    3  A    between atoms: C2_14  and  N6_15 
REMARK    4  A    between atoms: N6_15  and  N7_17 
REMARK    5  A    between atoms: C3_19  and  C4_20 
ROOT
HETATM    1  C1  UNL     1       3.347  -0.158   0.042  1.00  0.00     0.232 A 
HETATM    2  N2  UNL     1       4.306  -0.489  -0.875  1.00  0.00    -0.259 N 
ATOM      3  H2  UNL     1       5.270  -0.651  -0.585  1.00  0.00     0.191 HD
HETATM    4  N3  UNL     1       3.955  -0.594  -2.148  1.00  0.00    -0.226 N 
ATOM      5  H3  UNL     1       4.659  -0.839  -2.844  1.00  0.00     0.210 HD
HETATM    6  N4  UNL     1       2.703  -0.385  -2.531  1.00  0.00    -0.226 N 
ATOM      7  H4  UNL     1       2.459  -0.473  -3.517  1.00  0.00     0.210 HD
HETATM    8  N5  UNL     1       1.748  -0.058  -1.638  1.00  0.00    -0.265 N 
ATOM      9  H5  UNL     1       0.790   0.099  -1.952  1.00  0.00     0.190 HD
HETATM   10  C2  UNL     1       2.051   0.061  -0.343  1.00  0.00     0.191 A 
ENDROOT
BRANCH  10  11
HETATM   11  N6  UNL     1       1.166   0.367   0.508  1.00  0.00    -0.281 N 
ATOM     12  H6  UNL     1       1.474   0.439   1.478  1.00  0.00     0.188 HD
BRANCH  11  13
HETATM   13  N7  UNL     1      -0.167   0.613   0.267  1.00  0.00    -0.309 N 
HETATM   14  C3  UNL     1      -1.022  -0.339   0.464  1.00  0.00     0.120 C 
ATOM     15  H7  UNL     1      -0.475   1.528  -0.061  1.00  0.00     0.186 HD
BRANCH  14  16
HETATM   16  C4  UNL     1      -2.449  -0.151   0.230  1.00  0.00     0.005 A 
HETATM   17  C5  UNL     1      -2.990   1.036  -0.213  1.00  0.00     0.031 A 
HETATM   18  C6  UNL     1      -4.370   1.125  -0.410  1.00  0.00     0.088 A 
HETATM   19  N8  UNL     1      -5.191   0.095  -0.184  1.00  0.00    -0.374 N 
HETATM   20  C7  UNL     1      -4.688  -1.068   0.247  1.00  0.00     0.112 A 
ATOM     21  H8  UNL     1      -6.194   0.195  -0.339  1.00  0.00     0.164 HD
HETATM   22  C8  UNL     1      -3.311  -1.193   0.455  1.00  0.00     0.061 A 
HETATM   23 CL1  UNL     1      -2.670  -2.714   1.016  1.00  0.00    -0.082 Cl
ENDBRANCH  14  16
ENDBRANCH  11  13
ENDBRANCH  10  11
BRANCH   1  24
HETATM   24  O1  UNL     1       3.705  -0.046   1.368  1.00  0.00    -0.221 OA
BRANCH  24  25
HETATM   25  N1  UNL     1       4.012   1.207   1.856  1.00  0.00    -0.303 N 
ATOM     26  H12 UNL     1       3.970   2.018   1.239  1.00  0.00     0.184 HD
ATOM     27  H11 UNL     1       4.277   1.290   2.837  1.00  0.00     0.184 HD
ENDBRANCH  24  25
ENDBRANCH   1  24
TORSDOF 5
