REMARK  2 active torsions:
REMARK  status: ('A' for Active; 'I' for Inactive)
REMARK    1  A    between atoms: C4_11  and  N5_12 
REMARK    2  A    between atoms: C6_19  and  C7_20 
ROOT
HETATM    1  C1  UNL     1       4.553   0.554  -0.556  1.00  0.00     0.202 C 
HETATM    2  N1  UNL     1       3.145   0.210  -0.469  1.00  0.00    -0.223 N 
HETATM    3  N2  UNL     1       2.598  -0.871  -0.989  1.00  0.00    -0.225 N 
ATOM      4  H2  UNL     1       3.106  -1.585  -1.511  1.00  0.00     0.210 HD
HETATM    5  N3  UNL     1       1.311  -0.901  -0.743  1.00  0.00    -0.267 N 
ATOM      6  H3  UNL     1       0.660  -1.629  -1.035  1.00  0.00     0.190 HD
HETATM    7  C2  UNL     1       1.005   0.195  -0.040  1.00  0.00     0.166 A 
HETATM    8  C3  UNL     1      -0.294   0.594   0.458  1.00  0.00     0.113 A 
HETATM    9  N4  UNL     1      -0.465   1.743   1.164  1.00  0.00    -0.187 N 
ATOM     10  H4  UNL     1       0.352   2.328   1.339  1.00  0.00     0.184 HD
HETATM   11  C4  UNL     1      -1.654   2.148   1.643  1.00  0.00     0.677 A 
HETATM   12  N6  UNL     1      -2.743   1.392   1.424  1.00  0.00    -0.180 N 
ATOM     13  H6  UNL     1      -3.650   1.690   1.783  1.00  0.00     0.185 HD
HETATM   14  C5  UNL     1      -2.641   0.258   0.741  1.00  0.00     0.135 A 
HETATM   15 CL1  UNL     1      -4.053  -0.758   0.436  1.00  0.00    -0.063 Cl
HETATM   16  C6  UNL     1      -1.412  -0.178   0.236  1.00  0.00     0.080 A 
HETATM   17  N11 UNL     1       2.160   0.862   0.113  1.00  0.00    -0.265 N 
ATOM     18  H11 UNL     1       2.260   1.747   0.609  1.00  0.00     0.190 HD
ENDROOT
BRANCH  16  19
HETATM   19  C7  UNL     1      -1.378  -1.439  -0.505  1.00  0.00     0.147 A 
HETATM   20  N7  UNL     1      -1.180  -2.670   0.003  1.00  0.00    -0.270 N 
HETATM   21  N8  UNL     1      -1.227  -3.555  -0.982  1.00  0.00    -0.007 NA
ATOM     22  H7  UNL     1      -1.020  -2.886   0.987  1.00  0.00     0.185 HD
HETATM   23  N9  UNL     1      -1.450  -2.930  -2.124  1.00  0.00    -0.007 NA
HETATM   24  N10 UNL     1      -1.542  -1.642  -1.834  1.00  0.00    -0.270 N 
ATOM     25  H10 UNL     1      -1.713  -0.904  -2.517  1.00  0.00     0.185 HD
ENDBRANCH  16  19
BRANCH  11  26
HETATM   26  N5  UNL     1      -1.716   3.273   2.311  1.00  0.00    -0.234 N 
ATOM     27  H52 UNL     1      -0.889   3.847   2.477  1.00  0.00     0.174 HD
ATOM     28  H51 UNL     1      -2.618   3.580   2.674  1.00  0.00     0.174 HD
ENDBRANCH  11  26
TORSDOF 2
