REMARK  4 active torsions:
REMARK  status: ('A' for Active; 'I' for Inactive)
REMARK    1  A    between atoms: O1_2  and  C2_3 
REMARK       I    between atoms: C2_3  and  N1_5 
REMARK    2  A    between atoms: N2_7  and  N3_9 
REMARK    3  A    between atoms: N3_9  and  C3_11 
REMARK    4  A    between atoms: N5_21  and  O6_22 
ROOT
HETATM    1  C3  UNL     1      -1.242  -0.149  -0.459  1.00  0.00     0.157 C 
HETATM    2  C4  UNL     1      -1.691   1.178  -0.466  1.00  0.00     0.126 C 
HETATM    3  C5  UNL     1      -2.949   1.679  -0.159  1.00  0.00     0.252 C 
HETATM    4  O3  UNL     1      -3.104   2.904  -0.369  1.00  0.00    -0.268 OA
HETATM    5  N4  UNL     1      -3.995   0.991   0.331  1.00  0.00    -0.286 N 
ATOM      6  H4  UNL     1      -4.898   1.460   0.256  1.00  0.00     0.172 HD
HETATM    7  C6  UNL     1      -4.026  -0.218   0.903  1.00  0.00     0.318 C 
HETATM    8  O4  UNL     1      -5.083  -0.487   1.535  1.00  0.00    -0.262 OA
HETATM    9  C7  UNL     1      -3.019  -1.190   0.868  1.00  0.00     0.341 C 
HETATM   10  O5  UNL     1      -3.246  -2.183   1.571  1.00  0.00    -0.259 OA
HETATM   11  N5  UNL     1      -1.865  -1.166   0.176  1.00  0.00    -0.165 N 
ENDROOT
BRANCH   1  12
HETATM   12  N3  UNL     1      -0.057  -0.428  -1.197  1.00  0.00    -0.269 N 
ATOM     13  H3  UNL     1      -0.124  -1.020  -2.025  1.00  0.00     0.190 HD
BRANCH  12  14
HETATM   14  N2  UNL     1       1.177   0.069  -0.839  1.00  0.00    -0.237 N 
HETATM   15  N1  UNL     1       1.993  -0.639  -0.224  1.00  0.00    -0.231 N 
HETATM   16  C2  UNL     1       3.301  -0.234   0.195  1.00  0.00     0.380 C 
ATOM     17  H1  UNL     1       1.706  -1.591   0.002  1.00  0.00     0.194 HD
HETATM   18  O2  UNL     1       3.660  -0.176   1.393  1.00  0.00    -0.237 OA
ATOM     19  H2  UNL     1       1.424   1.029  -1.081  1.00  0.00     0.208 HD
BRANCH  16  20
HETATM   20  O1  UNL     1       4.263   0.125  -0.767  1.00  0.00    -0.308 OA
HETATM   21  C1  UNL     1       5.546   0.527  -0.411  1.00  0.00     0.215 C 
ENDBRANCH  16  20
ENDBRANCH  12  14
ENDBRANCH   1  12
BRANCH  11  22
HETATM   22  O6  UNL     1      -1.244  -2.372   0.113  1.00  0.00    -0.278 OA
ATOM     23  H6  UNL     1      -1.682  -3.087   0.559  1.00  0.00     0.245 HD
ENDBRANCH  11  22
TORSDOF 4
