REMARK  9 active torsions:
REMARK  status: ('A' for Active; 'I' for Inactive)
REMARK    1  A    between atoms: N1_2  and  C2_4 
REMARK    2  A    between atoms: C2_4  and  C3_5 
REMARK    3  A    between atoms: C3_5  and  N2_6 
REMARK    4  A    between atoms: C6_11  and  N4_12 
REMARK    5  A    between atoms: N4_12  and  N5_14 
REMARK       I    between atoms: C7_16  and  N7_18 
REMARK    6  A    between atoms: N7_18  and  C8_20 
REMARK    7  A    between atoms: N11_25  and  N12_26 
REMARK    8  A    between atoms: C9_31  and  N14_32 
REMARK    9  A    between atoms: N14_32  and  O1_34 
ROOT
HETATM    1  N2  UNL     1      -2.131   0.464  -0.406  1.00  0.00    -0.325 N 
HETATM    2  C4  UNL     1      -1.065   1.239  -0.144  1.00  0.00     0.185 A 
HETATM    3  N3  UNL     1       0.011   0.474   0.094  1.00  0.00    -0.346 N 
ATOM      4  H3  UNL     1       0.947   0.812   0.318  1.00  0.00     0.167 HD
HETATM    5  C5  UNL     1      -0.353  -0.800  -0.012  1.00  0.00     0.124 A 
HETATM    6  C6  UNL     1       0.328  -1.992   0.128  1.00  0.00     0.166 A 
HETATM    7  N13 UNL     1      -0.374  -3.122  -0.055  1.00  0.00    -0.171 N 
ATOM      8  H13 UNL     1       0.109  -4.015   0.042  1.00  0.00     0.186 HD
HETATM    9  C9  UNL     1      -1.685  -3.132  -0.361  1.00  0.00     0.705 A 
HETATM   10  N15 UNL     1      -2.366  -1.982  -0.501  1.00  0.00    -0.172 N 
ATOM     11  H15 UNL     1      -3.359  -1.988  -0.733  1.00  0.00     0.186 HD
HETATM   12  C10 UNL     1      -1.701  -0.815  -0.327  1.00  0.00     0.155 A 
ENDROOT
BRANCH   6  13
HETATM   13  N4  UNL     1       1.579  -1.989   0.421  1.00  0.00    -0.281 N 
ATOM     14  H4  UNL     1       2.050  -2.889   0.516  1.00  0.00     0.188 HD
BRANCH  13  15
HETATM   15  N5  UNL     1       2.324  -0.844   0.615  1.00  0.00    -0.271 N 
HETATM   16  C7  UNL     1       3.487  -0.645   0.102  1.00  0.00     0.221 C 
HETATM   17  N6  UNL     1       4.076  -1.641  -0.723  1.00  0.00    -0.061 NA
HETATM   18  N7  UNL     1       4.200   0.551   0.346  1.00  0.00    -0.158 N 
ATOM     19  H7  UNL     1       3.677   1.393   0.587  1.00  0.00     0.187 HD
ATOM     20  H5  UNL     1       1.928  -0.110   1.202  1.00  0.00     0.189 HD
BRANCH  18  21
HETATM   21  C8  UNL     1       5.492   0.619   0.275  1.00  0.00     0.731 A 
HETATM   22  N8  UNL     1       6.337  -0.383  -0.026  1.00  0.00    -0.115 N 
HETATM   23  N9  UNL     1       7.574   0.108   0.012  1.00  0.00     0.008 NA
ATOM     24  H8  UNL     1       6.077  -1.345  -0.244  1.00  0.00     0.203 HD
HETATM   25  N10 UNL     1       7.541   1.391   0.330  1.00  0.00     0.030 NA
HETATM   26  N11 UNL     1       6.247   1.701   0.491  1.00  0.00    -0.012 N 
BRANCH  26  27
HETATM   27  N12 UNL     1       5.762   2.967   0.835  1.00  0.00    -0.311 N 
ATOM     28 2H12 UNL     1       4.777   3.203   0.958  1.00  0.00     0.179 HD
ATOM     29 1H12 UNL     1       6.338   3.792   1.000  1.00  0.00     0.179 HD
ENDBRANCH  26  27
ENDBRANCH  18  21
ENDBRANCH  13  15
ENDBRANCH   6  13
BRANCH   9  30
HETATM   30  N14 UNL     1      -2.293  -4.274  -0.522  1.00  0.00    -0.098 N 
ATOM     31  H14 UNL     1      -1.774  -5.146  -0.415  1.00  0.00     0.213 HD
BRANCH  30  32
HETATM   32  O1  UNL     1      -3.622  -4.307  -0.833  1.00  0.00    -0.276 OA
ATOM     33  H1  UNL     1      -4.065  -5.139  -0.950  1.00  0.00     0.245 HD
ENDBRANCH  30  32
ENDBRANCH   9  30
BRANCH   1  34
HETATM   34  C3  UNL     1      -3.505   0.874  -0.721  1.00  0.00     0.150 C 
BRANCH  34  35
HETATM   35  C2  UNL     1      -4.316   0.995   0.552  1.00  0.00     0.133 C 
BRANCH  35  36
HETATM   36  N1  UNL     1      -5.666   1.388   0.319  1.00  0.00    -0.424 N 
HETATM   37  C1  UNL     1      -5.859   2.717  -0.160  1.00  0.00     0.139 C 
ATOM     38  H1  UNL     1      -6.449   0.755   0.485  1.00  0.00     0.152 HD
ENDBRANCH  35  36
ENDBRANCH  34  35
ENDBRANCH   1  34
TORSDOF 9
