REMARK  10 active torsions:
REMARK  status: ('A' for Active; 'I' for Inactive)
REMARK    1  A    between atoms: C2_2  and  O1_3 
REMARK    2  A    between atoms: C2_2  and  C3_5 
REMARK    3  A    between atoms: C3_5  and  O2_6 
REMARK    4  A    between atoms: C3_5  and  C4_8 
REMARK    5  A    between atoms: C4_8  and  O3_9 
REMARK    6  A    between atoms: C4_8  and  C5_11 
REMARK    7  A    between atoms: C6_13  and  N1_14 
REMARK    8  A    between atoms: N3_21  and  N4_22 
REMARK    9  A    between atoms: C9_25  and  O7_27 
REMARK   10  A    between atoms: C11_29  and  O8_30 
ROOT
HETATM    1  C5  UNL     1       0.672   0.182  -0.545  1.00  0.00     0.187 C 
HETATM    2  O4  UNL     1      -0.301  -0.798  -0.362  1.00  0.00    -0.351 OA
HETATM    3  C6  UNL     1      -1.495  -0.170  -0.704  1.00  0.00     0.288 C 
HETATM    4  C9  UNL     1      -1.401   1.254  -0.215  1.00  0.00     0.128 C 
HETATM    5  C10 UNL     1      -2.258   1.524   0.986  1.00  0.00     0.053 C 
HETATM    6  C11 UNL     1       0.073   1.376   0.120  1.00  0.00     0.188 C 
ENDROOT
BRANCH   3   7
HETATM    7  N1  UNL     1      -2.635  -0.868  -0.214  1.00  0.00    -0.184 N 
HETATM    8  C7  UNL     1      -2.610  -1.891   0.652  1.00  0.00     0.349 A 
HETATM    9  O5  UNL     1      -1.573  -2.416   1.186  1.00  0.00    -0.245 OA
HETATM   10  N2  UNL     1      -3.880  -2.276   0.866  1.00  0.00    -0.256 N 
HETATM   11  C8  UNL     1      -4.674  -1.488   0.130  1.00  0.00     0.364 A 
ATOM     12  H2  UNL     1      -4.184  -3.032   1.479  1.00  0.00     0.175 HD
HETATM   13  O6  UNL     1      -5.937  -1.566   0.086  1.00  0.00    -0.243 OA
HETATM   14  N3  UNL     1      -3.889  -0.620  -0.533  1.00  0.00    -0.140 N 
BRANCH  14  15
HETATM   15  N4  UNL     1      -4.419   0.350  -1.399  1.00  0.00    -0.319 N 
ATOM     16  H42 UNL     1      -3.824   1.008  -1.902  1.00  0.00     0.179 HD
ATOM     17  H41 UNL     1      -5.390   0.542  -1.646  1.00  0.00     0.179 HD
ENDBRANCH  14  15
ENDBRANCH   3   7
BRANCH   4  18
HETATM   18  O7  UNL     1      -1.781   2.096  -1.235  1.00  0.00    -0.383 OA
ATOM     19  H7  UNL     1      -1.722   2.993  -0.927  1.00  0.00     0.210 HD
ENDBRANCH   4  18
BRANCH   1  20
HETATM   20  C4  UNL     1       1.938  -0.295   0.077  1.00  0.00     0.181 C 
BRANCH  20  21
HETATM   21  C3  UNL     1       3.115   0.611  -0.207  1.00  0.00     0.177 C 
BRANCH  21  22
HETATM   22  C2  UNL     1       4.417  -0.037   0.224  1.00  0.00     0.145 C 
HETATM   23  C1  UNL     1       4.663  -1.304  -0.590  1.00  0.00     0.042 C 
BRANCH  22  24
HETATM   24  O1  UNL     1       5.478   0.831  -0.023  1.00  0.00    -0.393 OA
ATOM     25  H1  UNL     1       5.325   1.620   0.484  1.00  0.00     0.210 HD
ENDBRANCH  22  24
ENDBRANCH  21  22
BRANCH  21  26
HETATM   26  O2  UNL     1       3.213   0.882  -1.571  1.00  0.00    -0.390 OA
ATOM     27  H2  UNL     1       2.398   1.288  -1.841  1.00  0.00     0.210 HD
ENDBRANCH  21  26
ENDBRANCH  20  21
BRANCH  20  28
HETATM   28  O3  UNL     1       1.858  -0.549   1.429  1.00  0.00    -0.390 OA
ATOM     29  H3  UNL     1       1.119  -1.118   1.607  1.00  0.00     0.210 HD
ENDBRANCH  20  28
ENDBRANCH   1  20
BRANCH   6  30
HETATM   30  O8  UNL     1       0.268   1.384   1.502  1.00  0.00    -0.390 OA
ATOM     31  H8  UNL     1      -0.113   2.144   1.925  1.00  0.00     0.210 HD
ENDBRANCH   6  30
TORSDOF 10
