REMARK  6 active torsions:
REMARK  status: ('A' for Active; 'I' for Inactive)
REMARK    1  A    between atoms: N1_1  and  C1_4 
REMARK    2  A    between atoms: C2_10  and  N5_11 
REMARK    3  A    between atoms: C3_16  and  N7_17 
REMARK    4  A    between atoms: N7_17  and  C4_19 
REMARK    5  A    between atoms: C4_19  and  C5_20 
REMARK    6  A    between atoms: C5_20  and  N8_21 
ROOT
HETATM    1  C1  UNL     1       4.810   1.048   0.022  1.00  0.00     0.706 A 
HETATM    2  N2  UNL     1       5.421  -0.136   0.284  1.00  0.00    -0.116 N 
ATOM      3  H2  UNL     1       6.438  -0.182   0.348  1.00  0.00     0.207 HD
HETATM    4  N3  UNL     1       4.699  -1.226   0.455  1.00  0.00    -0.192 N 
ATOM      5  H3  UNL     1       5.166  -2.111   0.652  1.00  0.00     0.210 HD
HETATM    6  N4  UNL     1       3.370  -1.189   0.375  1.00  0.00     0.106 N 
HETATM    7  C2  UNL     1       2.633  -2.300   0.549  1.00  0.00     0.728 A 
HETATM    8  N6  UNL     1       1.273  -2.273   0.468  1.00  0.00    -0.020 N 
ATOM      9  H6  UNL     1       0.716  -3.117   0.599  1.00  0.00     0.203 HD
HETATM   10  C3  UNL     1       0.697  -1.089   0.208  1.00  0.00     0.707 A 
HETATM   11  N11 UNL     1       1.429   0.012   0.036  1.00  0.00    -0.019 N 
ATOM     12  H11 UNL     1       0.962   0.897  -0.161  1.00  0.00     0.203 HD
HETATM   13  C7  UNL     1       2.764  -0.021   0.116  1.00  0.00     0.749 A 
HETATM   14  N12 UNL     1       3.486   1.126  -0.066  1.00  0.00    -0.018 N 
ATOM     15  H12 UNL     1       3.023   2.013  -0.263  1.00  0.00     0.203 HD
ENDROOT
BRANCH  10  16
HETATM   16  N7  UNL     1      -0.583  -1.007   0.122  1.00  0.00    -0.224 N 
ATOM     17  H7  UNL     1      -1.152  -1.843   0.253  1.00  0.00     0.177 HD
BRANCH  16  18
HETATM   18  C4  UNL     1      -1.225   0.259  -0.158  1.00  0.00     0.157 C 
BRANCH  18  19
HETATM   19  C5  UNL     1      -2.712  -0.003  -0.242  1.00  0.00     0.142 C 
BRANCH  19  20
HETATM   20  N8  UNL     1      -3.473   1.191  -0.519  1.00  0.00    -0.365 N 
HETATM   21  C6  UNL     1      -4.702   1.243  -0.149  1.00  0.00     0.197 C 
HETATM   22  N9  UNL     1      -5.302   0.147   0.520  1.00  0.00    -0.067 NA
HETATM   23  N10 UNL     1      -5.477   2.404  -0.408  1.00  0.00    -0.067 NA
ATOM     24  H8  UNL     1      -3.042   1.980  -1.000  1.00  0.00     0.161 HD
ENDBRANCH  19  20
ENDBRANCH  18  19
ENDBRANCH  16  18
ENDBRANCH  10  16
BRANCH   7  25
HETATM   25  N5  UNL     1       3.236  -3.412   0.797  1.00  0.00    -0.232 N 
ATOM     26  H52 UNL     1       4.254  -3.432   0.858  1.00  0.00     0.174 HD
ATOM     27  H51 UNL     1       2.677  -4.255   0.929  1.00  0.00     0.174 HD
ENDBRANCH   7  25
BRANCH   1  28
HETATM   28  N1  UNL     1       5.510   2.131  -0.149  1.00  0.00    -0.233 N 
ATOM     29  H12 UNL     1       6.526   2.071  -0.081  1.00  0.00     0.174 HD
ATOM     30  H11 UNL     1       5.051   3.020  -0.346  1.00  0.00     0.174 HD
ENDBRANCH   1  28
TORSDOF 6
