REMARK  6 active torsions:
REMARK  status: ('A' for Active; 'I' for Inactive)
REMARK    1  A    between atoms: C4_6  and  N2_7 
REMARK    2  A    between atoms: N2_7  and  N3_9 
REMARK    3  A    between atoms: C5_11  and  C6_12 
REMARK    4  A    between atoms: N4_15  and  N5_16 
REMARK       I    between atoms: N5_16  and  C7_18 
REMARK       I    between atoms: C7_18  and  N7_22 
REMARK    5  A    between atoms: N7_22  and  N8_24 
REMARK    6  A    between atoms: N8_24  and  N9_25 
ROOT
HETATM    1  C1  UNL     1      -1.701  -2.602   1.702  1.00  0.00     0.049 C 
HETATM    2  C2  UNL     1      -1.660  -2.233   0.238  1.00  0.00     0.123 A 
HETATM    3  C3  UNL     1      -2.584  -3.120  -0.559  1.00  0.00     0.049 C 
HETATM    4  N1  UNL     1      -2.067  -0.867   0.004  1.00  0.00    -0.205 N 
ATOM      5  H1  UNL     1      -2.997  -0.504   0.212  1.00  0.00     0.179 HD
HETATM    6  C4  UNL     1      -1.110  -0.162  -0.500  1.00  0.00     0.718 A 
HETATM    7  N4  UNL     1       0.060  -0.951  -0.674  1.00  0.00    -0.034 N 
HETATM    8  C8  UNL     1      -0.262  -2.261  -0.218  1.00  0.00     0.287 A 
HETATM    9  O3  UNL     1       0.561  -3.226  -0.233  1.00  0.00    -0.268 OA
ENDROOT
BRANCH   7  10
HETATM   10  N5  UNL     1       1.290  -0.493  -1.200  1.00  0.00    -0.107 N 
HETATM   11  C7  UNL     1       2.389  -0.203  -0.341  1.00  0.00     0.704 C 
HETATM   12  N6  UNL     1       2.254  -0.425   0.922  1.00  0.00    -0.232 N 
HETATM   13  N7  UNL     1       3.600   0.309  -0.814  1.00  0.00    -0.116 N 
ATOM     14  H62 UNL     1       1.370  -0.799   1.267  1.00  0.00     0.174 HD
ATOM     15  H61 UNL     1       3.041  -0.217   1.537  1.00  0.00     0.174 HD
ATOM     16  H7  UNL     1       4.091  -0.190  -1.556  1.00  0.00     0.203 HD
ATOM     17  H5  UNL     1       1.392  -0.369  -2.207  1.00  0.00     0.207 HD
BRANCH  13  18
HETATM   18  N8  UNL     1       4.166   1.499  -0.295  1.00  0.00    -0.015 NA
BRANCH  18  19
HETATM   19  N9  UNL     1       5.340   1.801  -0.995  1.00  0.00    -0.328 N 
ATOM     20  H92 UNL     1       5.717   1.240  -1.759  1.00  0.00     0.174 HD
ATOM     21  H91 UNL     1       5.748   2.658  -0.621  1.00  0.00     0.174 HD
ENDBRANCH  18  19
ENDBRANCH  13  18
ENDBRANCH   7  10
BRANCH   6  22
HETATM   22  N2  UNL     1      -1.162   1.236  -0.859  1.00  0.00    -0.131 N 
ATOM     23  H2  UNL     1      -1.133   1.488  -1.847  1.00  0.00     0.205 HD
BRANCH  22  24
HETATM   24  N3  UNL     1      -1.249   2.244   0.076  1.00  0.00    -0.291 N 
HETATM   25  C5  UNL     1      -2.352   2.892   0.237  1.00  0.00     0.192 C 
ATOM     26  H3  UNL     1      -0.436   2.479   0.645  1.00  0.00     0.186 HD
BRANCH  25  27
HETATM   27  C6  UNL     1      -2.403   3.942   1.227  1.00  0.00     0.216 C 
HETATM   28  O1  UNL     1      -1.395   4.210   1.910  1.00  0.00    -0.643 OA
HETATM   29  O2  UNL     1      -3.559   4.663   1.434  1.00  0.00    -0.643 OA
ENDBRANCH  25  27
ENDBRANCH  22  24
ENDBRANCH   6  22
TORSDOF 6
