REMARK  6 active torsions:
REMARK  status: ('A' for Active; 'I' for Inactive)
REMARK    1  A    between atoms: N1_1  and  N2_4 
REMARK    2  A    between atoms: N2_4  and  C1_6 
REMARK    3  A    between atoms: N6_13  and  C2_14 
REMARK    4  A    between atoms: C4_19  and  N9_20 
REMARK    5  A    between atoms: N9_20  and  S1_22 
REMARK    6  A    between atoms: S1_22  and  N10_23 
ROOT
HETATM    1  C2  UNL     1      -0.776  -0.429  -0.041  1.00  0.00     0.723 A 
HETATM    2  N7  UNL     1      -0.485   0.580   0.795  1.00  0.00    -0.172 N 
ATOM      3  H7  UNL     1      -1.131   0.969   1.482  1.00  0.00     0.185 HD
HETATM    4  C3  UNL     1       0.776   1.007   0.601  1.00  0.00     0.177 A 
HETATM    5  N8  UNL     1       1.500   2.032   1.245  1.00  0.00    -0.078 NA
HETATM    6  C4  UNL     1       1.303   0.225  -0.407  1.00  0.00     0.173 A 
HETATM    7  N11 UNL     1       0.330  -0.632  -0.769  1.00  0.00    -0.170 N 
ATOM      8  H11 UNL     1       0.422  -1.339  -1.498  1.00  0.00     0.186 HD
ENDROOT
BRANCH   1   9
HETATM    9  N6  UNL     1      -2.023  -1.141  -0.131  1.00  0.00     0.109 N 
HETATM   10  C1  UNL     1      -3.229  -0.565  -0.090  1.00  0.00     0.749 A 
HETATM   11  N3  UNL     1      -4.147  -1.540  -0.202  1.00  0.00    -0.113 N 
HETATM   12  N4  UNL     1      -3.481  -2.661  -0.305  1.00  0.00    -0.212 N 
ATOM     13  H3  UNL     1      -5.161  -1.428  -0.206  1.00  0.00     0.207 HD
HETATM   14  N5  UNL     1      -2.204  -2.429  -0.263  1.00  0.00    -0.191 N 
ATOM     15  H4  UNL     1      -3.904  -3.584  -0.404  1.00  0.00     0.210 HD
ATOM     16  H5  UNL     1      -1.467  -3.132  -0.323  1.00  0.00     0.211 HD
BRANCH  10  17
HETATM   17  N2  UNL     1      -3.513   0.692   0.032  1.00  0.00    -0.135 N 
ATOM     18  H2  UNL     1      -2.741   1.354   0.110  1.00  0.00     0.205 HD
BRANCH  17  19
HETATM   19  N1  UNL     1      -4.800   1.187   0.063  1.00  0.00    -0.331 N 
ATOM     20  H12 UNL     1      -5.559   0.511  -0.016  1.00  0.00     0.177 HD
ATOM     21  H11 UNL     1      -5.024   2.177   0.159  1.00  0.00     0.177 HD
ENDBRANCH  17  19
ENDBRANCH  10  17
ENDBRANCH   1   9
BRANCH   6  22
HETATM   22  N9  UNL     1       2.632   0.316  -0.958  1.00  0.00    -0.250 N 
ATOM     23  H9  UNL     1       2.823   0.926  -1.753  1.00  0.00     0.182 HD
BRANCH  22  24
HETATM   24  S1  UNL     1       3.889  -0.620  -0.254  1.00  0.00     0.318 S 
HETATM   25  O1  UNL     1       4.877  -1.042  -1.300  1.00  0.00    -0.183 OA
HETATM   26  O2  UNL     1       3.293  -1.848   0.354  1.00  0.00    -0.183 OA
BRANCH  24  27
HETATM   27  N10 UNL     1       4.635   0.304   0.996  1.00  0.00    -0.311 N 
ATOM     28 2H10 UNL     1       4.363   1.250   1.262  1.00  0.00     0.170 HD
ATOM     29 1H10 UNL     1       5.381  -0.252   1.414  1.00  0.00     0.170 HD
ENDBRANCH  24  27
ENDBRANCH  22  24
ENDBRANCH   6  22
TORSDOF 6
