REMARK  5 active torsions:
REMARK  status: ('A' for Active; 'I' for Inactive)
REMARK       I    between atoms: C1_4  and  N3_6 
REMARK       I    between atoms: N3_6  and  C2_8 
REMARK    1  A    between atoms: C2_8  and  C3_10 
REMARK    2  A    between atoms: C4_13  and  C5_14 
REMARK    3  A    between atoms: C5_14  and  N5_15 
REMARK    4  A    between atoms: C5_14  and  O2_19 
REMARK    5  A    between atoms: C7_24  and  N7_25 
ROOT
HETATM    1  C3  UNL     1      -0.740  -0.219   0.103  1.00  0.00     0.191 A 
HETATM    2  N4  UNL     1       0.183  -1.011   0.684  1.00  0.00    -0.333 N 
ATOM      3  H4  UNL     1      -0.106  -1.749   1.326  1.00  0.00     0.167 HD
HETATM    4  C4  UNL     1       1.479  -0.825   0.416  1.00  0.00     0.115 A 
HETATM    5  C6  UNL     1       1.814   0.199  -0.470  1.00  0.00     0.188 A 
HETATM    6  N6  UNL     1       2.996   0.636  -0.938  1.00  0.00    -0.170 N 
ATOM      7  H6  UNL     1       3.915   0.260  -0.704  1.00  0.00     0.186 HD
HETATM    8  C7  UNL     1       2.744   1.664  -1.775  1.00  0.00     0.693 A 
HETATM    9  N8  UNL     1       1.413   1.879  -1.840  1.00  0.00    -0.109 N 
ATOM     10  H8  UNL     1       0.924   2.586  -2.389  1.00  0.00     0.208 HD
HETATM   11  N9  UNL     1       0.882   0.974  -1.037  1.00  0.00    -0.161 N 
HETATM   12  N10 UNL     1      -0.371   0.752  -0.742  1.00  0.00    -0.257 N 
ATOM     13  H10 UNL     1      -1.090   1.336  -1.168  1.00  0.00     0.191 HD
ENDROOT
BRANCH   1  14
HETATM   14  C2  UNL     1      -2.160  -0.374   0.356  1.00  0.00     0.293 C 
HETATM   15  N3  UNL     1      -3.111   0.470  -0.268  1.00  0.00    -0.295 N 
HETATM   16  C1  UNL     1      -4.502   0.357  -0.052  1.00  0.00     0.188 C 
ATOM     17  H3  UNL     1      -2.775   1.194  -0.904  1.00  0.00     0.171 HD
HETATM   18  N1  UNL     1      -5.313   1.144  -0.639  1.00  0.00    -0.373 N 
HETATM   19  N2  UNL     1      -4.987  -0.636   0.822  1.00  0.00    -0.064 NA
ATOM     20  H12 UNL     1      -6.318   1.062  -0.483  1.00  0.00     0.158 HD
ATOM     21  H11 UNL     1      -4.962   1.863  -1.272  1.00  0.00     0.158 HD
HETATM   22  O1  UNL     1      -2.526  -1.270   1.137  1.00  0.00    -0.264 OA
ENDBRANCH   1  14
BRANCH   4  23
HETATM   23  C5  UNL     1       2.579  -1.639   1.001  1.00  0.00     0.371 C 
BRANCH  23  24
HETATM   24  N5  UNL     1       3.618  -0.717   1.420  1.00  0.00    -0.047 N 
ATOM     25  H53 UNL     1       3.932  -0.101   0.670  1.00  0.00     0.277 HD
ATOM     26  H52 UNL     1       3.278   0.008   2.052  1.00  0.00     0.277 HD
ATOM     27  H51 UNL     1       4.372  -1.275   1.821  1.00  0.00     0.277 HD
ENDBRANCH  23  24
BRANCH  23  28
HETATM   28  O2  UNL     1       2.142  -2.445   2.028  1.00  0.00    -0.365 OA
ATOM     29  H2  UNL     1       2.844  -2.965   2.401  1.00  0.00     0.212 HD
ENDBRANCH  23  28
ENDBRANCH   4  23
BRANCH   8  30
HETATM   30  N7  UNL     1       3.616   2.364  -2.437  1.00  0.00    -0.233 N 
ATOM     31  H72 UNL     1       4.622   2.202  -2.388  1.00  0.00     0.174 HD
ATOM     32  H71 UNL     1       3.426   3.141  -3.070  1.00  0.00     0.174 HD
ENDBRANCH   8  30
TORSDOF 5
