REMARK  7 active torsions:
REMARK  status: ('A' for Active; 'I' for Inactive)
REMARK    1  A    between atoms: C2_2  and  C4_4 
REMARK    2  A    between atoms: N1_6  and  C6_7 
REMARK    3  A    between atoms: N4_15  and  C10_16 
REMARK    4  A    between atoms: C12_20  and  C13_21 
REMARK       I    between atoms: C13_21  and  N6_23 
REMARK    5  A    between atoms: N6_23  and  C14_25 
REMARK    6  A    between atoms: C14_25  and  C15_26 
REMARK    7  A    between atoms: N8_38  and  O3_39 
ROOT
HETATM    1  C6  UNL     1       2.165  -0.468  -1.071  1.00  0.00     0.690 A 
HETATM    2  N2  UNL     1       2.803  -0.639  -2.242  1.00  0.00    -0.201 N 
ATOM      3  H2  UNL     1       3.792  -0.888  -2.224  1.00  0.00     0.183 HD
HETATM    4  C7  UNL     1       2.201  -0.498  -3.436  1.00  0.00     0.120 A 
HETATM    5  C8  UNL     1       0.844  -0.157  -3.495  1.00  0.00     0.044 A 
HETATM    6  C9  UNL     1       0.204   0.015  -2.296  1.00  0.00     0.150 A 
HETATM    7  N3  UNL     1       0.863  -0.140  -1.120  1.00  0.00    -0.175 N 
ATOM      8  H3  UNL     1       0.354  -0.003  -0.246  1.00  0.00     0.186 HD
HETATM    9  N4  UNL     1      -1.175   0.372  -2.516  1.00  0.00    -0.159 N 
HETATM   10  C16 UNL     1      -1.300   0.691  -3.912  1.00  0.00     0.149 C 
HETATM   11  C17 UNL     1      -2.558   0.149  -4.501  1.00  0.00     0.037 C 
HETATM   12  C18 UNL     1      -0.116   0.066  -4.587  1.00  0.00     0.166 C 
HETATM   13 CL2  UNL     1      -0.497  -1.442  -5.448  1.00  0.00    -0.094 Cl
HETATM   14 CL3  UNL     1       0.541   1.250  -5.771  1.00  0.00    -0.094 Cl
ENDROOT
BRANCH   9  15
HETATM   15  C10 UNL     1      -2.180   0.391  -1.517  1.00  0.00     0.687 A 
HETATM   16  N5  UNL     1      -2.003   0.030  -0.209  1.00  0.00    -0.199 N 
HETATM   17  C11 UNL     1      -3.132   0.168   0.465  1.00  0.00     0.142 A 
ATOM     18  H5  UNL     1      -1.124  -0.299   0.190  1.00  0.00     0.183 HD
HETATM   19  C12 UNL     1      -4.087   0.629  -0.403  1.00  0.00     0.132 A 
HETATM   20  N7  UNL     1      -3.469   0.753  -1.599  1.00  0.00    -0.184 N 
ATOM     21  H7  UNL     1      -3.923   1.079  -2.452  1.00  0.00     0.184 HD
BRANCH  19  22
HETATM   22  C13 UNL     1      -5.465   0.912  -0.062  1.00  0.00     0.270 C 
HETATM   23  O1  UNL     1      -6.227   1.332  -0.970  1.00  0.00    -0.266 OA
HETATM   24  N6  UNL     1      -5.955   0.726   1.255  1.00  0.00    -0.352 N 
ATOM     25  H6  UNL     1      -5.336   0.385   1.990  1.00  0.00     0.162 HD
BRANCH  24  26
HETATM   26  C14 UNL     1      -7.326   1.020   1.546  1.00  0.00     0.176 C 
BRANCH  26  27
HETATM   27  C15 UNL     1      -7.644   0.749   3.019  1.00  0.00     0.283 C 
HETATM   28  F1  UNL     1      -7.410  -0.582   3.324  1.00  0.00    -0.231 F 
HETATM   29 CL1  UNL     1      -9.341   1.185   3.288  1.00  0.00    -0.088 Cl
ENDBRANCH  26  27
ENDBRANCH  24  26
ENDBRANCH  19  22
ENDBRANCH   9  15
BRANCH   1  30
HETATM   30  N1  UNL     1       2.872  -0.634   0.170  1.00  0.00    -0.129 N 
HETATM   31  C5  UNL     1       3.887   0.264   0.681  1.00  0.00     0.181 C 
HETATM   32  C4  UNL     1       4.116  -0.176   2.086  1.00  0.00     0.142 C 
HETATM   33  N8  UNL     1       3.766  -1.558   2.084  1.00  0.00    -0.203 N 
HETATM   34  C19 UNL     1       2.714  -1.693   1.115  1.00  0.00     0.363 C 
HETATM   35  O2  UNL     1       1.807  -2.573   1.081  1.00  0.00    -0.244 OA
BRANCH  32  36
HETATM   36  C2  UNL     1       5.560   0.083   2.442  1.00  0.00     0.004 C 
HETATM   37  C1  UNL     1       5.916  -0.322   3.839  1.00  0.00     0.012 C 
HETATM   38  C3  UNL     1       6.523  -0.519   1.471  1.00  0.00     0.012 C 
ENDBRANCH  32  36
BRANCH  33  39
HETATM   39  O3  UNL     1       4.230  -2.614   2.779  1.00  0.00    -0.283 OA
ATOM     40  H3  UNL     1       3.997  -3.535   2.778  1.00  0.00     0.245 HD
ENDBRANCH  33  39
ENDBRANCH   1  30
TORSDOF 7
