REMARK  8 active torsions:
REMARK  status: ('A' for Active; 'I' for Inactive)
REMARK    1  A    between atoms: N2_8  and  C7_9 
REMARK    2  A    between atoms: C8_12  and  N4_13 
REMARK    3  A    between atoms: C9_16  and  C10_17 
REMARK    4  A    between atoms: C11_20  and  C12_21 
REMARK    5  A    between atoms: C15_26  and  C16_27 
REMARK    6  A    between atoms: C18_29  and  O1_30 
REMARK    7  A    between atoms: O1_30  and  C19_31 
REMARK    8  A    between atoms: C23_41  and  C24_42 
ROOT
HETATM    1  C7  UNL     1       2.029  -0.175   0.067  1.00  0.00     0.134 A 
HETATM    2  N3  UNL     1       1.579  -0.975  -0.917  1.00  0.00    -0.325 N 
ATOM      3  H3  UNL     1       2.191  -1.168  -1.710  1.00  0.00     0.169 HD
HETATM    4  C8  UNL     1       0.359  -1.529  -0.898  1.00  0.00     0.130 A 
HETATM    5  C9  UNL     1      -0.501  -1.300   0.144  1.00  0.00     0.106 A 
HETATM    6  N8  UNL     1      -0.063  -0.498   1.142  1.00  0.00    -0.347 N 
ATOM      7  H8  UNL     1      -0.678  -0.308   1.933  1.00  0.00     0.166 HD
HETATM    8  C23 UNL     1       1.172   0.060   1.118  1.00  0.00     0.119 A 
ENDROOT
BRANCH   5   9
HETATM    9  C10 UNL     1      -1.843  -1.900   0.181  1.00  0.00     0.092 A 
HETATM   10  N5  UNL     1      -2.071  -3.224   0.203  1.00  0.00    -0.342 N 
HETATM   11  C11 UNL     1      -3.385  -3.467   0.236  1.00  0.00     0.086 A 
ATOM     12  H5  UNL     1      -1.345  -3.941   0.196  1.00  0.00     0.167 HD
HETATM   13  N6  UNL     1      -3.989  -2.253   0.233  1.00  0.00    -0.343 N 
HETATM   14  C15 UNL     1      -3.069  -1.294   0.201  1.00  0.00     0.074 A 
ATOM     15  H6  UNL     1      -4.997  -2.099   0.252  1.00  0.00     0.167 HD
BRANCH  11  16
HETATM   16  C12 UNL     1      -4.044  -4.786   0.268  1.00  0.00     0.053 A 
HETATM   17  C13 UNL     1      -5.308  -4.910   1.058  1.00  0.00     0.013 A 
HETATM   18  C14 UNL     1      -5.361  -4.956  -0.438  1.00  0.00     0.013 A 
ENDBRANCH  11  16
BRANCH  14  19
HETATM   19  C16 UNL     1      -3.246   0.154   0.186  1.00  0.00     0.011 A 
HETATM   20  C17 UNL     1      -2.791   0.869  -0.918  1.00  0.00     0.058 A 
HETATM   21  C18 UNL     1      -2.963   2.225  -0.920  1.00  0.00     0.143 A 
HETATM   22  C20 UNL     1      -3.579   2.805   0.174  1.00  0.00     0.280 A 
HETATM   23  O2  UNL     1      -3.733   4.070   0.160  1.00  0.00    -0.265 OA
HETATM   24  N7  UNL     1      -4.008   2.084   1.228  1.00  0.00    -0.326 N 
HETATM   25  C21 UNL     1      -4.653   2.714   2.370  1.00  0.00     0.159 C 
HETATM   26  C22 UNL     1      -3.849   0.740   1.253  1.00  0.00     0.107 A 
BRANCH  21  27
HETATM   27  O1  UNL     1      -2.552   3.001  -1.952  1.00  0.00    -0.284 OA
BRANCH  27  28
HETATM   28  C19 UNL     1      -1.923   2.586  -3.117  1.00  0.00     0.505 C 
HETATM   29  F1  UNL     1      -0.703   3.270  -3.213  1.00  0.00    -0.184 F 
HETATM   30  F2  UNL     1      -2.680   2.959  -4.223  1.00  0.00    -0.184 F 
ENDBRANCH  27  28
ENDBRANCH  21  27
ENDBRANCH  14  19
ENDBRANCH   5   9
BRANCH   4  31
HETATM   31  N4  UNL     1      -0.009  -2.280  -1.865  1.00  0.00    -0.384 N 
ATOM     32  H42 UNL     1       0.631  -2.450  -2.641  1.00  0.00     0.157 HD
ATOM     33  H41 UNL     1      -0.938  -2.702  -1.851  1.00  0.00     0.157 HD
ENDBRANCH   4  31
BRANCH   8  34
HETATM   34  C24 UNL     1       1.583   0.920   2.232  1.00  0.00     0.406 C 
HETATM   35  F3  UNL     1       0.618   1.918   2.403  1.00  0.00    -0.207 F 
HETATM   36  F4  UNL     1       1.550   0.181   3.420  1.00  0.00    -0.207 F 
ENDBRANCH   8  34
BRANCH   1  37
HETATM   37  N2  UNL     1       3.306   0.425   0.080  1.00  0.00    -0.358 N 
HETATM   38  C2  UNL     1       3.637   1.721  -0.471  1.00  0.00     0.110 C 
HETATM   39  C1  UNL     1       3.523   1.758  -1.977  1.00  0.00     0.034 C 
HETATM   40  C3  UNL     1       5.024   2.092   0.008  1.00  0.00     0.296 C 
HETATM   41  N1  UNL     1       6.020   1.129  -0.333  1.00  0.00     0.087 N 
HETATM   42  C4  UNL     1       7.233   1.293   0.412  1.00  0.00     0.310 C 
HETATM   43  C5  UNL     1       5.599  -0.246  -0.206  1.00  0.00     0.291 C 
HETATM   44  C6  UNL     1       4.401  -0.300   0.693  1.00  0.00     0.155 C 
ENDBRANCH   1  37
TORSDOF 8
