REMARK  8 active torsions:
REMARK  status: ('A' for Active; 'I' for Inactive)
REMARK    1  A    between atoms: C2_2  and  O1_3 
REMARK    2  A    between atoms: C2_2  and  C3_5 
REMARK    3  A    between atoms: C10_15  and  O2_16 
REMARK    4  A    between atoms: O2_16  and  S1_17 
REMARK    5  A    between atoms: S1_17  and  O5_20 
REMARK    6  A    between atoms: O5_20  and  C11_21 
REMARK    7  A    between atoms: C19_31  and  O6_32 
REMARK    8  A    between atoms: C20_34  and  O7_35 
ROOT
HETATM    1  C3  UNL     1      -2.217  -1.580  -0.428  1.00  0.00     0.160 C 
HETATM    2  F1  UNL     1      -0.987  -2.124  -0.849  1.00  0.00    -0.238 F 
HETATM    3  C4  UNL     1      -3.073  -1.559  -1.647  1.00  0.00     0.053 C 
HETATM    4  C5  UNL     1      -4.111  -0.502  -1.714  1.00  0.00     0.073 C 
HETATM    5  C6  UNL     1      -3.721   0.745  -1.000  1.00  0.00     0.406 C 
HETATM    6  F2  UNL     1      -4.202   1.835  -1.640  1.00  0.00    -0.216 F 
HETATM    7  N1  UNL     1      -2.260   0.758  -0.819  1.00  0.00     0.137 N 
HETATM    8  C7  UNL     1      -1.835   2.080  -0.592  1.00  0.00     0.258 C 
HETATM    9  C8  UNL     1      -1.859   2.487   0.888  1.00  0.00     0.042 C 
HETATM   10  C9  UNL     1      -0.496   2.231   1.421  1.00  0.00     0.044 C 
HETATM   11  C10 UNL     1       0.174   1.037   0.716  1.00  0.00     0.113 C 
HETATM   12  C17 UNL     1      -0.704  -0.157   0.888  1.00  0.00     0.081 C 
HETATM   13  C18 UNL     1      -1.983  -0.206   0.190  1.00  0.00     0.272 C 
HETATM   14  C19 UNL     1       0.521   1.361  -0.697  1.00  0.00     0.185 C 
HETATM   15  C20 UNL     1      -0.465   2.385  -1.201  1.00  0.00     0.183 C 
ENDROOT
BRANCH  11  16
HETATM   16  O2  UNL     1       1.326   0.844   1.441  1.00  0.00    -0.239 OA
BRANCH  16  17
HETATM   17  S1  UNL     1       2.332  -0.363   0.997  1.00  0.00     0.407 S 
HETATM   18  O3  UNL     1       2.182  -0.886  -0.380  1.00  0.00    -0.168 OA
HETATM   19  O4  UNL     1       2.301  -1.484   2.031  1.00  0.00    -0.168 OA
BRANCH  17  20
HETATM   20  O5  UNL     1       3.934   0.270   1.105  1.00  0.00    -0.211 OA
BRANCH  20  21
HETATM   21  C11 UNL     1       4.990  -0.256   0.427  1.00  0.00     0.093 A 
HETATM   22  C12 UNL     1       5.787  -1.250   0.945  1.00  0.00     0.040 A 
HETATM   23  C13 UNL     1       6.864  -1.765   0.218  1.00  0.00     0.028 A 
HETATM   24  C14 UNL     1       7.135  -1.273  -1.036  1.00  0.00     0.056 A 
HETATM   25 CL1  UNL     1       8.483  -1.917  -1.947  1.00  0.00    -0.083 Cl
HETATM   26  C15 UNL     1       6.349  -0.279  -1.571  1.00  0.00     0.058 A 
HETATM   27 CL2  UNL     1       6.736   0.316  -3.176  1.00  0.00    -0.082 Cl
HETATM   28  C16 UNL     1       5.290   0.213  -0.831  1.00  0.00     0.063 A 
ENDBRANCH  20  21
ENDBRANCH  17  20
ENDBRANCH  16  17
ENDBRANCH  11  16
BRANCH  14  29
HETATM   29  O6  UNL     1       1.795   1.938  -0.835  1.00  0.00    -0.390 OA
ATOM     30  H6  UNL     1       2.016   2.144  -1.736  1.00  0.00     0.210 HD
ENDBRANCH  14  29
BRANCH  15  31
HETATM   31  O7  UNL     1      -0.096   3.685  -0.974  1.00  0.00    -0.391 OA
ATOM     32  H7  UNL     1       0.755   3.874  -1.352  1.00  0.00     0.210 HD
ENDBRANCH  15  31
BRANCH   1  33
HETATM   33  C2  UNL     1      -2.677  -2.525   0.648  1.00  0.00     0.156 C 
HETATM   34  C1  UNL     1      -3.973  -2.201   1.292  1.00  0.00     0.042 C 
BRANCH  33  35
HETATM   35  O1  UNL     1      -1.699  -2.569   1.647  1.00  0.00    -0.393 OA
ATOM     36  H1  UNL     1      -0.869  -2.777   1.234  1.00  0.00     0.210 HD
ENDBRANCH  33  35
ENDBRANCH   1  33
TORSDOF 8
