REMARK  9 active torsions:
REMARK  status: ('A' for Active; 'I' for Inactive)
REMARK    1  A    between atoms: C4_4  and  C5_5 
REMARK    2  A    between atoms: C5_5  and  N1_7 
REMARK    3  A    between atoms: N1_7  and  C7_9 
REMARK    4  A    between atoms: C8_12  and  N3_13 
REMARK    5  A    between atoms: C13_19  and  C14_20 
REMARK    6  A    between atoms: C17_29  and  C18_30 
REMARK    7  A    between atoms: C18_30  and  N5_31 
REMARK    8  A    between atoms: C21_34  and  O1_35 
REMARK    9  A    between atoms: C22_37  and  O2_38 
ROOT
HETATM    1  N1  UNL     1       0.764  -1.098  -1.478  1.00  0.00    -0.217 N 
ATOM      2  H1  UNL     1       0.097  -1.523  -2.122  1.00  0.00     0.178 HD
ENDROOT
BRANCH   1   3
HETATM    3  C5  UNL     1       0.315  -0.641  -0.202  1.00  0.00     0.135 C 
HETATM    4  C6  UNL     1       1.103  -1.345   0.878  1.00  0.00     0.038 C 
BRANCH   3   5
HETATM    5  C4  UNL     1      -1.145  -1.012  -0.058  1.00  0.00     0.006 A 
HETATM    6  C3  UNL     1      -1.728  -2.212  -0.370  1.00  0.00     0.024 A 
HETATM    7  C2  UNL     1      -3.051  -2.329  -0.164  1.00  0.00    -0.046 A 
HETATM    8  C1  UNL     1      -3.830  -3.604  -0.466  1.00  0.00     0.049 C 
HETATM    9  C17 UNL     1      -3.699  -1.236   0.340  1.00  0.00     0.017 A 
HETATM   10  S1  UNL     1      -2.453  -0.087   0.509  1.00  0.00    -0.095 SA
BRANCH   9  11
HETATM   11  C18 UNL     1      -5.168  -1.142   0.661  1.00  0.00     0.319 C 
BRANCH  11  12
HETATM   12  N5  UNL     1      -5.483   0.191   1.164  1.00  0.00     0.095 N 
HETATM   13  C19 UNL     1      -6.879   0.148   1.524  1.00  0.00     0.275 C 
HETATM   14  C20 UNL     1      -7.538   1.465   1.699  1.00  0.00     0.064 C 
HETATM   15  C21 UNL     1      -6.911   2.612   0.974  1.00  0.00     0.150 C 
HETATM   16  C22 UNL     1      -6.258   2.040  -0.266  1.00  0.00     0.175 C 
HETATM   17  C23 UNL     1      -5.118   1.155   0.192  1.00  0.00     0.306 C 
BRANCH  15  18
HETATM   18  O1  UNL     1      -5.936   3.235   1.756  1.00  0.00    -0.393 OA
ATOM     19  H1  UNL     1      -5.538   3.964   1.295  1.00  0.00     0.210 HD
ENDBRANCH  15  18
BRANCH  16  20
HETATM   20  O2  UNL     1      -7.186   1.273  -0.943  1.00  0.00    -0.391 OA
ATOM     21  H2  UNL     1      -6.776   0.914  -1.721  1.00  0.00     0.210 HD
ENDBRANCH  16  20
ENDBRANCH  11  12
ENDBRANCH   9  11
ENDBRANCH   3   5
ENDBRANCH   1   3
BRANCH   1  22
HETATM   22  C7  UNL     1       2.000  -0.982  -1.829  1.00  0.00     0.680 A 
HETATM   23  N2  UNL     1       2.936  -0.433  -1.034  1.00  0.00    -0.174 N 
HETATM   24  C8  UNL     1       4.235  -0.310  -1.400  1.00  0.00     0.160 A 
ATOM     25  H2  UNL     1       2.655  -0.094  -0.114  1.00  0.00     0.186 HD
HETATM   26  C15 UNL     1       4.606  -0.769  -2.644  1.00  0.00     0.176 A 
HETATM   27  F3  UNL     1       5.900  -0.645  -3.008  1.00  0.00    -0.201 F 
HETATM   28  C16 UNL     1       3.669  -1.336  -3.481  1.00  0.00     0.152 A 
HETATM   29  N4  UNL     1       2.392  -1.428  -3.053  1.00  0.00    -0.199 N 
ATOM     30  H4  UNL     1       1.696  -1.847  -3.670  1.00  0.00     0.183 HD
BRANCH  24  31
HETATM   31  N3  UNL     1       5.202   0.263  -0.565  1.00  0.00    -0.352 N 
HETATM   32  C9  UNL     1       6.397  -0.444  -0.095  1.00  0.00     0.131 C 
HETATM   33  C10 UNL     1       6.707   0.123   1.268  1.00  0.00     0.020 C 
HETATM   34  C11 UNL     1       8.186   0.114   1.578  1.00  0.00     0.013 C 
HETATM   35  C12 UNL     1       6.109   1.490   1.258  1.00  0.00     0.115 C 
HETATM   36 CL1  UNL     1       5.125   1.753   2.723  1.00  0.00    -0.122 Cl
HETATM   37  C13 UNL     1       5.261   1.586  -0.001  1.00  0.00     0.169 C 
BRANCH  37  38
HETATM   38  C14 UNL     1       5.970   2.576  -0.919  1.00  0.00     0.377 C 
HETATM   39  F1  UNL     1       7.269   2.178  -1.163  1.00  0.00    -0.212 F 
HETATM   40  F2  UNL     1       6.054   3.773  -0.218  1.00  0.00    -0.212 F 
ENDBRANCH  37  38
ENDBRANCH  24  31
ENDBRANCH   1  22
TORSDOF 9
