REMARK  9 active torsions:
REMARK  status: ('A' for Active; 'I' for Inactive)
REMARK    1  A    between atoms: C2_3  and  C3_4 
REMARK    2  A    between atoms: C8_11  and  O2_12 
REMARK    3  A    between atoms: O2_12  and  C9_13 
REMARK    4  A    between atoms: C10_16  and  C11_17 
REMARK    5  A    between atoms: C11_17  and  O3_18 
REMARK    6  A    between atoms: N3_24  and  C12_25 
REMARK    7  A    between atoms: N4_28  and  C15_29 
REMARK    8  A    between atoms: C16_30  and  O4_31 
REMARK    9  A    between atoms: C20_36  and  O5_37 
ROOT
HETATM    1  O1  UNL     1       2.118   0.161   0.888  1.00  0.00    -0.266 OA
HETATM    2  C1  UNL     1       2.098  -0.340  -0.270  1.00  0.00     0.276 A 
HETATM    3  C2  UNL     1       3.253  -0.791  -0.887  1.00  0.00     0.074 A 
HETATM    4  C10 UNL     1       3.252  -1.341  -2.150  1.00  0.00     0.067 A 
HETATM    5  N1  UNL     1       2.054  -1.418  -2.761  1.00  0.00    -0.287 N 
ATOM      6  H1  UNL     1       2.009  -1.819  -3.698  1.00  0.00     0.188 HD
HETATM    7  N2  UNL     1       0.931  -0.995  -2.197  1.00  0.00    -0.237 N 
ATOM      8  H2  UNL     1       0.048  -1.075  -2.702  1.00  0.00     0.208 HD
HETATM    9  N3  UNL     1       0.951  -0.462  -0.964  1.00  0.00    -0.237 N 
ENDROOT
BRANCH   9  10
HETATM   10  C12 UNL     1      -0.311  -0.020  -0.406  1.00  0.00     0.116 C 
HETATM   11  C13 UNL     1      -0.497  -0.365   1.032  1.00  0.00     0.057 C 
HETATM   12  C14 UNL     1      -1.951  -0.712   1.373  1.00  0.00     0.275 C 
HETATM   13  N4  UNL     1      -2.795   0.226   0.715  1.00  0.00     0.098 N 
HETATM   14  C21 UNL     1      -2.750   0.004  -0.714  1.00  0.00     0.275 C 
HETATM   15  C22 UNL     1      -1.468  -0.539  -1.230  1.00  0.00     0.057 C 
BRANCH  13  16
HETATM   16  C15 UNL     1      -4.190   0.171   1.095  1.00  0.00     0.279 C 
HETATM   17  C16 UNL     1      -4.851   1.338   0.438  1.00  0.00     0.154 C 
HETATM   18  C17 UNL     1      -6.206   1.699   0.989  1.00  0.00     0.034 C 
HETATM   19  C18 UNL     1      -6.188   1.716   2.506  1.00  0.00     0.005 C 
HETATM   20  C19 UNL     1      -5.852   0.312   2.925  1.00  0.00     0.034 C 
HETATM   21  C20 UNL     1      -4.439  -0.001   2.548  1.00  0.00     0.154 C 
BRANCH  17  22
HETATM   22  O4  UNL     1      -3.985   2.457   0.466  1.00  0.00    -0.393 OA
ATOM     23  H4  UNL     1      -4.405   3.199   0.048  1.00  0.00     0.210 HD
ENDBRANCH  17  22
BRANCH  21  24
HETATM   24  O5  UNL     1      -4.284  -1.381   2.837  1.00  0.00    -0.393 OA
ATOM     25  H5  UNL     1      -4.443  -1.491   3.767  1.00  0.00     0.210 HD
ENDBRANCH  21  24
ENDBRANCH  13  16
ENDBRANCH   9  10
BRANCH   3  26
HETATM   26  C3  UNL     1       4.516  -0.695  -0.206  1.00  0.00     0.037 A 
HETATM   27  C4  UNL     1       4.926  -1.735   0.577  1.00  0.00     0.049 A 
HETATM   28 CL1  UNL     1       3.935  -3.212   0.778  1.00  0.00    -0.083 Cl
HETATM   29  C5  UNL     1       6.129  -1.697   1.254  1.00  0.00     0.048 A 
HETATM   30  C6  UNL     1       6.921  -0.580   1.126  1.00  0.00     0.038 A 
HETATM   31 CL2  UNL     1       8.446  -0.530   1.983  1.00  0.00    -0.084 Cl
HETATM   32  C7  UNL     1       6.489   0.482   0.319  1.00  0.00     0.061 A 
HETATM   33  C8  UNL     1       5.289   0.434  -0.351  1.00  0.00     0.089 A 
BRANCH  33  34
HETATM   34  O2  UNL     1       4.853   1.499  -1.163  1.00  0.00    -0.289 OA
BRANCH  34  35
HETATM   35  C9  UNL     1       5.511   2.688  -1.406  1.00  0.00     0.505 C 
HETATM   36  F1  UNL     1       4.760   3.802  -0.989  1.00  0.00    -0.184 F 
HETATM   37  F2  UNL     1       5.679   2.905  -2.787  1.00  0.00    -0.184 F 
ENDBRANCH  34  35
ENDBRANCH  33  34
ENDBRANCH   3  26
BRANCH   4  38
HETATM   38  C11 UNL     1       4.467  -1.838  -2.853  1.00  0.00     0.223 C 
BRANCH  38  39
HETATM   39  O3  UNL     1       4.143  -2.339  -4.118  1.00  0.00    -0.395 OA
ATOM     40  H3  UNL     1       4.918  -2.656  -4.566  1.00  0.00     0.209 HD
ENDBRANCH  38  39
ENDBRANCH   4  38
TORSDOF 9
