REMARK  8 active torsions:
REMARK  status: ('A' for Active; 'I' for Inactive)
REMARK    1  A    between atoms: N1_1  and  C1_5 
REMARK    2  A    between atoms: C4_8  and  N2_9 
REMARK    3  A    between atoms: N2_9  and  S1_11 
REMARK    4  A    between atoms: S1_11  and  C5_14 
REMARK    5  A    between atoms: C9_21  and  N3_22 
REMARK    6  A    between atoms: C12_27  and  N5_28 
REMARK    7  A    between atoms: N5_28  and  C13_30 
REMARK    8  A    between atoms: C13_30  and  C14_31 
ROOT
HETATM    1  C1  UNL     1       1.175  -3.167  -0.915  1.00  0.00     0.208 C 
HETATM    2  C2  UNL     1       2.000  -4.034   0.020  1.00  0.00     0.037 C 
HETATM    3  C3  UNL     1       2.181  -3.267   1.308  1.00  0.00     0.030 C 
HETATM    4  C4  UNL     1       1.638  -1.855   0.922  1.00  0.00     0.118 C 
HETATM    5  C9  UNL     1       0.474  -2.253   0.113  1.00  0.00     0.146 C 
ENDROOT
BRANCH   5   6
HETATM    6  N3  UNL     1      -0.311  -1.251  -0.515  1.00  0.00    -0.318 N 
HETATM    7  C10 UNL     1      -0.322  -0.959  -1.824  1.00  0.00     0.185 A 
HETATM    8  N4  UNL     1      -1.194   0.041  -2.033  1.00  0.00    -0.346 N 
HETATM    9  C11 UNL     1      -1.737   0.387  -0.869  1.00  0.00     0.122 A 
ATOM     10  H4  UNL     1      -1.405   0.465  -2.936  1.00  0.00     0.167 HD
HETATM   11  C12 UNL     1      -2.667   1.325  -0.490  1.00  0.00     0.133 A 
HETATM   12  C16 UNL     1      -1.185  -0.420   0.081  1.00  0.00     0.141 A 
HETATM   13  N6  UNL     1      -3.032   1.450   0.800  1.00  0.00    -0.337 N 
HETATM   14  C15 UNL     1      -2.479   0.648   1.723  1.00  0.00     0.183 A 
ATOM     15  H6  UNL     1      -3.723   2.149   1.073  1.00  0.00     0.168 HD
HETATM   16  N7  UNL     1      -1.582  -0.260   1.371  1.00  0.00    -0.336 N 
ATOM     17  H7  UNL     1      -1.176  -0.858   2.091  1.00  0.00     0.168 HD
BRANCH  11  18
HETATM   18  N5  UNL     1      -3.211   2.112  -1.387  1.00  0.00    -0.369 N 
ATOM     19  H5  UNL     1      -2.946   2.030  -2.369  1.00  0.00     0.161 HD
BRANCH  18  20
HETATM   20  C13 UNL     1      -4.181   3.089  -0.981  1.00  0.00     0.192 C 
BRANCH  20  21
HETATM   21  C14 UNL     1      -4.553   3.936  -2.187  1.00  0.00     0.370 C 
HETATM   22  F1  UNL     1      -5.090   3.153  -3.190  1.00  0.00    -0.213 F 
HETATM   23  F2  UNL     1      -3.433   4.558  -2.687  1.00  0.00    -0.213 F 
ENDBRANCH  20  21
ENDBRANCH  18  20
ENDBRANCH  11  18
ENDBRANCH   5   6
BRANCH   1  24
HETATM   24  N1  UNL     1       0.228  -3.914  -1.684  1.00  0.00    -0.073 N 
ATOM     25  H13 UNL     1       0.689  -4.666  -2.197  1.00  0.00     0.274 HD
ATOM     26  H12 UNL     1      -0.375  -4.470  -1.078  1.00  0.00     0.274 HD
ATOM     27  H11 UNL     1      -0.326  -3.332  -2.312  1.00  0.00     0.274 HD
ENDBRANCH   1  24
BRANCH   4  28
HETATM   28  N2  UNL     1       1.489  -1.049   2.045  1.00  0.00    -0.308 N 
ATOM     29  H2  UNL     1       0.676  -1.205   2.641  1.00  0.00     0.172 HD
BRANCH  28  30
HETATM   30  S1  UNL     1       2.544   0.143   2.473  1.00  0.00     0.265 S 
HETATM   31  O1  UNL     1       3.933  -0.333   2.847  1.00  0.00    -0.200 OA
HETATM   32  O2  UNL     1       2.034   0.797   3.770  1.00  0.00    -0.200 OA
BRANCH  30  33
HETATM   33  C5  UNL     1       2.784   1.472   1.376  1.00  0.00     0.123 A 
HETATM   34  C6  UNL     1       2.276   1.747   0.146  1.00  0.00     0.059 A 
HETATM   35  C7  UNL     1       2.667   2.875  -0.464  1.00  0.00     0.064 A 
HETATM   36 CL1  UNL     1       2.081   3.362  -2.079  1.00  0.00    -0.082 Cl
HETATM   37  C8  UNL     1       3.555   3.677   0.195  1.00  0.00     0.097 A 
HETATM   38 CL2  UNL     1       4.247   5.217  -0.353  1.00  0.00    -0.074 Cl
HETATM   39  S2  UNL     1       3.821   2.830   1.653  1.00  0.00    -0.063 SA
ENDBRANCH  30  33
ENDBRANCH  28  30
ENDBRANCH   4  28
TORSDOF 8
