REMARK  7 active torsions:
REMARK  status: ('A' for Active; 'I' for Inactive)
REMARK    1  A    between atoms: C2_3  and  N2_4 
REMARK    2  A    between atoms: C2_3  and  C6_20 
REMARK    3  A    between atoms: N2_4  and  C3_6 
REMARK    4  A    between atoms: C5_11  and  N4_12 
REMARK    5  A    between atoms: N4_12  and  O2_14 
REMARK    6  A    between atoms: C8_22  and  N7_23 
REMARK    7  A    between atoms: N7_23  and  C9_25 
ROOT
HETATM    1  N1  UNL     1      -2.186  -2.634   2.604  1.00  0.00    -0.195 NA
HETATM    2  C1  UNL     1      -1.789  -1.679   2.083  1.00  0.00     0.092 C 
HETATM    3  C2  UNL     1      -1.300  -0.456   1.420  1.00  0.00     0.264 C 
ENDROOT
BRANCH   3   4
HETATM    4  N2  UNL     1      -1.976  -0.349   0.153  1.00  0.00    -0.202 N 
ATOM      5  H2  UNL     1      -1.419  -0.422  -0.698  1.00  0.00     0.179 HD
BRANCH   4   6
HETATM    6  C3  UNL     1      -3.369  -0.148   0.024  1.00  0.00     0.697 A 
HETATM    7  N3  UNL     1      -3.890  -0.071  -1.228  1.00  0.00    -0.152 N 
HETATM    8  C4  UNL     1      -5.202   0.127  -1.419  1.00  0.00     0.306 A 
ATOM      9  H3  UNL     1      -3.274  -0.165  -2.035  1.00  0.00     0.188 HD
HETATM   10  O1  UNL     1      -5.723   0.204  -2.568  1.00  0.00    -0.263 OA
HETATM   11  C5  UNL     1      -6.059   0.257  -0.346  1.00  0.00     0.210 A 
HETATM   12  N5  UNL     1      -5.533   0.179   0.881  1.00  0.00    -0.265 N 
HETATM   13  N6  UNL     1      -4.225  -0.018   1.038  1.00  0.00    -0.130 N 
ATOM     14  H5  UNL     1      -6.135   0.271   1.699  1.00  0.00     0.189 HD
ATOM     15  H6  UNL     1      -3.857  -0.072   1.988  1.00  0.00     0.205 HD
BRANCH  11  16
HETATM   16  N4  UNL     1      -7.322   0.447  -0.461  1.00  0.00    -0.247 N 
ATOM     17  H4  UNL     1      -7.906   0.536   0.370  1.00  0.00     0.196 HD
BRANCH  16  18
HETATM   18  O2  UNL     1      -7.889   0.531  -1.729  1.00  0.00    -0.288 OA
ATOM     19  H2  UNL     1      -8.825   0.672  -1.814  1.00  0.00     0.244 HD
ENDBRANCH  16  18
ENDBRANCH  11  16
ENDBRANCH   4   6
ENDBRANCH   3   4
BRANCH   3  20
HETATM   20  C6  UNL     1       0.176  -0.520   1.263  1.00  0.00     0.099 A 
HETATM   21  C7  UNL     1       0.871   0.302   0.430  1.00  0.00     0.085 A 
HETATM   22  C8  UNL     1       2.243   0.181   0.340  1.00  0.00     0.114 A 
HETATM   23  N10 UNL     1       2.831  -0.762   1.095  1.00  0.00    -0.288 N 
HETATM   24  C12 UNL     1       2.130  -1.552   1.901  1.00  0.00     0.371 A 
ATOM     25  H10 UNL     1       3.844  -0.875   1.048  1.00  0.00     0.172 HD
HETATM   26  O3  UNL     1       2.640  -2.447   2.625  1.00  0.00    -0.238 OA
HETATM   27  O4  UNL     1       0.831  -1.412   1.964  1.00  0.00    -0.262 OA
BRANCH  22  28
HETATM   28  N7  UNL     1       3.009   1.030  -0.528  1.00  0.00    -0.314 N 
ATOM     29  H7  UNL     1       2.532   1.736  -1.089  1.00  0.00     0.170 HD
BRANCH  28  30
HETATM   30  C9  UNL     1       4.419   0.902  -0.618  1.00  0.00     0.176 C 
HETATM   31  N8  UNL     1       5.256   1.894  -0.706  1.00  0.00    -0.361 N 
HETATM   32  C10 UNL     1       6.622   1.415  -0.781  1.00  0.00     0.142 C 
ATOM     33  H8  UNL     1       4.987   2.878  -0.720  1.00  0.00     0.162 HD
HETATM   34  C11 UNL     1       6.498   0.010  -0.262  1.00  0.00     0.142 C 
HETATM   35  N9  UNL     1       5.135  -0.327  -0.625  1.00  0.00    -0.361 N 
ATOM     36  H9  UNL     1       4.766  -1.253  -0.841  1.00  0.00     0.162 HD
ENDBRANCH  28  30
ENDBRANCH  22  28
ENDBRANCH   3  20
TORSDOF 7
