REMARK  10 active torsions:
REMARK  status: ('A' for Active; 'I' for Inactive)
REMARK    1  A    between atoms: N1_1  and  C1_4 
REMARK    2  A    between atoms: C1_4  and  S1_6 
REMARK    3  A    between atoms: S1_6  and  N3_9 
REMARK    4  A    between atoms: N3_9  and  N4_10 
REMARK    5  A    between atoms: N3_9  and  C5_22 
REMARK    6  A    between atoms: N4_10  and  N5_12 
REMARK    7  A    between atoms: N5_12  and  C2_14 
REMARK    8  A    between atoms: C3_17  and  O3_18 
REMARK    9  A    between atoms: C5_22  and  O4_23 
REMARK   10  A    between atoms: C5_22  and  N7_25 
ROOT
HETATM    1  N3  UNL     1       0.525  -0.872  -0.322  1.00  0.00    -0.149 N 
ENDROOT
BRANCH   1   2
HETATM    2  S1  UNL     1       0.490  -2.539   0.015  1.00  0.00     0.312 S 
HETATM    3  O1  UNL     1       1.845  -3.060   0.447  1.00  0.00    -0.196 OA
HETATM    4  O2  UNL     1       0.125  -3.354  -1.218  1.00  0.00    -0.196 OA
BRANCH   2   5
HETATM    5  C1  UNL     1      -0.651  -2.953   1.275  1.00  0.00     0.228 C 
HETATM    6  N2  UNL     1      -1.967  -3.273   0.884  1.00  0.00    -0.068 NA
BRANCH   5   7
HETATM    7  N1  UNL     1      -0.337  -2.973   2.516  1.00  0.00    -0.377 N 
ATOM      8  H12 UNL     1      -1.002  -3.214   3.251  1.00  0.00     0.158 HD
ATOM      9  H11 UNL     1       0.615  -2.741   2.799  1.00  0.00     0.158 HD
ENDBRANCH   5   7
ENDBRANCH   2   5
ENDBRANCH   1   2
BRANCH   1  10
HETATM   10  N4  UNL     1       1.705  -0.155  -0.128  1.00  0.00    -0.225 N 
ATOM     11  H4  UNL     1       1.730   0.690   0.442  1.00  0.00     0.209 HD
BRANCH  10  12
HETATM   12  N5  UNL     1       2.756  -0.610  -0.701  1.00  0.00    -0.264 N 
ATOM     13  H5  UNL     1       2.722  -1.456  -1.270  1.00  0.00     0.190 HD
BRANCH  12  14
HETATM   14  C2  UNL     1       3.993   0.116  -0.515  1.00  0.00     0.166 A 
HETATM   15  N6  UNL     1       4.153   1.428  -0.596  1.00  0.00    -0.316 N 
HETATM   16  C3  UNL     1       5.321   1.950  -0.407  1.00  0.00     0.148 A 
ATOM     17  H6  UNL     1       3.355   2.027  -0.807  1.00  0.00     0.170 HD
HETATM   18  C4  UNL     1       6.361   1.099  -0.125  1.00  0.00     0.109 A 
HETATM   19  S2  UNL     1       5.572  -0.420  -0.152  1.00  0.00    -0.060 SA
BRANCH  16  20
HETATM   20  O3  UNL     1       5.540   3.351  -0.483  1.00  0.00    -0.346 OA
ATOM     21  H3  UNL     1       6.398   3.734  -0.344  1.00  0.00     0.219 HD
ENDBRANCH  16  20
ENDBRANCH  12  14
ENDBRANCH  10  12
ENDBRANCH   1  10
BRANCH   1  22
HETATM   22  C5  UNL     1      -0.654  -0.206  -0.805  1.00  0.00     0.365 C 
BRANCH  22  23
HETATM   23  O4  UNL     1      -1.050  -0.695  -2.068  1.00  0.00    -0.358 OA
ATOM     24  H4  UNL     1      -1.829  -0.255  -2.387  1.00  0.00     0.214 HD
ENDBRANCH  22  23
BRANCH  22  25
HETATM   25  N7  UNL     1      -1.758  -0.239   0.130  1.00  0.00    -0.316 N 
HETATM   26  C6  UNL     1      -2.718   0.598  -0.019  1.00  0.00     0.191 C 
HETATM   27  N8  UNL     1      -2.825   1.598  -1.044  1.00  0.00    -0.346 N 
HETATM   28  N10 UNL     1      -3.894   0.749   0.771  1.00  0.00    -0.274 N 
HETATM   29  C7  UNL     1      -3.978   2.420  -0.760  1.00  0.00     0.259 C 
ATOM     30  H8  UNL     1      -2.194   1.709  -1.838  1.00  0.00     0.163 HD
HETATM   31  N9  UNL     1      -4.697   1.789   0.303  1.00  0.00    -0.119 NA
ATOM     32  H10 UNL     1      -4.121   0.169   1.579  1.00  0.00     0.185 HD
ATOM     33  H7  UNL     1      -1.772  -0.915   0.893  1.00  0.00     0.167 HD
ENDBRANCH  22  25
ENDBRANCH   1  22
TORSDOF 10
