REMARK  8 active torsions:
REMARK  status: ('A' for Active; 'I' for Inactive)
REMARK    1  A    between atoms: O1_2  and  C2_3 
REMARK    2  A    between atoms: C2_3  and  C3_5 
REMARK    3  A    between atoms: C3_5  and  O3_6 
REMARK    4  A    between atoms: C3_5  and  C5_8 
REMARK    5  A    between atoms: C5_8  and  N2_12 
REMARK    6  A    between atoms: N2_12  and  N3_14 
REMARK    7  A    between atoms: N3_14  and  C6_16 
REMARK    8  A    between atoms: C7_19  and  N5_20 
ROOT
HETATM    1  C6  UNL     1       0.407   0.806   0.142  1.00  0.00     0.696 A 
HETATM    2  N4  UNL     1       1.009   0.438  -0.909  1.00  0.00    -0.198 N 
ATOM      3  H4  UNL     1       0.592  -0.351  -1.403  1.00  0.00     0.180 HD
HETATM    4  C7  UNL     1       2.190   0.976  -1.495  1.00  0.00     0.258 A 
HETATM    5  C11 UNL     1       2.753   2.088  -0.720  1.00  0.00     0.123 A 
HETATM    6  N8  UNL     1       3.850   2.879  -0.882  1.00  0.00    -0.238 N 
ATOM      7  H8  UNL     1       4.526   2.814  -1.643  1.00  0.00     0.196 HD
HETATM    8  O4  UNL     1       3.887   3.726   0.093  1.00  0.00    -0.155 OA
HETATM    9  N9  UNL     1       2.890   3.559   0.899  1.00  0.00    -0.223 N 
ATOM     10  H9  UNL     1       2.697   4.101   1.741  1.00  0.00     0.198 HD
HETATM   11  C12 UNL     1       2.150   2.532   0.419  1.00  0.00     0.171 A 
HETATM   12  N10 UNL     1       0.959   1.897   0.875  1.00  0.00    -0.172 N 
ATOM     13  H10 UNL     1       0.501   2.223   1.726  1.00  0.00     0.186 HD
ENDROOT
BRANCH   1  14
HETATM   14  N3  UNL     1      -0.777   0.180   0.626  1.00  0.00    -0.131 N 
ATOM     15  H3  UNL     1      -0.799  -0.217   1.566  1.00  0.00     0.205 HD
BRANCH  14  16
HETATM   16  N2  UNL     1      -1.892   0.112  -0.179  1.00  0.00    -0.272 N 
ATOM     17  H2  UNL     1      -2.120   0.933  -0.739  1.00  0.00     0.189 HD
BRANCH  16  18
HETATM   18  C5  UNL     1      -2.742  -1.006  -0.287  1.00  0.00     0.129 C 
HETATM   19  N1  UNL     1      -2.457  -1.938  -1.108  1.00  0.00    -0.385 N 
ATOM     20  H12 UNL     1      -3.073  -2.748  -1.186  1.00  0.00     0.157 HD
ATOM     21  H11 UNL     1      -1.617  -1.875  -1.684  1.00  0.00     0.157 HD
BRANCH  18  22
HETATM   22  C3  UNL     1      -3.951  -1.097   0.542  1.00  0.00     0.288 C 
BRANCH  22  23
HETATM   23  C2  UNL     1      -4.801   0.098   0.195  1.00  0.00     0.295 C 
HETATM   24  O2  UNL     1      -5.976  -0.011  -0.216  1.00  0.00    -0.262 OA
BRANCH  23  25
HETATM   25  O1  UNL     1      -4.284   1.379   0.328  1.00  0.00    -0.324 OA
HETATM   26  C1  UNL     1      -5.075   2.491   0.005  1.00  0.00     0.213 C 
ENDBRANCH  23  25
ENDBRANCH  22  23
BRANCH  22  27
HETATM   27  O3  UNL     1      -4.713  -2.208   0.316  1.00  0.00    -0.373 OA
HETATM   28  C4  UNL     1      -4.970  -2.956   1.459  1.00  0.00     0.203 C 
ENDBRANCH  22  27
ENDBRANCH  18  22
ENDBRANCH  16  18
ENDBRANCH  14  16
ENDBRANCH   1  14
BRANCH   4  29
HETATM   29  N5  UNL     1       3.133  -0.045  -1.814  1.00  0.00    -0.335 N 
HETATM   30  C8  UNL     1       3.867  -0.736  -1.041  1.00  0.00     0.173 C 
HETATM   31  N6  UNL     1       4.804  -1.754  -1.396  1.00  0.00    -0.361 N 
HETATM   32  N7  UNL     1       3.913  -0.640   0.371  1.00  0.00    -0.361 N 
HETATM   33  C9  UNL     1       5.797  -1.783  -0.348  1.00  0.00     0.142 C 
ATOM     34  H6  UNL     1       4.777  -2.345  -2.227  1.00  0.00     0.162 HD
HETATM   35  C10 UNL     1       5.249  -1.020   0.812  1.00  0.00     0.142 C 
ATOM     36  H7  UNL     1       3.143  -0.354   0.976  1.00  0.00     0.162 HD
ATOM     37  H5  UNL     1       3.233  -0.251  -2.808  1.00  0.00     0.165 HD
ENDBRANCH   4  29
TORSDOF 8
