REMARK  7 active torsions:
REMARK  status: ('A' for Active; 'I' for Inactive)
REMARK    1  A    between atoms: N1_1  and  C1_4 
REMARK    2  A    between atoms: C2_7  and  S1_8 
REMARK    3  A    between atoms: S1_8  and  S2_9 
REMARK    4  A    between atoms: S2_9  and  N3_10 
REMARK    5  A    between atoms: N3_10  and  N4_12 
REMARK    6  A    between atoms: N6_17  and  O2_18 
REMARK    7  A    between atoms: C6_29  and  O4_30 
ROOT
HETATM    1  C1  UNL     1      -3.740  -1.090  -0.164  1.00  0.00     0.119 A 
HETATM    2  N2  UNL     1      -2.508  -1.589  -0.351  1.00  0.00    -0.322 N 
ATOM      3  H2  UNL     1      -2.368  -2.595  -0.253  1.00  0.00     0.169 HD
HETATM    4  C2  UNL     1      -1.442  -0.813  -0.665  1.00  0.00     0.160 A 
HETATM    5  N7  UNL     1      -1.675   0.506  -0.783  1.00  0.00    -0.320 N 
ATOM      6  H7  UNL     1      -0.895   1.120  -1.018  1.00  0.00     0.169 HD
HETATM    7  C5  UNL     1      -2.886   1.048  -0.605  1.00  0.00     0.140 A 
HETATM    8  N8  UNL     1      -3.343   2.299  -0.670  1.00  0.00    -0.283 N 
ATOM      9  H8  UNL     1      -2.788   3.127  -0.886  1.00  0.00     0.188 HD
HETATM   10  N9  UNL     1      -4.658   2.283  -0.402  1.00  0.00    -0.278 N 
ATOM     11  H9  UNL     1      -5.258   3.108  -0.384  1.00  0.00     0.189 HD
HETATM   12  C6  UNL     1      -5.072   1.030  -0.161  1.00  0.00     0.172 A 
HETATM   13  C7  UNL     1      -3.954   0.249  -0.288  1.00  0.00     0.105 A 
ENDROOT
BRANCH   4  14
HETATM   14  S1  UNL     1       0.161  -1.570  -0.907  1.00  0.00     0.003 SA
BRANCH  14  15
HETATM   15  S2  UNL     1       1.165  -1.568   0.968  1.00  0.00     0.045 SA
BRANCH  15  16
HETATM   16  N3  UNL     1       2.079  -0.060   1.058  1.00  0.00    -0.238 N 
ATOM     17  H3  UNL     1       1.639   0.825   1.312  1.00  0.00     0.198 HD
BRANCH  16  18
HETATM   18  N4  UNL     1       3.463  -0.154   0.756  1.00  0.00    -0.129 N 
HETATM   19  N5  UNL     1       4.454  -0.311   1.603  1.00  0.00    -0.223 N 
HETATM   20  C3  UNL     1       5.618  -0.362   0.952  1.00  0.00     0.371 A 
ATOM     21  H5  UNL     1       4.349  -0.384   2.615  1.00  0.00     0.194 HD
HETATM   22  O1  UNL     1       6.786  -0.503   1.395  1.00  0.00    -0.243 OA
HETATM   23  N6  UNL     1       5.323  -0.230  -0.358  1.00  0.00    -0.115 N 
HETATM   24  C4  UNL     1       3.992  -0.101  -0.475  1.00  0.00     0.392 A 
HETATM   25  O3  UNL     1       3.357   0.043  -1.549  1.00  0.00    -0.240 OA
BRANCH  23  26
HETATM   26  O2  UNL     1       6.230  -0.228  -1.386  1.00  0.00    -0.275 OA
ATOM     27  H2  UNL     1       6.022  -0.135  -2.308  1.00  0.00     0.245 HD
ENDBRANCH  23  26
ENDBRANCH  16  18
ENDBRANCH  15  16
ENDBRANCH  14  15
ENDBRANCH   4  14
BRANCH   1  28
HETATM   28  N1  UNL     1      -4.743  -1.848   0.134  1.00  0.00    -0.385 N 
ATOM     29  H12 UNL     1      -4.583  -2.851   0.227  1.00  0.00     0.157 HD
ATOM     30  H11 UNL     1      -5.679  -1.469   0.276  1.00  0.00     0.157 HD
ENDBRANCH   1  28
BRANCH  12  31
HETATM   31  O4  UNL     1      -6.375   0.677   0.147  1.00  0.00    -0.344 OA
ATOM     32  H4  UNL     1      -6.668  -0.210   0.318  1.00  0.00     0.219 HD
ENDBRANCH  12  31
TORSDOF 7
