REMARK  10 active torsions:
REMARK  status: ('A' for Active; 'I' for Inactive)
REMARK    1  A    between atoms: C2_2  and  C4_4 
REMARK    2  A    between atoms: C6_6  and  N2_9 
REMARK       I    between atoms: N2_9  and  C8_11 
REMARK    3  A    between atoms: C8_11  and  C9_13 
REMARK    4  A    between atoms: C9_13  and  N3_14 
REMARK    5  A    between atoms: C9_13  and  C22_36 
REMARK       I    between atoms: N3_14  and  C10_16 
REMARK       I    between atoms: C10_16  and  N4_18 
REMARK    6  A    between atoms: N4_18  and  C11_20 
REMARK    7  A    between atoms: C11_20  and  C14_23 
REMARK    8  A    between atoms: C14_23  and  C15_24 
REMARK    9  A    between atoms: C14_23  and  C16_27 
REMARK   10  A    between atoms: C14_23  and  C21_32 
ROOT
HETATM    1  C4  UNL     1       5.438   0.784   0.142  1.00  0.00     0.035 A 
HETATM    2  C5  UNL     1       4.583   1.782   0.964  1.00  0.00     0.055 A 
HETATM    3  C6  UNL     1       4.781   0.332   1.346  1.00  0.00     0.126 A 
HETATM    4  C7  UNL     1       5.590   0.081   2.568  1.00  0.00     0.091 C 
HETATM    5  N1  UNL     1       6.202  -0.128   3.533  1.00  0.00    -0.195 NA
ENDROOT
BRANCH   3   6
HETATM    6  N2  UNL     1       3.703  -0.604   1.202  1.00  0.00    -0.337 N 
HETATM    7  C8  UNL     1       2.545  -0.412   0.445  1.00  0.00     0.242 C 
HETATM    8  O1  UNL     1       2.255   0.600  -0.234  1.00  0.00    -0.271 OA
ATOM      9  H2  UNL     1       3.790  -1.491   1.698  1.00  0.00     0.164 HD
BRANCH   7  10
HETATM   10  C9  UNL     1       1.509  -1.524   0.423  1.00  0.00     0.182 C 
BRANCH  10  11
HETATM   11  N3  UNL     1       0.378  -1.179  -0.396  1.00  0.00    -0.329 N 
HETATM   12  C10 UNL     1      -0.965  -1.187   0.143  1.00  0.00     0.317 C 
HETATM   13  O2  UNL     1      -1.054  -1.511   1.346  1.00  0.00    -0.247 OA
HETATM   14  N4  UNL     1      -2.027  -0.849  -0.675  1.00  0.00    -0.333 N 
ATOM     15  H4  UNL     1      -1.759  -0.658  -1.640  1.00  0.00     0.165 HD
ATOM     16  H3  UNL     1       0.525  -0.925  -1.373  1.00  0.00     0.165 HD
BRANCH  14  17
HETATM   17  C11 UNL     1      -3.440  -0.714  -0.427  1.00  0.00     0.053 C 
HETATM   18  C12 UNL     1      -4.037  -0.939  -1.864  1.00  0.00     0.039 C 
HETATM   19  C13 UNL     1      -3.874  -1.901   0.343  1.00  0.00     0.039 C 
BRANCH  17  20
HETATM   20  C14 UNL     1      -3.907   0.636   0.043  1.00  0.00     0.177 C 
BRANCH  20  21
HETATM   21  C15 UNL     1      -3.493   1.624  -1.071  1.00  0.00     0.319 C 
HETATM   22  O3  UNL     1      -2.539   2.358  -0.977  1.00  0.00    -0.259 OA
HETATM   23  F1  UNL     1      -4.179   1.725  -2.225  1.00  0.00    -0.163 F 
ENDBRANCH  20  21
BRANCH  20  24
HETATM   24  C16 UNL     1      -5.395   0.707  -0.012  1.00  0.00     0.016 C 
HETATM   25  C17 UNL     1      -6.013   2.017   0.455  1.00  0.00     0.006 C 
HETATM   26  C18 UNL     1      -7.474   1.678   0.169  1.00  0.00     0.000 C 
HETATM   27  C19 UNL     1      -7.635   0.373   0.285  1.00  0.00     0.000 C 
HETATM   28  C20 UNL     1      -6.275  -0.239   0.657  1.00  0.00     0.006 C 
ENDBRANCH  20  24
BRANCH  20  29
HETATM   29  C21 UNL     1      -3.295   1.206   1.250  1.00  0.00     0.407 C 
HETATM   30  F2  UNL     1      -3.403   0.554   2.421  1.00  0.00    -0.170 F 
HETATM   31  F3  UNL     1      -3.777   2.547   1.399  1.00  0.00    -0.170 F 
HETATM   32  F4  UNL     1      -1.931   1.508   1.052  1.00  0.00    -0.170 F 
ENDBRANCH  20  29
ENDBRANCH  17  20
ENDBRANCH  14  17
ENDBRANCH  10  11
BRANCH  10  33
HETATM   33  C22 UNL     1       2.233  -2.759  -0.108  1.00  0.00     0.018 A 
HETATM   34  C23 UNL     1       2.806  -2.615  -1.475  1.00  0.00     0.007 A 
HETATM   35  C24 UNL     1       1.636  -3.574  -1.178  1.00  0.00     0.007 A 
ENDBRANCH  10  33
ENDBRANCH   7  10
ENDBRANCH   3   6
BRANCH   1  36
HETATM   36  C2  UNL     1       6.814   1.220  -0.108  1.00  0.00    -0.015 C 
HETATM   37  C1  UNL     1       6.729   2.540  -0.896  1.00  0.00     0.010 C 
HETATM   38  C3  UNL     1       7.712   1.482   1.034  1.00  0.00     0.010 C 
ENDBRANCH   1  36
TORSDOF 10
