REMARK  10 active torsions:
REMARK  status: ('A' for Active; 'I' for Inactive)
REMARK    1  A    between atoms: C5_5  and  C6_6 
REMARK    2  A    between atoms: C6_6  and  N1_7 
REMARK       I    between atoms: N1_7  and  C7_9 
REMARK    3  A    between atoms: C7_9  and  C8_11 
REMARK    4  A    between atoms: C8_11  and  C9_12 
REMARK    5  A    between atoms: C8_11  and  N2_15 
REMARK    6  A    between atoms: C9_12  and  O2_13 
REMARK       I    between atoms: N2_15  and  C10_17 
REMARK       I    between atoms: C10_17  and  N4_21 
REMARK    7  A    between atoms: N4_21  and  C11_22 
REMARK    8  A    between atoms: N4_21  and  C14_28 
REMARK    9  A    between atoms: C11_22  and  C12_23 
REMARK   10  A    between atoms: C12_23  and  C13_24 
ROOT
HETATM    1  C8  UNL     1       0.426  -0.081  -0.863  1.00  0.00     0.215 C 
ENDROOT
BRANCH   1   2
HETATM    2  C7  UNL     1      -0.444  -0.800   0.129  1.00  0.00     0.243 C 
HETATM    3  N1  UNL     1      -1.853  -0.661   0.116  1.00  0.00    -0.359 N 
ATOM      4  H1  UNL     1      -2.307  -0.065  -0.576  1.00  0.00     0.162 HD
HETATM    5  O1  UNL     1       0.130  -1.530   0.968  1.00  0.00    -0.271 OA
BRANCH   3   6
HETATM    6  C6  UNL     1      -2.631  -1.366   1.085  1.00  0.00     0.127 C 
BRANCH   6   7
HETATM    7  C5  UNL     1      -4.109  -1.124   0.962  1.00  0.00     0.008 C 
HETATM    8  C4  UNL     1      -4.464   0.343   1.130  1.00  0.00     0.036 C 
HETATM    9  C2  UNL     1      -5.952   0.366   1.445  1.00  0.00     0.019 C 
HETATM   10  C1  UNL     1      -6.475   1.793   1.464  1.00  0.00     0.037 C 
HETATM   11  C3  UNL     1      -6.069  -0.123   2.892  1.00  0.00     0.037 C 
HETATM   12  N5  UNL     1      -6.714  -0.512   0.638  1.00  0.00    -0.405 N 
HETATM   13  C21 UNL     1      -6.081  -1.045  -0.513  1.00  0.00     0.019 C 
ATOM     14  H5  UNL     1      -7.677  -0.751   0.874  1.00  0.00     0.154 HD
HETATM   15  C20 UNL     1      -4.706  -1.582  -0.321  1.00  0.00     0.036 C 
HETATM   16  C22 UNL     1      -6.946  -2.223  -0.995  1.00  0.00     0.037 C 
HETATM   17  C23 UNL     1      -6.147  -0.012  -1.637  1.00  0.00     0.037 C 
ENDBRANCH   6   7
ENDBRANCH   3   6
ENDBRANCH   1   2
BRANCH   1  18
HETATM   18  C9  UNL     1       0.105   1.372  -0.752  1.00  0.00     0.199 C 
BRANCH  18  19
HETATM   19  O2  UNL     1       0.757   2.191  -1.653  1.00  0.00    -0.398 OA
ATOM     20  H2  UNL     1       0.553   3.116  -1.582  1.00  0.00     0.209 HD
ENDBRANCH  18  19
ENDBRANCH   1  18
BRANCH   1  21
HETATM   21  N2  UNL     1       1.803  -0.358  -0.652  1.00  0.00    -0.209 N 
HETATM   22  C10 UNL     1       2.894   0.151  -1.423  1.00  0.00     0.701 C 
HETATM   23  N3  UNL     1       2.770   0.235  -2.686  1.00  0.00    -0.054 N 
HETATM   24  N4  UNL     1       4.047   0.519  -0.687  1.00  0.00    -0.211 N 
HETATM   25  F1  UNL     1       3.629   0.667  -3.588  1.00  0.00    -0.086 F 
ATOM     26  H3  UNL     1       1.873  -0.078  -3.056  1.00  0.00     0.218 HD
ATOM     27  H2  UNL     1       2.036  -0.979   0.123  1.00  0.00     0.178 HD
BRANCH  24  28
HETATM   28  C11 UNL     1       4.307   1.893  -0.407  1.00  0.00     0.150 C 
BRANCH  28  29
HETATM   29  C12 UNL     1       5.481   2.495  -1.114  1.00  0.00     0.137 C 
BRANCH  29  30
HETATM   30  C13 UNL     1       5.554   3.956  -0.640  1.00  0.00     0.389 C 
HETATM   31  F2  UNL     1       6.627   4.593  -1.258  1.00  0.00    -0.171 F 
HETATM   32  F3  UNL     1       4.383   4.621  -0.836  1.00  0.00    -0.171 F 
HETATM   33  F4  UNL     1       5.865   3.906   0.715  1.00  0.00    -0.171 F 
ENDBRANCH  29  30
ENDBRANCH  28  29
ENDBRANCH  24  28
BRANCH  24  34
HETATM   34  C14 UNL     1       4.936  -0.513  -0.248  1.00  0.00     0.102 C 
HETATM   35  C15 UNL     1       5.656  -1.189  -1.391  1.00  0.00     0.026 C 
HETATM   36  C16 UNL     1       6.429  -2.404  -0.994  1.00  0.00     0.002 C 
HETATM   37  C17 UNL     1       6.883  -2.347   0.453  1.00  0.00     0.000 C 
HETATM   38  C18 UNL     1       7.209  -0.897   0.755  1.00  0.00     0.002 C 
HETATM   39  C19 UNL     1       5.865  -0.181   0.849  1.00  0.00     0.026 C 
ENDBRANCH  24  34
ENDBRANCH   1  21
TORSDOF 10
