REMARK  10 active torsions:
REMARK  status: ('A' for Active; 'I' for Inactive)
REMARK    1  A    between atoms: C2_2  and  O1_3 
REMARK    2  A    between atoms: O1_3  and  C3_4 
REMARK       I    between atoms: C3_4  and  N1_6 
REMARK       I    between atoms: N1_6  and  C4_8 
REMARK       I    between atoms: C4_8  and  N2_10 
REMARK    3  A    between atoms: C8_15  and  C9_16 
REMARK    4  A    between atoms: C9_16  and  C10_17 
REMARK    5  A    between atoms: C9_16  and  C18_30 
REMARK    6  A    between atoms: C10_17  and  C11_18 
REMARK    7  A    between atoms: C11_18  and  C12_19 
REMARK    8  A    between atoms: C12_19  and  N3_20 
REMARK       I    between atoms: N3_20  and  C13_22 
REMARK       I    between atoms: C13_22  and  N4_24 
REMARK    9  A    between atoms: N4_24  and  C14_26 
REMARK   10  A    between atoms: C19_33  and  C20_34 
ROOT
HETATM    1  C9  UNL     1       0.714  -0.323  -1.495  1.00  0.00     0.005 C 
ENDROOT
BRANCH   1   2
HETATM    2  C8  UNL     1       2.101  -0.199  -2.045  1.00  0.00     0.128 C 
HETATM    3  N2  UNL     1       3.204   0.256  -1.367  1.00  0.00    -0.322 N 
HETATM    4  C4  UNL     1       3.630   0.383  -0.039  1.00  0.00     0.327 C 
HETATM    5  C5  UNL     1       4.168   0.740  -2.411  1.00  0.00     0.165 C 
HETATM    6  N1  UNL     1       4.934   0.955   0.225  1.00  0.00    -0.254 N 
HETATM    7  O3  UNL     1       3.019   0.061   1.002  1.00  0.00    -0.247 OA
HETATM    8  C3  UNL     1       5.429   1.155   1.546  1.00  0.00     0.368 C 
ATOM      9  H1  UNL     1       5.520   1.225  -0.565  1.00  0.00     0.175 HD
HETATM   10  O2  UNL     1       4.722   0.768   2.507  1.00  0.00    -0.238 OA
HETATM   11  C6  UNL     1       3.503   0.728  -3.722  1.00  0.00     0.190 C 
HETATM   12  F1  UNL     1       3.725   1.841  -4.497  1.00  0.00    -0.248 F 
HETATM   13  C7  UNL     1       2.039   0.546  -3.388  1.00  0.00     0.069 C 
BRANCH   8  14
HETATM   14  O1  UNL     1       6.628   1.749   1.820  1.00  0.00    -0.304 OA
BRANCH  14  15
HETATM   15  C2  UNL     1       7.187   1.993   3.081  1.00  0.00     0.176 C 
HETATM   16  C1  UNL     1       7.454   0.789   3.914  1.00  0.00     0.034 C 
ENDBRANCH  14  15
ENDBRANCH   8  14
ENDBRANCH   1   2
BRANCH   1  17
HETATM   17  C10 UNL     1       0.150   0.905  -0.954  1.00  0.00    -0.012 C 
BRANCH  17  18
HETATM   18  C11 UNL     1      -1.213   0.980  -0.392  1.00  0.00     0.047 C 
BRANCH  18  19
HETATM   19  C12 UNL     1      -1.579   0.144   0.772  1.00  0.00     0.128 C 
BRANCH  19  20
HETATM   20  N3  UNL     1      -2.924   0.456   1.278  1.00  0.00    -0.343 N 
HETATM   21  C13 UNL     1      -4.109   0.338   0.563  1.00  0.00     0.316 C 
HETATM   22  O4  UNL     1      -4.093  -0.074  -0.643  1.00  0.00    -0.247 OA
HETATM   23  N4  UNL     1      -5.382   0.648   1.079  1.00  0.00    -0.335 N 
ATOM     24  H4  UNL     1      -5.406   0.969   2.047  1.00  0.00     0.165 HD
ATOM     25  H3  UNL     1      -2.993   0.789   2.240  1.00  0.00     0.164 HD
BRANCH  23  26
HETATM   26  C14 UNL     1      -6.637   0.568   0.417  1.00  0.00     0.023 C 
HETATM   27  C15 UNL     1      -7.045  -0.777  -0.079  1.00  0.00     0.037 C 
HETATM   28  C16 UNL     1      -7.756   1.098   1.306  1.00  0.00     0.037 C 
HETATM   29  C17 UNL     1      -6.602   1.532  -0.777  1.00  0.00     0.037 C 
ENDBRANCH  23  26
ENDBRANCH  19  20
ENDBRANCH  18  19
ENDBRANCH  17  18
ENDBRANCH   1  17
BRANCH   1  30
HETATM   30  C18 UNL     1       0.425  -1.650  -0.946  1.00  0.00     0.113 A 
HETATM   31  N5  UNL     1       0.812  -2.198   0.219  1.00  0.00    -0.337 N 
HETATM   32  C19 UNL     1       0.388  -3.440   0.394  1.00  0.00     0.133 A 
ATOM     33  H5  UNL     1       1.380  -1.702   0.906  1.00  0.00     0.167 HD
HETATM   34  C21 UNL     1      -0.333  -3.741  -0.735  1.00  0.00     0.124 A 
HETATM   35  N6  UNL     1      -0.305  -2.679  -1.520  1.00  0.00    -0.350 N 
ATOM     36  H6  UNL     1      -0.761  -2.623  -2.430  1.00  0.00     0.166 HD
BRANCH  32  37
HETATM   37  C20 UNL     1       0.614  -4.363   1.560  1.00  0.00     0.433 C 
HETATM   38  F2  UNL     1      -0.652  -4.720   1.997  1.00  0.00    -0.165 F 
HETATM   39  F3  UNL     1       1.205  -5.508   1.055  1.00  0.00    -0.165 F 
HETATM   40  F4  UNL     1       1.321  -3.757   2.549  1.00  0.00    -0.165 F 
ENDBRANCH  32  37
ENDBRANCH   1  30
TORSDOF 10
