REMARK  10 active torsions:
REMARK  status: ('A' for Active; 'I' for Inactive)
REMARK    1  A    between atoms: C5_5  and  C6_6 
REMARK       I    between atoms: C6_6  and  N1_8 
REMARK    2  A    between atoms: N1_8  and  C7_9 
REMARK    3  A    between atoms: C7_9  and  C8_10 
REMARK    4  A    between atoms: C11_14  and  C12_15 
REMARK    5  A    between atoms: C12_15  and  C13_16 
REMARK    6  A    between atoms: C13_16  and  C14_17 
REMARK    7  A    between atoms: C13_16  and  N2_19 
REMARK       I    between atoms: N2_19  and  C15_21 
REMARK       I    between atoms: C15_21  and  N3_23 
REMARK    8  A    between atoms: N3_23  and  C16_25 
REMARK    9  A    between atoms: C20_29  and  O4_30 
REMARK   10  A    between atoms: C22_33  and  C23_34 
ROOT
HETATM    1  C8  UNL     1      -2.565   1.023   1.003  1.00  0.00     0.148 C 
HETATM    2  F1  UNL     1      -2.765   2.384   1.114  1.00  0.00    -0.236 F 
HETATM    3  C9  UNL     1      -1.328   0.495   1.614  1.00  0.00     0.051 C 
HETATM    4  C10 UNL     1      -0.279   0.084   0.570  1.00  0.00     0.009 C 
HETATM    5  C11 UNL     1      -0.240   1.072  -0.555  1.00  0.00     0.004 C 
HETATM    6  C22 UNL     1      -1.547   1.154  -1.279  1.00  0.00     0.101 C 
HETATM    7  C24 UNL     1      -2.711   0.624  -0.453  1.00  0.00     0.064 C 
ENDROOT
BRANCH   5   8
HETATM    8  C12 UNL     1       0.950   1.085  -1.439  1.00  0.00     0.065 C 
BRANCH   8   9
HETATM    9  C13 UNL     1       2.283   1.324  -0.884  1.00  0.00     0.051 C 
BRANCH   9  10
HETATM   10  C14 UNL     1       2.360   2.661  -0.144  1.00  0.00     0.283 C 
HETATM   11  O2  UNL     1       3.094   2.802   0.820  1.00  0.00    -0.300 OA
ENDBRANCH   9  10
BRANCH   9  12
HETATM   12  N2  UNL     1       3.047   0.301  -0.317  1.00  0.00    -0.310 N 
HETATM   13  C15 UNL     1       4.472   0.232  -0.537  1.00  0.00     0.320 C 
HETATM   14  O3  UNL     1       5.083   1.053  -1.229  1.00  0.00    -0.247 OA
HETATM   15  N3  UNL     1       5.152  -0.843   0.092  1.00  0.00    -0.338 N 
ATOM     16  H3  UNL     1       4.596  -1.499   0.642  1.00  0.00     0.164 HD
ATOM     17  H2  UNL     1       2.592  -0.406   0.260  1.00  0.00     0.170 HD
BRANCH  15  18
HETATM   18  C16 UNL     1       6.591  -1.077   0.008  1.00  0.00     0.088 C 
HETATM   19  C17 UNL     1       6.850  -2.467  -0.448  1.00  0.00     0.025 C 
HETATM   20  C18 UNL     1       8.298  -2.822  -0.386  1.00  0.00     0.004 C 
HETATM   21  C19 UNL     1       9.163  -1.687   0.116  1.00  0.00     0.032 C 
HETATM   22  C20 UNL     1       8.631  -1.265   1.452  1.00  0.00     0.120 C 
HETATM   23  C21 UNL     1       7.228  -0.766   1.353  1.00  0.00     0.057 C 
BRANCH  22  24
HETATM   24  O4  UNL     1       9.486  -0.245   1.912  1.00  0.00    -0.396 OA
ATOM     25  H4  UNL     1       9.149   0.023   2.759  1.00  0.00     0.210 HD
ENDBRANCH  22  24
ENDBRANCH  15  18
ENDBRANCH   9  12
ENDBRANCH   8   9
ENDBRANCH   5   8
BRANCH   6  26
HETATM   26  C23 UNL     1      -1.687   0.609  -2.633  1.00  0.00     0.392 C 
HETATM   27  F2  UNL     1      -3.051   0.848  -2.966  1.00  0.00    -0.171 F 
HETATM   28  F3  UNL     1      -1.512  -0.720  -2.811  1.00  0.00    -0.171 F 
HETATM   29  F4  UNL     1      -1.066   1.317  -3.654  1.00  0.00    -0.171 F 
ENDBRANCH   6  26
BRANCH   1  30
HETATM   30  C7  UNL     1      -3.772   0.418   1.749  1.00  0.00     0.202 C 
BRANCH  30  31
HETATM   31  N1  UNL     1      -4.981   0.672   1.295  1.00  0.00    -0.384 NA
HETATM   32  C6  UNL     1      -6.262   0.944   0.813  1.00  0.00     0.295 C 
HETATM   33  O1  UNL     1      -6.812   2.030   0.573  1.00  0.00    -0.257 OA
BRANCH  32  34
HETATM   34  C5  UNL     1      -7.115  -0.283   0.557  1.00  0.00     0.101 A 
HETATM   35  C2  UNL     1      -8.472  -0.249   0.040  1.00  0.00    -0.034 A 
HETATM   36  C1  UNL     1      -9.068   0.906  -0.686  1.00  0.00     0.016 C 
HETATM   37  C3  UNL     1      -9.030  -1.606  -0.443  1.00  0.00     0.016 C 
HETATM   38  C4  UNL     1      -8.338  -0.208   1.527  1.00  0.00     0.025 A 
ENDBRANCH  32  34
ENDBRANCH  30  31
ENDBRANCH   1  30
TORSDOF 10
