REMARK  9 active torsions:
REMARK  status: ('A' for Active; 'I' for Inactive)
REMARK    1  A    between atoms: C2_2  and  N1_3 
REMARK    2  A    between atoms: C2_2  and  C3_7 
REMARK    3  A    between atoms: C3_7  and  O1_8 
REMARK    4  A    between atoms: C3_7  and  C4_10 
REMARK    5  A    between atoms: C5_11  and  C6_12 
REMARK    6  A    between atoms: C6_12  and  C8_14 
REMARK    7  A    between atoms: C10_17  and  C11_18 
REMARK    8  A    between atoms: C11_18  and  C13_20 
REMARK    9  A    between atoms: C13_20  and  N2_22 
ROOT
HETATM    1  C6  UNL     1       0.606  -2.051  -0.460  1.00  0.00     0.016 C 
HETATM    2  C7  UNL     1       0.789  -3.531  -0.722  1.00  0.00     0.015 C 
ENDROOT
BRANCH   1   3
HETATM    3  C5  UNL     1       0.717  -1.802   0.999  1.00  0.00    -0.023 C 
HETATM    4  C4  UNL     1       1.644  -1.097   1.597  1.00  0.00     0.003 C 
BRANCH   4   5
HETATM    5  C3  UNL     1       2.771  -0.407   0.934  1.00  0.00     0.170 C 
BRANCH   5   6
HETATM    6  C2  UNL     1       2.460   1.038   0.627  1.00  0.00     0.211 C 
HETATM    7  C1  UNL     1       3.671   1.631  -0.098  1.00  0.00     0.043 C 
BRANCH   6   8
HETATM    8  N1  UNL     1       2.217   1.843   1.774  1.00  0.00    -0.073 N 
ATOM      9  H13 UNL     1       3.035   1.937   2.376  1.00  0.00     0.274 HD
ATOM     10  H12 UNL     1       2.103   2.832   1.550  1.00  0.00     0.274 HD
ATOM     11  H11 UNL     1       1.410   1.448   2.257  1.00  0.00     0.274 HD
ENDBRANCH   6   8
ENDBRANCH   5   6
BRANCH   5  12
HETATM   12  O1  UNL     1       3.933  -0.455   1.739  1.00  0.00    -0.390 OA
ATOM     13  H1  UNL     1       4.129  -1.364   1.932  1.00  0.00     0.210 HD
ENDBRANCH   5  12
ENDBRANCH   4   5
ENDBRANCH   1   3
BRANCH   1  14
HETATM   14  C8  UNL     1      -0.698  -1.559  -1.044  1.00  0.00     0.074 A 
HETATM   15  C9  UNL     1      -1.963  -2.147  -0.498  1.00  0.00     0.137 A 
HETATM   16  O2  UNL     1      -2.660  -3.138  -0.476  1.00  0.00    -0.297 OA
HETATM   17  C10 UNL     1      -1.622  -0.770  -0.137  1.00  0.00     0.073 A 
BRANCH  17  18
HETATM   18  C11 UNL     1      -2.317   0.383  -0.831  1.00  0.00     0.023 C 
HETATM   19  C12 UNL     1      -1.242   1.310  -1.347  1.00  0.00     0.012 C 
BRANCH  18  20
HETATM   20  C13 UNL     1      -3.275   1.099   0.093  1.00  0.00     0.184 C 
HETATM   21  C14 UNL     1      -3.901   2.231  -0.733  1.00  0.00     0.040 C 
BRANCH  20  22
HETATM   22  N2  UNL     1      -2.616   1.660   1.231  1.00  0.00    -0.075 N 
ATOM     23  H23 UNL     1      -2.081   0.951   1.733  1.00  0.00     0.274 HD
ATOM     24  H22 UNL     1      -1.851   2.272   0.948  1.00  0.00     0.274 HD
ATOM     25  H21 UNL     1      -3.263   2.143   1.855  1.00  0.00     0.274 HD
ENDBRANCH  20  22
ENDBRANCH  18  20
ENDBRANCH  17  18
ENDBRANCH   1  14
TORSDOF 9
