REMARK  7 active torsions:
REMARK  status: ('A' for Active; 'I' for Inactive)
REMARK    1  A    between atoms: N1_1  and  C1_5 
REMARK    2  A    between atoms: C1_5  and  C2_6 
REMARK    3  A    between atoms: C2_6  and  C3_7 
REMARK    4  A    between atoms: C6_12  and  C7_13 
REMARK    5  A    between atoms: C7_13  and  C8_14 
REMARK    6  A    between atoms: C8_14  and  C9_15 
REMARK    7  A    between atoms: C9_15  and  C10_16 
ROOT
HETATM    1  C3  UNL     1      -3.564  -0.126  -0.686  1.00  0.00     0.205 C 
HETATM    2  C4  UNL     1      -3.463  -0.879   0.598  1.00  0.00     0.147 C 
HETATM    3  N2  UNL     1      -2.603  -2.016   0.547  1.00  0.00    -0.417 N 
ATOM      4  H2  UNL     1      -2.629  -2.753   1.251  1.00  0.00     0.153 HD
HETATM    5  C5  UNL     1      -1.705  -2.047  -0.560  1.00  0.00     0.147 C 
HETATM    6  C6  UNL     1      -1.265  -0.734  -1.074  1.00  0.00     0.203 C 
HETATM    7  N3  UNL     1      -2.312   0.224  -1.279  1.00  0.00    -0.064 N 
ATOM      8  H31 UNL     1      -2.015   1.147  -0.961  1.00  0.00     0.278 HD
ATOM      9  H32 UNL     1      -2.431   0.411  -2.275  1.00  0.00     0.278 HD
ENDROOT
BRANCH   6  10
HETATM   10  C7  UNL     1      -0.202  -0.070  -0.222  1.00  0.00     0.035 C 
BRANCH  10  11
HETATM   11  C8  UNL     1       1.050  -0.867  -0.092  1.00  0.00     0.002 C 
BRANCH  11  12
HETATM   12  C9  UNL     1       2.008  -0.083   0.778  1.00  0.00     0.005 C 
BRANCH  12  13
HETATM   13  C10 UNL     1       3.311  -0.811   0.970  1.00  0.00    -0.014 C 
HETATM   14  C11 UNL     1       4.030  -1.077  -0.310  1.00  0.00     0.004 C 
HETATM   15  C12 UNL     1       4.373   0.192  -1.057  1.00  0.00     0.000 C 
HETATM   16  C13 UNL     1       5.122   1.173  -0.188  1.00  0.00     0.000 C 
HETATM   17  C14 UNL     1       4.555   1.312   1.186  1.00  0.00     0.000 C 
HETATM   18  C15 UNL     1       4.217   0.016   1.852  1.00  0.00     0.004 C 
ENDBRANCH  12  13
ENDBRANCH  11  12
ENDBRANCH  10  11
ENDBRANCH   6  10
BRANCH   1  19
HETATM   19  C2  UNL     1      -4.333   1.166  -0.446  1.00  0.00     0.062 C 
BRANCH  19  20
HETATM   20  C1  UNL     1      -5.727   0.896   0.064  1.00  0.00     0.231 C 
BRANCH  20  21
HETATM   21  N1  UNL     1      -6.367   2.184   0.258  1.00  0.00    -0.079 N 
ATOM     22  H13 UNL     1      -5.834   2.809   0.863  1.00  0.00     0.274 HD
ATOM     23  H12 UNL     1      -6.353   2.768  -0.578  1.00  0.00     0.274 HD
ATOM     24  H11 UNL     1      -7.309   2.001   0.603  1.00  0.00     0.274 HD
ENDBRANCH  20  21
ENDBRANCH  19  20
ENDBRANCH   1  19
TORSDOF 7
