REMARK  6 active torsions:
REMARK  status: ('A' for Active; 'I' for Inactive)
REMARK    1  A    between atoms: C3_5  and  S1_6 
REMARK    2  A    between atoms: S1_6  and  C4_7 
REMARK    3  A    between atoms: C11_20  and  C12_21 
REMARK    4  A    between atoms: N4_22  and  C13_24 
REMARK    5  A    between atoms: C13_24  and  C14_25 
REMARK    6  A    between atoms: C14_25  and  O2_26 
ROOT
HETATM    1  C1  UNL     1       3.229  -2.163  -1.380  1.00  0.00     0.069 C 
HETATM    2  C2  UNL     1       1.988  -1.491  -0.930  1.00  0.00     0.024 A 
HETATM    3  N1  UNL     1       0.765  -1.923  -1.357  1.00  0.00    -0.340 N 
ATOM      4  H1  UNL     1       0.708  -2.718  -1.993  1.00  0.00     0.168 HD
HETATM    5  C3  UNL     1      -0.360  -1.320  -0.955  1.00  0.00     0.149 A 
HETATM    6  N3  UNL     1      -0.273  -0.277  -0.117  1.00  0.00    -0.303 N 
ATOM      7  H3  UNL     1      -1.133   0.179   0.188  1.00  0.00     0.171 HD
HETATM    8  C10 UNL     1       0.890   0.186   0.332  1.00  0.00     0.260 A 
HETATM    9  O1  UNL     1       0.904   1.161   1.110  1.00  0.00    -0.267 OA
HETATM   10  C11 UNL     1       2.080  -0.429  -0.077  1.00  0.00     0.069 A 
ENDROOT
BRANCH   5  11
HETATM   11  S1  UNL     1      -1.907  -1.945  -1.559  1.00  0.00    -0.060 SA
BRANCH  11  12
HETATM   12  C4  UNL     1      -3.318  -1.009  -0.908  1.00  0.00     0.254 C 
HETATM   13  C5  UNL     1      -3.415  -1.224   0.572  1.00  0.00     0.044 C 
HETATM   14  C6  UNL     1      -4.339  -0.259   1.257  1.00  0.00     0.003 C 
HETATM   15  C7  UNL     1      -3.925   1.171   1.130  1.00  0.00     0.002 C 
HETATM   16  C8  UNL     1      -4.595   1.857  -0.053  1.00  0.00     0.027 C 
HETATM   17  C9  UNL     1      -4.523   0.993  -1.288  1.00  0.00     0.233 C 
HETATM   18  N2  UNL     1      -3.226   0.352  -1.313  1.00  0.00    -0.062 N 
ATOM     19  H22 UNL     1      -2.543   0.864  -0.755  1.00  0.00     0.278 HD
ATOM     20  H21 UNL     1      -2.780   0.443  -2.226  1.00  0.00     0.278 HD
ENDBRANCH  11  12
ENDBRANCH   5  11
BRANCH  10  21
HETATM   21  C12 UNL     1       3.306   0.135   0.455  1.00  0.00     0.102 C 
HETATM   22  N4  UNL     1       4.475  -0.298   0.188  1.00  0.00    -0.396 N 
ATOM     23  H4  UNL     1       4.556  -1.096  -0.443  1.00  0.00     0.158 HD
BRANCH  22  24
HETATM   24  C13 UNL     1       5.694   0.268   0.721  1.00  0.00     0.145 C 
BRANCH  24  25
HETATM   25  C14 UNL     1       6.067   1.568   0.033  1.00  0.00     0.183 C 
BRANCH  25  26
HETATM   26  O2  UNL     1       5.024   2.475   0.227  1.00  0.00    -0.399 OA
ATOM     27  H2  UNL     1       5.258   3.289  -0.204  1.00  0.00     0.209 HD
ENDBRANCH  25  26
ENDBRANCH  24  25
ENDBRANCH  22  24
ENDBRANCH  10  21
TORSDOF 6
