REMARK  6 active torsions:
REMARK  status: ('A' for Active; 'I' for Inactive)
REMARK    1  A    between atoms: C4_6  and  C5_7 
REMARK    2  A    between atoms: C5_7  and  C6_8 
REMARK    3  A    between atoms: C6_8  and  C7_9 
REMARK    4  A    between atoms: C7_9  and  C8_10 
REMARK    5  A    between atoms: C8_10  and  N2_11 
REMARK    6  A    between atoms: C14_25  and  N7_26 
ROOT
HETATM    1  N1  UNL     1      -5.695   3.178   1.996  1.00  0.00    -0.191 NA
HETATM    2  C1  UNL     1      -5.054   2.398   1.417  1.00  0.00     0.103 C 
HETATM    3  C2  UNL     1      -4.288   1.453   0.692  1.00  0.00     0.099 A 
HETATM    4  C3  UNL     1      -2.996   1.592   0.236  1.00  0.00     0.080 A 
HETATM    5 CL1  UNL     1      -1.967   2.981   0.440  1.00  0.00    -0.081 Cl
HETATM    6  C4  UNL     1      -2.652   0.427  -0.418  1.00  0.00     0.041 A 
HETATM    7  N4  UNL     1      -3.727  -0.402  -0.355  1.00  0.00    -0.304 N 
HETATM    8  C13 UNL     1      -3.884  -1.641  -0.841  1.00  0.00     0.205 A 
HETATM    9  N5  UNL     1      -5.056  -2.264  -0.649  1.00  0.00    -0.294 N 
ATOM     10  H5  UNL     1      -5.182  -3.207  -1.017  1.00  0.00     0.187 HD
HETATM   11  N6  UNL     1      -6.060  -1.686   0.009  1.00  0.00    -0.283 N 
ATOM     12  H6  UNL     1      -6.936  -2.194   0.134  1.00  0.00     0.188 HD
HETATM   13  C14 UNL     1      -5.939  -0.443   0.512  1.00  0.00     0.143 A 
HETATM   14  C15 UNL     1      -4.728   0.196   0.310  1.00  0.00     0.108 A 
ENDROOT
BRANCH   6  15
HETATM   15  C5  UNL     1      -1.358   0.114  -1.074  1.00  0.00     0.059 C 
BRANCH  15  16
HETATM   16  C6  UNL     1      -0.294  -0.217  -0.038  1.00  0.00     0.008 C 
BRANCH  16  17
HETATM   17  C7  UNL     1       1.024  -0.536  -0.702  1.00  0.00     0.020 C 
BRANCH  17  18
HETATM   18  C8  UNL     1       2.098  -0.868   0.303  1.00  0.00     0.121 C 
BRANCH  18  19
HETATM   19  N2  UNL     1       3.343  -1.166  -0.370  1.00  0.00    -0.380 N 
HETATM   20  C9  UNL     1       4.400  -0.454  -0.236  1.00  0.00     0.072 C 
HETATM   21  C10 UNL     1       5.697  -0.740  -0.919  1.00  0.00     0.077 C 
HETATM   22  N3  UNL     1       4.583   0.716   0.552  1.00  0.00    -0.380 N 
HETATM   23  C11 UNL     1       6.384   0.602  -0.862  1.00  0.00     0.027 C 
HETATM   24  C12 UNL     1       5.992   1.084   0.539  1.00  0.00     0.121 C 
ATOM     25  H3  UNL     1       3.845   1.217   1.047  1.00  0.00     0.160 HD
ATOM     26  H2  UNL     1       3.382  -1.982  -0.981  1.00  0.00     0.160 HD
ENDBRANCH  18  19
ENDBRANCH  17  18
ENDBRANCH  16  17
ENDBRANCH  15  16
ENDBRANCH   6  15
BRANCH  13  27
HETATM   27  N7  UNL     1      -6.887   0.158   1.158  1.00  0.00    -0.383 N 
ATOM     28  H72 UNL     1      -7.779  -0.313   1.307  1.00  0.00     0.157 HD
ATOM     29  H71 UNL     1      -6.795   1.100   1.539  1.00  0.00     0.157 HD
ENDBRANCH  13  27
TORSDOF 6
