REMARK  5 active torsions:
REMARK  status: ('A' for Active; 'I' for Inactive)
REMARK    1  A    between atoms: C7_8  and  N1_9 
REMARK    2  A    between atoms: N1_9  and  C8_11 
REMARK    3  A    between atoms: C8_11  and  C9_12 
REMARK    4  A    between atoms: C9_12  and  C10_13 
REMARK    5  A    between atoms: N2_14  and  C11_16 
ROOT
HETATM    1  C11 UNL     1      -3.535   0.613   0.030  1.00  0.00     0.138 A 
HETATM    2  N3  UNL     1      -3.559  -0.374   0.950  1.00  0.00    -0.318 N 
ATOM      3  H3  UNL     1      -2.778  -0.458   1.600  1.00  0.00     0.169 HD
HETATM    4  C12 UNL     1      -4.571  -1.247   1.041  1.00  0.00     0.191 A 
HETATM    5  C13 UNL     1      -4.523  -2.288   2.059  1.00  0.00     0.137 C 
HETATM    6  N4  UNL     1      -4.465  -3.123   2.862  1.00  0.00    -0.188 NA
HETATM    7  N5  UNL     1      -5.624  -1.166   0.197  1.00  0.00    -0.318 N 
ATOM      8  H5  UNL     1      -6.384  -1.841   0.285  1.00  0.00     0.169 HD
HETATM    9  C14 UNL     1      -5.696  -0.222  -0.753  1.00  0.00     0.139 A 
HETATM   10  N6  UNL     1      -6.572   0.123  -1.713  1.00  0.00    -0.337 N 
ATOM     11  H6  UNL     1      -7.451  -0.361  -1.893  1.00  0.00     0.168 HD
HETATM   12  C15 UNL     1      -6.137   1.189  -2.404  1.00  0.00     0.182 A 
HETATM   13  N7  UNL     1      -4.938   1.514  -1.842  1.00  0.00    -0.346 N 
ATOM     14  H7  UNL     1      -4.343   2.287  -2.140  1.00  0.00     0.167 HD
HETATM   15  C16 UNL     1      -4.653   0.666  -0.836  1.00  0.00     0.122 A 
ENDROOT
BRANCH   1  16
HETATM   16  N2  UNL     1      -2.671   1.466  -0.143  1.00  0.00    -0.354 N 
HETATM   17  C10 UNL     1      -1.484   2.024   0.206  1.00  0.00     0.064 C 
ATOM     18  H2  UNL     1      -3.006   2.026  -0.927  1.00  0.00     0.166 HD
BRANCH  17  19
HETATM   19  C9  UNL     1      -0.425   1.114   0.779  1.00  0.00     0.063 C 
BRANCH  19  20
HETATM   20  C8  UNL     1      -0.014   0.019  -0.149  1.00  0.00     0.119 C 
BRANCH  20  21
HETATM   21  N1  UNL     1       0.969  -0.838   0.450  1.00  0.00    -0.416 N 
ATOM     22  H1  UNL     1       0.750  -1.799   0.711  1.00  0.00     0.153 HD
BRANCH  21  23
HETATM   23  C7  UNL     1       2.275  -0.282   0.665  1.00  0.00     0.083 C 
HETATM   24  C2  UNL     1       2.995   0.080  -0.586  1.00  0.00     0.038 C 
HETATM   25  C1  UNL     1       3.557   1.485  -0.577  1.00  0.00     0.015 C 
HETATM   26  C3  UNL     1       4.024  -0.931  -1.040  1.00  0.00     0.175 C 
HETATM   27  F1  UNL     1       3.336  -2.126  -1.200  1.00  0.00    -0.249 F 
HETATM   28  C4  UNL     1       4.998  -1.131   0.094  1.00  0.00     0.038 C 
HETATM   29  C5  UNL     1       4.220  -1.829   1.189  1.00  0.00     0.005 C 
HETATM   30  C6  UNL     1       3.065  -1.057   1.683  1.00  0.00     0.025 C 
ENDBRANCH  21  23
ENDBRANCH  20  21
ENDBRANCH  19  20
ENDBRANCH  17  19
ENDBRANCH   1  16
TORSDOF 5
