REMARK  8 active torsions:
REMARK  status: ('A' for Active; 'I' for Inactive)
REMARK    1  A    between atoms: O1_1  and  C1_3 
REMARK    2  A    between atoms: C1_3  and  O2_4 
REMARK    3  A    between atoms: C1_3  and  C2_6 
REMARK    4  A    between atoms: C3_7  and  O3_8 
REMARK    5  A    between atoms: O3_8  and  C4_9 
REMARK    6  A    between atoms: C4_9  and  C5_10 
REMARK    7  A    between atoms: C12_19  and  O4_20 
REMARK    8  A    between atoms: O4_20  and  C13_21 
ROOT
HETATM    1  C2  UNL     1       1.323   0.918   0.260  1.00  0.00     0.060 A 
HETATM    2  C3  UNL     1       0.040   0.556   0.722  1.00  0.00     0.154 A 
HETATM    3  N1  UNL     1       0.055  -0.702   1.143  1.00  0.00    -0.339 N 
ATOM      4  H1  UNL     1      -0.739  -1.214   1.526  1.00  0.00     0.168 HD
HETATM    5  C10 UNL     1       1.288  -1.180   0.978  1.00  0.00     0.025 A 
HETATM    6  C11 UNL     1       2.116  -0.189   0.424  1.00  0.00     0.034 A 
HETATM    7  C12 UNL     1       3.503  -0.626   0.196  1.00  0.00     0.298 C 
HETATM    8  O5  UNL     1       4.064  -1.192   1.339  1.00  0.00    -0.356 OA
HETATM    9  C14 UNL     1       3.270  -2.106   1.978  1.00  0.00     0.177 C 
HETATM   10  C15 UNL     1       2.009  -2.469   1.225  1.00  0.00     0.084 C 
ENDROOT
BRANCH   2  11
HETATM   11  O3  UNL     1      -0.989   1.447   0.695  1.00  0.00    -0.335 OA
BRANCH  11  12
HETATM   12  C4  UNL     1      -2.314   1.300   1.076  1.00  0.00     0.182 C 
BRANCH  12  13
HETATM   13  C5  UNL     1      -2.995   0.262   0.268  1.00  0.00     0.010 C 
HETATM   14  C6  UNL     1      -4.461   0.078   0.672  1.00  0.00     0.007 C 
HETATM   15  C7  UNL     1      -4.951  -0.807  -0.461  1.00  0.00     0.000 C 
HETATM   16  C8  UNL     1      -4.112  -0.405  -1.679  1.00  0.00     0.000 C 
HETATM   17  C9  UNL     1      -3.204   0.706  -1.186  1.00  0.00     0.007 C 
ENDBRANCH  12  13
ENDBRANCH  11  12
ENDBRANCH   2  11
BRANCH   1  18
HETATM   18  C1  UNL     1       1.742   2.210  -0.293  1.00  0.00     0.293 C 
BRANCH  18  19
HETATM   19  O1  UNL     1       2.936   2.696   0.212  1.00  0.00    -0.367 OA
ATOM     20  H1  UNL     1       3.599   2.064  -0.040  1.00  0.00     0.213 HD
ENDBRANCH  18  19
BRANCH  18  21
HETATM   21  O2  UNL     1       0.755   3.152   0.082  1.00  0.00    -0.367 OA
ATOM     22  H2  UNL     1      -0.064   2.819  -0.265  1.00  0.00     0.213 HD
ENDBRANCH  18  21
ENDBRANCH   1  18
BRANCH   7  23
HETATM   23  O4  UNL     1       4.353   0.300  -0.319  1.00  0.00    -0.343 OA
BRANCH  23  24
HETATM   24  C13 UNL     1       4.832  -0.122  -1.551  1.00  0.00     0.285 C 
HETATM   25 CL1  UNL     1       3.477  -0.360  -2.705  1.00  0.00    -0.102 Cl
ENDBRANCH  23  24
ENDBRANCH   7  23
TORSDOF 8
