REMARK  5 active torsions:
REMARK  status: ('A' for Active; 'I' for Inactive)
REMARK       I    between atoms: C1_4  and  N3_6 
REMARK    1  A    between atoms: N3_6  and  N4_8 
REMARK    2  A    between atoms: N4_8  and  N5_9 
REMARK       I    between atoms: N5_9  and  C2_11 
REMARK       I    between atoms: C2_11  and  N7_21 
REMARK    3  A    between atoms: N6_12  and  C3_14 
REMARK    4  A    between atoms: C3_14  and  C4_15 
REMARK    5  A    between atoms: N7_21  and  N8_23 
ROOT
HETATM    1  N5  UNL     1       1.916   0.664  -0.659  1.00  0.00    -0.115 N 
ATOM      2  H5  UNL     1       2.186   0.454  -1.620  1.00  0.00     0.203 HD
HETATM    3  C2  UNL     1       0.694   1.334  -0.381  1.00  0.00     0.710 C 
HETATM    4  N6  UNL     1      -0.217   0.666   0.230  1.00  0.00    -0.219 N 
ATOM      5  H6  UNL     1      -0.011  -0.302   0.478  1.00  0.00     0.178 HD
HETATM    6  N7  UNL     1       0.589   2.678  -0.802  1.00  0.00    -0.071 N 
ATOM      7  H7  UNL     1       0.243   2.882  -1.740  1.00  0.00     0.212 HD
ENDROOT
BRANCH   1   8
HETATM    8  N4  UNL     1       2.737   0.300   0.401  1.00  0.00    -0.005 NA
BRANCH   8   9
HETATM    9  N3  UNL     1       2.882  -1.074   0.384  1.00  0.00    -0.257 N 
HETATM   10  C1  UNL     1       3.926  -1.685  -0.348  1.00  0.00     0.199 C 
HETATM   11  N1  UNL     1       4.818  -0.952  -0.935  1.00  0.00    -0.373 N 
HETATM   12  N2  UNL     1       4.015  -3.093  -0.449  1.00  0.00    -0.063 NA
ATOM     13  H12 UNL     1       5.571  -1.393  -1.463  1.00  0.00     0.158 HD
ATOM     14  H11 UNL     1       4.754   0.063  -0.862  1.00  0.00     0.158 HD
ATOM     15  H3  UNL     1       2.227  -1.655   0.907  1.00  0.00     0.187 HD
ENDBRANCH   8   9
ENDBRANCH   1   8
BRANCH   4  16
HETATM   16  C3  UNL     1      -1.505   1.188   0.587  1.00  0.00     0.176 C 
BRANCH  16  17
HETATM   17  C4  UNL     1      -2.569   0.170   0.433  1.00  0.00    -0.040 A 
HETATM   18  C5  UNL     1      -2.324  -1.120  -0.004  1.00  0.00     0.009 A 
HETATM   19  C6  UNL     1      -3.354  -2.037  -0.133  1.00  0.00     0.001 A 
HETATM   20  C7  UNL     1      -4.645  -1.687   0.172  1.00  0.00     0.000 A 
HETATM   21  C8  UNL     1      -4.900  -0.421   0.603  1.00  0.00     0.001 A 
HETATM   22  C9  UNL     1      -3.871   0.502   0.734  1.00  0.00     0.009 A 
ENDBRANCH  16  17
ENDBRANCH   4  16
BRANCH   6  23
HETATM   23  N8  UNL     1       0.947   3.728   0.035  1.00  0.00    -0.024 N 
HETATM   24  O1  UNL     1       2.124   3.924   0.427  1.00  0.00    -0.516 OA
HETATM   25  O2  UNL     1      -0.000   4.606   0.471  1.00  0.00    -0.516 OA
ENDBRANCH   6  23
TORSDOF 5
