REMARK  5 active torsions:
REMARK  status: ('A' for Active; 'I' for Inactive)
REMARK    1  A    between atoms: N1_2  and  C2_3 
REMARK    2  A    between atoms: N1_2  and  C9_15 
REMARK    3  A    between atoms: C2_3  and  C3_4 
REMARK    4  A    between atoms: C9_15  and  C10_16 
REMARK    5  A    between atoms: C9_15  and  C11_20 
ROOT
HETATM    1  C3  UNL     1       0.552  -0.439  -0.208  1.00  0.00     0.120 C 
HETATM    2  C4  UNL     1       0.424   0.074   1.204  1.00  0.00     0.258 C 
HETATM    3  N2  UNL     1       1.606  -0.072   1.989  1.00  0.00    -0.071 N 
ATOM      4  H21 UNL     1       1.851  -1.043   2.182  1.00  0.00     0.277 HD
ATOM      5  H22 UNL     1       1.491   0.220   2.960  1.00  0.00     0.277 HD
HETATM    6  C5  UNL     1       2.652   0.668   1.272  1.00  0.00     0.261 C 
HETATM    7  C6  UNL     1       2.931   0.011  -0.066  1.00  0.00     0.042 C 
HETATM    8  C7  UNL     1       3.931   0.922  -0.776  1.00  0.00     0.039 C 
HETATM    9  C8  UNL     1       3.619  -1.315   0.161  1.00  0.00     0.039 C 
HETATM   10  N3  UNL     1       1.785  -0.186  -0.847  1.00  0.00    -0.404 N 
ATOM     11  H3  UNL     1       1.841  -0.147  -1.865  1.00  0.00     0.154 HD
ENDROOT
BRANCH   1  12
HETATM   12  C2  UNL     1      -0.625   0.209  -0.954  1.00  0.00     0.144 C 
BRANCH  12  13
HETATM   13  N1  UNL     1      -1.794  -0.241  -0.289  1.00  0.00    -0.398 N 
HETATM   14  C1  UNL     1      -2.126  -1.594  -0.405  1.00  0.00     0.144 C 
BRANCH  13  15
HETATM   15  C9  UNL     1      -2.847   0.695  -0.149  1.00  0.00     0.219 C 
BRANCH  15  16
HETATM   16  C10 UNL     1      -3.604   0.434   1.087  1.00  0.00     0.089 C 
HETATM   17  N4  UNL     1      -4.508  -0.468   1.083  1.00  0.00    -0.409 N 
ATOM     18  H42 UNL     1      -4.691  -0.992   0.227  1.00  0.00     0.155 HD
ATOM     19  H41 UNL     1      -5.032  -0.649   1.939  1.00  0.00     0.155 HD
ENDBRANCH  15  16
BRANCH  15  20
HETATM   20  C11 UNL     1      -3.742   0.736  -1.321  1.00  0.00     0.201 C 
HETATM   21  O1  UNL     1      -3.455   0.033  -2.320  1.00  0.00    -0.646 OA
HETATM   22  O2  UNL     1      -4.890   1.532  -1.343  1.00  0.00    -0.646 OA
ENDBRANCH  15  20
ENDBRANCH  13  15
ENDBRANCH  12  13
ENDBRANCH   1  12
TORSDOF 5
