REMARK  7 active torsions:
REMARK  status: ('A' for Active; 'I' for Inactive)
REMARK    1  A    between atoms: N1_1  and  C1_5 
REMARK    2  A    between atoms: C4_8  and  S1_9 
REMARK    3  A    between atoms: S1_9  and  C5_10 
REMARK    4  A    between atoms: C7_15  and  C8_16 
REMARK    5  A    between atoms: C8_16  and  N3_17 
REMARK    6  A    between atoms: C8_16  and  O1_21 
REMARK    7  A    between atoms: C9_23  and  O2_24 
ROOT
HETATM    1  C5  UNL     1       0.709  -1.425   0.001  1.00  0.00     0.276 C 
HETATM    2  N2  UNL     1       0.626  -0.524   1.148  1.00  0.00    -0.059 N 
ATOM      3  H21 UNL     1       1.001  -0.900   2.019  1.00  0.00     0.278 HD
ATOM      4  H22 UNL     1      -0.316  -0.369   1.507  1.00  0.00     0.278 HD
HETATM    5  C6  UNL     1       1.302   0.672   0.650  1.00  0.00     0.245 C 
HETATM    6  C7  UNL     1       2.214   0.241  -0.459  1.00  0.00     0.099 C 
HETATM    7  C9  UNL     1       2.198  -1.275  -0.306  1.00  0.00     0.168 C 
ENDROOT
BRANCH   1   8
HETATM    8  S1  UNL     1      -0.144  -0.698  -1.405  1.00  0.00    -0.129 SA
BRANCH   8   9
HETATM    9  C4  UNL     1      -1.927  -0.614  -1.209  1.00  0.00     0.051 C 
HETATM   10  C3  UNL     1      -2.451  -1.462  -0.087  1.00  0.00     0.017 C 
HETATM   11  C2  UNL     1      -3.531  -0.675   0.609  1.00  0.00     0.034 C 
HETATM   12  C1  UNL     1      -3.633   0.658  -0.072  1.00  0.00     0.184 C 
HETATM   13  C10 UNL     1      -2.446   0.780  -1.004  1.00  0.00     0.048 C 
BRANCH  12  14
HETATM   14  N1  UNL     1      -3.611   1.751   0.879  1.00  0.00    -0.075 N 
ATOM     15  H13 UNL     1      -4.335   1.640   1.589  1.00  0.00     0.274 HD
ATOM     16  H12 UNL     1      -2.789   1.703   1.481  1.00  0.00     0.274 HD
ATOM     17  H11 UNL     1      -3.680   2.657   0.416  1.00  0.00     0.274 HD
ENDBRANCH  12  14
ENDBRANCH   8   9
ENDBRANCH   1   8
BRANCH   7  18
HETATM   18  O2  UNL     1       2.561  -1.928  -1.469  1.00  0.00    -0.392 OA
ATOM     19  H2  UNL     1       3.487  -1.835  -1.660  1.00  0.00     0.210 HD
ENDBRANCH   7  18
BRANCH   6  20
HETATM   20  C8  UNL     1       3.585   0.827  -0.392  1.00  0.00     0.324 C 
BRANCH  20  21
HETATM   21  N3  UNL     1       4.313   0.479   0.803  1.00  0.00    -0.053 N 
ATOM     22  H33 UNL     1       3.776   0.727   1.634  1.00  0.00     0.277 HD
ATOM     23  H32 UNL     1       4.350  -0.534   0.918  1.00  0.00     0.277 HD
ATOM     24  H31 UNL     1       5.250   0.879   0.849  1.00  0.00     0.277 HD
ENDBRANCH  20  21
BRANCH  20  25
HETATM   25  O1  UNL     1       3.425   2.222  -0.405  1.00  0.00    -0.369 OA
ATOM     26  H1  UNL     1       4.298   2.595  -0.362  1.00  0.00     0.212 HD
ENDBRANCH  20  25
ENDBRANCH   6  20
TORSDOF 7
