REMARK  8 active torsions:
REMARK  status: ('A' for Active; 'I' for Inactive)
REMARK       I    between atoms: N2_3  and  C2_5 
REMARK    1  A    between atoms: C2_5  and  O2_7 
REMARK    2  A    between atoms: O2_7  and  C3_8 
REMARK    3  A    between atoms: C3_8  and  O3_9 
REMARK    4  A    between atoms: C3_8  and  C4_11 
REMARK    5  A    between atoms: C4_11  and  N3_12 
REMARK    6  A    between atoms: C4_11  and  C5_16 
REMARK    7  A    between atoms: C5_16  and  N4_17 
REMARK    8  A    between atoms: C5_16  and  C6_21 
ROOT
HETATM    1  N1  UNL     1       6.611   1.211  -1.812  1.00  0.00    -0.172 NA
HETATM    2  C1  UNL     1       5.782   1.000  -1.032  1.00  0.00     0.186 C 
HETATM    3  N2  UNL     1       4.791   0.734  -0.081  1.00  0.00    -0.239 N 
ATOM      4  H2  UNL     1       5.029   0.583   0.899  1.00  0.00     0.183 HD
HETATM    5  C2  UNL     1       3.441   0.681  -0.526  1.00  0.00     0.376 C 
HETATM    6  O1  UNL     1       3.129   0.864  -1.731  1.00  0.00    -0.237 OA
ENDROOT
BRANCH   5   7
HETATM    7  O2  UNL     1       2.386   0.422   0.348  1.00  0.00    -0.270 OA
BRANCH   7   8
HETATM    8  C3  UNL     1       1.051   0.377  -0.133  1.00  0.00     0.301 C 
BRANCH   8   9
HETATM    9  O3  UNL     1       0.374   1.382   0.596  1.00  0.00    -0.368 OA
ATOM     10  H3  UNL     1      -0.519   1.352   0.274  1.00  0.00     0.212 HD
ENDBRANCH   8   9
BRANCH   8  11
HETATM   11  C4  UNL     1       0.434  -0.986   0.131  1.00  0.00     0.273 C 
BRANCH  11  12
HETATM   12  N3  UNL     1       1.295  -1.941  -0.588  1.00  0.00    -0.068 N 
ATOM     13  H33 UNL     1       1.413  -1.726  -1.578  1.00  0.00     0.275 HD
ATOM     14  H32 UNL     1       2.281  -1.878  -0.336  1.00  0.00     0.275 HD
ATOM     15  H31 UNL     1       0.881  -2.856  -0.411  1.00  0.00     0.275 HD
ENDBRANCH  11  12
BRANCH  11  16
HETATM   16  C5  UNL     1      -0.925  -1.126  -0.466  1.00  0.00     0.251 C 
BRANCH  16  17
HETATM   17  N4  UNL     1      -1.388  -2.481  -0.131  1.00  0.00    -0.069 N 
ATOM     18  H43 UNL     1      -0.741  -3.213  -0.423  1.00  0.00     0.275 HD
ATOM     19  H42 UNL     1      -1.363  -2.681   0.869  1.00  0.00     0.275 HD
ATOM     20  H41 UNL     1      -2.318  -2.577  -0.539  1.00  0.00     0.275 HD
ENDBRANCH  16  17
BRANCH  16  21
HETATM   21  C6  UNL     1      -1.924  -0.158  -0.015  1.00  0.00    -0.026 A 
HETATM   22  C7  UNL     1      -2.312   0.865  -0.849  1.00  0.00     0.009 A 
HETATM   23  C8  UNL     1      -3.265   1.809  -0.448  1.00  0.00     0.001 A 
HETATM   24  C9  UNL     1      -3.820   1.701   0.808  1.00  0.00     0.000 A 
HETATM   25  C10 UNL     1      -3.448   0.687   1.658  1.00  0.00     0.001 A 
HETATM   26  C11 UNL     1      -2.502  -0.230   1.231  1.00  0.00     0.009 A 
ENDBRANCH  16  21
ENDBRANCH  11  16
ENDBRANCH   8  11
ENDBRANCH   7   8
ENDBRANCH   5   7
TORSDOF 8
