REMARK  8 active torsions:
REMARK  status: ('A' for Active; 'I' for Inactive)
REMARK    1  A    between atoms: C8_9  and  N2_10 
REMARK    2  A    between atoms: N2_10  and  C9_12 
REMARK    3  A    between atoms: C9_12  and  C10_13 
REMARK    4  A    between atoms: C10_13  and  C11_14 
REMARK    5  A    between atoms: C11_14  and  C12_15 
REMARK    6  A    between atoms: C12_15  and  C13_16 
REMARK    7  A    between atoms: C13_16  and  C14_17 
REMARK    8  A    between atoms: C14_17  and  N3_18 
ROOT
HETATM    1  C1  UNL     1      -3.124  -0.139   3.144  1.00  0.00     0.068 C 
HETATM    2  C2  UNL     1      -3.209   0.124   1.674  1.00  0.00     0.007 A 
HETATM    3  C3  UNL     1      -4.414   0.442   1.085  1.00  0.00     0.033 A 
HETATM    4  C4  UNL     1      -4.475   0.680  -0.270  1.00  0.00    -0.036 A 
HETATM    5  C5  UNL     1      -5.801   1.025  -0.883  1.00  0.00     0.050 C 
HETATM    6  C6  UNL     1      -3.349   0.604  -1.033  1.00  0.00     0.094 A 
HETATM    7  C7  UNL     1      -3.433   0.858  -2.453  1.00  0.00     0.104 C 
HETATM    8  N1  UNL     1      -3.485   1.076  -3.605  1.00  0.00    -0.191 NA
HETATM    9  C8  UNL     1      -2.115   0.282  -0.448  1.00  0.00     0.126 A 
HETATM   10  N4  UNL     1      -2.122   0.058   0.889  1.00  0.00    -0.345 N 
ATOM     11  H4  UNL     1      -1.234  -0.179   1.332  1.00  0.00     0.167 HD
ENDROOT
BRANCH   9  12
HETATM   12  N2  UNL     1      -1.143   0.225  -1.205  1.00  0.00    -0.355 N 
ATOM     13  H2  UNL     1      -1.503   0.440  -2.135  1.00  0.00     0.166 HD
BRANCH  12  14
HETATM   14  C9  UNL     1       0.198   0.005  -1.366  1.00  0.00     0.062 C 
BRANCH  14  15
HETATM   15  C10 UNL     1       0.936  -0.292  -0.079  1.00  0.00     0.044 C 
BRANCH  15  16
HETATM   16  C11 UNL     1       2.412  -0.521  -0.463  1.00  0.00     0.005 C 
BRANCH  16  17
HETATM   17  C12 UNL     1       3.146  -0.829   0.822  1.00  0.00     0.002 C 
BRANCH  17  18
HETATM   18  C13 UNL     1       4.594  -1.068   0.542  1.00  0.00     0.027 C 
BRANCH  18  19
HETATM   19  C14 UNL     1       5.236   0.135  -0.080  1.00  0.00     0.229 C 
BRANCH  19  20
HETATM   20  N3  UNL     1       6.657  -0.146  -0.334  1.00  0.00    -0.079 N 
ATOM     21  H33 UNL     1       7.146  -0.453   0.507  1.00  0.00     0.274 HD
ATOM     22  H32 UNL     1       6.790  -0.988  -0.895  1.00  0.00     0.274 HD
ATOM     23  H31 UNL     1       7.094   0.673  -0.757  1.00  0.00     0.274 HD
ENDBRANCH  19  20
ENDBRANCH  18  19
ENDBRANCH  17  18
ENDBRANCH  16  17
ENDBRANCH  15  16
ENDBRANCH  14  15
ENDBRANCH  12  14
ENDBRANCH   9  12
TORSDOF 8
