REMARK  8 active torsions:
REMARK  status: ('A' for Active; 'I' for Inactive)
REMARK    1  A    between atoms: C2_2  and  C3_3 
REMARK    2  A    between atoms: C3_3  and  C4_4 
REMARK    3  A    between atoms: C4_4  and  C5_5 
REMARK    4  A    between atoms: C5_5  and  N1_6 
REMARK    5  A    between atoms: C7_11  and  N3_12 
REMARK    6  A    between atoms: C9_17  and  N5_18 
REMARK    7  A    between atoms: N5_18  and  C10_20 
REMARK    8  A    between atoms: C10_20  and  C11_21 
ROOT
HETATM    1  N1  UNL     1       1.540   0.146   0.208  1.00  0.00    -0.225 N 
ATOM      2  H1  UNL     1       2.288  -0.542   0.126  1.00  0.00     0.177 HD
HETATM    3  C6  UNL     1       0.344  -0.302   0.169  1.00  0.00     0.707 A 
HETATM    4  N2  UNL     1       0.197  -1.653   0.021  1.00  0.00    -0.022 N 
ATOM      5  H2  UNL     1       1.028  -2.241  -0.052  1.00  0.00     0.203 HD
HETATM    6  C7  UNL     1      -1.021  -2.224  -0.031  1.00  0.00     0.706 A 
HETATM    7  N4  UNL     1      -2.079  -1.401   0.070  1.00  0.00    -0.022 N 
ATOM      8  H4  UNL     1      -3.017  -1.801   0.034  1.00  0.00     0.203 HD
HETATM    9  C9  UNL     1      -1.946  -0.056   0.218  1.00  0.00     0.707 A 
HETATM   10  N6  UNL     1      -0.716   0.493   0.267  1.00  0.00    -0.022 N 
ATOM     11  H6  UNL     1      -0.601   1.500   0.377  1.00  0.00     0.203 HD
ENDROOT
BRANCH   1  12
HETATM   12  C5  UNL     1       1.937   1.501   0.354  1.00  0.00     0.138 C 
BRANCH  12  13
HETATM   13  C4  UNL     1       3.366   1.522   0.880  1.00  0.00     0.020 C 
BRANCH  13  14
HETATM   14  C3  UNL     1       4.231   0.802  -0.142  1.00  0.00     0.001 C 
BRANCH  14  15
HETATM   15  C2  UNL     1       5.674   0.760   0.275  1.00  0.00    -0.004 C 
HETATM   16  C1  UNL     1       6.468   0.044  -0.766  1.00  0.00     0.005 C 
ENDBRANCH  14  15
ENDBRANCH  13  14
ENDBRANCH  12  13
ENDBRANCH   1  12
BRANCH   6  17
HETATM   17  N3  UNL     1      -1.095  -3.493  -0.171  1.00  0.00    -0.229 N 
HETATM   18  C8  UNL     1      -2.289  -4.269  -0.246  1.00  0.00     0.165 C 
ATOM     19  H3  UNL     1      -0.212  -4.000  -0.235  1.00  0.00     0.177 HD
ENDBRANCH   6  17
BRANCH   9  20
HETATM   20  N5  UNL     1      -2.962   0.731   0.314  1.00  0.00    -0.225 N 
ATOM     21  H5  UNL     1      -2.841   1.738   0.423  1.00  0.00     0.177 HD
BRANCH  20  22
HETATM   22  C10 UNL     1      -4.282   0.136   0.261  1.00  0.00     0.137 C 
BRANCH  22  23
HETATM   23  C11 UNL     1      -5.344   1.183   0.575  1.00  0.00     0.016 C 
HETATM   24  C12 UNL     1      -5.295   2.329  -0.426  1.00  0.00     0.006 C 
ENDBRANCH  22  23
ENDBRANCH  20  22
ENDBRANCH   9  20
TORSDOF 8
