REMARK  7 active torsions:
REMARK  status: ('A' for Active; 'I' for Inactive)
REMARK    1  A    between atoms: C2_2  and  C3_3 
REMARK    2  A    between atoms: C3_3  and  C4_4 
REMARK    3  A    between atoms: C4_4  and  C5_5 
REMARK    4  A    between atoms: C5_5  and  C6_6 
REMARK    5  A    between atoms: C7_9  and  C8_10 
REMARK    6  A    between atoms: C8_10  and  S1_11 
REMARK    7  A    between atoms: N3_17  and  N4_19 
ROOT
HETATM    1  C6  UNL     1       0.237   0.567   1.082  1.00  0.00     0.146 C 
HETATM    2  N1  UNL     1      -1.116   1.005   0.986  1.00  0.00    -0.404 N 
ATOM      3  H1  UNL     1      -1.369   1.986   1.106  1.00  0.00     0.154 HD
HETATM    4  C7  UNL     1      -2.094   0.013   0.716  1.00  0.00     0.104 C 
HETATM    5  C10 UNL     1      -1.666  -1.011  -0.306  1.00  0.00     0.149 C 
HETATM    6  N2  UNL     1      -0.441  -1.632   0.151  1.00  0.00    -0.370 N 
HETATM    7  C11 UNL     1      -0.051  -2.946  -0.333  1.00  0.00     0.151 C 
HETATM    8  C12 UNL     1       0.348  -0.909   1.082  1.00  0.00     0.116 C 
HETATM    9  N3  UNL     1       1.121  -1.498   1.882  1.00  0.00    -0.294 N 
ATOM     10  H3  UNL     1       1.646  -0.889   2.509  1.00  0.00     0.187 HD
ENDROOT
BRANCH   1  11
HETATM   11  C5  UNL     1       0.948   1.043  -0.192  1.00  0.00     0.033 C 
BRANCH  11  12
HETATM   12  C4  UNL     1       2.401   0.622  -0.181  1.00  0.00     0.006 C 
BRANCH  12  13
HETATM   13  C3  UNL     1       3.036   1.123  -1.462  1.00  0.00     0.026 C 
BRANCH  13  14
HETATM   14  C2  UNL     1       4.458   0.765  -1.555  1.00  0.00    -0.037 C 
HETATM   15  C1  UNL     1       4.875   0.019  -2.556  1.00  0.00     0.007 C 
ENDBRANCH  13  14
ENDBRANCH  12  13
ENDBRANCH  11  12
ENDBRANCH   1  11
BRANCH   4  16
HETATM   16  C8  UNL     1      -3.311   0.729   0.116  1.00  0.00     0.099 C 
BRANCH  16  17
HETATM   17  S1  UNL     1      -3.951   1.948   1.305  1.00  0.00    -0.171 SA
HETATM   18  C9  UNL     1      -5.384   2.762   0.549  1.00  0.00     0.089 C 
ENDBRANCH  16  17
ENDBRANCH   4  16
BRANCH   9  19
HETATM   19  N4  UNL     1       1.358  -2.832   2.032  1.00  0.00    -0.344 N 
ATOM     20  H42 UNL     1       0.824  -3.424   1.396  1.00  0.00     0.176 HD
ATOM     21  H41 UNL     1       1.984  -3.309   2.680  1.00  0.00     0.176 HD
ENDBRANCH   9  19
TORSDOF 7
