REMARK  8 active torsions:
REMARK  status: ('A' for Active; 'I' for Inactive)
REMARK    1  A    between atoms: N1_1  and  C1_5 
REMARK    2  A    between atoms: C1_5  and  C2_6 
REMARK    3  A    between atoms: C2_6  and  C3_7 
REMARK    4  A    between atoms: C3_7  and  C4_8 
REMARK    5  A    between atoms: C4_8  and  C5_9 
REMARK    6  A    between atoms: C5_9  and  N2_10 
REMARK    7  A    between atoms: C7_15  and  C8_16 
REMARK    8  A    between atoms: C8_16  and  C9_17 
ROOT
HETATM    1  N2  UNL     1       0.170  -2.114   1.060  1.00  0.00    -0.313 N 
HETATM    2  C6  UNL     1      -0.541  -2.115   2.275  1.00  0.00     0.321 A 
HETATM    3  O1  UNL     1      -0.312  -1.803   3.489  1.00  0.00    -0.247 OA
HETATM    4  N3  UNL     1      -1.673  -2.623   1.613  1.00  0.00    -0.321 N 
ATOM      5  H3  UNL     1      -2.596  -2.937   1.913  1.00  0.00     0.166 HD
HETATM    6  C7  UNL     1      -1.018  -2.523   0.364  1.00  0.00     0.193 A 
ENDROOT
BRANCH   1   7
HETATM    7  C5  UNL     1       1.551  -1.815   0.737  1.00  0.00     0.130 C 
BRANCH   7   8
HETATM    8  C4  UNL     1       1.755  -0.366   0.420  1.00  0.00     0.020 C 
BRANCH   8   9
HETATM    9  C3  UNL     1       3.225  -0.141   0.094  1.00  0.00     0.003 C 
BRANCH   9  10
HETATM   10  C2  UNL     1       3.483   1.315  -0.234  1.00  0.00     0.027 C 
BRANCH  10  11
HETATM   11  C1  UNL     1       4.970   1.438  -0.544  1.00  0.00     0.229 C 
BRANCH  11  12
HETATM   12  N1  UNL     1       5.273   2.827  -0.869  1.00  0.00    -0.079 N 
ATOM     13  H13 UNL     1       4.688   3.186  -1.623  1.00  0.00     0.274 HD
ATOM     14  H12 UNL     1       4.974   3.472  -0.137  1.00  0.00     0.274 HD
ATOM     15  H11 UNL     1       6.268   2.909  -1.076  1.00  0.00     0.274 HD
ENDBRANCH  11  12
ENDBRANCH  10  11
ENDBRANCH   9  10
ENDBRANCH   8   9
ENDBRANCH   7   8
ENDBRANCH   1   7
BRANCH   6  16
HETATM   16  C8  UNL     1      -1.586  -1.581  -0.647  1.00  0.00     0.052 C 
BRANCH  16  17
HETATM   17  C9  UNL     1      -2.017  -0.245  -0.164  1.00  0.00    -0.008 C 
HETATM   18  C10 UNL     1      -2.533   0.503  -1.407  1.00  0.00     0.032 C 
HETATM   19  C11 UNL     1      -2.774   1.946  -1.143  1.00  0.00     0.232 C 
HETATM   20  N4  UNL     1      -3.423   2.057   0.149  1.00  0.00    -0.075 N 
HETATM   21  C12 UNL     1      -4.156   0.837   0.434  1.00  0.00     0.232 C 
ATOM     22  H42 UNL     1      -2.764   2.292   0.891  1.00  0.00     0.277 HD
ATOM     23  H41 UNL     1      -4.016   2.885   0.212  1.00  0.00     0.277 HD
HETATM   24  C13 UNL     1      -3.246  -0.328   0.745  1.00  0.00     0.032 C 
ENDBRANCH  16  17
ENDBRANCH   6  16
TORSDOF 8
