REMARK  1 active torsions:
REMARK  status: ('A' for Active; 'I' for Inactive)
REMARK    1  A    between atoms: O1_1  and  C1_3 
ROOT
HETATM    1  C1  UNL     1      -0.416  -0.545   0.241  1.00  0.00     0.118 A 
HETATM    2  C2  UNL     1       0.131   0.867   0.187  1.00  0.00     0.034 A 
HETATM    3  C3  UNL     1       1.011  -0.300  -0.044  1.00  0.00     0.034 A 
ENDROOT
BRANCH   1   4
HETATM    4  O1  UNL     1      -1.312  -0.830  -0.815  1.00  0.00    -0.396 OA
ATOM      5  H1  UNL     1      -1.655  -1.715  -0.781  1.00  0.00     0.210 HD
ENDBRANCH   1   4
TORSDOF 1
