REMARK  0 active torsions:
REMARK  status: ('A' for Active; 'I' for Inactive)
ROOT
HETATM    1  O1  UNL     1       2.264  -0.174  -0.007  1.00  0.00    -0.260 OA
HETATM    2  C1  UNL     1       1.020  -0.254  -0.019  1.00  0.00     0.289 A 
HETATM    3  C2  UNL     1      -0.104   0.675   0.060  1.00  0.00     0.107 A 
HETATM    4  C3  UNL     1      -0.974  -0.324  -0.033  1.00  0.00     0.152 A 
HETATM    5  O2  UNL     1       0.052  -1.245  -0.111  1.00  0.00    -0.288 OA
ENDROOT
TORSDOF 0
