REMARK  0 active torsions:
REMARK  status: ('A' for Active; 'I' for Inactive)
ROOT
HETATM    1  N1  UNL     1       2.649  -0.488   0.860  1.00  0.00    -0.197 NA
HETATM    2  C1  UNL     1       1.645  -0.403   0.299  1.00  0.00     0.064 C 
HETATM    3  C2  UNL     1       0.377  -0.313  -0.424  1.00  0.00     0.093 A 
HETATM    4  C3  UNL     1      -0.473   0.914  -0.269  1.00  0.00     0.020 A 
HETATM    5  C4  UNL     1      -0.912  -0.367   0.338  1.00  0.00     0.020 A 
ENDROOT
TORSDOF 0
