REMARK  4 active torsions:
REMARK  status: ('A' for Active; 'I' for Inactive)
REMARK    1  A    between atoms: O1_2  and  C2_3 
REMARK    2  A    between atoms: C2_3  and  C3_5 
REMARK    3  A    between atoms: C9_11  and  O3_12 
REMARK    4  A    between atoms: N1_15  and  O4_17 
ROOT
HETATM    1  C3  UNL     1       0.446  -0.076  -0.162  1.00  0.00     0.091 C 
HETATM    2  C4  UNL     1       0.659  -1.352   0.573  1.00  0.00     0.026 C 
HETATM    3  C5  UNL     1      -0.168  -2.504   0.194  1.00  0.00     0.002 C 
HETATM    4  C6  UNL     1      -1.536  -2.238  -0.327  1.00  0.00     0.005 C 
HETATM    5  C7  UNL     1      -1.782  -0.825  -0.753  1.00  0.00    -0.010 C 
HETATM    6  C8  UNL     1      -2.305  -0.050   0.404  1.00  0.00     0.042 C 
HETATM    7  C9  UNL     1      -1.549   1.165   0.779  1.00  0.00     0.167 C 
HETATM    8  C10 UNL     1      -0.084   1.000   0.701  1.00  0.00     0.057 C 
HETATM    9  N1  UNL     1       0.640   1.801   1.387  1.00  0.00    -0.274 N 
ATOM     10  H1  UNL     1       1.654   1.698   1.342  1.00  0.00     0.193 HD
HETATM   11  C11 UNL     1      -0.497  -0.292  -1.330  1.00  0.00     0.030 C 
ENDROOT
BRANCH   1  12
HETATM   12  C2  UNL     1       1.726   0.439  -0.745  1.00  0.00     0.273 C 
HETATM   13  O2  UNL     1       1.890   0.620  -1.982  1.00  0.00    -0.264 OA
BRANCH  12  14
HETATM   14  O1  UNL     1       2.818   0.749   0.063  1.00  0.00    -0.326 OA
HETATM   15  C1  UNL     1       4.015   1.229  -0.474  1.00  0.00     0.213 C 
ENDBRANCH  12  14
ENDBRANCH   1  12
BRANCH   7  16
HETATM   16  O3  UNL     1      -1.895   2.297   0.047  1.00  0.00    -0.390 OA
ATOM     17  H3  UNL     1      -1.410   3.077   0.288  1.00  0.00     0.210 HD
ENDBRANCH   7  16
BRANCH   9  18
HETATM   18  O4  UNL     1       0.118   2.792   2.180  1.00  0.00    -0.290 OA
ATOM     19  H4  UNL     1       0.656   3.387   2.689  1.00  0.00     0.244 HD
ENDBRANCH   9  18
TORSDOF 4
