REMARK  1 active torsions:
REMARK  status: ('A' for Active; 'I' for Inactive)
REMARK    1  A    between atoms: C2_2  and  N1_4 
ROOT
HETATM    1  N1  UNL     1       2.210   0.785  -0.767  1.00  0.00    -0.361 N 
ATOM      2  H1  UNL     1       2.123   1.395  -1.580  1.00  0.00     0.162 HD
HETATM    3  C4  UNL     1       1.291   0.850   0.098  1.00  0.00     0.178 C 
HETATM    4  O1  UNL     1       0.224   1.694  -0.037  1.00  0.00    -0.328 OA
HETATM    5  C5  UNL     1      -0.877   1.523   0.822  1.00  0.00     0.211 C 
HETATM    6  C6  UNL     1      -1.358   0.090   0.890  1.00  0.00     0.084 C 
HETATM    7  C7  UNL     1      -2.668   0.076   1.611  1.00  0.00     0.266 C 
HETATM    8  N2  UNL     1      -3.723  -0.597   0.887  1.00  0.00    -0.068 N 
ATOM      9  H21 UNL     1      -4.621  -0.585   1.371  1.00  0.00     0.277 HD
ATOM     10  H22 UNL     1      -3.613  -1.611   0.856  1.00  0.00     0.277 HD
HETATM   11  C8  UNL     1      -3.766   0.027  -0.439  1.00  0.00     0.276 C 
HETATM   12  C9  UNL     1      -2.542  -0.471  -1.148  1.00  0.00     0.083 C 
HETATM   13  N3  UNL     1      -1.346  -0.452  -0.407  1.00  0.00    -0.387 N 
ATOM     14  H3  UNL     1      -0.484  -0.826  -0.805  1.00  0.00     0.159 HD
HETATM   15  C10 UNL     1      -0.397  -0.766   1.731  1.00  0.00     0.117 C 
HETATM   16  S1  UNL     1       1.308  -0.147   1.560  1.00  0.00    -0.084 SA
ENDROOT
BRANCH   1  17
HETATM   17  C2  UNL     1       3.363  -0.065  -0.714  1.00  0.00     0.076 C 
HETATM   18  C1  UNL     1       4.658   0.692  -0.855  1.00  0.00     0.032 C 
HETATM   19  C3  UNL     1       3.300  -1.085  -1.845  1.00  0.00     0.032 C 
ENDBRANCH   1  17
TORSDOF 1
