REMARK  1 active torsions:
REMARK  status: ('A' for Active; 'I' for Inactive)
REMARK    1  A    between atoms: C5_6  and  C6_7 
ROOT
HETATM    1  C6  UNL     1      -0.758   1.217  -0.610  1.00  0.00     0.134 C 
HETATM    2  C7  UNL     1      -0.973   0.101  -1.590  1.00  0.00     0.049 C 
HETATM    3  C8  UNL     1      -2.410  -0.215  -1.847  1.00  0.00     0.116 C 
HETATM    4  N1  UNL     1      -3.097  -0.843  -0.778  1.00  0.00    -0.418 N 
ATOM      5  H1  UNL     1      -4.080  -1.105  -0.847  1.00  0.00     0.153 HD
HETATM    6  C9  UNL     1      -2.333  -1.086   0.398  1.00  0.00     0.153 C 
HETATM    7  C10 UNL     1      -1.987   0.143   1.179  1.00  0.00     0.203 C 
HETATM    8  C11 UNL     1      -3.148   0.455   2.046  1.00  0.00     0.086 C 
HETATM    9  N2  UNL     1      -4.062   0.693   2.717  1.00  0.00    -0.195 NA
HETATM   10  N3  UNL     1      -1.705   1.298   0.430  1.00  0.00    -0.395 N 
ATOM     11  H3  UNL     1      -2.177   2.179   0.635  1.00  0.00     0.155 HD
ENDROOT
BRANCH   1  12
HETATM   12  C5  UNL     1       0.682   1.161  -0.129  1.00  0.00     0.283 C 
HETATM   13  O1  UNL     1       1.538   1.083  -1.228  1.00  0.00    -0.356 OA
HETATM   14  C4  UNL     1       2.765   0.792  -0.639  1.00  0.00     0.208 C 
HETATM   15  C2  UNL     1       2.333  -0.205   0.440  1.00  0.00     0.078 C 
HETATM   16  C1  UNL     1       2.664  -1.630  -0.005  1.00  0.00     0.048 C 
HETATM   17  C3  UNL     1       2.992   0.125   1.764  1.00  0.00     0.048 C 
HETATM   18  O2  UNL     1       0.959  -0.019   0.540  1.00  0.00    -0.347 OA
ENDBRANCH   1  12
TORSDOF 1
