REMARK  4 active torsions:
REMARK  status: ('A' for Active; 'I' for Inactive)
REMARK    1  A    between atoms: C2_2  and  O2_4 
REMARK    2  A    between atoms: O2_4  and  C3_5 
REMARK    3  A    between atoms: C10_13  and  O4_14 
REMARK    4  A    between atoms: C11_16  and  O5_17 
ROOT
HETATM    1  C3  UNL     1       0.910   0.078  -0.710  1.00  0.00     0.169 C 
HETATM    2  C4  UNL     1       0.480   1.399  -0.125  1.00  0.00     0.042 C 
HETATM    3  C5  UNL     1       0.139   2.334  -1.238  1.00  0.00     0.015 C 
HETATM    4  C6  UNL     1      -0.638   1.289   0.853  1.00  0.00     0.124 C 
HETATM    5  C7  UNL     1      -1.075   2.694   1.224  1.00  0.00     0.040 C 
HETATM    6  O3  UNL     1      -1.726   0.673   0.240  1.00  0.00    -0.378 OA
HETATM    7  C8  UNL     1      -1.757  -0.643   0.734  1.00  0.00     0.149 C 
HETATM    8  C9  UNL     1      -3.210  -1.035   0.844  1.00  0.00     0.042 C 
HETATM    9  C10 UNL     1      -0.983  -1.498  -0.215  1.00  0.00     0.178 C 
HETATM   10  C11 UNL     1      -0.216  -0.739  -1.246  1.00  0.00     0.179 C 
ENDROOT
BRANCH   1  11
HETATM   11  O2  UNL     1       1.733  -0.635   0.199  1.00  0.00    -0.313 OA
BRANCH  11  12
HETATM   12  C2  UNL     1       3.073  -0.906  -0.049  1.00  0.00     0.255 C 
HETATM   13  C1  UNL     1       3.934  -1.652   0.901  1.00  0.00     0.126 C 
HETATM   14  O1  UNL     1       3.521  -0.467  -1.162  1.00  0.00    -0.266 OA
ENDBRANCH  11  12
ENDBRANCH   1  11
BRANCH  10  15
HETATM   15  O5  UNL     1       0.329  -1.679  -2.139  1.00  0.00    -0.390 OA
ATOM     16  H5  UNL     1      -0.389  -2.200  -2.481  1.00  0.00     0.210 HD
ENDBRANCH  10  15
BRANCH   9  17
HETATM   17  O4  UNL     1      -1.908  -2.311  -0.896  1.00  0.00    -0.390 OA
ATOM     18  H4  UNL     1      -1.416  -2.855  -1.500  1.00  0.00     0.210 HD
ENDBRANCH   9  17
TORSDOF 4
