REMARK  4 active torsions:
REMARK  status: ('A' for Active; 'I' for Inactive)
REMARK    1  A    between atoms: C2_2  and  N1_4 
REMARK       I    between atoms: N1_4  and  C3_6 
REMARK    2  A    between atoms: C3_6  and  O2_8 
REMARK    3  A    between atoms: O2_8  and  C4_9 
REMARK    4  A    between atoms: C10_16  and  O3_17 
ROOT
HETATM    1  C4  UNL     1      -0.527   0.217   0.211  1.00  0.00     0.147 C 
HETATM    2  C5  UNL     1      -1.510   0.915  -0.718  1.00  0.00     0.048 C 
HETATM    3  C6  UNL     1      -1.638  -0.471  -1.365  1.00  0.00     0.020 C 
HETATM    4  C7  UNL     1      -1.508  -0.940   0.091  1.00  0.00     0.058 C 
HETATM    5  C8  UNL     1      -2.772  -0.416   0.687  1.00  0.00     0.132 C 
HETATM    6  C9  UNL     1      -3.993  -1.191   0.287  1.00  0.00     0.055 C 
HETATM    7  F1  UNL     1      -2.743  -0.342   2.061  1.00  0.00    -0.240 F 
HETATM    8  C10 UNL     1      -2.789   0.994   0.060  1.00  0.00     0.164 C 
ENDROOT
BRANCH   1   9
HETATM    9  O2  UNL     1       0.688  -0.003  -0.458  1.00  0.00    -0.298 OA
BRANCH   9  10
HETATM   10  C3  UNL     1       1.875   0.321   0.160  1.00  0.00     0.362 C 
HETATM   11  N1  UNL     1       3.148   0.135  -0.434  1.00  0.00    -0.320 N 
ATOM     12  H1  UNL     1       3.213  -0.260  -1.372  1.00  0.00     0.166 HD
HETATM   13  O1  UNL     1       1.803   0.814   1.331  1.00  0.00    -0.238 OA
BRANCH  11  14
HETATM   14  C2  UNL     1       4.342   0.493   0.264  1.00  0.00     0.179 C 
HETATM   15  C1  UNL     1       5.277  -0.683   0.457  1.00  0.00     0.049 C 
HETATM   16 CL1  UNL     1       5.263   1.724  -0.657  1.00  0.00    -0.103 Cl
ENDBRANCH  11  14
ENDBRANCH   9  10
ENDBRANCH   1   9
BRANCH   8  17
HETATM   17  O3  UNL     1      -2.773   1.965   1.042  1.00  0.00    -0.392 OA
ATOM     18  H3  UNL     1      -3.584   2.015   1.535  1.00  0.00     0.210 HD
ENDBRANCH   8  17
TORSDOF 4
