REMARK  3 active torsions:
REMARK  status: ('A' for Active; 'I' for Inactive)
REMARK    1  A    between atoms: C2_2  and  N1_4 
REMARK    2  A    between atoms: C2_2  and  C9_15 
REMARK       I    between atoms: N1_4  and  C4_5 
REMARK       I    between atoms: C4_5  and  N2_7 
REMARK    3  A    between atoms: N2_7  and  N3_9 
ROOT
HETATM    1  N1  UNL     1      -1.662   0.103  -0.050  1.00  0.00    -0.375 NA
HETATM    2  C4  UNL     1      -0.482   0.084  -0.736  1.00  0.00     0.408 C 
HETATM    3  O1  UNL     1      -0.257   0.316  -1.940  1.00  0.00    -0.229 OA
HETATM    4  N2  UNL     1       0.759  -0.262  -0.001  1.00  0.00    -0.238 N 
ATOM      5  H2  UNL     1       0.686  -0.484   0.992  1.00  0.00     0.193 HD
ENDROOT
BRANCH   1   6
HETATM    6  C2  UNL     1      -2.857   0.126   0.632  1.00  0.00     0.188 C 
HETATM    7  C1  UNL     1      -3.551   1.509   0.599  1.00  0.00     0.064 C 
HETATM    8  C3  UNL     1      -3.916  -0.871   0.204  1.00  0.00     0.064 C 
BRANCH   6   9
HETATM    9  C9  UNL     1      -2.655  -0.083   2.162  1.00  0.00     0.424 C 
HETATM   10  F1  UNL     1      -2.055  -1.278   2.429  1.00  0.00    -0.167 F 
HETATM   11  F2  UNL     1      -3.924  -0.162   2.701  1.00  0.00    -0.167 F 
HETATM   12  F3  UNL     1      -1.989   1.021   2.639  1.00  0.00    -0.167 F 
ENDBRANCH   6   9
ENDBRANCH   1   6
BRANCH   4  13
HETATM   13  N3  UNL     1       1.985  -0.299  -0.577  1.00  0.00    -0.298 N 
HETATM   14  C5  UNL     1       2.521   0.949  -0.998  1.00  0.00     0.174 C 
HETATM   15  C6  UNL     1       4.027   0.952  -1.050  1.00  0.00     0.189 C 
HETATM   16  O2  UNL     1       4.443  -0.225  -1.685  1.00  0.00    -0.384 OA
HETATM   17  C7  UNL     1       4.196  -1.329  -0.878  1.00  0.00     0.213 C 
HETATM   18  C8  UNL     1       2.877  -1.298  -0.174  1.00  0.00     0.109 C 
ENDBRANCH   4  13
TORSDOF 3
