REMARK  4 active torsions:
REMARK  status: ('A' for Active; 'I' for Inactive)
REMARK    1  A    between atoms: C2_2  and  N1_5 
REMARK    2  A    between atoms: N1_5  and  C5_7 
REMARK    3  A    between atoms: N4_13  and  C7_15 
REMARK    4  A    between atoms: C7_15  and  C8_16 
ROOT
HETATM    1  C5  UNL     1      -0.543   0.168   0.846  1.00  0.00     0.163 A 
HETATM    2  N2  UNL     1       0.087  -0.143  -0.286  1.00  0.00    -0.278 N 
ATOM      3  H2  UNL     1      -0.439  -0.342  -1.137  1.00  0.00     0.189 HD
HETATM    4  N3  UNL     1       1.380  -0.187  -0.282  1.00  0.00    -0.278 N 
ATOM      5  H3  UNL     1       1.896  -0.420  -1.131  1.00  0.00     0.189 HD
HETATM    6  C6  UNL     1       2.024   0.079   0.854  1.00  0.00     0.163 A 
HETATM    7  N4  UNL     1       3.325   0.086   1.061  1.00  0.00    -0.361 N 
ATOM      8  H4  UNL     1       3.703   0.307   1.982  1.00  0.00     0.161 HD
HETATM    9  S1  UNL     1       0.747   0.399   1.935  1.00  0.00    -0.016 SA
ENDROOT
BRANCH   7  10
HETATM   10  C7  UNL     1       4.206  -0.225  -0.040  1.00  0.00     0.239 C 
BRANCH  10  11
HETATM   11  C8  UNL     1       5.600   0.360   0.218  1.00  0.00     0.403 C 
HETATM   12  F1  UNL     1       5.545   1.718   0.354  1.00  0.00    -0.169 F 
HETATM   13  F2  UNL     1       6.138  -0.274   1.310  1.00  0.00    -0.169 F 
HETATM   14  F3  UNL     1       6.374   0.047  -0.885  1.00  0.00    -0.169 F 
ENDBRANCH  10  11
ENDBRANCH   7  10
BRANCH   1  15
HETATM   15  N1  UNL     1      -1.841   0.266   1.051  1.00  0.00    -0.361 N 
ATOM     16  H1  UNL     1      -2.160   0.515   1.987  1.00  0.00     0.162 HD
BRANCH  15  17
HETATM   17  C2  UNL     1      -2.828   0.045   0.045  1.00  0.00     0.021 C 
HETATM   18  C1  UNL     1      -2.812  -1.380  -0.465  1.00  0.00     0.037 C 
HETATM   19  C3  UNL     1      -2.740   1.034  -1.097  1.00  0.00     0.037 C 
HETATM   20  C4  UNL     1      -4.205   0.263   0.691  1.00  0.00     0.037 C 
ENDBRANCH  15  17
ENDBRANCH   1  15
TORSDOF 4
