REMARK  2 active torsions:
REMARK  status: ('A' for Active; 'I' for Inactive)
REMARK    1  A    between atoms: O1_2  and  C2_3 
REMARK    2  A    between atoms: C2_3  and  C3_5 
ROOT
HETATM    1  C3  UNL     1       0.751   0.523  -0.438  1.00  0.00     0.141 C 
HETATM    2  C4  UNL     1       0.930   0.609  -1.925  1.00  0.00     0.052 C 
HETATM    3  N1  UNL     1       0.818   1.871   0.082  1.00  0.00    -0.355 N 
ATOM      4  H1  UNL     1       1.599   2.323   0.557  1.00  0.00     0.162 HD
HETATM    5  C5  UNL     1      -0.471   2.427  -0.226  1.00  0.00     0.126 C 
HETATM    6  C6  UNL     1      -0.783   3.715  -0.176  1.00  0.00     0.236 C 
HETATM    7  F1  UNL     1      -2.046   4.070  -0.497  1.00  0.00    -0.215 F 
HETATM    8  N2  UNL     1      -1.353   1.356  -0.592  1.00  0.00    -0.362 N 
ATOM      9  H2  UNL     1      -2.252   1.418  -1.069  1.00  0.00     0.162 HD
HETATM   10  C7  UNL     1      -0.667   0.163  -0.125  1.00  0.00     0.066 C 
HETATM   11  C8  UNL     1      -0.932   0.057   1.355  1.00  0.00     0.034 C 
HETATM   12  C9  UNL     1      -1.522  -1.318   1.596  1.00  0.00     0.003 C 
HETATM   13  C10 UNL     1      -2.182  -1.599   0.261  1.00  0.00     0.003 C 
HETATM   14  C11 UNL     1      -1.159  -1.087  -0.756  1.00  0.00     0.034 C 
ENDROOT
BRANCH   1  15
HETATM   15  C2  UNL     1       1.759  -0.371   0.134  1.00  0.00     0.289 C 
HETATM   16  O2  UNL     1       2.546   0.125   0.991  1.00  0.00    -0.262 OA
BRANCH  15  17
HETATM   17  O1  UNL     1       1.929  -1.695  -0.174  1.00  0.00    -0.324 OA
HETATM   18  C1  UNL     1       2.956  -2.478   0.453  1.00  0.00     0.213 C 
ENDBRANCH  15  17
ENDBRANCH   1  15
TORSDOF 2
