REMARK  8 active torsions:
REMARK  status: ('A' for Active; 'I' for Inactive)
REMARK    1  A    between atoms: C2_2  and  C3_3 
REMARK    2  A    between atoms: C3_3  and  S1_4 
REMARK    3  A    between atoms: C3_3  and  C16_28 
REMARK    4  A    between atoms: S1_4  and  C4_5 
REMARK    5  A    between atoms: C4_5  and  C5_6 
REMARK    6  A    between atoms: C5_6  and  N3_11 
REMARK    7  A    between atoms: N3_11  and  N4_13 
REMARK    8  A    between atoms: C7_15  and  C8_16 
ROOT
HETATM    1  C5  UNL     1       1.866   1.291   1.652  1.00  0.00     0.114 C 
HETATM    2  N1  UNL     1       1.669   2.548   1.533  1.00  0.00    -0.281 N 
ATOM      3  H1  UNL     1       2.340   3.090   0.989  1.00  0.00     0.179 HD
HETATM    4  C6  UNL     1       0.607   3.210   2.095  1.00  0.00     0.183 C 
HETATM    5  N2  UNL     1      -0.280   3.788   2.578  1.00  0.00    -0.172 NA
ENDROOT
BRANCH   1   6
HETATM    6  C4  UNL     1       3.060   0.716   0.987  1.00  0.00     0.153 C 
BRANCH   6   7
HETATM    7  S1  UNL     1       2.644  -0.521  -0.230  1.00  0.00    -0.146 SA
BRANCH   7   8
HETATM    8  C3  UNL     1       4.024  -1.237  -1.096  1.00  0.00     0.148 C 
BRANCH   8   9
HETATM    9  C2  UNL     1       4.946  -2.084  -0.300  1.00  0.00     0.021 C 
HETATM   10  C1  UNL     1       5.650  -1.467   0.842  1.00  0.00     0.007 C 
ENDBRANCH   8   9
BRANCH   8  11
HETATM   11  C16 UNL     1       4.757  -0.235  -1.939  1.00  0.00     0.187 C 
HETATM   12  O3  UNL     1       6.007  -0.139  -1.950  1.00  0.00    -0.647 OA
HETATM   13  O4  UNL     1       4.054   0.639  -2.754  1.00  0.00    -0.647 OA
ENDBRANCH   8  11
ENDBRANCH   7   8
ENDBRANCH   6   7
ENDBRANCH   1   6
BRANCH   1  14
HETATM   14  N3  UNL     1       0.958   0.507   2.400  1.00  0.00    -0.288 N 
ATOM     15  H3  UNL     1       1.284   0.101   3.277  1.00  0.00     0.188 HD
BRANCH  14  16
HETATM   16  N4  UNL     1      -0.353   0.256   2.011  1.00  0.00    -0.310 N 
HETATM   17  C7  UNL     1      -0.821   0.463   0.851  1.00  0.00     0.120 C 
ATOM     18  H4  UNL     1      -0.988  -0.124   2.713  1.00  0.00     0.186 HD
BRANCH  17  19
HETATM   19  C8  UNL     1      -2.230   0.164   0.532  1.00  0.00     0.007 A 
HETATM   20  C9  UNL     1      -2.752   0.388  -0.723  1.00  0.00     0.054 A 
HETATM   21  C10 UNL     1      -4.065   0.119  -1.048  1.00  0.00     0.104 A 
HETATM   22  C11 UNL     1      -4.917  -0.400  -0.086  1.00  0.00     0.125 A 
HETATM   23  O2  UNL     1      -4.601   0.340  -2.303  1.00  0.00    -0.346 OA
HETATM   24  C12 UNL     1      -4.381  -0.619   1.167  1.00  0.00     0.092 A 
HETATM   25  O1  UNL     1      -6.252  -0.680  -0.390  1.00  0.00    -0.344 OA
HETATM   26 CL1  UNL     1      -5.467  -1.281   2.395  1.00  0.00    -0.079 Cl
HETATM   27  C13 UNL     1      -3.075  -0.354   1.498  1.00  0.00     0.070 A 
HETATM   28 CL2  UNL     1      -2.453  -0.653   3.101  1.00  0.00    -0.081 Cl
HETATM   29  C14 UNL     1      -6.822   0.123  -1.430  1.00  0.00     0.202 C 
HETATM   30  C15 UNL     1      -5.944   0.175  -2.646  1.00  0.00     0.202 C 
ENDBRANCH  17  19
ENDBRANCH  14  16
ENDBRANCH   1  14
TORSDOF 8
