REMARK  12 active torsions:
REMARK  status: ('A' for Active; 'I' for Inactive)
REMARK    1  A    between atoms: O1_2  and  C2_3 
REMARK    2  A    between atoms: C2_3  and  C3_5 
REMARK    3  A    between atoms: C3_5  and  O3_6 
REMARK    4  A    between atoms: C3_5  and  N1_15 
REMARK    5  A    between atoms: O3_6  and  C4_7 
REMARK    6  A    between atoms: C4_7  and  C5_8 
REMARK    7  A    between atoms: C5_8  and  C6_11 
REMARK    8  A    between atoms: C12_18  and  C13_19 
REMARK    9  A    between atoms: C12_18  and  C16_23 
REMARK   10  A    between atoms: C13_19  and  N2_20 
REMARK   11  A    between atoms: C16_23  and  O4_24 
REMARK   12  A    between atoms: N3_26  and  O5_28 
ROOT
HETATM    1  N1  UNL     1      -0.453   0.352   0.350  1.00  0.00     0.127 N 
HETATM    2  C10 UNL     1      -1.408   1.103  -0.384  1.00  0.00     0.277 C 
HETATM    3  C11 UNL     1      -2.156   0.189  -1.317  1.00  0.00     0.050 C 
HETATM    4  C12 UNL     1      -2.907  -0.834  -0.503  1.00  0.00     0.056 C 
HETATM    5  C17 UNL     1      -1.790  -1.685   0.151  1.00  0.00     0.050 C 
HETATM    6  C18 UNL     1      -0.447  -1.027   0.003  1.00  0.00     0.277 C 
ENDROOT
BRANCH   1   7
HETATM    7  C3  UNL     1       0.843   0.970   0.442  1.00  0.00     0.459 C 
BRANCH   7   8
HETATM    8  C2  UNL     1       0.728   2.260   1.203  1.00  0.00     0.318 C 
HETATM    9  O2  UNL     1      -0.072   3.163   0.855  1.00  0.00    -0.260 OA
BRANCH   8  10
HETATM   10  O1  UNL     1       1.508   2.494   2.323  1.00  0.00    -0.323 OA
HETATM   11  C1  UNL     1       1.447   3.689   3.085  1.00  0.00     0.213 C 
ENDBRANCH   8  10
ENDBRANCH   7   8
BRANCH   7  12
HETATM   12  O3  UNL     1       1.794   0.203   1.071  1.00  0.00    -0.347 OA
BRANCH  12  13
HETATM   13  C4  UNL     1       2.897   0.081   0.239  1.00  0.00     0.214 C 
BRANCH  13  14
HETATM   14  C5  UNL     1       4.015  -0.739   0.788  1.00  0.00     0.141 C 
HETATM   15 CL1  UNL     1       3.496  -2.403   1.128  1.00  0.00    -0.099 Cl
HETATM   16 CL2  UNL     1       4.579  -0.055   2.350  1.00  0.00    -0.099 Cl
BRANCH  14  17
HETATM   17  C6  UNL     1       5.175  -0.802  -0.172  1.00  0.00    -0.014 C 
HETATM   18  C7  UNL     1       4.779  -1.413  -1.492  1.00  0.00     0.018 C 
HETATM   19  C8  UNL     1       5.742   0.579  -0.453  1.00  0.00     0.018 C 
HETATM   20  C9  UNL     1       6.300  -1.646   0.384  1.00  0.00     0.018 C 
ENDBRANCH  14  17
ENDBRANCH  13  14
ENDBRANCH  12  13
ENDBRANCH   7  12
ENDBRANCH   1   7
BRANCH   4  21
HETATM   21  C13 UNL     1      -3.687  -0.172   0.570  1.00  0.00     0.289 C 
BRANCH  21  22
HETATM   22  N2  UNL     1      -4.670   0.793   0.198  1.00  0.00     0.081 N 
HETATM   23  C14 UNL     1      -5.122   1.412   1.481  1.00  0.00     0.309 C 
HETATM   24  C15 UNL     1      -5.900   0.227  -0.342  1.00  0.00     0.309 C 
ENDBRANCH  21  22
ENDBRANCH   4  21
BRANCH   4  25
HETATM   25  C16 UNL     1      -3.651  -1.673  -1.451  1.00  0.00     0.146 C 
HETATM   26  N3  UNL     1      -3.758  -2.936  -1.223  1.00  0.00    -0.250 N 
ATOM     27  H3  UNL     1      -3.320  -3.319  -0.385  1.00  0.00     0.196 HD
BRANCH  25  28
HETATM   28  O4  UNL     1      -4.225  -1.112  -2.569  1.00  0.00    -0.347 OA
ATOM     29  H4  UNL     1      -4.706  -1.655  -3.182  1.00  0.00     0.219 HD
ENDBRANCH  25  28
BRANCH  26  30
HETATM   30  O5  UNL     1      -4.437  -3.792  -2.060  1.00  0.00    -0.288 OA
ATOM     31  H5  UNL     1      -4.516  -4.724  -1.892  1.00  0.00     0.244 HD
ENDBRANCH  26  30
ENDBRANCH   4  25
TORSDOF 12
