REMARK  7 active torsions:
REMARK  status: ('A' for Active; 'I' for Inactive)
REMARK    1  A    between atoms: N1_2  and  C2_3 
REMARK    2  A    between atoms: N1_2  and  S2_21 
REMARK    3  A    between atoms: C2_3  and  C3_4 
REMARK    4  A    between atoms: C3_4  and  C4_5 
REMARK    5  A    between atoms: C4_5  and  C5_6 
REMARK    6  A    between atoms: C5_6  and  N2_7 
REMARK    7  A    between atoms: S2_21  and  C10_24 
ROOT
HETATM    1  C5  UNL     1      -2.465   0.237   0.320  1.00  0.00     0.231 C 
HETATM    2  C6  UNL     1      -1.784   1.380  -0.307  1.00  0.00     0.091 C 
HETATM    3  N3  UNL     1      -1.024   1.253  -1.286  1.00  0.00    -0.394 N 
ATOM      4  H31 UNL     1      -0.552   2.046  -1.721  1.00  0.00     0.156 HD
ATOM      5  H32 UNL     1      -0.850   0.318  -1.655  1.00  0.00     0.156 HD
HETATM    6  S1  UNL     1      -2.095   3.049   0.352  1.00  0.00    -0.036 SA
HETATM    7  C7  UNL     1      -3.848   2.997   0.844  1.00  0.00     0.199 C 
HETATM    8  O1  UNL     1      -4.367   3.889   1.414  1.00  0.00    -0.285 OA
HETATM    9  C8  UNL     1      -4.545   1.754   0.469  1.00  0.00     0.172 C 
HETATM   10  C9  UNL     1      -3.801   0.560   0.891  1.00  0.00     0.177 C 
HETATM   11  O2  UNL     1      -4.282  -0.182   1.722  1.00  0.00    -0.294 OA
ENDROOT
BRANCH   1  12
HETATM   12  C4  UNL     1      -1.576  -0.371   1.402  1.00  0.00     0.056 C 
BRANCH  12  13
HETATM   13  C3  UNL     1      -0.272  -0.764   0.823  1.00  0.00     0.024 C 
BRANCH  13  14
HETATM   14  C2  UNL     1       0.638  -1.420   1.887  1.00  0.00     0.135 C 
BRANCH  14  15
HETATM   15  N1  UNL     1       1.842  -1.757   1.242  1.00  0.00    -0.311 N 
HETATM   16  C1  UNL     1       1.796  -2.812   0.301  1.00  0.00     0.163 C 
BRANCH  15  17
HETATM   17  S2  UNL     1       3.122  -0.704   1.209  1.00  0.00     0.268 S 
HETATM   18  O3  UNL     1       4.416  -1.481   1.422  1.00  0.00    -0.200 OA
HETATM   19  O4  UNL     1       3.089   0.300   2.347  1.00  0.00    -0.200 OA
BRANCH  17  20
HETATM   20  C10 UNL     1       3.334   0.231  -0.254  1.00  0.00     0.143 A 
HETATM   21  S3  UNL     1       2.749   1.753  -0.726  1.00  0.00    -0.063 SA
HETATM   22  C11 UNL     1       3.448   1.855  -2.275  1.00  0.00     0.077 A 
HETATM   23 CL1  UNL     1       3.333   3.159  -3.474  1.00  0.00    -0.076 Cl
HETATM   24  C12 UNL     1       4.130   0.680  -2.384  1.00  0.00     0.057 A 
HETATM   25  C13 UNL     1       4.076  -0.174  -1.332  1.00  0.00     0.066 A 
HETATM   26 CL2  UNL     1       4.945  -1.754  -1.381  1.00  0.00    -0.082 Cl
ENDBRANCH  17  20
ENDBRANCH  15  17
ENDBRANCH  14  15
ENDBRANCH  13  14
ENDBRANCH  12  13
ENDBRANCH   1  12
BRANCH   1  27
HETATM   27  N2  UNL     1      -2.694  -0.735  -0.747  1.00  0.00    -0.057 N 
ATOM     28  H23 UNL     1      -1.820  -1.095  -1.129  1.00  0.00     0.276 HD
ATOM     29  H22 UNL     1      -3.073  -1.612  -0.390  1.00  0.00     0.276 HD
ATOM     30  H21 UNL     1      -3.288  -0.329  -1.470  1.00  0.00     0.276 HD
ENDBRANCH   1  27
TORSDOF 7
