REMARK  5 active torsions:
REMARK  status: ('A' for Active; 'I' for Inactive)
REMARK    1  A    between atoms: C4_4  and  C5_5 
REMARK    2  A    between atoms: C5_5  and  C6_6 
REMARK    3  A    between atoms: C6_6  and  C7_7 
REMARK    4  A    between atoms: C6_6  and  C19_19 
REMARK    5  A    between atoms: C10_10  and  C11_11 
ROOT
HETATM    1  C6  UNL     1      -0.693   0.851  -0.476  1.00  0.00    -0.033 C 
ENDROOT
BRANCH   1   2
HETATM    2  C5  UNL     1      -1.111   2.034   0.319  1.00  0.00     0.078 C 
BRANCH   2   3
HETATM    3  C4  UNL     1      -2.522   2.437   0.171  1.00  0.00    -0.054 A 
HETATM    4  C3  UNL     1      -2.898   3.324  -0.841  1.00  0.00     0.007 A 
HETATM    5  C2  UNL     1      -4.211   3.671  -0.929  1.00  0.00     0.001 A 
HETATM    6  C1  UNL     1      -5.170   3.186  -0.067  1.00  0.00     0.000 A 
HETATM    7  C30 UNL     1      -4.831   2.310   0.940  1.00  0.00     0.001 A 
HETATM    8  C29 UNL     1      -3.485   1.956   1.028  1.00  0.00     0.007 A 
ENDBRANCH   2   3
ENDBRANCH   1   2
BRANCH   1   9
HETATM    9  C7  UNL     1       0.732   0.462  -0.333  1.00  0.00    -0.029 A 
HETATM   10  C8  UNL     1       1.213  -0.652  -0.961  1.00  0.00     0.013 A 
HETATM   11  C9  UNL     1       2.554  -0.959  -0.828  1.00  0.00     0.013 A 
HETATM   12  C10 UNL     1       3.442  -0.198  -0.092  1.00  0.00    -0.026 A 
HETATM   13  C17 UNL     1       2.931   0.916   0.529  1.00  0.00     0.013 A 
HETATM   14  C18 UNL     1       1.585   1.234   0.403  1.00  0.00     0.013 A 
BRANCH  12  15
HETATM   15  C11 UNL     1       4.843  -0.525   0.038  1.00  0.00    -0.026 A 
HETATM   16  C12 UNL     1       5.241  -1.845   0.026  1.00  0.00     0.012 A 
HETATM   17  C13 UNL     1       6.575  -2.178   0.146  1.00  0.00     0.001 A 
HETATM   18  C14 UNL     1       7.525  -1.168   0.282  1.00  0.00     0.000 A 
HETATM   19  C15 UNL     1       7.099   0.154   0.292  1.00  0.00     0.001 A 
HETATM   20  C16 UNL     1       5.771   0.492   0.172  1.00  0.00     0.012 A 
ENDBRANCH  12  15
ENDBRANCH   1   9
BRANCH   1  21
HETATM   21  C19 UNL     1      -1.646  -0.244  -0.618  1.00  0.00    -0.018 A 
HETATM   22  C20 UNL     1      -2.400  -0.420  -1.794  1.00  0.00     0.013 A 
HETATM   23  C21 UNL     1      -3.305  -1.404  -1.997  1.00  0.00     0.002 A 
HETATM   24  C22 UNL     1      -3.543  -2.317  -1.023  1.00  0.00     0.012 A 
HETATM   25  C23 UNL     1      -2.856  -2.222   0.155  1.00  0.00    -0.025 A 
HETATM   26  C24 UNL     1      -3.122  -3.169   1.119  1.00  0.00     0.012 A 
HETATM   27  C28 UNL     1      -1.933  -1.207   0.341  1.00  0.00    -0.015 A 
HETATM   28  C25 UNL     1      -2.449  -3.108   2.312  1.00  0.00     0.001 A 
HETATM   29  C26 UNL     1      -1.521  -2.107   2.532  1.00  0.00     0.001 A 
HETATM   30  C27 UNL     1      -1.290  -1.180   1.531  1.00  0.00     0.013 A 
ENDBRANCH   1  21
TORSDOF 5
