REMARK  5 active torsions:
REMARK  status: ('A' for Active; 'I' for Inactive)
REMARK    1  A    between atoms: C2_2  and  O1_3 
REMARK    2  A    between atoms: O1_3  and  C3_4 
REMARK    3  A    between atoms: C8_9  and  C9_10 
REMARK    4  A    between atoms: C10_11  and  C11_12 
REMARK    5  A    between atoms: C14_15  and  C15_16 
ROOT
HETATM    1  C9  UNL     1      -1.500   1.419  -0.421  1.00  0.00     0.017 A 
HETATM    2  C10 UNL     1      -0.198   1.858  -0.337  1.00  0.00     0.055 A 
HETATM    3  N1  UNL     1      -0.216   3.177  -0.084  1.00  0.00    -0.354 N 
ATOM      4  H1  UNL     1       0.612   3.763   0.028  1.00  0.00     0.166 HD
HETATM    5  C23 UNL     1      -1.495   3.615   0.001  1.00  0.00     0.043 A 
HETATM    6  C24 UNL     1      -2.055   4.847   0.238  1.00  0.00     0.030 A 
HETATM    7  C25 UNL     1      -3.421   5.040   0.276  1.00  0.00     0.002 A 
HETATM    8  C26 UNL     1      -4.226   3.940   0.065  1.00  0.00     0.001 A 
HETATM    9  C27 UNL     1      -3.696   2.683  -0.177  1.00  0.00     0.014 A 
HETATM   10  C28 UNL     1      -2.335   2.519  -0.209  1.00  0.00     0.004 A 
ENDROOT
BRANCH   2  11
HETATM   11  C11 UNL     1       0.962   0.997  -0.503  1.00  0.00    -0.009 A 
HETATM   12  C12 UNL     1       1.193  -0.048   0.366  1.00  0.00     0.014 A 
HETATM   13  C13 UNL     1       2.302  -0.847   0.184  1.00  0.00     0.013 A 
HETATM   14  C14 UNL     1       3.197  -0.614  -0.871  1.00  0.00    -0.026 A 
HETATM   15  C21 UNL     1       2.961   0.430  -1.735  1.00  0.00     0.013 A 
HETATM   16  C22 UNL     1       1.870   1.214  -1.552  1.00  0.00     0.014 A 
BRANCH  14  17
HETATM   17  C15 UNL     1       4.365  -1.457  -1.063  1.00  0.00    -0.026 A 
HETATM   18  C16 UNL     1       4.920  -1.728  -2.291  1.00  0.00     0.012 A 
HETATM   19  C17 UNL     1       6.045  -2.549  -2.408  1.00  0.00     0.001 A 
HETATM   20  C18 UNL     1       6.623  -3.104  -1.295  1.00  0.00     0.000 A 
HETATM   21  C19 UNL     1       6.078  -2.841  -0.068  1.00  0.00     0.001 A 
HETATM   22  C20 UNL     1       4.959  -2.024   0.042  1.00  0.00     0.012 A 
ENDBRANCH  14  17
ENDBRANCH   2  11
BRANCH   1  23
HETATM   23  C8  UNL     1      -1.906   0.052  -0.683  1.00  0.00     0.011 A 
HETATM   24  C3  UNL     1      -2.648  -0.662   0.274  1.00  0.00     0.080 A 
HETATM   25  C4  UNL     1      -3.029  -1.965   0.008  1.00  0.00     0.037 A 
HETATM   26  C5  UNL     1      -2.697  -2.599  -1.190  1.00  0.00     0.003 A 
HETATM   27  C6  UNL     1      -1.976  -1.898  -2.113  1.00  0.00     0.001 A 
HETATM   28  C7  UNL     1      -1.605  -0.615  -1.842  1.00  0.00     0.015 A 
BRANCH  24  29
HETATM   29  O1  UNL     1      -2.959  -0.013   1.437  1.00  0.00    -0.351 OA
BRANCH  29  30
HETATM   30  C2  UNL     1      -3.680  -0.586   2.487  1.00  0.00     0.171 C 
HETATM   31  C1  UNL     1      -3.023  -1.783   3.114  1.00  0.00     0.034 C 
ENDBRANCH  29  30
ENDBRANCH  24  29
ENDBRANCH   1  23
TORSDOF 5
