REMARK  6 active torsions:
REMARK  status: ('A' for Active; 'I' for Inactive)
REMARK    1  A    between atoms: C7_7  and  C8_8 
REMARK    2  A    between atoms: C8_8  and  C9_10 
REMARK    3  A    between atoms: C10_11  and  C11_12 
REMARK    4  A    between atoms: C17_18  and  O2_19 
REMARK    5  A    between atoms: C20_23  and  C21_24 
REMARK    6  A    between atoms: C22_25  and  C23_26 
ROOT
HETATM    1  C11 UNL     1       0.110   0.885  -0.610  1.00  0.00    -0.025 A 
HETATM    2  C12 UNL     1      -0.414   2.152  -0.728  1.00  0.00     0.024 A 
HETATM    3  C13 UNL     1       0.317   3.301  -0.633  1.00  0.00    -0.022 A 
HETATM    4  C14 UNL     1      -0.295   4.533  -0.761  1.00  0.00     0.012 A 
HETATM    5  C15 UNL     1       0.490   5.655  -0.657  1.00  0.00     0.004 A 
HETATM    6  C16 UNL     1       1.849   5.563  -0.430  1.00  0.00     0.037 A 
HETATM    7  C17 UNL     1       2.450   4.312  -0.302  1.00  0.00     0.076 A 
HETATM    8  C18 UNL     1       1.668   3.178  -0.406  1.00  0.00     0.008 A 
HETATM    9  C19 UNL     1       2.256   1.930  -0.281  1.00  0.00     0.027 A 
HETATM   10  C20 UNL     1       1.514   0.801  -0.376  1.00  0.00    -0.025 A 
ENDROOT
BRANCH   1  11
HETATM   11  C10 UNL     1      -0.651  -0.343  -0.613  1.00  0.00     0.016 C 
HETATM   12  C9  UNL     1      -1.809  -0.656  -0.228  1.00  0.00     0.056 C 
BRANCH  12  13
HETATM   13  C8  UNL     1      -2.914  -0.029   0.385  1.00  0.00     0.182 C 
HETATM   14  O1  UNL     1      -2.865   1.190   0.782  1.00  0.00    -0.288 OA
BRANCH  13  15
HETATM   15  C7  UNL     1      -4.224  -0.618   0.666  1.00  0.00     0.020 A 
HETATM   16  C2  UNL     1      -4.822  -1.524  -0.126  1.00  0.00    -0.048 A 
HETATM   17  C1  UNL     1      -4.272  -1.938  -1.442  1.00  0.00     0.049 C 
HETATM   18  C3  UNL     1      -6.067  -2.100   0.244  1.00  0.00     0.007 A 
HETATM   19  C4  UNL     1      -6.700  -1.759   1.406  1.00  0.00     0.001 A 
HETATM   20  C5  UNL     1      -6.093  -0.834   2.214  1.00  0.00     0.001 A 
HETATM   21  C6  UNL     1      -4.889  -0.273   1.865  1.00  0.00     0.016 A 
ENDBRANCH  13  15
ENDBRANCH  12  13
ENDBRANCH   1  11
BRANCH  10  22
HETATM   22  C21 UNL     1       2.078  -0.542  -0.199  1.00  0.00     0.013 C 
HETATM   23  C22 UNL     1       3.396  -0.689  -0.040  1.00  0.00     0.012 C 
BRANCH  23  24
HETATM   24  C23 UNL     1       4.036  -1.986   0.142  1.00  0.00    -0.036 A 
HETATM   25  C24 UNL     1       5.416  -2.071   0.304  1.00  0.00     0.011 A 
HETATM   26  C25 UNL     1       6.057  -3.277   0.478  1.00  0.00     0.001 A 
HETATM   27  C26 UNL     1       5.371  -4.469   0.502  1.00  0.00     0.000 A 
HETATM   28  C27 UNL     1       4.008  -4.399   0.343  1.00  0.00     0.001 A 
HETATM   29  C28 UNL     1       3.347  -3.171   0.165  1.00  0.00     0.011 A 
ENDBRANCH  23  24
ENDBRANCH  10  22
BRANCH   7  30
HETATM   30  O2  UNL     1       3.808   4.176  -0.075  1.00  0.00    -0.360 OA
ATOM     31  H2  UNL     1       4.218   3.323   0.012  1.00  0.00     0.217 HD
ENDBRANCH   7  30
TORSDOF 6
