REMARK  4 active torsions:
REMARK  status: ('A' for Active; 'I' for Inactive)
REMARK    1  A    between atoms: C1_1  and  C24_28 
REMARK    2  A    between atoms: C2_2  and  C3_3 
REMARK    3  A    between atoms: C7_7  and  C8_8 
REMARK    4  A    between atoms: C9_11  and  C10_12 
ROOT
HETATM    1  C8  UNL     1      -0.604   0.480   0.337  1.00  0.00     0.116 A 
HETATM    2  N1  UNL     1      -1.451   1.505   0.515  1.00  0.00    -0.339 N 
ATOM      3  H1  UNL     1      -1.177   2.427   0.854  1.00  0.00     0.167 HD
HETATM    4  C9  UNL     1      -2.707   1.159   0.189  1.00  0.00     0.072 A 
HETATM    5  C16 UNL     1      -2.634  -0.166  -0.218  1.00  0.00     0.072 A 
HETATM    6  C17 UNL     1      -3.723  -1.001  -0.670  1.00  0.00    -0.007 A 
HETATM    7  C18 UNL     1      -3.712  -1.513  -1.935  1.00  0.00     0.014 A 
HETATM    8  C19 UNL     1      -4.752  -2.324  -2.402  1.00  0.00     0.001 A 
HETATM    9  C20 UNL     1      -5.780  -2.575  -1.523  1.00  0.00     0.000 A 
HETATM   10  C21 UNL     1      -5.836  -2.081  -0.240  1.00  0.00     0.001 A 
HETATM   11  C22 UNL     1      -4.766  -1.278   0.166  1.00  0.00     0.014 A 
HETATM   12  N2  UNL     1      -1.337  -0.546  -0.115  1.00  0.00    -0.339 N 
ATOM     13  H2  UNL     1      -0.975  -1.471  -0.346  1.00  0.00     0.167 HD
ENDROOT
BRANCH   1  14
HETATM   14  C7  UNL     1       0.857   0.478   0.589  1.00  0.00     0.009 A 
HETATM   15  C6  UNL     1       1.487   1.601   1.052  1.00  0.00     0.015 A 
HETATM   16  C5  UNL     1       2.832   1.612   1.291  1.00  0.00     0.002 A 
HETATM   17  C4  UNL     1       3.528   0.460   1.050  1.00  0.00     0.011 A 
HETATM   18  C3  UNL     1       2.990  -0.713   0.585  1.00  0.00    -0.035 A 
HETATM   19  C23 UNL     1       1.589  -0.645   0.363  1.00  0.00     0.026 A 
BRANCH  18  20
HETATM   20  C2  UNL     1       3.689  -1.919   0.252  1.00  0.00     0.012 C 
HETATM   21  C1  UNL     1       4.862  -2.195  -0.117  1.00  0.00     0.012 C 
BRANCH  21  22
HETATM   22  C24 UNL     1       6.052  -1.480  -0.404  1.00  0.00    -0.036 A 
HETATM   23  C25 UNL     1       7.318  -2.069  -0.222  1.00  0.00     0.011 A 
HETATM   24  C26 UNL     1       8.475  -1.468  -0.615  1.00  0.00     0.001 A 
HETATM   25  C27 UNL     1       8.470  -0.243  -1.216  1.00  0.00     0.000 A 
HETATM   26  C28 UNL     1       7.257   0.368  -1.415  1.00  0.00     0.001 A 
HETATM   27  C29 UNL     1       6.091  -0.246  -1.016  1.00  0.00     0.011 A 
ENDBRANCH  21  22
ENDBRANCH  18  20
ENDBRANCH   1  14
BRANCH   4  28
HETATM   28  C10 UNL     1      -3.910   1.982   0.243  1.00  0.00    -0.007 A 
HETATM   29  C11 UNL     1      -4.359   2.529   1.426  1.00  0.00     0.014 A 
HETATM   30  C12 UNL     1      -5.492   3.309   1.502  1.00  0.00     0.001 A 
HETATM   31  C13 UNL     1      -6.228   3.569   0.353  1.00  0.00     0.000 A 
HETATM   32  C14 UNL     1      -5.810   3.040  -0.848  1.00  0.00     0.001 A 
HETATM   33  C15 UNL     1      -4.671   2.264  -0.887  1.00  0.00     0.014 A 
ENDBRANCH   4  28
TORSDOF 4
